@<TRIPOS>MOLECULE
NONAME
51 53 1 0 0 
SMALL
USER_CHARGES


@<TRIPOS>ATOM
  1 S        0.5680     1.1620     2.3560 S.3   1 <1>  -0.0800 
  2 C        0.8060     2.8320     2.8140 C.2   1 <1>   0.2280 
  3 C        0.9090     1.5890     0.7050 C.2   1 <1>  -0.1100 
  4 N        1.1100     3.6080     1.8460 N.2   1 <1>  -0.5650 
  5 C        1.1630     2.9060     0.6410 C.2   1 <1>   0.0460 
  6 C        1.5200     3.6950    -0.6130 C.3   1 <1>   0.5240 
  7 N        2.5110     4.7460    -0.2070 N.4   1 <1>  -0.9590 
  8 C        2.0960     6.1310    -0.6020 C.3   1 <1>   0.4230 
  9 C        3.9030     4.3390    -0.6110 C.3   1 <1>   0.3430 
 10 C        3.2000     7.1550    -0.2950 C.3   1 <1>  -0.1600 
 11 C        0.8160     6.5210     0.1570 C.3   1 <1>  -0.1600 
 12 C        4.3940     3.0570     0.0720 C.3   1 <1>  -0.0170 
 13 C        2.7460     8.5910    -0.5580 C.3   1 <1>   0.3430 
 14 C        0.3960     7.9640    -0.1200 C.3   1 <1>   0.3430 
 15 C        5.8220     2.8020    -0.3630 C.ar  1 <1>   0.1660 
 16 N        1.5100     8.8890     0.2200 N.4   1 <1>  -0.9590 
 17 N        6.0610     2.9720    -1.6540 N.ar  1 <1>  -0.6200 
 18 C        6.7790     2.4190     0.5640 C.ar  1 <1>  -0.1500 
 19 C        1.0700    10.3030     0.0320 C.3   1 <1>   0.3430 
 20 C        7.3090     2.7440    -2.0390 C.ar  1 <1>   0.1600 
 21 C        8.0740     2.1930     0.1490 C.ar  1 <1>  -0.1500 
 22 C        2.0170    11.2400     0.7720 C.3   1 <1>  -0.2400 
 23 C        8.3350     2.3620    -1.1930 C.ar  1 <1>  -0.1500 
 24 H        0.6820     3.0690     3.8590 H     1 <1>   0.1500 
 25 H        0.8780     0.7980    -0.0260 H     1 <1>   0.1500 
 26 H        0.6250     4.1470    -1.0040 H     1 <1>   0.0800 
 27 H        1.9280     3.0410    -1.3660 H     1 <1>   0.0800 
 28 H        2.4520     4.6870     0.8280 H     1 <1>   0.4500 
 29 H        1.8980     6.1510    -1.6630 H     1 <1>   0.0800 
 30 H        4.6040     5.1140    -0.3540 H     1 <1>   0.0800 
 31 H        3.9500     4.2050    -1.6810 H     1 <1>   0.0800 
 32 H        4.0520     6.9840    -0.9290 H     1 <1>   0.0800 
 33 H        3.5170     7.0730     0.7300 H     1 <1>   0.0800 
 34 H        0.9600     6.4040     1.2170 H     1 <1>   0.0800 
 35 H       -0.0050     5.8910    -0.1340 H     1 <1>   0.0800 
 36 H        3.8100     2.2080    -0.2310 H     1 <1>   0.0800 
 37 H        4.3480     3.1610     1.1410 H     1 <1>   0.0800 
 38 H        2.5550     8.7280    -1.6110 H     1 <1>   0.0800 
 39 H        3.5350     9.2700    -0.2740 H     1 <1>   0.0800 
 40 H       -0.4730     8.2040     0.4740 H     1 <1>   0.0800 
 41 H        0.1320     8.0770    -1.1600 H     1 <1>   0.0800 
 42 H        1.7210     8.7930     1.2250 H     1 <1>   0.4500 
 43 H        6.5270     2.2930     1.6020 H     1 <1>   0.1500 
 44 H        0.0760    10.4320     0.4340 H     1 <1>   0.0800 
 45 H        1.0420    10.5550    -1.0170 H     1 <1>   0.0800 
 46 H        7.5290     2.8680    -3.0870 H     1 <1>   0.1500 
 47 H        8.8450     1.8940     0.8390 H     1 <1>   0.1500 
 48 H        2.0660    10.9930     1.8180 H     1 <1>   0.0800 
 49 H        1.6440    12.2470     0.6920 H     1 <1>   0.0800 
 50 H        3.0040    11.2280     0.3480 H     1 <1>   0.0800 
 51 H        9.3240     2.1970    -1.5820 H     1 <1>   0.1500 
@<TRIPOS>BOND
  1   1   2  1   
  2   1   3  1   
  3   2   4  2   
  4   2  24  1   
  5   3   5  2   
  6   3  25  1   
  7   4   5  1   
  8   5   6  1   
  9   6   7  1   
 10   6  26  1   
 11   6  27  1   
 12   7   8  1   
 13   7   9  1   
 14   7  28  1   
 15   8  10  1   
 16   8  11  1   
 17   8  29  1   
 18   9  12  1   
 19   9  30  1   
 20   9  31  1   
 21  10  13  1   
 22  10  32  1   
 23  10  33  1   
 24  11  14  1   
 25  11  34  1   
 26  11  35  1   
 27  12  15  1   
 28  12  36  1   
 29  12  37  1   
 30  13  16  1   
 31  13  38  1   
 32  13  39  1   
 33  14  16  1   
 34  14  40  1   
 35  14  41  1   
 36  15  17  ar  
 37  15  18  ar  
 38  16  19  1   
 39  16  42  1   
 40  17  20  ar  
 41  18  21  ar  
 42  18  43  1   
 43  19  22  1   
 44  19  44  1   
 45  19  45  1   
 46  20  23  ar  
 47  20  46  1   
 48  21  23  ar  
 49  21  47  1   
 50  22  48  1   
 51  22  49  1   
 52  22  50  1   
 53  23  51  1   
@<TRIPOS>SUBSTRUCTURE
  1 ****   7 GROUP 4 **** **** 0

# MOE 2024.06 (io_trps.svl 2023.06)
