@<TRIPOS>MOLECULE
NONAME
50 52 1 0 0 
SMALL
USER_CHARGES


@<TRIPOS>ATOM
  1 CL      -2.1440    -0.7190    -0.8350 Cl    1 <1>  -0.1770 
  2 C       -1.5860    -2.3590    -0.5850 C.ar  1 <1>   0.1770 
  3 C       -0.7140    -2.9360    -1.4980 C.ar  1 <1>   0.0830 
  4 C       -2.0270    -3.0600     0.5210 C.ar  1 <1>  -0.1500 
  5 O       -0.2910    -2.2560    -2.5790 O.3   1 <1>  -0.5330 
  6 C       -0.2750    -4.2320    -1.2940 C.ar  1 <1>  -0.1500 
  7 C       -1.5980    -4.3660     0.7200 C.ar  1 <1>  -0.1440 
  8 C       -0.7150    -4.9400    -0.1870 C.ar  1 <1>  -0.1500 
  9 C       -2.0910    -5.1720     1.9200 C.3   1 <1>   0.0440 
 10 C       -2.6450    -6.5370     1.5240 C.2   1 <1>   0.5690 
 11 O       -2.1210    -7.5120     2.0100 O.2   1 <1>  -0.5700 
 12 N       -3.6980    -6.6770     0.6490 N.am  1 <1>  -0.6600 
 13 C       -4.0570    -8.0160     0.1040 C.3   1 <1>   0.1400 
 14 C       -4.5540    -5.5620     0.1520 C.3   1 <1>   0.1400 
 15 C       -5.5320    -8.3440     0.4180 C.3   1 <1>   0.4230 
 16 C       -6.0170    -5.8770     0.4830 C.3   1 <1>  -0.1600 
 17 N       -5.9430    -9.7580     0.0260 N.4   1 <1>  -0.9590 
 18 C       -6.5060    -7.2390    -0.0900 C.3   1 <1>   0.0000 
 19 C       -7.4260    -9.9620    -0.0700 C.3   1 <1>   0.3430 
 20 C       -5.2740   -10.3120    -1.1980 C.3   1 <1>   0.2630 
 21 C       -7.9360    -7.5230     0.4560 C.3   1 <1>  -0.1600 
 22 C       -6.5140    -7.2000    -1.6450 C.3   1 <1>   0.1200 
 23 C       -8.1730    -8.9950     0.8470 C.3   1 <1>  -0.1600 
 24 O       -7.1990    -6.0970    -2.1250 O.3   1 <1>  -0.6800 
 25 H       -2.6980    -2.5800     1.2100 H     1 <1>   0.1500 
 26 H       -0.6600    -1.3520    -2.6160 H     1 <1>   0.4500 
 27 H        0.4060    -4.6770    -1.9970 H     1 <1>   0.1500 
 28 H       -0.3640    -5.9480    -0.0380 H     1 <1>   0.1500 
 29 H       -2.8490    -4.6350     2.4560 H     1 <1>   0.0800 
 30 H       -1.2660    -5.3190     2.5940 H     1 <1>   0.0800 
 31 H       -3.8780    -8.0030    -0.9550 H     1 <1>   0.0800 
 32 H       -3.4300    -8.7750     0.5380 H     1 <1>   0.0800 
 33 H       -4.2880    -4.6310     0.6170 H     1 <1>   0.0800 
 34 H       -4.4180    -5.4460    -0.9110 H     1 <1>   0.0800 
 35 H       -5.5990    -8.3010     1.4930 H     1 <1>   0.0800 
 36 H       -6.1110    -5.8750     1.5560 H     1 <1>   0.0800 
 37 H       -6.6330    -5.0720     0.1210 H     1 <1>   0.0800 
 38 H       -5.6320   -10.3420     0.8180 H     1 <1>   0.4500 
 39 H       -7.7530    -9.7900    -1.0830 H     1 <1>   0.0800 
 40 H       -7.6740   -10.9790     0.1900 H     1 <1>   0.0800 
 41 H       -5.5210    -9.7220    -2.0640 H     1 <1>   0.0800 
 42 H       -5.5960   -11.3270    -1.3720 H     1 <1>   0.0800 
 43 H       -4.2030   -10.3160    -1.0750 H     1 <1>   0.0800 
 44 H       -8.1360    -6.9250     1.3300 H     1 <1>   0.0800 
 45 H       -8.6730    -7.2350    -0.2730 H     1 <1>   0.0800 
 46 H       -6.9800    -8.0740    -2.0610 H     1 <1>   0.0800 
 47 H       -5.5160    -7.1280    -2.0410 H     1 <1>   0.0800 
 48 H       -9.2270    -9.2060     0.8010 H     1 <1>   0.0800 
 49 H       -7.8630    -9.1640     1.8640 H     1 <1>   0.0800 
 50 H       -8.1490    -6.1180    -1.8930 H     1 <1>   0.4000 
@<TRIPOS>BOND
  1   1   2  1   
  2   2   3  ar  
  3   2   4  ar  
  4   3   5  1   
  5   3   6  ar  
  6   4   7  ar  
  7   4  25  1   
  8   5  26  1   
  9   6   8  ar  
 10   6  27  1   
 11   7   8  ar  
 12   7   9  1   
 13   8  28  1   
 14   9  10  1   
 15   9  29  1   
 16   9  30  1   
 17  10  11  2   
 18  10  12  am  
 19  12  13  1   
 20  12  14  1   
 21  13  15  1   
 22  13  31  1   
 23  13  32  1   
 24  14  16  1   
 25  14  33  1   
 26  14  34  1   
 27  15  17  1   
 28  15  18  1   
 29  15  35  1   
 30  16  18  1   
 31  16  36  1   
 32  16  37  1   
 33  17  19  1   
 34  17  20  1   
 35  17  38  1   
 36  18  21  1   
 37  18  22  1   
 38  19  23  1   
 39  19  39  1   
 40  19  40  1   
 41  20  41  1   
 42  20  42  1   
 43  20  43  1   
 44  21  23  1   
 45  21  44  1   
 46  21  45  1   
 47  22  24  1   
 48  22  46  1   
 49  22  47  1   
 50  23  48  1   
 51  23  49  1   
 52  24  50  1   
@<TRIPOS>SUBSTRUCTURE
  1 ****  14 GROUP 4 **** **** 0

# MOE 2024.06 (io_trps.svl 2023.06)
