@<TRIPOS>MOLECULE
NONAME
48 51 1 0 0 
SMALL
USER_CHARGES


@<TRIPOS>ATOM
  1 O       -1.8130     0.0100    -0.6180 O.2   1 <1>  -0.5700 
  2 C       -2.1770     0.7420     0.2740 C.2   1 <1>   0.9370 
  3 N       -1.7980     2.1150     0.2510 N.pl3 1 <1>  -0.5760 
  4 C       -3.0300     0.2510     1.3000 C.2   1 <1>   0.0290 
  5 C       -2.4900     2.9720     1.0570 C.cat 1 <1>   0.7390 
  6 C       -0.7930     2.6460    -0.5530 C.2   1 <1>   0.2030 
  7 C       -3.2200    -1.1500     1.4800 C.2   1 <1>   0.6160 
  8 C       -3.6120     1.1450     2.1290 C.2   1 <1>   0.1910 
  9 N       -3.3760     2.4790     1.9570 N.pl3 1 <1>  -0.6450 
 10 C       -2.2850     4.3540     0.9880 C.2   1 <1>  -0.1800 
 11 C       -0.5840     4.0000    -0.6100 C.2   1 <1>  -0.1500 
 12 C        0.1440     1.7780    -1.3910 C.3   1 <1>  -0.1020 
 13 O       -2.9450    -1.6080     2.5690 O.2   1 <1>  -0.5700 
 14 N       -3.7620    -1.9870     0.5350 N.am  1 <1>  -0.6600 
 15 C       -1.3430     4.8830     0.1550 C.2   1 <1>  -0.1500 
 16 C       -4.3980    -1.6100    -0.7570 C.3   1 <1>   0.1400 
 17 C       -3.9040    -3.4530     0.7560 C.3   1 <1>   0.1400 
 18 C       -5.3510    -2.7640    -1.0600 C.3   1 <1>   0.2000 
 19 C       -4.6230    -3.9870    -0.4920 C.3   1 <1>  -0.0800 
 20 O       -6.5260    -2.5470    -0.3550 O.3   1 <1>  -0.6800 
 21 C       -5.5200    -5.2110    -0.2250 C.3   1 <1>   0.0200 
 22 C       -4.7370    -6.4420     0.2010 C.2   1 <1>  -0.0400 
 23 O       -5.3980    -7.4980     0.5950 O.3   1 <1>  -0.0190 
 24 C       -3.4270    -6.7330     0.2720 C.2   1 <1>  -0.1500 
 25 N       -4.6050    -8.4740     0.9290 N.2   1 <1>  -0.4100 
 26 C       -3.4110    -8.0410     0.7450 C.2   1 <1>   0.1080 
 27 C       -2.1620    -8.8520     1.0100 C.3   1 <1>  -0.0590 
 28 H       -4.2620     0.8330     2.9360 H     1 <1>   0.1500 
 29 H       -3.8400     3.1560     2.5750 H     1 <1>   0.4500 
 30 H       -2.8750     5.0070     1.6060 H     1 <1>   0.1500 
 31 H        0.1800     4.4180    -1.2450 H     1 <1>   0.1500 
 32 H        0.5780     1.0000    -0.7890 H     1 <1>   0.0800 
 33 H        0.9520     2.3580    -1.8010 H     1 <1>   0.0800 
 34 H       -0.3880     1.3360    -2.2140 H     1 <1>   0.0800 
 35 H       -1.1690     5.9460     0.0850 H     1 <1>   0.1500 
 36 H       -4.9220    -0.6720    -0.7030 H     1 <1>   0.0800 
 37 H       -3.6420    -1.5640    -1.5230 H     1 <1>   0.0800 
 38 H       -2.9380    -3.9100     0.8840 H     1 <1>   0.0800 
 39 H       -4.4930    -3.6230     1.6430 H     1 <1>   0.0800 
 40 H       -5.5890    -2.8510    -2.1060 H     1 <1>   0.0800 
 41 H       -3.8690    -4.2710    -1.2060 H     1 <1>   0.0800 
 42 H       -6.3260    -2.4820     0.5990 H     1 <1>   0.4000 
 43 H       -6.0700    -5.4520    -1.1180 H     1 <1>   0.0800 
 44 H       -6.2360    -4.9840     0.5450 H     1 <1>   0.0800 
 45 H       -2.5650    -6.1400     0.0320 H     1 <1>   0.1500 
 46 H       -1.5630    -8.3650     1.7570 H     1 <1>   0.0800 
 47 H       -1.5910    -8.9500     0.1050 H     1 <1>   0.0800 
 48 H       -2.4280    -9.8320     1.3610 H     1 <1>   0.0800 
@<TRIPOS>BOND
  1   1   2  2   
  2   2   3  1   
  3   2   4  1   
  4   3   5  ar  
  5   3   6  1   
  6   4   7  1   
  7   4   8  2   
  8   5   9  ar  
  9   5  10  1   
 10   6  11  2   
 11   6  12  1   
 12   7  13  2   
 13   7  14  am  
 14   8   9  1   
 15   8  28  1   
 16   9  29  1   
 17  10  15  2   
 18  10  30  1   
 19  11  15  1   
 20  11  31  1   
 21  12  32  1   
 22  12  33  1   
 23  12  34  1   
 24  14  16  1   
 25  14  17  1   
 26  15  35  1   
 27  16  18  1   
 28  16  36  1   
 29  16  37  1   
 30  17  19  1   
 31  17  38  1   
 32  17  39  1   
 33  18  19  1   
 34  18  20  1   
 35  18  40  1   
 36  19  21  1   
 37  19  41  1   
 38  20  42  1   
 39  21  22  1   
 40  21  43  1   
 41  21  44  1   
 42  22  23  1   
 43  22  24  2   
 44  23  25  1   
 45  24  26  1   
 46  24  45  1   
 47  25  26  2   
 48  26  27  1   
 49  27  46  1   
 50  27  47  1   
 51  27  48  1   
@<TRIPOS>SUBSTRUCTURE
  1 ****  14 GROUP 4 **** **** 0

# MOE 2024.06 (io_trps.svl 2023.06)
