@<TRIPOS>MOLECULE
NONAME
47 50 1 0 0 
SMALL
USER_CHARGES


@<TRIPOS>ATOM
  1 S       -0.6250     1.1190     1.4770 S.o2  1 <1>   1.2040 
  2 O       -1.4840     2.2420     1.7820 O.2   1 <1>  -0.6500 
  3 O        0.1790     0.5300     2.5270 O.2   1 <1>  -0.6500 
  4 C       -1.5780    -0.1690     0.6400 C.ar  1 <1>  -0.0090 
  5 C        0.4960     1.6290     0.1880 C.3   1 <1>  -0.0550 
  6 C       -2.7080     0.1470    -0.1050 C.ar  1 <1>  -0.1500 
  7 C       -1.1830    -1.5020     0.6920 C.ar  1 <1>  -0.1500 
  8 C        1.3780     2.7790     0.6580 C.3   1 <1>   0.1100 
  9 C       -3.4200    -0.8310    -0.7790 C.ar  1 <1>  -0.1500 
 10 C       -1.8890    -2.4850     0.0200 C.ar  1 <1>  -0.1500 
 11 N        2.3230     3.1370    -0.4080 N.3   1 <1>  -0.8100 
 12 C       -3.0090    -2.1490    -0.7180 C.ar  1 <1>  -0.1500 
 13 C        2.8950     4.4820    -0.2320 C.3   1 <1>   0.3700 
 14 C        3.4670     2.2290    -0.5060 C.3   1 <1>   0.1100 
 15 C        1.9150     5.6210    -0.5320 C.2   1 <1>   0.2980 
 16 C        4.1140     4.4820    -1.1520 C.3   1 <1>  -0.1600 
 17 C        4.5450     3.0180    -1.2430 C.3   1 <1>  -0.1600 
 18 O        1.2830     5.6280    -1.6770 O.3   1 <1>  -0.0190 
 19 N        1.6440     6.5940     0.2430 N.2   1 <1>  -0.5650 
 20 N        0.5510     6.6960    -1.6310 N.2   1 <1>  -0.4100 
 21 C        0.7590     7.2670    -0.4980 C.2   1 <1>   0.4620 
 22 C        0.1370     8.4960    -0.0460 C.ar  1 <1>   0.0540 
 23 C        0.3620     9.0420     1.2110 C.ar  1 <1>  -0.1500 
 24 C       -0.7360     9.2280    -0.8410 C.ar  1 <1>  -0.1500 
 25 C       -0.2540    10.2200     1.5880 C.ar  1 <1>   0.1600 
 26 C       -1.3020    10.3980    -0.3720 C.ar  1 <1>   0.1600 
 27 N       -1.0810    10.9150     0.8250 N.ar  1 <1>  -0.6200 
 28 H        1.1110     0.7990    -0.0950 H     1 <1>   0.0800 
 29 H       -0.0610     1.9540    -0.6700 H     1 <1>   0.0800 
 30 H       -3.0400     1.1710    -0.1560 H     1 <1>   0.1500 
 31 H       -0.3150    -1.7760     1.2680 H     1 <1>   0.1500 
 32 H        1.9060     2.5100     1.5580 H     1 <1>   0.0800 
 33 H        0.7430     3.6220     0.8820 H     1 <1>   0.0800 
 34 H       -4.2940    -0.5650    -1.3490 H     1 <1>   0.1500 
 35 H       -1.5680    -3.5120     0.0740 H     1 <1>   0.1500 
 36 H       -3.5600    -2.9120    -1.2410 H     1 <1>   0.1500 
 37 H        3.2370     4.5830     0.7850 H     1 <1>   0.0800 
 38 H        3.8220     1.9700     0.4790 H     1 <1>   0.0800 
 39 H        3.2030     1.3320    -1.0400 H     1 <1>   0.0800 
 40 H        3.8350     4.8390    -2.1280 H     1 <1>   0.0800 
 41 H        4.8910     5.1140    -0.7600 H     1 <1>   0.0800 
 42 H        5.5060     2.8560    -0.7880 H     1 <1>   0.0800 
 43 H        4.5900     2.7050    -2.2720 H     1 <1>   0.0800 
 44 H        1.0210     8.5450     1.9000 H     1 <1>   0.1500 
 45 H       -0.9740     8.8850    -1.8320 H     1 <1>   0.1500 
 46 H       -0.0570    10.6130     2.5710 H     1 <1>   0.1500 
 47 H       -1.9740    10.9410    -1.0160 H     1 <1>   0.1500 
@<TRIPOS>BOND
  1   1   2  2   
  2   1   3  2   
  3   1   4  1   
  4   1   5  1   
  5   4   6  ar  
  6   4   7  ar  
  7   5   8  1   
  8   5  28  1   
  9   5  29  1   
 10   6   9  ar  
 11   6  30  1   
 12   7  10  ar  
 13   7  31  1   
 14   8  11  1   
 15   8  32  1   
 16   8  33  1   
 17   9  12  ar  
 18   9  34  1   
 19  10  12  ar  
 20  10  35  1   
 21  11  13  1   
 22  11  14  1   
 23  12  36  1   
 24  13  15  1   
 25  13  16  1   
 26  13  37  1   
 27  14  17  1   
 28  14  38  1   
 29  14  39  1   
 30  15  18  1   
 31  15  19  2   
 32  16  17  1   
 33  16  40  1   
 34  16  41  1   
 35  17  42  1   
 36  17  43  1   
 37  18  20  1   
 38  19  21  1   
 39  20  21  2   
 40  21  22  1   
 41  22  23  ar  
 42  22  24  ar  
 43  23  25  ar  
 44  23  44  1   
 45  24  26  ar  
 46  24  45  1   
 47  25  27  ar  
 48  25  46  1   
 49  26  27  ar  
 50  26  47  1   
@<TRIPOS>SUBSTRUCTURE
  1 ****   8 GROUP 4 **** **** 0

# MOE 2024.06 (io_trps.svl 2023.06)
