@<TRIPOS>MOLECULE
NONAME
54 57 1 0 0 
SMALL
USER_CHARGES


@<TRIPOS>ATOM
  1 O        0.2090    -0.8000     0.1110 O.3   1 <1>  -0.2800 
  2 C        0.8840    -1.7590    -0.4970 C.2   1 <1>  -0.0400 
  3 C        0.4200     0.3200    -0.5510 C.2   1 <1>  -0.0100 
  4 C        1.5390    -1.2650    -1.5710 C.2   1 <1>  -0.1500 
  5 C        0.8250    -3.1720     0.0540 C.3   1 <1>   0.5230 
  6 C        1.2330     0.1010    -1.6050 C.2   1 <1>  -0.1500 
  7 N       -0.6040    -3.6190     0.0740 N.4   1 <1>  -0.9590 
  8 C       -1.2910    -3.1280     1.3060 C.3   1 <1>   0.3430 
  9 C       -0.7190    -5.0900    -0.1280 C.3   1 <1>   0.3430 
 10 C       -2.7690    -3.5170     1.2680 C.3   1 <1>  -0.1600 
 11 C       -2.1930    -5.4880    -0.1810 C.3   1 <1>  -0.1600 
 12 C       -2.9230    -5.0270     1.0870 C.3   1 <1>   0.4230 
 13 N       -4.3660    -5.3940     1.0800 N.4   1 <1>  -0.9590 
 14 C       -5.2250    -4.9300    -0.0570 C.3   1 <1>   0.3430 
 15 C       -4.6310    -6.8650     1.2310 C.3   1 <1>   0.3430 
 16 C       -6.4290    -5.8710    -0.0210 C.3   1 <1>   0.2000 
 17 C       -5.7860    -7.2220     0.2800 C.3   1 <1>  -0.0800 
 18 O       -7.2090    -5.5110     1.0710 O.3   1 <1>  -0.6800 
 19 C       -5.2940    -7.9050    -1.0150 C.3   1 <1>  -0.0170 
 20 C       -4.4980    -9.1690    -0.7360 C.ar  1 <1>   0.1670 
 21 N       -3.2030    -9.0050    -0.4970 N.ar  1 <1>  -0.6200 
 22 C       -5.1410   -10.3980    -0.7460 C.ar  1 <1>  -0.1500 
 23 C       -2.5230   -10.1230    -0.2740 C.ar  1 <1>   0.1600 
 24 C       -4.4200   -11.5460    -0.5020 C.ar  1 <1>  -0.1500 
 25 C       -3.0730   -11.3920    -0.2620 C.ar  1 <1>  -0.1500 
 26 H       -0.0420     1.2310    -0.2080 H     1 <1>   0.1500 
 27 H        2.1760    -1.7630    -2.2820 H     1 <1>   0.1500 
 28 H        1.2480    -3.1990     1.0450 H     1 <1>   0.0800 
 29 H        1.4090    -3.8120    -0.5860 H     1 <1>   0.0800 
 30 H        1.5940     0.8070    -2.3350 H     1 <1>   0.1500 
 31 H       -1.0180    -3.1250    -0.7310 H     1 <1>   0.4500 
 32 H       -0.8240    -3.5550     2.1800 H     1 <1>   0.0800 
 33 H       -1.2080    -2.0540     1.3770 H     1 <1>   0.0800 
 34 H       -0.2370    -5.3770    -1.0510 H     1 <1>   0.0800 
 35 H       -0.2300    -5.6110     0.6810 H     1 <1>   0.0800 
 36 H       -3.2470    -2.9790     0.4680 H     1 <1>   0.0800 
 37 H       -3.2210    -3.2140     2.1960 H     1 <1>   0.0800 
 38 H       -2.2390    -6.5570    -0.2650 H     1 <1>   0.0800 
 39 H       -2.6300    -5.0610    -1.0640 H     1 <1>   0.0800 
 40 H       -2.4600    -5.5110     1.9340 H     1 <1>   0.0800 
 41 H       -4.8230    -4.9790     1.9080 H     1 <1>   0.4500 
 42 H       -5.5340    -3.9040     0.0570 H     1 <1>   0.0800 
 43 H       -4.7110    -5.0530    -0.9940 H     1 <1>   0.0800 
 44 H       -3.7520    -7.4440     1.0200 H     1 <1>   0.0800 
 45 H       -4.9320    -7.0710     2.2460 H     1 <1>   0.0800 
 46 H       -7.0280    -5.8400    -0.9160 H     1 <1>   0.0800 
 47 H       -6.4770    -7.8870     0.7690 H     1 <1>   0.0800 
 48 H       -8.0820    -5.9600     1.0530 H     1 <1>   0.4000 
 49 H       -4.6750    -7.2420    -1.5920 H     1 <1>   0.0800 
 50 H       -6.1430    -8.1570    -1.6280 H     1 <1>   0.0800 
 51 H       -6.1950   -10.4670    -0.9460 H     1 <1>   0.1500 
 52 H       -1.4660   -10.0300    -0.0900 H     1 <1>   0.1500 
 53 H       -4.8850   -12.5180    -0.5020 H     1 <1>   0.1500 
 54 H       -2.4520   -12.2490    -0.0700 H     1 <1>   0.1500 
@<TRIPOS>BOND
  1   1   2  1   
  2   1   3  1   
  3   2   4  2   
  4   2   5  1   
  5   3   6  2   
  6   3  26  1   
  7   4   6  1   
  8   4  27  1   
  9   5   7  1   
 10   5  28  1   
 11   5  29  1   
 12   6  30  1   
 13   7   8  1   
 14   7   9  1   
 15   7  31  1   
 16   8  10  1   
 17   8  32  1   
 18   8  33  1   
 19   9  11  1   
 20   9  34  1   
 21   9  35  1   
 22  10  12  1   
 23  10  36  1   
 24  10  37  1   
 25  11  12  1   
 26  11  38  1   
 27  11  39  1   
 28  12  13  1   
 29  12  40  1   
 30  13  14  1   
 31  13  15  1   
 32  13  41  1   
 33  14  16  1   
 34  14  42  1   
 35  14  43  1   
 36  15  17  1   
 37  15  44  1   
 38  15  45  1   
 39  16  17  1   
 40  16  18  1   
 41  16  46  1   
 42  17  19  1   
 43  17  47  1   
 44  18  48  1   
 45  19  20  1   
 46  19  49  1   
 47  19  50  1   
 48  20  21  ar  
 49  20  22  ar  
 50  21  23  ar  
 51  22  24  ar  
 52  22  51  1   
 53  23  25  ar  
 54  23  52  1   
 55  24  25  ar  
 56  24  53  1   
 57  25  54  1   
@<TRIPOS>SUBSTRUCTURE
  1 ****  11 GROUP 4 **** **** 0

# MOE 2024.06 (io_trps.svl 2023.06)
