@<TRIPOS>MOLECULE
NONAME
49 53 1 0 0 
SMALL
USER_CHARGES


@<TRIPOS>ATOM
  1 O       -3.5850    -0.0670    -2.9760 O.2   1 <1>  -0.5200 
  2 N       -4.6370    -0.6990    -2.7670 N.pl3 1 <1>   0.8360 
  3 O       -5.6420    -0.4760    -3.4690 O.2   1 <1>  -0.5200 
  4 C       -4.6370    -1.7650    -1.8600 C.2   1 <1>   0.2190 
  5 C       -5.4280    -1.6090    -0.6890 C.2   1 <1>   0.6160 
  6 C       -3.9310    -2.9170    -2.0700 C.2   1 <1>  -0.1500 
  7 O       -6.0220    -0.5650    -0.4360 O.2   1 <1>  -0.5700 
  8 N       -5.5190    -2.6720     0.2030 N.am  1 <1>  -0.4690 
  9 C       -4.0420    -3.9760    -1.1480 C.2   1 <1>  -0.1500 
 10 C       -4.8390    -3.8580    -0.0480 C.2   1 <1>  -0.0290 
 11 C       -6.3410    -2.4600     1.4440 C.3   1 <1>   0.1400 
 12 C       -5.0330    -5.0570     0.8830 C.3   1 <1>   0.0580 
 13 C       -6.5990    -3.7340     2.2710 C.3   1 <1>  -0.0800 
 14 C       -6.2050    -5.9120     0.3640 C.3   1 <1>   0.1400 
 15 C       -5.3280    -4.5920     2.3140 C.3   1 <1>  -0.1600 
 16 C       -7.7930    -4.5390     1.7180 C.3   1 <1>   0.1400 
 17 N       -7.4740    -5.1230     0.3830 N.am  1 <1>  -0.6600 
 18 C       -8.0590    -4.6780    -0.7860 C.2   1 <1>   0.7150 
 19 O       -7.5080    -4.8950    -1.8500 O.2   1 <1>  -0.5700 
 20 C       -9.3020    -3.9490    -0.7640 C.2   1 <1>  -0.2370 
 21 N       -9.4990    -2.7280    -1.3810 N.pl3 1 <1>   0.0480 
 22 C      -10.4720    -4.3000    -0.1510 C.2   1 <1>  -0.1500 
 23 C      -10.7830    -2.3150    -1.1260 C.ar  1 <1>  -0.1520 
 24 C       -8.5370    -1.9510    -2.1920 C.3   1 <1>   0.0160 
 25 C      -11.4170    -3.2850    -0.3600 C.ar  1 <1>   0.0000 
 26 C      -11.4650    -1.1520    -1.5030 C.ar  1 <1>  -0.1500 
 27 C      -12.7480    -3.1040     0.0350 C.ar  1 <1>  -0.1500 
 28 C      -12.7720    -0.9840    -1.1080 C.ar  1 <1>  -0.1500 
 29 C      -13.4140    -1.9620    -0.3380 C.ar  1 <1>  -0.1500 
 30 H       -3.3060    -3.0440    -2.9380 H     1 <1>   0.1500 
 31 H       -3.5040    -4.8860    -1.3550 H     1 <1>   0.1500 
 32 H       -5.8170    -1.7500     2.0600 H     1 <1>   0.0800 
 33 H       -7.2850    -2.0170     1.1730 H     1 <1>   0.0800 
 34 H       -4.1420    -5.6600     0.8840 H     1 <1>   0.0800 
 35 H       -6.8520    -3.4280     3.2710 H     1 <1>   0.0800 
 36 H       -6.3270    -6.7810     0.9870 H     1 <1>   0.0800 
 37 H       -5.9870    -6.2560    -0.6320 H     1 <1>   0.0800 
 38 H       -5.4720    -5.4420     2.9590 H     1 <1>   0.0800 
 39 H       -4.5010    -4.0170     2.6910 H     1 <1>   0.0800 
 40 H       -8.6540    -3.8960     1.6670 H     1 <1>   0.0800 
 41 H       -8.0290    -5.3430     2.3950 H     1 <1>   0.0800 
 42 H      -10.6690    -5.1980     0.4060 H     1 <1>   0.1500 
 43 H       -7.6190    -2.4920    -2.3140 H     1 <1>   0.0800 
 44 H       -8.3370    -1.0150    -1.7040 H     1 <1>   0.0800 
 45 H       -8.9620    -1.7650    -3.1600 H     1 <1>   0.0800 
 46 H      -10.9670    -0.4050    -2.0940 H     1 <1>   0.1500 
 47 H      -13.2260    -3.8650     0.6240 H     1 <1>   0.1500 
 48 H      -13.3140    -0.0980    -1.3870 H     1 <1>   0.1500 
 49 H      -14.4370    -1.8070    -0.0430 H     1 <1>   0.1500 
@<TRIPOS>BOND
  1   1   2  2   
  2   2   3  2   
  3   2   4  1   
  4   4   5  1   
  5   4   6  2   
  6   5   7  2   
  7   5   8  am  
  8   6   9  1   
  9   6  30  1   
 10   8  10  1   
 11   8  11  1   
 12   9  10  2   
 13   9  31  1   
 14  10  12  1   
 15  11  13  1   
 16  11  32  1   
 17  11  33  1   
 18  12  14  1   
 19  12  15  1   
 20  12  34  1   
 21  13  15  1   
 22  13  16  1   
 23  13  35  1   
 24  14  17  1   
 25  14  36  1   
 26  14  37  1   
 27  15  38  1   
 28  15  39  1   
 29  16  17  1   
 30  16  40  1   
 31  16  41  1   
 32  17  18  am  
 33  18  19  2   
 34  18  20  1   
 35  20  21  1   
 36  20  22  2   
 37  21  23  1   
 38  21  24  1   
 39  22  25  1   
 40  22  42  1   
 41  23  25  ar  
 42  23  26  ar  
 43  24  43  1   
 44  24  44  1   
 45  24  45  1   
 46  25  27  ar  
 47  26  28  ar  
 48  26  46  1   
 49  27  29  ar  
 50  27  47  1   
 51  28  29  ar  
 52  28  48  1   
 53  29  49  1   
@<TRIPOS>SUBSTRUCTURE
  1 ****  18 GROUP 4 **** **** 0

# MOE 2024.06 (io_trps.svl 2023.06)
