@<TRIPOS>MOLECULE
NONAME
52 54 1 0 0 
SMALL
USER_CHARGES


@<TRIPOS>ATOM
  1 F       -1.3680    -2.7840    -1.8550 F     1 <1>  -0.3400 
  2 C       -2.6150    -2.4230    -2.1350 C.3   1 <1>   1.1640 
  3 F       -2.9450    -3.0580    -3.2520 F     1 <1>  -0.3400 
  4 F       -2.5640    -1.1310    -2.4420 F     1 <1>  -0.3400 
  5 C       -3.5990    -2.7270    -0.9940 C.ar  1 <1>  -0.1440 
  6 C       -3.3750    -3.7890    -0.1230 C.ar  1 <1>  -0.1500 
  7 C       -4.7400    -1.9530    -0.8110 C.ar  1 <1>  -0.1500 
  8 C       -4.2660    -4.0670     0.8990 C.ar  1 <1>  -0.1500 
  9 C       -5.6310    -2.2320     0.2120 C.ar  1 <1>  -0.1500 
 10 C       -5.4030    -3.2950     1.0710 C.ar  1 <1>  -0.1430 
 11 C       -6.3870    -3.6140     2.1940 C.3   1 <1>   0.0440 
 12 C       -6.7870    -5.0850     2.2410 C.2   1 <1>   0.5690 
 13 O       -6.5320    -5.6980     3.2510 O.2   1 <1>  -0.5700 
 14 N       -7.4210    -5.7100     1.1910 N.am  1 <1>  -0.6600 
 15 C       -7.6290    -7.1860     1.2000 C.3   1 <1>   0.1400 
 16 C       -7.9310    -5.0250    -0.0310 C.3   1 <1>   0.1400 
 17 C       -9.1290    -7.5180     1.0330 C.3   1 <1>   0.4230 
 18 C       -9.4250    -5.3360    -0.1820 C.3   1 <1>  -0.1600 
 19 N       -9.4490    -9.0020     1.1750 N.4   1 <1>  -0.9590 
 20 C       -9.7420    -6.8580    -0.2380 C.3   1 <1>   0.0000 
 21 C      -10.7830    -9.3980     0.6150 C.3   1 <1>   0.3430 
 22 C       -8.3890    -9.9410     0.6790 C.3   1 <1>   0.2630 
 23 C      -11.2880    -7.0460    -0.2200 C.3   1 <1>  -0.1600 
 24 C       -9.1310    -7.4900    -1.5220 C.3   1 <1>   0.1200 
 25 C      -11.7620    -8.2260     0.6500 C.3   1 <1>  -0.1600 
 26 O       -9.4880    -6.7850    -2.6590 O.3   1 <1>  -0.6800 
 27 H       -2.5020    -4.4110    -0.2330 H     1 <1>   0.1500 
 28 H       -4.9450    -1.1230    -1.4670 H     1 <1>   0.1500 
 29 H       -4.0650    -4.8910     1.5640 H     1 <1>   0.1500 
 30 H       -6.5010    -1.6100     0.3310 H     1 <1>   0.1500 
 31 H       -7.2760    -3.0200     2.1020 H     1 <1>   0.0800 
 32 H       -5.9260    -3.3540     3.1300 H     1 <1>   0.0800 
 33 H       -7.0460    -7.6090     0.4030 H     1 <1>   0.0800 
 34 H       -7.2810    -7.6060     2.1270 H     1 <1>   0.0800 
 35 H       -7.8030    -3.9600     0.0380 H     1 <1>   0.0800 
 36 H       -7.3800    -5.3640    -0.8930 H     1 <1>   0.0800 
 37 H       -9.6120    -7.0270     1.8620 H     1 <1>   0.0800 
 38 H       -9.9330    -4.8850     0.6540 H     1 <1>   0.0800 
 39 H       -9.7910    -4.8410    -1.0650 H     1 <1>   0.0800 
 40 H       -9.5170    -9.1500     2.1940 H     1 <1>   0.4500 
 41 H      -10.6690    -9.7160    -0.4090 H     1 <1>   0.0800 
 42 H      -11.1850   -10.2270     1.1760 H     1 <1>   0.0800 
 43 H       -8.2300    -9.8080    -0.3780 H     1 <1>   0.0800 
 44 H       -8.6840   -10.9630     0.8550 H     1 <1>   0.0800 
 45 H       -7.4580    -9.7670     1.1940 H     1 <1>   0.0800 
 46 H      -11.7730    -6.1590     0.1520 H     1 <1>   0.0800 
 47 H      -11.6540    -7.1830    -1.2230 H     1 <1>   0.0800 
 48 H       -9.4580    -8.5050    -1.6590 H     1 <1>   0.0800 
 49 H       -8.0560    -7.4820    -1.4900 H     1 <1>   0.0800 
 50 H      -12.7240    -8.5580     0.2980 H     1 <1>   0.0800 
 51 H      -11.8940    -7.9070     1.6700 H     1 <1>   0.0800 
 52 H      -10.4500    -6.8130    -2.8290 H     1 <1>   0.4000 
@<TRIPOS>BOND
  1   1   2  1   
  2   2   3  1   
  3   2   4  1   
  4   2   5  1   
  5   5   6  ar  
  6   5   7  ar  
  7   6   8  ar  
  8   6  27  1   
  9   7   9  ar  
 10   7  28  1   
 11   8  10  ar  
 12   8  29  1   
 13   9  10  ar  
 14   9  30  1   
 15  10  11  1   
 16  11  12  1   
 17  11  31  1   
 18  11  32  1   
 19  12  13  2   
 20  12  14  am  
 21  14  15  1   
 22  14  16  1   
 23  15  17  1   
 24  15  33  1   
 25  15  34  1   
 26  16  18  1   
 27  16  35  1   
 28  16  36  1   
 29  17  19  1   
 30  17  20  1   
 31  17  37  1   
 32  18  20  1   
 33  18  38  1   
 34  18  39  1   
 35  19  21  1   
 36  19  22  1   
 37  19  40  1   
 38  20  23  1   
 39  20  24  1   
 40  21  25  1   
 41  21  41  1   
 42  21  42  1   
 43  22  43  1   
 44  22  44  1   
 45  22  45  1   
 46  23  25  1   
 47  23  46  1   
 48  23  47  1   
 49  24  26  1   
 50  24  48  1   
 51  24  49  1   
 52  25  50  1   
 53  25  51  1   
 54  26  52  1   
@<TRIPOS>SUBSTRUCTURE
  1 ****  16 GROUP 4 **** **** 0

# MOE 2024.06 (io_trps.svl 2023.06)
