@<TRIPOS>MOLECULE
NONAME
44 46 1 0 0 
SMALL
USER_CHARGES


@<TRIPOS>ATOM
  1 F        0.2570    -0.6600     0.2110 F     1 <1>  -0.1900 
  2 C       -0.4450    -1.7590     0.0920 C.ar  1 <1>   0.1900 
  3 C       -0.0470    -2.9630     0.6850 C.ar  1 <1>   0.0830 
  4 C       -1.6020    -1.6720    -0.6570 C.ar  1 <1>  -0.1500 
  5 O        1.0690    -3.1750     1.4420 O.3   1 <1>  -0.3630 
  6 C       -0.8570    -4.0700     0.4960 C.ar  1 <1>  -0.1500 
  7 C       -2.3850    -2.7980    -0.8260 C.ar  1 <1>  -0.1500 
  8 C        1.9680    -2.1450     1.7910 C.3   1 <1>   0.0400 
  9 C       -2.0370    -4.0220    -0.2520 C.ar  1 <1>   0.0530 
 10 C       -2.8490    -5.2060    -0.4200 C.2   1 <1>   0.0870 
 11 O       -2.2910    -6.3910    -0.3660 O.3   1 <1>  -0.0190 
 12 C       -4.1740    -5.4090    -0.6310 C.2   1 <1>  -0.2330 
 13 N       -3.1470    -7.3630    -0.5290 N.2   1 <1>  -0.4100 
 14 C       -4.2990    -6.8030    -0.6890 C.2   1 <1>   0.3720 
 15 C       -5.2160    -4.4430    -0.7520 C.2   1 <1>   1.0330 
 16 N       -5.4770    -7.5470    -0.9110 N.pl3 1 <1>  -0.8210 
 17 O       -5.4000    -3.8300    -1.8170 O.co2 1 <1>  -0.9000 
 18 O       -5.9440    -4.1750     0.2210 O.co2 1 <1>  -0.9000 
 19 C       -5.4510    -9.0190    -0.7280 C.3   1 <1>   0.2090 
 20 C       -6.7410    -7.0130    -0.3410 C.3   1 <1>   0.2090 
 21 C       -6.6300    -9.3480     0.1850 C.3   1 <1>  -0.0800 
 22 C       -7.6360    -8.2250    -0.1110 C.3   1 <1>  -0.0800 
 23 C       -7.1410   -10.7740    -0.0630 C.3   1 <1>   0.1200 
 24 C       -8.6630    -7.9390     0.9900 C.3   1 <1>   0.1200 
 25 O       -7.9710   -11.1590     0.9780 O.3   1 <1>  -0.6800 
 26 O       -9.5840    -8.9700     1.0380 O.3   1 <1>  -0.6800 
 27 H       -1.8900    -0.7370    -1.1030 H     1 <1>   0.1500 
 28 H       -0.5640    -4.9990     0.9490 H     1 <1>   0.1500 
 29 H       -3.2810    -2.7220    -1.4180 H     1 <1>   0.1500 
 30 H        2.7340    -2.5680     2.4160 H     1 <1>   0.0800 
 31 H        1.4350    -1.3840     2.3320 H     1 <1>   0.0800 
 32 H        2.4080    -1.7470     0.8940 H     1 <1>   0.0800 
 33 H       -5.5760    -9.4760    -1.6950 H     1 <1>   0.0800 
 34 H       -4.5290    -9.3660    -0.2940 H     1 <1>   0.0800 
 35 H       -6.5310    -6.5260     0.5970 H     1 <1>   0.0800 
 36 H       -7.1970    -6.3070    -1.0160 H     1 <1>   0.0800 
 37 H       -6.2710    -9.2610     1.1950 H     1 <1>   0.0800 
 38 H       -8.1510    -8.4150    -1.0370 H     1 <1>   0.0800 
 39 H       -6.3240   -11.4740    -0.1080 H     1 <1>   0.0800 
 40 H       -7.7020   -10.8260    -0.9810 H     1 <1>   0.0800 
 41 H       -9.2010    -7.0290     0.7850 H     1 <1>   0.0800 
 42 H       -8.1880    -7.8590     1.9530 H     1 <1>   0.0800 
 43 H       -7.4560   -11.2750     1.8020 H     1 <1>   0.4000 
 44 H       -9.1080    -9.8410     1.0140 H     1 <1>   0.4000 
@<TRIPOS>BOND
  1   1   2  1   
  2   2   3  ar  
  3   2   4  ar  
  4   3   5  1   
  5   3   6  ar  
  6   4   7  ar  
  7   4  27  1   
  8   5   8  1   
  9   6   9  ar  
 10   6  28  1   
 11   7   9  ar  
 12   7  29  1   
 13   8  30  1   
 14   8  31  1   
 15   8  32  1   
 16   9  10  1   
 17  10  11  1   
 18  10  12  2   
 19  11  13  1   
 20  12  14  1   
 21  12  15  1   
 22  13  14  2   
 23  14  16  1   
 24  15  17  ar  
 25  15  18  ar  
 26  16  19  1   
 27  16  20  1   
 28  19  21  1   
 29  19  33  1   
 30  19  34  1   
 31  20  22  1   
 32  20  35  1   
 33  20  36  1   
 34  21  22  1   
 35  21  23  1   
 36  21  37  1   
 37  22  24  1   
 38  22  38  1   
 39  23  25  1   
 40  23  39  1   
 41  23  40  1   
 42  24  26  1   
 43  24  41  1   
 44  24  42  1   
 45  25  43  1   
 46  26  44  1   
@<TRIPOS>SUBSTRUCTURE
  1 ****  12 GROUP 4 **** **** 0

# MOE 2024.06 (io_trps.svl 2023.06)
