@<TRIPOS>MOLECULE
NONAME
45 47 1 0 0 
SMALL
USER_CHARGES


@<TRIPOS>ATOM
  1 CL      -1.0960    -0.9770     0.7490 Cl    1 <1>  -0.1770 
  2 C       -1.8900     0.5470     0.4520 C.ar  1 <1>   0.1770 
  3 C       -1.2060     1.5490    -0.2000 C.ar  1 <1>  -0.1500 
  4 C       -3.1890     0.7280     0.8780 C.ar  1 <1>  -0.1500 
  5 C       -1.8060     2.7850    -0.4420 C.ar  1 <1>   0.0860 
  6 C       -3.8100     1.9400     0.6330 C.ar  1 <1>  -0.1500 
  7 C       -3.1360     2.9600    -0.0240 C.ar  1 <1>  -0.1440 
  8 C       -1.0230     3.8190    -1.0960 C.2   1 <1>   0.5440 
  9 C       -3.8910     4.2570    -0.2900 C.3   1 <1>  -0.0960 
 10 O       -0.3310     3.5590    -2.0630 O.2   1 <1>  -0.5700 
 11 N       -0.9110     5.0850    -0.5760 N.am  1 <1>  -0.6600 
 12 C       -0.2950     5.1910     0.7960 C.3   1 <1>   0.2200 
 13 C       -0.7660     6.2520    -1.5100 C.3   1 <1>   0.1400 
 14 C       -0.6360     6.5130     1.5030 C.3   1 <1>   0.1200 
 15 C        1.2380     4.9610     0.7270 C.3   1 <1>   0.3430 
 16 C        0.4240     7.1890    -1.2170 C.3   1 <1>  -0.0800 
 17 O        0.2840     7.5110     1.1850 O.3   1 <1>  -0.5600 
 18 N        1.7760     5.0930    -0.6730 N.4   1 <1>  -0.9590 
 19 C        0.1330     8.1380    -0.0430 C.3   1 <1>   0.1200 
 20 C        1.8120     6.5210    -1.1070 C.3   1 <1>   0.3430 
 21 C        3.1850     4.5230    -0.7160 C.3   1 <1>   0.2370 
 22 C        4.1660     5.1940     0.2510 C.2   1 <1>   0.9060 
 23 O        4.2140     4.7700     1.4090 O.co2 1 <1>  -0.9000 
 24 O        4.7590     6.2030    -0.1380 O.co2 1 <1>  -0.9000 
 25 H       -0.1970     1.3680    -0.5250 H     1 <1>   0.1500 
 26 H       -3.7040    -0.0670     1.3860 H     1 <1>   0.1500 
 27 H       -4.8280     2.0770     0.9570 H     1 <1>   0.1500 
 28 H       -4.9510     4.1190    -0.1690 H     1 <1>   0.0800 
 29 H       -3.7170     4.5940    -1.2970 H     1 <1>   0.0800 
 30 H       -3.5690     5.0210     0.3950 H     1 <1>   0.0800 
 31 H       -0.7110     4.4110     1.4080 H     1 <1>   0.0800 
 32 H       -0.6700     5.8910    -2.5200 H     1 <1>   0.0800 
 33 H       -1.6780     6.8220    -1.4760 H     1 <1>   0.0800 
 34 H       -0.5620     6.3670     2.5670 H     1 <1>   0.0800 
 35 H       -1.6350     6.8440     1.2760 H     1 <1>   0.0800 
 36 H        1.4510     3.9700     1.0910 H     1 <1>   0.0800 
 37 H        1.7480     5.6490     1.3840 H     1 <1>   0.0800 
 38 H        0.4890     7.8410    -2.0690 H     1 <1>   0.0800 
 39 H        1.1420     4.5650    -1.3050 H     1 <1>   0.4500 
 40 H       -0.8600     8.5520    -0.1020 H     1 <1>   0.0800 
 41 H        0.8360     8.9540    -0.0580 H     1 <1>   0.0800 
 42 H        2.4290     7.0870    -0.4260 H     1 <1>   0.0800 
 43 H        2.2880     6.5650    -2.0730 H     1 <1>   0.0800 
 44 H        3.1610     3.4790    -0.4660 H     1 <1>   0.0800 
 45 H        3.5900     4.6270    -1.7050 H     1 <1>   0.0800 
@<TRIPOS>BOND
  1   1   2  1   
  2   2   3  ar  
  3   2   4  ar  
  4   3   5  ar  
  5   3  25  1   
  6   4   6  ar  
  7   4  26  1   
  8   5   7  ar  
  9   5   8  1   
 10   6   7  ar  
 11   6  27  1   
 12   7   9  1   
 13   8  10  2   
 14   8  11  am  
 15   9  28  1   
 16   9  29  1   
 17   9  30  1   
 18  11  12  1   
 19  11  13  1   
 20  12  14  1   
 21  12  15  1   
 22  12  31  1   
 23  13  16  1   
 24  13  32  1   
 25  13  33  1   
 26  14  17  1   
 27  14  34  1   
 28  14  35  1   
 29  15  18  1   
 30  15  36  1   
 31  15  37  1   
 32  16  19  1   
 33  16  20  1   
 34  16  38  1   
 35  17  19  1   
 36  18  20  1   
 37  18  21  1   
 38  18  39  1   
 39  19  40  1   
 40  19  41  1   
 41  20  42  1   
 42  20  43  1   
 43  21  22  1   
 44  21  44  1   
 45  21  45  1   
 46  22  23  ar  
 47  22  24  ar  
@<TRIPOS>SUBSTRUCTURE
  1 ****  11 GROUP 4 **** **** 0

# MOE 2024.06 (io_trps.svl 2023.06)
