@<TRIPOS>MOLECULE
NONAME
59 61 1 0 0 
SMALL
USER_CHARGES


@<TRIPOS>ATOM
  1 F       -1.7810     1.7090    -1.0840 F     1 <1>  -0.1900 
  2 C       -1.7000     2.5980    -0.1300 C.ar  1 <1>   0.1900 
  3 C       -2.7420     2.7410     0.7720 C.ar  1 <1>   0.0860 
  4 C       -0.5620     3.3790    -0.0530 C.ar  1 <1>   0.1600 
  5 C       -3.9590     1.9670     0.7350 C.2   1 <1>   0.5440 
  6 C       -2.5200     3.7080     1.7430 C.ar  1 <1>  -0.1500 
  7 N       -0.3670     4.3120     0.8690 N.ar  1 <1>  -0.6200 
  8 O       -4.2090     1.2390     1.6780 O.2   1 <1>  -0.5700 
  9 N       -4.8580     2.0670    -0.3070 N.am  1 <1>  -0.6600 
 10 C       -1.3500     4.4470     1.7490 C.ar  1 <1>   0.1600 
 11 C       -4.7080     3.0680    -1.4040 C.3   1 <1>   0.1400 
 12 C       -6.1700     1.3750    -0.2620 C.3   1 <1>   0.1400 
 13 C       -6.0590     3.4760    -2.0110 C.3   1 <1>  -0.1600 
 14 C       -7.2900     2.4070    -0.0870 C.3   1 <1>  -0.1600 
 15 C       -7.1430     3.7020    -0.9300 C.3   1 <1>   0.2800 
 16 O       -6.6370     4.6830    -0.0420 O.3   1 <1>  -0.5600 
 17 C       -8.5410     4.1410    -1.5100 C.3   1 <1>   0.2000 
 18 C       -6.8570     6.0230    -0.3500 C.3   1 <1>   0.1200 
 19 O       -8.4010     4.7430    -2.7750 O.3   1 <1>  -0.6800 
 20 C       -9.2700     5.1250    -0.5460 C.3   1 <1>   0.3000 
 21 C       -8.3600     6.3480    -0.3030 C.3   1 <1>  -0.1600 
 22 N       -9.5230     4.5120     0.7800 N.am  1 <1>  -0.7300 
 23 C      -10.6260     5.6030    -1.0910 C.3   1 <1>  -0.2400 
 24 C      -10.2830     3.4220     1.0780 C.2   1 <1>   0.5690 
 25 O      -10.7880     2.7530     0.2060 O.2   1 <1>  -0.5700 
 26 C      -10.4770     3.0410     2.5690 C.3   1 <1>   0.0610 
 27 C      -11.0430     4.2400     3.3560 C.3   1 <1>  -0.2400 
 28 C       -9.1350     2.6280     3.2030 C.3   1 <1>  -0.2400 
 29 C      -11.4600     1.8650     2.7360 C.3   1 <1>  -0.2400 
 30 H        0.2170     3.2280    -0.7800 H     1 <1>   0.1500 
 31 H       -3.2710     3.8760     2.4950 H     1 <1>   0.1500 
 32 H       -1.2120     5.1910     2.5170 H     1 <1>   0.1500 
 33 H       -4.2370     3.9520    -1.0090 H     1 <1>   0.0800 
 34 H       -4.0750     2.6610    -2.1730 H     1 <1>   0.0800 
 35 H       -6.3060     0.8340    -1.1830 H     1 <1>   0.0800 
 36 H       -6.2070     0.6580     0.5410 H     1 <1>   0.0800 
 37 H       -6.3890     2.7070    -2.6870 H     1 <1>   0.0800 
 38 H       -5.9090     4.3590    -2.6010 H     1 <1>   0.0800 
 39 H       -7.3440     2.6670     0.9530 H     1 <1>   0.0800 
 40 H       -8.2070     1.9020    -0.3290 H     1 <1>   0.0800 
 41 H       -9.1600     3.2790    -1.6780 H     1 <1>   0.0800 
 42 H       -6.3220     6.6180     0.3690 H     1 <1>   0.0800 
 43 H       -6.4450     6.2170    -1.3250 H     1 <1>   0.0800 
 44 H       -7.8880     5.5660    -2.6970 H     1 <1>   0.4000 
 45 H       -8.6040     6.8130     0.6350 H     1 <1>   0.0800 
 46 H       -8.5410     7.0900    -1.0590 H     1 <1>   0.0800 
 47 H       -8.9370     4.8950     1.5190 H     1 <1>   0.3700 
 48 H      -10.4980     6.1550    -2.0040 H     1 <1>   0.0800 
 49 H      -11.1190     6.2350    -0.3770 H     1 <1>   0.0800 
 50 H      -11.2590     4.7620    -1.3120 H     1 <1>   0.0800 
 51 H      -11.2200     3.9720     4.3830 H     1 <1>   0.0800 
 52 H      -11.9750     4.5580     2.9220 H     1 <1>   0.0800 
 53 H      -10.3610     5.0710     3.3370 H     1 <1>   0.0800 
 54 H       -9.2670     2.3760     4.2410 H     1 <1>   0.0800 
 55 H       -8.4150     3.4240     3.1380 H     1 <1>   0.0800 
 56 H       -8.7360     1.7670     2.6970 H     1 <1>   0.0800 
 57 H      -11.5940     1.6150     3.7740 H     1 <1>   0.0800 
 58 H      -11.0920     0.9950     2.2200 H     1 <1>   0.0800 
 59 H      -12.4190     2.1190     2.3180 H     1 <1>   0.0800 
@<TRIPOS>BOND
  1   1   2  1   
  2   2   3  ar  
  3   2   4  ar  
  4   3   5  1   
  5   3   6  ar  
  6   4   7  ar  
  7   4  30  1   
  8   5   8  2   
  9   5   9  am  
 10   6  10  ar  
 11   6  31  1   
 12   7  10  ar  
 13   9  11  1   
 14   9  12  1   
 15  10  32  1   
 16  11  13  1   
 17  11  33  1   
 18  11  34  1   
 19  12  14  1   
 20  12  35  1   
 21  12  36  1   
 22  13  15  1   
 23  13  37  1   
 24  13  38  1   
 25  14  15  1   
 26  14  39  1   
 27  14  40  1   
 28  15  16  1   
 29  15  17  1   
 30  16  18  1   
 31  17  19  1   
 32  17  20  1   
 33  17  41  1   
 34  18  21  1   
 35  18  42  1   
 36  18  43  1   
 37  19  44  1   
 38  20  21  1   
 39  20  22  1   
 40  20  23  1   
 41  21  45  1   
 42  21  46  1   
 43  22  24  am  
 44  22  47  1   
 45  23  48  1   
 46  23  49  1   
 47  23  50  1   
 48  24  25  2   
 49  24  26  1   
 50  26  27  1   
 51  26  28  1   
 52  26  29  1   
 53  27  51  1   
 54  27  52  1   
 55  27  53  1   
 56  28  54  1   
 57  28  55  1   
 58  28  56  1   
 59  29  57  1   
 60  29  58  1   
 61  29  59  1   
@<TRIPOS>SUBSTRUCTURE
  1 ****  16 GROUP 4 **** **** 0

# MOE 2024.06 (io_trps.svl 2023.06)
