@<TRIPOS>MOLECULE
NONAME
49 52 1 0 0 
SMALL
USER_CHARGES


@<TRIPOS>ATOM
  1 S        0.1590     0.3760     1.2680 S.3   1 <1>  -0.0800 
  2 C        1.6570    -0.2100     0.5840 C.2   1 <1>  -0.1400 
  3 C       -0.3350    -1.2600     1.6410 C.2   1 <1>  -0.1100 
  4 C        1.7280    -1.5480     0.6400 C.2   1 <1>  -0.1810 
  5 C        2.6800     0.7570     0.0280 C.3   1 <1>   0.0200 
  6 C        0.5820    -2.1810     1.2480 C.2   1 <1>  -0.0860 
  7 C        2.9400    -2.2980     0.1050 C.3   1 <1>   0.0210 
  8 C        4.0100     0.0130    -0.1890 C.3   1 <1>  -0.1600 
  9 C        0.4510    -3.6170     1.4030 C.2   1 <1>   0.7160 
 10 C        3.7980    -1.3890    -0.7990 C.3   1 <1>  -0.1600 
 11 O        1.3710    -4.2800     1.8450 O.2   1 <1>  -0.5700 
 12 N       -0.7090    -4.2570     1.0300 N.am  1 <1>  -0.6600 
 13 C       -1.6970    -3.6970     0.0720 C.3   1 <1>   0.1400 
 14 C       -0.9120    -5.7180     1.1580 C.3   1 <1>   0.1400 
 15 C       -2.5510    -4.8840    -0.3960 C.3   1 <1>   0.2000 
 16 C       -1.6770    -6.1090    -0.1060 C.3   1 <1>  -0.0800 
 17 O       -3.7130    -4.9670     0.3800 O.3   1 <1>  -0.5600 
 18 C       -2.4490    -7.4350     0.0270 C.3   1 <1>   0.0200 
 19 C       -4.7810    -4.1890    -0.0630 C.3   1 <1>   0.0400 
 20 C       -1.5380    -8.6460     0.1410 C.2   1 <1>  -0.0400 
 21 O       -2.0770    -9.8180     0.3530 O.3   1 <1>  -0.0190 
 22 C       -0.2080    -8.8180     0.0670 C.2   1 <1>  -0.1500 
 23 N       -1.1830   -10.7610     0.4280 N.2   1 <1>  -0.4100 
 24 C       -0.0470   -10.1870     0.2600 C.2   1 <1>   0.1080 
 25 C        1.2810   -10.9100     0.2720 C.3   1 <1>  -0.0590 
 26 H       -1.2820    -1.3870     2.1330 H     1 <1>   0.1500 
 27 H        2.3160     1.1470    -0.9050 H     1 <1>   0.0800 
 28 H        2.8240     1.5750     0.7110 H     1 <1>   0.0800 
 29 H        3.5250    -2.6400     0.9410 H     1 <1>   0.0800 
 30 H        2.6240    -3.1600    -0.4550 H     1 <1>   0.0800 
 31 H        4.6490     0.6000    -0.8260 H     1 <1>   0.0800 
 32 H        4.5040    -0.0970     0.7610 H     1 <1>   0.0800 
 33 H        4.7500    -1.8590    -0.9720 H     1 <1>   0.0800 
 34 H        3.3060    -1.2820    -1.7500 H     1 <1>   0.0800 
 35 H       -2.3010    -2.9430     0.5430 H     1 <1>   0.0800 
 36 H       -1.1700    -3.2700    -0.7640 H     1 <1>   0.0800 
 37 H        0.0220    -6.2450     1.2420 H     1 <1>   0.0800 
 38 H       -1.5090    -5.9070     2.0350 H     1 <1>   0.0800 
 39 H       -2.8210    -4.8200    -1.4370 H     1 <1>   0.0800 
 40 H       -0.9660    -6.2010    -0.9070 H     1 <1>   0.0800 
 41 H       -3.0810    -7.5670    -0.8330 H     1 <1>   0.0800 
 42 H       -3.0840    -7.4010     0.8950 H     1 <1>   0.0800 
 43 H       -5.5990    -4.3270     0.6210 H     1 <1>   0.0800 
 44 H       -5.0750    -4.5160    -1.0460 H     1 <1>   0.0800 
 45 H       -4.4940    -3.1530    -0.0770 H     1 <1>   0.0800 
 46 H        0.5800    -8.1080    -0.1000 H     1 <1>   0.1500 
 47 H        1.9260   -10.4770     1.0140 H     1 <1>   0.0800 
 48 H        1.7470   -10.8320    -0.6930 H     1 <1>   0.0800 
 49 H        1.1310   -11.9490     0.5040 H     1 <1>   0.0800 
@<TRIPOS>BOND
  1   1   2  1   
  2   1   3  1   
  3   2   4  2   
  4   2   5  1   
  5   3   6  2   
  6   3  26  1   
  7   4   6  1   
  8   4   7  1   
  9   5   8  1   
 10   5  27  1   
 11   5  28  1   
 12   6   9  1   
 13   7  10  1   
 14   7  29  1   
 15   7  30  1   
 16   8  10  1   
 17   8  31  1   
 18   8  32  1   
 19   9  11  2   
 20   9  12  am  
 21  10  33  1   
 22  10  34  1   
 23  12  13  1   
 24  12  14  1   
 25  13  15  1   
 26  13  35  1   
 27  13  36  1   
 28  14  16  1   
 29  14  37  1   
 30  14  38  1   
 31  15  16  1   
 32  15  17  1   
 33  15  39  1   
 34  16  18  1   
 35  16  40  1   
 36  17  19  1   
 37  18  20  1   
 38  18  41  1   
 39  18  42  1   
 40  19  43  1   
 41  19  44  1   
 42  19  45  1   
 43  20  21  1   
 44  20  22  2   
 45  21  23  1   
 46  22  24  1   
 47  22  46  1   
 48  23  24  2   
 49  24  25  1   
 50  25  47  1   
 51  25  48  1   
 52  25  49  1   
@<TRIPOS>SUBSTRUCTURE
  1 ****  12 GROUP 4 **** **** 0

# MOE 2024.06 (io_trps.svl 2023.06)
