@<TRIPOS>MOLECULE
NONAME
47 48 1 0 0 
SMALL
USER_CHARGES


@<TRIPOS>ATOM
  1 O       -0.0100     1.2810    -0.7930 O.2   1 <1>  -0.5700 
  2 C       -0.2620     2.4600    -0.6970 C.2   1 <1>   0.5690 
  3 N       -1.2170     2.9400     0.1570 N.am  1 <1>  -0.6600 
  4 C        0.5000     3.4340    -1.5930 C.3   1 <1>   0.1810 
  5 C       -1.5450     4.4040     0.2220 C.3   1 <1>   0.3640 
  6 C       -1.9450     2.0630     1.1190 C.3   1 <1>   0.0600 
  7 O        0.5400     4.7360    -1.0660 O.3   1 <1>  -0.5600 
  8 C       -3.0590     4.6260     0.0430 C.ar  1 <1>  -0.1430 
  9 C       -0.7290     5.2930    -0.7610 C.3   1 <1>   0.2610 
 10 C       -3.8250     4.1200    -1.0150 C.ar  1 <1>  -0.1430 
 11 C       -3.6940     5.3890     1.0160 C.ar  1 <1>  -0.1500 
 12 C       -0.5360     6.7230    -0.2320 C.2   1 <1>   0.5690 
 13 C       -5.1860     4.3880    -1.0620 C.ar  1 <1>  -0.1500 
 14 C       -3.2570     3.2600    -2.1390 C.3   1 <1>  -0.0960 
 15 C       -5.0490     5.6510     0.9580 C.ar  1 <1>  -0.1500 
 16 O       -1.1270     7.1150     0.7490 O.2   1 <1>  -0.5700 
 17 N        0.3360     7.5320    -0.8880 N.am  1 <1>  -0.7300 
 18 C       -5.7980     5.1490    -0.0850 C.ar  1 <1>  -0.1500 
 19 C        0.7750     8.8850    -0.4600 C.3   1 <1>   0.1400 
 20 C        2.3060     8.9450    -0.2490 C.3   1 <1>   0.2800 
 21 O        2.9290     8.4800    -1.3880 O.3   1 <1>  -0.6800 
 22 C        2.7650     8.0450     0.9010 C.3   1 <1>  -0.2400 
 23 C        2.7840    10.3800    -0.0400 C.3   1 <1>  -0.2400 
 24 H        0.0440     3.4690    -2.5650 H     1 <1>   0.0800 
 25 H        1.5140     3.0950    -1.6990 H     1 <1>   0.0800 
 26 H       -1.2780     4.7150     1.2160 H     1 <1>   0.0800 
 27 H       -1.8370     2.4470     2.1180 H     1 <1>   0.0800 
 28 H       -1.5540     1.0600     1.0910 H     1 <1>   0.0800 
 29 H       -2.9910     2.0300     0.8660 H     1 <1>   0.0800 
 30 H       -1.2680     5.3790    -1.6840 H     1 <1>   0.0800 
 31 H       -3.1310     5.7990     1.8380 H     1 <1>   0.1500 
 32 H       -5.7880     4.0030    -1.8660 H     1 <1>   0.1500 
 33 H       -3.9700     3.1470    -2.9360 H     1 <1>   0.0800 
 34 H       -3.0200     2.2790    -1.7690 H     1 <1>   0.0800 
 35 H       -2.3750     3.7000    -2.5580 H     1 <1>   0.0800 
 36 H       -5.5160     6.2470     1.7220 H     1 <1>   0.1500 
 37 H        0.9730     7.1090    -1.5740 H     1 <1>   0.3700 
 38 H       -6.8540     5.3490    -0.1370 H     1 <1>   0.1500 
 39 H        0.4930     9.5950    -1.2170 H     1 <1>   0.0800 
 40 H        0.2750     9.1610     0.4520 H     1 <1>   0.0800 
 41 H        3.8920     8.4600    -1.2420 H     1 <1>   0.4000 
 42 H        2.2810     8.3450     1.8120 H     1 <1>   0.0800 
 43 H        3.8280     8.1140     1.0440 H     1 <1>   0.0800 
 44 H        2.5000     7.0210     0.7070 H     1 <1>   0.0800 
 45 H        2.3240    10.7940     0.8400 H     1 <1>   0.0800 
 46 H        2.5100    10.9920    -0.8810 H     1 <1>   0.0800 
 47 H        3.8500    10.4150     0.0900 H     1 <1>   0.0800 
@<TRIPOS>BOND
  1   1   2  2   
  2   2   3  am  
  3   2   4  1   
  4   3   5  1   
  5   3   6  1   
  6   4   7  1   
  7   4  24  1   
  8   4  25  1   
  9   5   8  1   
 10   5   9  1   
 11   5  26  1   
 12   6  27  1   
 13   6  28  1   
 14   6  29  1   
 15   7   9  1   
 16   8  10  ar  
 17   8  11  ar  
 18   9  12  1   
 19   9  30  1   
 20  10  13  ar  
 21  10  14  1   
 22  11  15  ar  
 23  11  31  1   
 24  12  16  2   
 25  12  17  am  
 26  13  18  ar  
 27  13  32  1   
 28  14  33  1   
 29  14  34  1   
 30  14  35  1   
 31  15  18  ar  
 32  15  36  1   
 33  17  19  1   
 34  17  37  1   
 35  18  38  1   
 36  19  20  1   
 37  19  39  1   
 38  19  40  1   
 39  20  21  1   
 40  20  22  1   
 41  20  23  1   
 42  21  41  1   
 43  22  42  1   
 44  22  43  1   
 45  22  44  1   
 46  23  45  1   
 47  23  46  1   
 48  23  47  1   
@<TRIPOS>SUBSTRUCTURE
  1 ****   9 GROUP 4 **** **** 0

# MOE 2024.06 (io_trps.svl 2023.06)
