@<TRIPOS>MOLECULE
NONAME
53 56 1 0 0 
SMALL
USER_CHARGES


@<TRIPOS>ATOM
  1 O        0.1500    -1.0000     1.0610 O.2   1 <1>  -0.5700 
  2 C        1.1680    -1.2060     0.4190 C.2   1 <1>   0.5440 
  3 N        1.1550    -2.1050    -0.6240 N.am  1 <1>  -0.4200 
  4 C        2.4010    -0.5300     0.7130 C.ar  1 <1>   0.0860 
  5 C        2.3070    -2.3220    -1.3430 C.2   1 <1>   0.4500 
  6 C       -0.0830    -2.8410    -0.9850 C.3   1 <1>   0.1400 
  7 C        3.5080    -0.8290    -0.0900 C.ar  1 <1>   0.1790 
  8 C        2.5480     0.4010     1.7460 C.ar  1 <1>  -0.1500 
  9 N        3.4240    -1.7410    -1.1240 N.2   1 <1>  -0.6290 
 10 C       -0.1030    -4.2100    -0.2960 C.3   1 <1>  -0.1600 
 11 C        4.7220    -0.1970     0.1560 C.ar  1 <1>  -0.1500 
 12 C        3.7590     1.0200     1.9780 C.ar  1 <1>  -0.1500 
 13 C       -1.4050    -4.9790    -0.6010 C.3   1 <1>  -0.0990 
 14 C        4.8520     0.7200     1.1780 C.ar  1 <1>  -0.1500 
 15 C       -1.4590    -6.3800    -0.0020 C.2   1 <1>   0.5690 
 16 O       -0.5050    -6.8050     0.6030 O.2   1 <1>  -0.5700 
 17 N       -2.5810    -7.1430    -0.1720 N.am  1 <1>  -0.6600 
 18 C       -3.8030    -6.7850    -0.9380 C.3   1 <1>   0.1400 
 19 C       -2.6730    -8.5370     0.3270 C.3   1 <1>   0.1400 
 20 C       -4.8110    -7.8790    -0.5850 C.3   1 <1>   0.2000 
 21 C       -3.9390    -9.1110    -0.3190 C.3   1 <1>  -0.0800 
 22 O       -5.4630    -7.5100     0.5820 O.3   1 <1>  -0.6800 
 23 C       -4.6160   -10.2210     0.5080 C.3   1 <1>   0.0200 
 24 C       -3.7730   -11.4800     0.6240 C.2   1 <1>  -0.0400 
 25 O       -4.1880   -12.4400     1.4080 O.3   1 <1>  -0.0190 
 26 C       -2.6160   -11.8790     0.0700 C.2   1 <1>  -0.1500 
 27 N       -3.3720   -13.4540     1.4130 N.2   1 <1>  -0.4100 
 28 C       -2.4150   -13.1440     0.6160 C.2   1 <1>   0.1080 
 29 C       -1.2380   -14.0480     0.3250 C.3   1 <1>  -0.0590 
 30 H        2.2380    -3.0370    -2.1450 H     1 <1>   0.0600 
 31 H       -0.9450    -2.2680    -0.6890 H     1 <1>   0.0800 
 32 H       -0.1220    -2.9660    -2.0540 H     1 <1>   0.0800 
 33 H        1.6970     0.6310     2.3650 H     1 <1>   0.1500 
 34 H        0.7390    -4.7920    -0.6290 H     1 <1>   0.0800 
 35 H       -0.0210    -4.0730     0.7690 H     1 <1>   0.0800 
 36 H        5.5620    -0.4390    -0.4700 H     1 <1>   0.1500 
 37 H        3.8600     1.7360     2.7770 H     1 <1>   0.1500 
 38 H       -1.5190    -5.0710    -1.6650 H     1 <1>   0.0800 
 39 H       -2.2360    -4.4170    -0.2170 H     1 <1>   0.0800 
 40 H        5.7980     1.2020     1.3580 H     1 <1>   0.1500 
 41 H       -4.1720    -5.8080    -0.6780 H     1 <1>   0.0800 
 42 H       -3.5790    -6.8220    -1.9900 H     1 <1>   0.0800 
 43 H       -1.7930    -9.0950     0.0550 H     1 <1>   0.0800 
 44 H       -2.7590    -8.5190     1.4010 H     1 <1>   0.0800 
 45 H       -5.5500    -8.0360    -1.3530 H     1 <1>   0.0800 
 46 H       -3.6610    -9.5210    -1.2740 H     1 <1>   0.0800 
 47 H       -4.7990    -7.2430     1.2490 H     1 <1>   0.4000 
 48 H       -5.5550   -10.4830     0.0520 H     1 <1>   0.0800 
 49 H       -4.8280    -9.8640     1.5010 H     1 <1>   0.0800 
 50 H       -1.9680   -11.3840    -0.6280 H     1 <1>   0.1500 
 51 H       -0.5630   -13.5790    -0.3660 H     1 <1>   0.0800 
 52 H       -1.5900   -14.9720    -0.0970 H     1 <1>   0.0800 
 53 H       -0.7140   -14.2610     1.2390 H     1 <1>   0.0800 
@<TRIPOS>BOND
  1   1   2  2   
  2   2   3  am  
  3   2   4  1   
  4   3   5  1   
  5   3   6  1   
  6   4   7  ar  
  7   4   8  ar  
  8   5   9  2   
  9   5  30  1   
 10   6  10  1   
 11   6  31  1   
 12   6  32  1   
 13   7   9  1   
 14   7  11  ar  
 15   8  12  ar  
 16   8  33  1   
 17  10  13  1   
 18  10  34  1   
 19  10  35  1   
 20  11  14  ar  
 21  11  36  1   
 22  12  14  ar  
 23  12  37  1   
 24  13  15  1   
 25  13  38  1   
 26  13  39  1   
 27  14  40  1   
 28  15  16  2   
 29  15  17  am  
 30  17  18  1   
 31  17  19  1   
 32  18  20  1   
 33  18  41  1   
 34  18  42  1   
 35  19  21  1   
 36  19  43  1   
 37  19  44  1   
 38  20  21  1   
 39  20  22  1   
 40  20  45  1   
 41  21  23  1   
 42  21  46  1   
 43  22  47  1   
 44  23  24  1   
 45  23  48  1   
 46  23  49  1   
 47  24  25  1   
 48  24  26  2   
 49  25  27  1   
 50  26  28  1   
 51  26  50  1   
 52  27  28  2   
 53  28  29  1   
 54  29  51  1   
 55  29  52  1   
 56  29  53  1   
@<TRIPOS>SUBSTRUCTURE
  1 ****  15 GROUP 4 **** **** 0

# MOE 2024.06 (io_trps.svl 2023.06)
