@<TRIPOS>MOLECULE
NONAME
45 46 1 0 0 
SMALL
USER_CHARGES


@<TRIPOS>ATOM
  1 O        3.8570    -0.4850     0.4420 O.2   1 <1>  -0.5700 
  2 C        2.6840    -0.7380     0.2990 C.2   1 <1>   0.5690 
  3 N        1.7180     0.2370     0.2560 N.am  1 <1>  -0.4940 
  4 C        2.2860    -2.2120     0.1660 C.3   1 <1>   0.2370 
  5 C        1.7770     1.6380     0.4560 C.2   1 <1>  -0.0880 
  6 N        0.8410    -2.3340    -0.1720 N.pl3 1 <1>   0.0480 
  7 C        2.6480    -3.0290     1.4270 C.3   1 <1>  -0.1600 
  8 N        2.7440     2.5230     0.0710 N.pl3 1 <1>   0.3140 
  9 C        0.8190     2.3720     1.0660 C.2   1 <1>  -0.1500 
 10 C       -0.2230    -2.1680     0.6660 C.2   1 <1>  -0.3020 
 11 C        0.3320    -2.5030    -1.4220 C.2   1 <1>  -0.3020 
 12 C        2.3360    -4.5290     1.2960 C.3   1 <1>  -0.2400 
 13 N        2.4100     3.7900     0.4210 N.2   1 <1>  -0.7070 
 14 C        3.9510     2.2930    -0.7520 C.3   1 <1>   0.0960 
 15 C        1.2690     3.6840     1.0170 C.2   1 <1>   0.1080 
 16 C       -1.3790    -2.2390    -0.0430 C.2   1 <1>  -0.1500 
 17 C       -1.0250    -2.4530    -1.3770 C.2   1 <1>  -0.1500 
 18 C        5.2310     2.4300     0.0860 C.3   1 <1>  -0.1600 
 19 C        0.5390     4.8810     1.5780 C.3   1 <1>  -0.0590 
 20 C        6.4800     2.1350    -0.7540 C.3   1 <1>  -0.1600 
 21 C        7.7520     2.2830     0.0830 C.3   1 <1>  -0.2400 
 22 H        0.7650    -0.1330     0.1630 H     1 <1>   0.3700 
 23 H        2.8440    -2.6120    -0.6600 H     1 <1>   0.0800 
 24 H        2.1380    -2.6230     2.2830 H     1 <1>   0.0800 
 25 H        3.7040    -2.9190     1.6100 H     1 <1>   0.0800 
 26 H       -0.1020     2.0360     1.5040 H     1 <1>   0.1500 
 27 H       -0.1100    -2.0100     1.7250 H     1 <1>   0.1500 
 28 H        0.9560    -2.6500    -2.2870 H     1 <1>   0.1500 
 29 H        1.2780    -4.6930     1.1760 H     1 <1>   0.0800 
 30 H        2.6580    -5.0490     2.1810 H     1 <1>   0.0800 
 31 H        2.8490    -4.9500     0.4490 H     1 <1>   0.0800 
 32 H        3.9560     3.0250    -1.5380 H     1 <1>   0.0800 
 33 H        3.8920     1.3210    -1.2030 H     1 <1>   0.0800 
 34 H       -2.3890    -2.1520     0.3230 H     1 <1>   0.1500 
 35 H       -1.7190    -2.5550    -2.1940 H     1 <1>   0.1500 
 36 H        5.1880     1.7440     0.9140 H     1 <1>   0.0800 
 37 H        5.2870     3.4320     0.4770 H     1 <1>   0.0800 
 38 H       -0.3850     4.5810     2.0340 H     1 <1>   0.0800 
 39 H        0.3350     5.5780     0.7860 H     1 <1>   0.0800 
 40 H        1.1570     5.3620     2.3140 H     1 <1>   0.0800 
 41 H        6.5240     2.8130    -1.5900 H     1 <1>   0.0800 
 42 H        6.4240     1.1300    -1.1380 H     1 <1>   0.0800 
 43 H        7.8370     3.2860     0.4650 H     1 <1>   0.0800 
 44 H        8.6180     2.0720    -0.5190 H     1 <1>   0.0800 
 45 H        7.7370     1.5980     0.9130 H     1 <1>   0.0800 
@<TRIPOS>BOND
  1   1   2  2   
  2   2   3  am  
  3   2   4  1   
  4   3   5  1   
  5   3  22  1   
  6   4   6  1   
  7   4   7  1   
  8   4  23  1   
  9   5   8  1   
 10   5   9  2   
 11   6  10  1   
 12   6  11  1   
 13   7  12  1   
 14   7  24  1   
 15   7  25  1   
 16   8  13  1   
 17   8  14  1   
 18   9  15  1   
 19   9  26  1   
 20  10  16  2   
 21  10  27  1   
 22  11  17  2   
 23  11  28  1   
 24  12  29  1   
 25  12  30  1   
 26  12  31  1   
 27  13  15  2   
 28  14  18  1   
 29  14  32  1   
 30  14  33  1   
 31  15  19  1   
 32  16  17  1   
 33  16  34  1   
 34  17  35  1   
 35  18  20  1   
 36  18  36  1   
 37  18  37  1   
 38  19  38  1   
 39  19  39  1   
 40  19  40  1   
 41  20  21  1   
 42  20  41  1   
 43  20  42  1   
 44  21  43  1   
 45  21  44  1   
 46  21  45  1   
@<TRIPOS>SUBSTRUCTURE
  1 ****   3 GROUP 4 **** **** 0

# MOE 2024.06 (io_trps.svl 2023.06)
