@<TRIPOS>MOLECULE
NONAME
41 44 1 0 0 
SMALL
USER_CHARGES


@<TRIPOS>ATOM
  1 S        0.0190    -0.6220     0.6220 S.3   1 <1>  -0.4600 
  2 C       -1.4040     0.4870     0.3750 C.3   1 <1>   0.2510 
  3 C       -0.8310    -2.2170     0.4370 C.3   1 <1>   0.2510 
  4 C       -2.5530    -0.4730     0.1700 C.2   1 <1>   0.1080 
  5 C       -2.2710    -1.8230     0.2020 C.2   1 <1>  -0.1810 
  6 N       -3.8040    -0.2220    -0.0360 N.2   1 <1>  -0.7070 
  7 C       -3.4540    -2.4470    -0.0080 C.2   1 <1>  -0.0880 
  8 N       -4.3780    -1.4430    -0.1540 N.pl3 1 <1>   0.3140 
  9 N       -3.6430    -3.8530    -0.0410 N.am  1 <1>  -0.4940 
 10 C       -5.8340    -1.5250    -0.3260 C.3   1 <1>   0.0160 
 11 C       -4.5420    -4.6240    -0.7300 C.2   1 <1>   0.5690 
 12 O       -5.4180    -4.1700    -1.4220 O.2   1 <1>  -0.5700 
 13 C       -4.4410    -6.1350    -0.6290 C.3   1 <1>   0.0690 
 14 C       -5.7730    -6.7930    -0.2830 C.2   1 <1>   0.1820 
 15 N       -5.8840    -8.1600    -0.0780 N.pl3 1 <1>  -0.6290 
 16 C       -7.0010    -6.2530    -0.1200 C.2   1 <1>   0.2000 
 17 C       -7.1860    -8.4180     0.2080 C.cat 1 <1>   0.7910 
 18 C       -4.9760    -9.1970    -0.1340 C.2   1 <1>   0.2290 
 19 N       -7.8690    -7.2630     0.1880 N.pl3 1 <1>  -0.7000 
 20 C       -7.6360    -9.7320     0.4650 C.2   1 <1>  -0.1290 
 21 C       -5.3830   -10.4760     0.1100 C.2   1 <1>  -0.1500 
 22 C       -6.7290   -10.7580     0.4160 C.2   1 <1>  -0.1500 
 23 C       -9.1010   -10.0020     0.7900 C.3   1 <1>  -0.1020 
 24 H       -1.2230     1.0900    -0.4950 H     1 <1>   0.0800 
 25 H       -1.5300     1.0860     1.2580 H     1 <1>   0.0800 
 26 H       -0.6960    -2.7710     1.3480 H     1 <1>   0.0800 
 27 H       -0.4010    -2.7250    -0.4080 H     1 <1>   0.0800 
 28 H       -2.9100    -4.3590     0.4550 H     1 <1>   0.3700 
 29 H       -6.2780    -0.6000    -0.0080 H     1 <1>   0.0800 
 30 H       -6.2200    -2.3310     0.2680 H     1 <1>   0.0800 
 31 H       -6.0540    -1.6890    -1.3640 H     1 <1>   0.0800 
 32 H       -3.7160    -6.3990     0.1180 H     1 <1>   0.0800 
 33 H       -4.1020    -6.5100    -1.5770 H     1 <1>   0.0800 
 34 H       -7.3130    -5.2220    -0.2060 H     1 <1>   0.1500 
 35 H       -3.9490    -8.9720    -0.3730 H     1 <1>   0.1500 
 36 H       -8.8720    -7.1770     0.3600 H     1 <1>   0.4500 
 37 H       -4.6830   -11.2940     0.0710 H     1 <1>   0.1500 
 38 H       -7.0140   -11.7820     0.6030 H     1 <1>   0.1500 
 39 H       -9.3930    -9.4710     1.6790 H     1 <1>   0.0800 
 40 H       -9.2690   -11.0520     0.9590 H     1 <1>   0.0800 
 41 H       -9.7300    -9.6920    -0.0270 H     1 <1>   0.0800 
@<TRIPOS>BOND
  1   1   2  1   
  2   1   3  1   
  3   2   4  1   
  4   2  24  1   
  5   2  25  1   
  6   3   5  1   
  7   3  26  1   
  8   3  27  1   
  9   4   5  1   
 10   4   6  2   
 11   5   7  2   
 12   6   8  1   
 13   7   8  1   
 14   7   9  1   
 15   8  10  1   
 16   9  11  am  
 17   9  28  1   
 18  10  29  1   
 19  10  30  1   
 20  10  31  1   
 21  11  12  2   
 22  11  13  1   
 23  13  14  1   
 24  13  32  1   
 25  13  33  1   
 26  14  15  1   
 27  14  16  2   
 28  15  17  ar  
 29  15  18  1   
 30  16  19  1   
 31  16  34  1   
 32  17  19  ar  
 33  17  20  1   
 34  18  21  2   
 35  18  35  1   
 36  19  36  1   
 37  20  22  2   
 38  20  23  1   
 39  21  22  1   
 40  21  37  1   
 41  22  38  1   
 42  23  39  1   
 43  23  40  1   
 44  23  41  1   
@<TRIPOS>SUBSTRUCTURE
  1 ****  11 GROUP 4 **** **** 0

# MOE 2024.06 (io_trps.svl 2023.06)
