@<TRIPOS>MOLECULE
NONAME
46 49 1 0 0 
SMALL
USER_CHARGES


@<TRIPOS>ATOM
  1 S       -0.0040     0.4770     1.1930 S.3   1 <1>  -0.0800 
  2 C        0.4740     2.1460     1.4480 C.ar  1 <1>   0.2970 
  3 C        1.1900     0.2400    -0.1020 C.2   1 <1>  -0.1920 
  4 N       -0.1160     2.9180     2.3360 N.ar  1 <1>  -0.5670 
  5 C        1.5100     2.4880     0.6110 C.ar  1 <1>   0.0000 
  6 C        1.8640     1.4110    -0.2880 C.2   1 <1>  -0.1810 
  7 C        1.2520    -1.0740    -0.7150 C.2   1 <1>   1.0320 
  8 C        0.4030     4.1270     2.3680 C.ar  1 <1>   0.4700 
  9 C        1.9920     3.7920     0.8090 C.ar  1 <1>   0.4100 
 10 C        2.8950     1.6000    -1.3920 C.3   1 <1>  -0.0590 
 11 O        2.2210    -1.3960    -1.4280 O.co2 1 <1>  -0.9000 
 12 O        0.3490    -1.9130    -0.5440 O.co2 1 <1>  -0.9000 
 13 N        1.4130     4.6170     1.6680 N.ar  1 <1>  -0.6200 
 14 N        3.1090     4.2880     0.1750 N.pl3 1 <1>  -0.8380 
 15 C        3.1190     5.6840    -0.3600 C.3   1 <1>   0.2090 
 16 C        4.4400     3.7610     0.5660 C.3   1 <1>   0.2090 
 17 C        3.7820     6.6490     0.6360 C.3   1 <1>   0.2000 
 18 C        5.1010     4.7080     1.5740 C.3   1 <1>  -0.1600 
 19 O        3.9140     7.8960     0.0230 O.3   1 <1>  -0.5600 
 20 C        5.1760     6.1530     1.0510 C.3   1 <1>  -0.1600 
 21 C        3.8430     8.9880     0.9020 C.3   1 <1>   0.2630 
 22 C        4.0140    10.3270     0.1870 C.ar  1 <1>   0.1670 
 23 N        3.9110    11.3980     0.9660 N.ar  1 <1>  -0.6200 
 24 C        4.2590    10.3960    -1.1800 C.ar  1 <1>  -0.1500 
 25 C        4.0570    12.5680     0.3650 C.ar  1 <1>   0.1600 
 26 C        4.4090    11.6230    -1.7910 C.ar  1 <1>  -0.1500 
 27 C        4.3040    12.7350    -0.9860 C.ar  1 <1>  -0.1500 
 28 H       -0.0540     4.8100     3.0640 H     1 <1>   0.1500 
 29 H        2.7510     0.8810    -2.1770 H     1 <1>   0.0800 
 30 H        3.8850     1.4710    -0.9980 H     1 <1>   0.0800 
 31 H        2.8020     2.5760    -1.8300 H     1 <1>   0.0800 
 32 H        2.1090     6.0040    -0.5480 H     1 <1>   0.0800 
 33 H        3.6620     5.6960    -1.2880 H     1 <1>   0.0800 
 34 H        5.0540     3.6690    -0.3140 H     1 <1>   0.0800 
 35 H        4.3310     2.7830     1.0060 H     1 <1>   0.0800 
 36 H        3.1370     6.7380     1.4950 H     1 <1>   0.0800 
 37 H        6.0900     4.3520     1.7970 H     1 <1>   0.0800 
 38 H        4.5300     4.6840     2.4860 H     1 <1>   0.0800 
 39 H        5.5790     6.7860     1.8210 H     1 <1>   0.0800 
 40 H        5.8290     6.1860     0.1970 H     1 <1>   0.0800 
 41 H        4.6150     8.8880     1.6430 H     1 <1>   0.0800 
 42 H        2.8820     8.9720     1.3860 H     1 <1>   0.0800 
 43 H        4.3330     9.4980    -1.7660 H     1 <1>   0.1500 
 44 H        3.9770    13.4440     0.9850 H     1 <1>   0.1500 
 45 H        4.6000    11.7040    -2.8470 H     1 <1>   0.1500 
 46 H        4.4100    13.7220    -1.3990 H     1 <1>   0.1500 
@<TRIPOS>BOND
  1   1   2  1   
  2   1   3  1   
  3   2   4  ar  
  4   2   5  ar  
  5   3   6  2   
  6   3   7  1   
  7   4   8  ar  
  8   5   6  1   
  9   5   9  ar  
 10   6  10  1   
 11   7  11  ar  
 12   7  12  ar  
 13   8  13  ar  
 14   8  28  1   
 15   9  13  ar  
 16   9  14  1   
 17  10  29  1   
 18  10  30  1   
 19  10  31  1   
 20  14  15  1   
 21  14  16  1   
 22  15  17  1   
 23  15  32  1   
 24  15  33  1   
 25  16  18  1   
 26  16  34  1   
 27  16  35  1   
 28  17  19  1   
 29  17  20  1   
 30  17  36  1   
 31  18  20  1   
 32  18  37  1   
 33  18  38  1   
 34  19  21  1   
 35  20  39  1   
 36  20  40  1   
 37  21  22  1   
 38  21  41  1   
 39  21  42  1   
 40  22  23  ar  
 41  22  24  ar  
 42  23  25  ar  
 43  24  26  ar  
 44  24  43  1   
 45  25  27  ar  
 46  25  44  1   
 47  26  27  ar  
 48  26  45  1   
 49  27  46  1   
@<TRIPOS>SUBSTRUCTURE
  1 ****  14 GROUP 4 **** **** 0

# MOE 2024.06 (io_trps.svl 2023.06)
