@<TRIPOS>MOLECULE
NONAME
45 46 1 0 0 
SMALL
USER_CHARGES


@<TRIPOS>ATOM
  1 S        1.3580    -0.3930     0.8750 S.o2  1 <1>   1.3330 
  2 O        1.3310     0.3840     2.0940 O.2   1 <1>  -0.6500 
  3 O        2.3300    -1.4530     0.7280 O.2   1 <1>  -0.6500 
  4 N       -0.1820    -1.0680     0.6420 N.am  1 <1>  -0.8490 
  5 C        1.4900     0.7550    -0.4970 C.3   1 <1>  -0.0550 
  6 C       -0.1890    -2.1860    -0.3080 C.3   1 <1>   0.1160 
  7 C       -0.8030    -1.4840     1.9040 C.3   1 <1>   0.1160 
  8 C        2.7920     1.5820    -0.4900 C.3   1 <1>  -0.0800 
  9 C        2.7380     2.6940    -1.5230 C.3   1 <1>   0.2200 
 10 C        3.9900     0.7670    -0.9820 C.3   1 <1>   0.1200 
 11 N        3.6990     3.7510    -1.1440 N.am  1 <1>  -0.7300 
 12 C        3.2180     1.9850    -2.7860 C.3   1 <1>   0.1200 
 13 O        4.0240     0.9200    -2.3700 O.3   1 <1>  -0.5600 
 14 C        3.3750     5.0200    -0.7870 C.2   1 <1>   0.5690 
 15 O        2.2320     5.4060    -0.7910 O.2   1 <1>  -0.5700 
 16 C        4.4730     5.9860    -0.3700 C.3   1 <1>   0.0440 
 17 C        5.8160     5.3000    -0.1290 C.ar  1 <1>  -0.1440 
 18 C        6.0870     4.7130     1.1000 C.ar  1 <1>  -0.1500 
 19 C        6.7700     5.2440    -1.1410 C.ar  1 <1>  -0.1500 
 20 C        7.3020     4.0840     1.2870 C.ar  1 <1>   0.1900 
 21 C        7.9860     4.6080    -0.9380 C.ar  1 <1>  -0.1500 
 22 F        7.5540     3.5280     2.4470 F     1 <1>  -0.1900 
 23 C        8.2600     4.0210     0.2840 C.ar  1 <1>   0.0820 
 24 O        9.4400     3.4020     0.4790 O.3   1 <1>  -0.5330 
 25 H        1.4100     0.2190    -1.4220 H     1 <1>   0.0800 
 26 H        0.6580     1.4300    -0.4370 H     1 <1>   0.0800 
 27 H       -1.1990    -2.5120    -0.4880 H     1 <1>   0.0800 
 28 H        0.3840    -3.0140     0.0790 H     1 <1>   0.0800 
 29 H        0.2410    -1.8790    -1.2470 H     1 <1>   0.0800 
 30 H       -1.7820    -1.8930     1.7210 H     1 <1>   0.0800 
 31 H       -0.9110    -0.6350     2.5590 H     1 <1>   0.0800 
 32 H       -0.1940    -2.2240     2.3950 H     1 <1>   0.0800 
 33 H        2.9560     1.9740     0.5000 H     1 <1>   0.0800 
 34 H        1.7530     3.1130    -1.6460 H     1 <1>   0.0800 
 35 H        3.9320    -0.2820    -0.7480 H     1 <1>   0.0800 
 36 H        4.9090     1.1670    -0.5890 H     1 <1>   0.0800 
 37 H        4.6830     3.4680    -1.1310 H     1 <1>   0.3700 
 38 H        3.7840     2.6330    -3.4330 H     1 <1>   0.0800 
 39 H        2.3870     1.5680    -3.3260 H     1 <1>   0.0800 
 40 H        4.5720     6.7320    -1.1370 H     1 <1>   0.0800 
 41 H        4.1580     6.4860     0.5270 H     1 <1>   0.0800 
 42 H        5.3700     4.7360     1.9020 H     1 <1>   0.1500 
 43 H        6.5710     5.6960    -2.0980 H     1 <1>   0.1500 
 44 H        8.7220     4.5650    -1.7220 H     1 <1>   0.1500 
 45 H        9.5100     3.0290     1.3800 H     1 <1>   0.4500 
@<TRIPOS>BOND
  1   1   2  2   
  2   1   3  2   
  3   1   4  am  
  4   1   5  1   
  5   4   6  1   
  6   4   7  1   
  7   5   8  1   
  8   5  25  1   
  9   5  26  1   
 10   6  27  1   
 11   6  28  1   
 12   6  29  1   
 13   7  30  1   
 14   7  31  1   
 15   7  32  1   
 16   8   9  1   
 17   8  10  1   
 18   8  33  1   
 19   9  11  1   
 20   9  12  1   
 21   9  34  1   
 22  10  13  1   
 23  10  35  1   
 24  10  36  1   
 25  11  14  am  
 26  11  37  1   
 27  12  13  1   
 28  12  38  1   
 29  12  39  1   
 30  14  15  2   
 31  14  16  1   
 32  16  17  1   
 33  16  40  1   
 34  16  41  1   
 35  17  18  ar  
 36  17  19  ar  
 37  18  20  ar  
 38  18  42  1   
 39  19  21  ar  
 40  19  43  1   
 41  20  22  1   
 42  20  23  ar  
 43  21  23  ar  
 44  21  44  1   
 45  23  24  1   
 46  24  45  1   
@<TRIPOS>SUBSTRUCTURE
  1 ****   8 GROUP 4 **** **** 0

# MOE 2024.06 (io_trps.svl 2023.06)
