@<TRIPOS>MOLECULE
NONAME
46 50 1 0 0 
SMALL
USER_CHARGES


@<TRIPOS>ATOM
  1 S       -0.4650     0.2320    -2.1290 S.3   1 <1>  -0.0800 
  2 C       -1.1980     1.1050    -0.7920 C.2   1 <1>  -0.1400 
  3 C       -1.9250    -0.7250    -2.3480 C.2   1 <1>  -0.1100 
  4 C       -2.4510     0.6810    -0.5810 C.2   1 <1>  -0.1810 
  5 C       -0.4660     2.1970    -0.0150 C.3   1 <1>   0.4600 
  6 C       -2.8720    -0.3680    -1.4580 C.2   1 <1>  -0.1500 
  7 C       -3.2790     1.3180     0.5130 C.3   1 <1>   0.0210 
  8 O       -1.2640     2.5530     1.0960 O.3   1 <1>  -0.5600 
  9 C       -0.2410     3.4550    -0.8840 C.3   1 <1>  -0.1600 
 10 C        0.8380     1.6450     0.5780 C.3   1 <1>  -0.1600 
 11 C       -2.6520     2.6740     0.8920 C.3   1 <1>   0.1200 
 12 C        1.2400     3.7840    -1.0730 C.3   1 <1>   0.1400 
 13 C        1.6830     2.7580     1.2030 C.3   1 <1>   0.1400 
 14 N        1.8860     3.9030     0.2640 N.am  1 <1>  -0.6600 
 15 C        2.5580     5.0340     0.7090 C.2   1 <1>   0.7160 
 16 O        3.3100     4.8830     1.6610 O.2   1 <1>  -0.5700 
 17 C        2.4320     6.3650     0.1060 C.2   1 <1>   0.2030 
 18 N        1.3980     6.8490    -0.5750 N.2   1 <1>  -0.7070 
 19 C        3.4270     7.3540     0.1880 C.2   1 <1>  -0.1810 
 20 N        1.7330     8.1020    -0.9180 N.pl3 1 <1>   0.3000 
 21 C        2.9610     8.4180    -0.4770 C.2   1 <1>  -0.3320 
 22 C        4.7940     7.3450     0.8630 C.3   1 <1>   0.3010 
 23 C        3.7570     9.6960    -0.6300 C.3   1 <1>   0.0200 
 24 O        5.3120     8.6560     0.9150 O.3   1 <1>  -0.5600 
 25 C        5.2280     9.3960    -0.2760 C.3   1 <1>   0.1200 
 26 H       -1.9190    -1.4630    -3.1290 H     1 <1>   0.1500 
 27 H       -3.8540    -0.8010    -1.3810 H     1 <1>   0.1500 
 28 H       -3.3040     0.6740     1.3740 H     1 <1>   0.0800 
 29 H       -4.2870     1.4740     0.1730 H     1 <1>   0.0800 
 30 H       -0.7110     4.3100    -0.4330 H     1 <1>   0.0800 
 31 H       -0.6820     3.3140    -1.8520 H     1 <1>   0.0800 
 32 H        1.4200     1.1640    -0.1860 H     1 <1>   0.0800 
 33 H        0.6060     0.8990     1.3160 H     1 <1>   0.0800 
 34 H       -3.0860     3.0440     1.8040 H     1 <1>   0.0800 
 35 H       -2.8200     3.3950     0.1120 H     1 <1>   0.0800 
 36 H        1.3500     4.6810    -1.6520 H     1 <1>   0.0800 
 37 H        1.7220     2.9940    -1.6240 H     1 <1>   0.0800 
 38 H        2.6410     2.3650     1.4990 H     1 <1>   0.0800 
 39 H        1.1870     3.1260     2.0860 H     1 <1>   0.0800 
 40 H        1.1040     8.7180    -1.4480 H     1 <1>   0.2700 
 41 H        5.4830     6.7250     0.3180 H     1 <1>   0.0800 
 42 H        4.7170     6.9870     1.8750 H     1 <1>   0.0800 
 43 H        3.3740    10.4500     0.0350 H     1 <1>   0.0800 
 44 H        3.7000    10.0640    -1.6380 H     1 <1>   0.0800 
 45 H        5.7750    10.3120    -0.1350 H     1 <1>   0.0800 
 46 H        5.6970     8.8240    -1.0580 H     1 <1>   0.0800 
@<TRIPOS>BOND
  1   1   2  1   
  2   1   3  1   
  3   2   4  2   
  4   2   5  1   
  5   3   6  2   
  6   3  26  1   
  7   4   6  1   
  8   4   7  1   
  9   5   8  1   
 10   5   9  1   
 11   5  10  1   
 12   6  27  1   
 13   7  11  1   
 14   7  28  1   
 15   7  29  1   
 16   8  11  1   
 17   9  12  1   
 18   9  30  1   
 19   9  31  1   
 20  10  13  1   
 21  10  32  1   
 22  10  33  1   
 23  11  34  1   
 24  11  35  1   
 25  12  14  1   
 26  12  36  1   
 27  12  37  1   
 28  13  14  1   
 29  13  38  1   
 30  13  39  1   
 31  14  15  am  
 32  15  16  2   
 33  15  17  1   
 34  17  18  2   
 35  17  19  1   
 36  18  20  1   
 37  19  21  2   
 38  19  22  1   
 39  20  21  1   
 40  20  40  1   
 41  21  23  1   
 42  22  24  1   
 43  22  41  1   
 44  22  42  1   
 45  23  25  1   
 46  23  43  1   
 47  23  44  1   
 48  24  25  1   
 49  25  45  1   
 50  25  46  1   
@<TRIPOS>SUBSTRUCTURE
  1 ****  14 GROUP 4 **** **** 0

# MOE 2024.06 (io_trps.svl 2023.06)
