@<TRIPOS>MOLECULE
NONAME
61 63 1 0 0 
SMALL
USER_CHARGES


@<TRIPOS>ATOM
  1 O        1.2580    -0.1340     1.8750 O.2   1 <1>  -0.5700 
  2 C        1.8190    -0.8010     1.0240 C.2   1 <1>   0.5440 
  3 N        2.6070    -0.1600     0.0900 N.am  1 <1>  -0.6600 
  4 C        1.6720    -2.2370     1.0430 C.ar  1 <1>   0.0860 
  5 C        3.3900    -0.8680    -0.9730 C.3   1 <1>   0.1400 
  6 C        2.8280     1.3090     0.1320 C.3   1 <1>   0.1400 
  7 C        0.9420    -2.9640     0.0860 C.ar  1 <1>   0.0830 
  8 C        2.3140    -2.9600     2.0490 C.ar  1 <1>  -0.1500 
  9 C        4.8630    -1.0490    -0.5780 C.3   1 <1>   0.1400 
 10 C        3.9320     1.6770     1.1330 C.3   1 <1>  -0.1600 
 11 O        0.2440    -2.3880    -0.9210 O.3   1 <1>  -0.3620 
 12 C        0.9150    -4.3490     0.1200 C.ar  1 <1>  -0.1500 
 13 C        2.2730    -4.3390     2.0880 C.ar  1 <1>  -0.1500 
 14 N        5.5080     0.2460    -0.1900 N.am  1 <1>  -0.6600 
 15 C        5.1370     0.7240     1.1710 C.3   1 <1>   0.1400 
 16 C       -0.6060    -1.2880    -0.6660 C.3   1 <1>   0.0400 
 17 C        1.5800    -5.0470     1.1200 C.ar  1 <1>   0.0830 
 18 C        6.2980     0.9340    -1.0810 C.2   1 <1>   0.5690 
 19 O        1.5960    -6.3950     1.2170 O.3   1 <1>  -0.3630 
 20 O        6.4570     0.5280    -2.2150 O.2   1 <1>  -0.5700 
 21 C        7.0100     2.2470    -0.6820 C.3   1 <1>   0.2610 
 22 C        0.8990    -7.2110     0.3020 C.3   1 <1>   0.0400 
 23 O        7.1460     3.0830    -1.7920 O.3   1 <1>  -0.6800 
 24 C        8.3980     2.0000    -0.0410 C.3   1 <1>  -0.0800 
 25 C        8.9950     3.3030     0.5280 C.3   1 <1>  -0.1600 
 26 C        9.4050     1.3210    -0.9940 C.3   1 <1>  -0.1600 
 27 C       10.3430     3.0540     1.2170 C.3   1 <1>  -0.1600 
 28 C       10.7540     1.0740    -0.3040 C.3   1 <1>  -0.1600 
 29 C       11.3340     2.3750     0.2640 C.3   1 <1>  -0.1600 
 30 H        2.9620    -1.8320    -1.1780 H     1 <1>   0.0800 
 31 H        3.3410    -0.3040    -1.8880 H     1 <1>   0.0800 
 32 H        3.1060     1.6550    -0.8490 H     1 <1>   0.0800 
 33 H        1.9120     1.8070     0.4050 H     1 <1>   0.0800 
 34 H        2.8540    -2.4210     2.8080 H     1 <1>   0.1500 
 35 H        5.3900    -1.4890    -1.4070 H     1 <1>   0.0800 
 36 H        4.9280    -1.7450     0.2400 H     1 <1>   0.0800 
 37 H        3.4980     1.7070     2.1170 H     1 <1>   0.0800 
 38 H        4.2670     2.6740     0.9160 H     1 <1>   0.0800 
 39 H        0.3620    -4.8590    -0.6440 H     1 <1>   0.1500 
 40 H        2.7760    -4.8820     2.8690 H     1 <1>   0.1500 
 41 H        4.8830    -0.1260     1.7810 H     1 <1>   0.0800 
 42 H        5.9750     1.2090     1.6420 H     1 <1>   0.0800 
 43 H       -1.4020    -1.3050    -1.3890 H     1 <1>   0.0800 
 44 H       -0.0450    -0.3770    -0.7710 H     1 <1>   0.0800 
 45 H       -1.0120    -1.3710     0.3280 H     1 <1>   0.0800 
 46 H        6.3960     2.7810     0.0160 H     1 <1>   0.0800 
 47 H        1.0510    -8.2370     0.5860 H     1 <1>   0.0800 
 48 H        1.2910    -7.0430    -0.6850 H     1 <1>   0.0800 
 49 H       -0.1490    -6.9710     0.3480 H     1 <1>   0.0800 
 50 H        7.2600     2.5030    -2.5760 H     1 <1>   0.4000 
 51 H        8.2440     1.3310     0.7890 H     1 <1>   0.0800 
 52 H        9.1360     4.0110    -0.2720 H     1 <1>   0.0800 
 53 H        8.3120     3.7410     1.2340 H     1 <1>   0.0800 
 54 H        9.0150     0.3790    -1.3390 H     1 <1>   0.0800 
 55 H        9.5650     1.9460    -1.8560 H     1 <1>   0.0800 
 56 H       10.7540     3.9900     1.5530 H     1 <1>   0.0800 
 57 H       10.1950     2.4290     2.0810 H     1 <1>   0.0800 
 58 H       10.6230     0.3630     0.4940 H     1 <1>   0.0800 
 59 H       11.4460     0.6500    -1.0110 H     1 <1>   0.0800 
 60 H       12.2510     2.1640     0.7860 H     1 <1>   0.0800 
 61 H       11.5630     3.0450    -0.5480 H     1 <1>   0.0800 
@<TRIPOS>BOND
  1   1   2  2   
  2   2   3  am  
  3   2   4  1   
  4   3   5  1   
  5   3   6  1   
  6   4   7  ar  
  7   4   8  ar  
  8   5   9  1   
  9   5  30  1   
 10   5  31  1   
 11   6  10  1   
 12   6  32  1   
 13   6  33  1   
 14   7  11  1   
 15   7  12  ar  
 16   8  13  ar  
 17   8  34  1   
 18   9  14  1   
 19   9  35  1   
 20   9  36  1   
 21  10  15  1   
 22  10  37  1   
 23  10  38  1   
 24  11  16  1   
 25  12  17  ar  
 26  12  39  1   
 27  13  17  ar  
 28  13  40  1   
 29  14  15  1   
 30  14  18  am  
 31  15  41  1   
 32  15  42  1   
 33  16  43  1   
 34  16  44  1   
 35  16  45  1   
 36  17  19  1   
 37  18  20  2   
 38  18  21  1   
 39  19  22  1   
 40  21  23  1   
 41  21  24  1   
 42  21  46  1   
 43  22  47  1   
 44  22  48  1   
 45  22  49  1   
 46  23  50  1   
 47  24  25  1   
 48  24  26  1   
 49  24  51  1   
 50  25  27  1   
 51  25  52  1   
 52  25  53  1   
 53  26  28  1   
 54  26  54  1   
 55  26  55  1   
 56  27  29  1   
 57  27  56  1   
 58  27  57  1   
 59  28  29  1   
 60  28  58  1   
 61  28  59  1   
 62  29  60  1   
 63  29  61  1   
@<TRIPOS>SUBSTRUCTURE
  1 ****   9 GROUP 4 **** **** 0

# MOE 2024.06 (io_trps.svl 2023.06)
