@<TRIPOS>MOLECULE
NONAME
41 43 1 0 0 
SMALL
USER_CHARGES


@<TRIPOS>ATOM
  1 O       -0.8220     0.9420    -2.0410 O.co2 1 <1>  -0.9000 
  2 C       -1.1460     1.1620    -0.8680 C.2   1 <1>   0.9060 
  3 O       -1.7830     0.3240    -0.2100 O.co2 1 <1>  -0.9000 
  4 C       -0.8230     2.5040    -0.2120 C.3   1 <1>  -0.1060 
  5 C       -2.1720     3.1090     0.2370 C.3   1 <1>   0.2000 
  6 C       -0.2210     3.4560    -1.2660 C.3   1 <1>   0.2090 
  7 C        0.1620     2.2990     0.9780 C.3   1 <1>  -0.0650 
  8 O       -2.7440     2.3290     1.2240 O.3   1 <1>  -0.6800 
  9 C       -2.0680     4.5420     0.7600 C.3   1 <1>  -0.1600 
 10 N       -0.1440     4.8660    -0.7480 N.pl3 1 <1>  -0.8380 
 11 C        1.5020     1.6500     0.5920 C.3   1 <1>  -0.1950 
 12 C       -1.4350     5.4440    -0.2960 C.3   1 <1>   0.2090 
 13 C        1.0040     5.6210    -0.8330 C.ar  1 <1>   0.7200 
 14 C        2.6570     1.6880     1.5410 C.3   1 <1>  -0.2000 
 15 C        2.7010     2.4830     0.2690 C.3   1 <1>  -0.2000 
 16 N        1.1510     6.6030     0.0590 N.ar  1 <1>  -0.6200 
 17 N        1.8670     5.3140    -1.8010 N.ar  1 <1>  -0.6200 
 18 C        2.2510     7.3070    -0.0160 C.ar  1 <1>   0.1670 
 19 C        2.9580     6.0340    -1.8550 C.ar  1 <1>   0.1600 
 20 C        3.2050     7.0560    -0.9730 C.ar  1 <1>  -0.1500 
 21 C        2.4270     8.4130     1.0010 C.3   1 <1>  -0.0970 
 22 H       -2.8490     3.0910    -0.6020 H     1 <1>   0.0800 
 23 H       -0.8390     3.4530    -2.1480 H     1 <1>   0.0800 
 24 H        0.7480     3.0960    -1.5630 H     1 <1>   0.0800 
 25 H        0.3590     3.2410     1.4550 H     1 <1>   0.0800 
 26 H       -0.3050     1.6610     1.7070 H     1 <1>   0.0800 
 27 H       -2.5920     1.3840     0.9280 H     1 <1>   0.4000 
 28 H       -3.0500     4.9080     0.9930 H     1 <1>   0.0800 
 29 H       -1.4730     4.5750     1.6530 H     1 <1>   0.0800 
 30 H        1.3700     0.7330     0.0400 H     1 <1>   0.1000 
 31 H       -1.3000     6.4320     0.1080 H     1 <1>   0.0800 
 32 H       -2.0910     5.5200    -1.1460 H     1 <1>   0.0800 
 33 H        2.5430     2.2130     2.4740 H     1 <1>   0.1000 
 34 H        3.2720     0.8100     1.6300 H     1 <1>   0.1000 
 35 H        3.3240     2.1620    -0.5470 H     1 <1>   0.1000 
 36 H        2.6120     3.5540     0.3230 H     1 <1>   0.1000 
 37 H        3.6730     5.8000    -2.6240 H     1 <1>   0.1500 
 38 H        4.1070     7.6330    -1.0360 H     1 <1>   0.1500 
 39 H        3.3660     8.9170     0.8670 H     1 <1>   0.0800 
 40 H        2.3930     7.9960     1.9910 H     1 <1>   0.0800 
 41 H        1.6290     9.1250     0.8990 H     1 <1>   0.0800 
@<TRIPOS>BOND
  1   1   2  ar  
  2   2   3  ar  
  3   2   4  1   
  4   4   5  1   
  5   4   6  1   
  6   4   7  1   
  7   5   8  1   
  8   5   9  1   
  9   5  22  1   
 10   6  10  1   
 11   6  23  1   
 12   6  24  1   
 13   7  11  1   
 14   7  25  1   
 15   7  26  1   
 16   8  27  1   
 17   9  12  1   
 18   9  28  1   
 19   9  29  1   
 20  10  12  1   
 21  10  13  1   
 22  11  14  1   
 23  11  15  1   
 24  11  30  1   
 25  12  31  1   
 26  12  32  1   
 27  13  16  ar  
 28  13  17  ar  
 29  14  15  1   
 30  14  33  1   
 31  14  34  1   
 32  15  35  1   
 33  15  36  1   
 34  16  18  ar  
 35  17  19  ar  
 36  18  20  ar  
 37  18  21  1   
 38  19  20  ar  
 39  19  37  1   
 40  20  38  1   
 41  21  39  1   
 42  21  40  1   
 43  21  41  1   
@<TRIPOS>SUBSTRUCTURE
  1 ****  10 GROUP 4 **** **** 0

# MOE 2024.06 (io_trps.svl 2023.06)
