@<TRIPOS>MOLECULE
NONAME
35 36 1 0 0 
SMALL
USER_CHARGES


@<TRIPOS>ATOM
  1 S       -1.3910     0.0790    -0.7780 S.3   1 <1>  -0.4600 
  2 C       -1.2110    -0.8550     0.7860 C.3   1 <1>   0.1310 
  3 C       -0.9560     1.7740    -0.3070 C.3   1 <1>  -0.0100 
  4 C       -1.2900    -2.3650     0.5780 C.2   1 <1>   0.5690 
  5 O       -0.3130    -3.0190     0.8610 O.2   1 <1>  -0.5700 
  6 N       -2.4410    -2.9650     0.1350 N.am  1 <1>  -0.6600 
  7 C       -3.7050    -2.2860    -0.2440 C.3   1 <1>   0.1400 
  8 C       -2.5620    -4.4280    -0.0520 C.3   1 <1>   0.1400 
  9 C       -4.6870    -3.4140    -0.5710 C.3   1 <1>   0.2000 
 10 C       -4.0660    -4.6970    -0.0160 C.3   1 <1>  -0.0800 
 11 O       -5.9220    -3.2030     0.0230 O.3   1 <1>  -0.6800 
 12 C       -4.5030    -5.9490    -0.7950 C.3   1 <1>  -0.0170 
 13 C       -3.9060    -7.2160    -0.2030 C.ar  1 <1>   0.1670 
 14 N       -2.6880    -7.5400    -0.6050 N.ar  1 <1>  -0.6200 
 15 C       -4.6380    -7.9650     0.7160 C.ar  1 <1>   0.1600 
 16 C       -2.2530    -8.6480    -0.0290 C.ar  1 <1>   0.1600 
 17 N       -4.2050    -9.0740     1.2940 N.ar  1 <1>  -0.6200 
 18 C       -2.9860    -9.3890     0.8900 C.ar  1 <1>   0.1600 
 19 H       -0.2520    -0.5970     1.1940 H     1 <1>   0.0800 
 20 H       -1.9880    -0.5260     1.4490 H     1 <1>   0.0800 
 21 H       -1.0440     2.3890    -1.1850 H     1 <1>   0.0800 
 22 H        0.0570     1.7700     0.0550 H     1 <1>   0.0800 
 23 H       -1.6410     2.0960     0.4560 H     1 <1>   0.0800 
 24 H       -4.0570    -1.6840     0.5750 H     1 <1>   0.0800 
 25 H       -3.5480    -1.6740    -1.1140 H     1 <1>   0.0800 
 26 H       -2.1430    -4.6960    -1.0080 H     1 <1>   0.0800 
 27 H       -2.0420    -4.9660     0.7240 H     1 <1>   0.0800 
 28 H       -4.8290    -3.4730    -1.6370 H     1 <1>   0.0800 
 29 H       -4.3390    -4.8090     1.0190 H     1 <1>   0.0800 
 30 H       -5.8250    -3.1380     0.9920 H     1 <1>   0.4000 
 31 H       -4.2000    -5.8670    -1.8250 H     1 <1>   0.0800 
 32 H       -5.5760    -6.0170    -0.7800 H     1 <1>   0.0800 
 33 H       -5.6240    -7.6330     0.9880 H     1 <1>   0.1500 
 34 H       -1.2670    -8.9860    -0.2960 H     1 <1>   0.1500 
 35 H       -2.5460   -10.2780     1.3050 H     1 <1>   0.1500 
@<TRIPOS>BOND
  1   1   2  1   
  2   1   3  1   
  3   2   4  1   
  4   2  19  1   
  5   2  20  1   
  6   3  21  1   
  7   3  22  1   
  8   3  23  1   
  9   4   5  2   
 10   4   6  am  
 11   6   7  1   
 12   6   8  1   
 13   7   9  1   
 14   7  24  1   
 15   7  25  1   
 16   8  10  1   
 17   8  26  1   
 18   8  27  1   
 19   9  10  1   
 20   9  11  1   
 21   9  28  1   
 22  10  12  1   
 23  10  29  1   
 24  11  30  1   
 25  12  13  1   
 26  12  31  1   
 27  12  32  1   
 28  13  14  ar  
 29  13  15  ar  
 30  14  16  ar  
 31  15  17  ar  
 32  15  33  1   
 33  16  18  ar  
 34  16  34  1   
 35  17  18  ar  
 36  18  35  1   
@<TRIPOS>SUBSTRUCTURE
  1 ****   8 GROUP 4 **** **** 0

# MOE 2024.06 (io_trps.svl 2023.06)
