@<TRIPOS>MOLECULE
NONAME
45 47 1 0 0 
SMALL
USER_CHARGES


@<TRIPOS>ATOM
  1 F       -1.1500    -1.6990     1.5630 F     1 <1>  -0.3400 
  2 C       -1.8520    -1.6480     0.4380 C.3   1 <1>   1.1640 
  3 F       -3.0710    -1.2420     0.7770 F     1 <1>  -0.3400 
  4 F       -1.3250    -0.6650    -0.2840 F     1 <1>  -0.3400 
  5 C       -1.8530    -2.9950    -0.3020 C.ar  1 <1>  -0.1440 
  6 C       -2.8500    -3.9380    -0.0670 C.ar  1 <1>  -0.1500 
  7 C       -0.8510    -3.3040    -1.2170 C.ar  1 <1>  -0.1500 
  8 C       -2.8570    -5.1570    -0.7290 C.ar  1 <1>  -0.1440 
  9 C       -0.8510    -4.5170    -1.8810 C.ar  1 <1>  -0.1500 
 10 C       -1.8510    -5.4410    -1.6390 C.ar  1 <1>  -0.1500 
 11 C       -3.9620    -6.1700    -0.4520 C.3   1 <1>   0.3530 
 12 N       -5.2970    -5.6100    -0.8170 N.pl3 1 <1>  -0.8380 
 13 C       -6.4310    -6.0950    -0.1840 C.ar  1 <1>   0.4100 
 14 C       -5.4050    -5.0590    -2.1980 C.3   1 <1>   0.1290 
 15 N       -6.3770    -7.3430     0.2510 N.ar  1 <1>  -0.6200 
 16 C       -7.5730    -5.2930    -0.0280 C.ar  1 <1>   0.1600 
 17 C       -7.5070    -7.7680     0.8440 C.ar  1 <1>   0.3960 
 18 N       -8.6960    -5.6750     0.5430 N.ar  1 <1>  -0.6200 
 19 C       -7.6180    -9.1250     1.3840 C.2   1 <1>   0.5440 
 20 C       -8.6170    -6.9270     0.9730 C.ar  1 <1>   0.1600 
 21 O       -8.3550    -9.3240     2.3360 O.2   1 <1>  -0.5700 
 22 N       -6.9560   -10.2240     0.8650 N.am  1 <1>  -0.6600 
 23 C       -7.0770   -11.5790     1.4470 C.3   1 <1>   0.1400 
 24 C       -6.1300   -10.2480    -0.3630 C.3   1 <1>   0.1400 
 25 C       -6.1000   -12.4380     0.6510 C.3   1 <1>  -0.1600 
 26 C       -5.9690   -11.7270    -0.6930 C.3   1 <1>  -0.1600 
 27 H       -3.6410    -3.7300     0.6360 H     1 <1>   0.1500 
 28 H       -0.0610    -2.6000    -1.4190 H     1 <1>   0.1500 
 29 H       -0.0710    -4.7430    -2.5870 H     1 <1>   0.1500 
 30 H       -1.8400    -6.3810    -2.1630 H     1 <1>   0.1500 
 31 H       -3.9510    -6.4210     0.5950 H     1 <1>   0.0800 
 32 H       -3.7940    -7.0730    -1.0120 H     1 <1>   0.0800 
 33 H       -4.9870    -4.0670    -2.2260 H     1 <1>   0.0800 
 34 H       -6.4340    -5.0120    -2.5120 H     1 <1>   0.0800 
 35 H       -4.8650    -5.6840    -2.8880 H     1 <1>   0.0800 
 36 H       -7.5220    -4.2870    -0.4000 H     1 <1>   0.1500 
 37 H       -9.4910    -7.3200     1.4630 H     1 <1>   0.1500 
 38 H       -8.0870   -11.9280     1.3140 H     1 <1>   0.0800 
 39 H       -6.8360   -11.5670     2.4970 H     1 <1>   0.0800 
 40 H       -5.1720    -9.8050    -0.1480 H     1 <1>   0.0800 
 41 H       -6.6070    -9.7120    -1.1650 H     1 <1>   0.0800 
 42 H       -6.4490   -13.4500     0.5500 H     1 <1>   0.0800 
 43 H       -5.1510   -12.4430     1.1570 H     1 <1>   0.0800 
 44 H       -5.0290   -11.9300    -1.1750 H     1 <1>   0.0800 
 45 H       -6.7700   -12.0290    -1.3450 H     1 <1>   0.0800 
@<TRIPOS>BOND
  1   1   2  1   
  2   2   3  1   
  3   2   4  1   
  4   2   5  1   
  5   5   6  ar  
  6   5   7  ar  
  7   6   8  ar  
  8   6  27  1   
  9   7   9  ar  
 10   7  28  1   
 11   8  10  ar  
 12   8  11  1   
 13   9  10  ar  
 14   9  29  1   
 15  10  30  1   
 16  11  12  1   
 17  11  31  1   
 18  11  32  1   
 19  12  13  1   
 20  12  14  1   
 21  13  15  ar  
 22  13  16  ar  
 23  14  33  1   
 24  14  34  1   
 25  14  35  1   
 26  15  17  ar  
 27  16  18  ar  
 28  16  36  1   
 29  17  19  1   
 30  17  20  ar  
 31  18  20  ar  
 32  19  21  2   
 33  19  22  am  
 34  20  37  1   
 35  22  23  1   
 36  22  24  1   
 37  23  25  1   
 38  23  38  1   
 39  23  39  1   
 40  24  26  1   
 41  24  40  1   
 42  24  41  1   
 43  25  26  1   
 44  25  42  1   
 45  25  43  1   
 46  26  44  1   
 47  26  45  1   
@<TRIPOS>SUBSTRUCTURE
  1 ****  11 GROUP 4 **** **** 0

# MOE 2024.06 (io_trps.svl 2023.06)
