@<TRIPOS>MOLECULE
NONAME
48 49 1 0 0 
SMALL
USER_CHARGES


@<TRIPOS>ATOM
  1 S        0.7160     1.1380    -0.3030 S.o2  1 <1>   1.3330 
  2 O        0.6170    -0.2570    -0.6710 O.2   1 <1>  -0.6500 
  3 O       -0.3410     2.0520    -0.6730 O.2   1 <1>  -0.6500 
  4 N        0.8780     1.2180     1.3870 N.am  1 <1>  -0.8490 
  5 C        2.2820     1.7640    -0.9140 C.3   1 <1>  -0.0550 
  6 C        0.6520     2.5640     1.9270 C.3   1 <1>   0.1160 
  7 C        0.0030     0.2590     2.0680 C.3   1 <1>   0.1160 
  8 C        3.4800     0.8170    -0.6810 C.3   1 <1>  -0.0800 
  9 C        4.7910     1.2780    -1.3020 C.3   1 <1>   0.2200 
 10 C        3.8630     0.5970     0.7880 C.3   1 <1>   0.1200 
 11 N        4.9940     2.7240    -1.0690 N.am  1 <1>  -0.7300 
 12 C        5.7880     0.4990    -0.4560 C.3   1 <1>   0.1200 
 13 O        5.2580     0.5100     0.8350 O.3   1 <1>  -0.5600 
 14 C        4.7700     3.7220    -1.9610 C.2   1 <1>   0.5690 
 15 O        4.4090     3.4900    -3.0900 O.2   1 <1>  -0.5700 
 16 C        4.9520     5.1680    -1.5200 C.3   1 <1>   0.1810 
 17 O        4.8820     5.2670    -0.1040 O.3   1 <1>  -0.3630 
 18 C        5.0610     6.4480     0.5420 C.ar  1 <1>   0.0820 
 19 C        5.1050     6.4180     1.9330 C.ar  1 <1>  -0.1440 
 20 C        5.2010     7.6620    -0.1280 C.ar  1 <1>  -0.1500 
 21 C        5.2890     7.5970     2.6370 C.ar  1 <1>  -0.1500 
 22 C        4.9580     5.1030     2.6880 C.3   1 <1>  -0.0970 
 23 C        5.3840     8.8320     0.5860 C.ar  1 <1>  -0.1500 
 24 C        5.4280     8.8010     1.9680 C.ar  1 <1>  -0.1500 
 25 H        2.1910     1.9240    -1.9710 H     1 <1>   0.0800 
 26 H        2.4760     2.7170    -0.4650 H     1 <1>   0.0800 
 27 H        0.8480     2.5750     2.9860 H     1 <1>   0.0800 
 28 H       -0.3660     2.8740     1.7570 H     1 <1>   0.0800 
 29 H        1.3110     3.2720     1.4550 H     1 <1>   0.0800 
 30 H        0.1360     0.3240     3.1350 H     1 <1>   0.0800 
 31 H        0.2440    -0.7450     1.7600 H     1 <1>   0.0800 
 32 H       -1.0290     0.4560     1.8260 H     1 <1>   0.0800 
 33 H        3.2380    -0.1450    -1.1000 H     1 <1>   0.0800 
 34 H        4.8650     1.0460    -2.3510 H     1 <1>   0.0800 
 35 H        3.4390    -0.3120     1.1810 H     1 <1>   0.0800 
 36 H        3.5720     1.4290     1.4050 H     1 <1>   0.0800 
 37 H        5.2510     2.9730    -0.1080 H     1 <1>   0.3700 
 38 H        6.7690     0.9420    -0.4520 H     1 <1>   0.0800 
 39 H        5.8480    -0.5250    -0.7800 H     1 <1>   0.0800 
 40 H        4.1710     5.7710    -1.9430 H     1 <1>   0.0800 
 41 H        5.9140     5.5240    -1.8410 H     1 <1>   0.0800 
 42 H        5.1690     7.7210    -1.1980 H     1 <1>   0.1500 
 43 H        5.3260     7.5880     3.7130 H     1 <1>   0.1500 
 44 H        4.9840     5.2610     3.7510 H     1 <1>   0.0800 
 45 H        5.7590     4.4380     2.4210 H     1 <1>   0.0800 
 46 H        4.0220     4.6390     2.4330 H     1 <1>   0.0800 
 47 H        5.4920     9.7700     0.0680 H     1 <1>   0.1500 
 48 H        5.5710     9.7110     2.5230 H     1 <1>   0.1500 
@<TRIPOS>BOND
  1   1   2  2   
  2   1   3  2   
  3   1   4  am  
  4   1   5  1   
  5   4   6  1   
  6   4   7  1   
  7   5   8  1   
  8   5  25  1   
  9   5  26  1   
 10   6  27  1   
 11   6  28  1   
 12   6  29  1   
 13   7  30  1   
 14   7  31  1   
 15   7  32  1   
 16   8   9  1   
 17   8  10  1   
 18   8  33  1   
 19   9  11  1   
 20   9  12  1   
 21   9  34  1   
 22  10  13  1   
 23  10  35  1   
 24  10  36  1   
 25  11  14  am  
 26  11  37  1   
 27  12  13  1   
 28  12  38  1   
 29  12  39  1   
 30  14  15  2   
 31  14  16  1   
 32  16  17  1   
 33  16  40  1   
 34  16  41  1   
 35  17  18  1   
 36  18  19  ar  
 37  18  20  ar  
 38  19  21  ar  
 39  19  22  1   
 40  20  23  ar  
 41  20  42  1   
 42  21  24  ar  
 43  21  43  1   
 44  22  44  1   
 45  22  45  1   
 46  22  46  1   
 47  23  24  ar  
 48  23  47  1   
 49  24  48  1   
@<TRIPOS>SUBSTRUCTURE
  1 ****  11 GROUP 4 **** **** 0

# MOE 2024.06 (io_trps.svl 2023.06)
