@<TRIPOS>MOLECULE
NONAME
51 53 1 0 0 
SMALL
USER_CHARGES


@<TRIPOS>ATOM
  1 O       -1.3720     1.0990    -1.3440 O.2   1 <1>  -0.5700 
  2 C       -0.8050     2.0640    -0.9000 C.2   1 <1>   0.5690 
  3 N       -1.4660     2.9550    -0.1260 N.am  1 <1>  -0.7300 
  4 C        0.6750     2.3060    -1.2400 C.3   1 <1>   0.1810 
  5 C       -0.7980     4.1110     0.5060 C.3   1 <1>   0.3640 
  6 O        1.2910     3.3110    -0.4560 O.3   1 <1>  -0.5600 
  7 C       -1.7630     5.2920     0.5500 C.ar  1 <1>  -0.1440 
  8 C        0.4970     4.4670    -0.2590 C.3   1 <1>   0.2610 
  9 C       -2.1910     5.9140    -0.6150 C.ar  1 <1>  -0.1500 
 10 C       -2.2000     5.7810     1.7730 C.ar  1 <1>  -0.1500 
 11 C        1.2590     5.5930     0.4570 C.2   1 <1>   0.5690 
 12 C       -3.0010     7.0350    -0.5650 C.ar  1 <1>   0.0830 
 13 C       -3.0310     6.8870     1.8310 C.ar  1 <1>  -0.1500 
 14 O        1.2660     5.6150     1.6700 O.2   1 <1>  -0.5700 
 15 N        1.8630     6.5930    -0.2660 N.am  1 <1>  -0.6600 
 16 O       -3.3270     7.6150    -1.7430 O.3   1 <1>  -0.3620 
 17 C       -3.4350     7.5270     0.6720 C.ar  1 <1>   0.0830 
 18 C        2.2330     7.8820     0.3830 C.3   1 <1>   0.3200 
 19 C        2.0400     6.5800    -1.7470 C.3   1 <1>   0.0600 
 20 C       -2.5530     8.7390    -2.0970 C.3   1 <1>   0.0400 
 21 O       -4.2320     8.6160     0.8240 O.3   1 <1>  -0.3630 
 22 C        1.1390     8.9130     0.1410 C.2   1 <1>   0.0060 
 23 C       -5.4080     8.6980     0.0470 C.3   1 <1>   0.0400 
 24 N        1.0570     9.6500    -0.9170 N.2   1 <1>  -0.3380 
 25 N        0.1390     9.1670     0.9920 N.pl3 1 <1>   0.0480 
 26 N       -0.0240    10.4180    -0.7770 N.2   1 <1>  -0.3380 
 27 C       -0.5520    10.1140     0.3580 C.2   1 <1>   0.0360 
 28 C       -0.1480     8.5910     2.3180 C.3   1 <1>   0.0160 
 29 H       -2.4490     2.7930     0.0970 H     1 <1>   0.3700 
 30 H        0.7540     2.5920    -2.2730 H     1 <1>   0.0800 
 31 H        1.2250     1.3940    -1.0930 H     1 <1>   0.0800 
 32 H       -0.5310     3.8350     1.5130 H     1 <1>   0.0800 
 33 H        0.2160     4.8230    -1.2310 H     1 <1>   0.0800 
 34 H       -1.8970     5.5470    -1.5820 H     1 <1>   0.1500 
 35 H       -1.8900     5.3080     2.6900 H     1 <1>   0.1500 
 36 H       -3.3720     7.2610     2.7790 H     1 <1>   0.1500 
 37 H        2.3890     7.7460     1.4390 H     1 <1>   0.0800 
 38 H        3.1570     8.2410    -0.0350 H     1 <1>   0.0800 
 39 H        2.9350     7.1150    -2.0160 H     1 <1>   0.0800 
 40 H        1.1980     7.0620    -2.2170 H     1 <1>   0.0800 
 41 H        2.1310     5.5720    -2.1120 H     1 <1>   0.0800 
 42 H       -2.8540     9.0660    -3.0760 H     1 <1>   0.0800 
 43 H       -1.5130     8.4640    -2.1050 H     1 <1>   0.0800 
 44 H       -2.7240     9.5220    -1.3800 H     1 <1>   0.0800 
 45 H       -6.0880     9.3710     0.5370 H     1 <1>   0.0800 
 46 H       -5.8490     7.7200    -0.0300 H     1 <1>   0.0800 
 47 H       -5.1620     9.0780    -0.9280 H     1 <1>   0.0800 
 48 H       -1.4430    10.5600     0.7610 H     1 <1>   0.1500 
 49 H       -1.0890     8.9650     2.6780 H     1 <1>   0.0800 
 50 H        0.6330     8.8640     3.0040 H     1 <1>   0.0800 
 51 H       -0.1990     7.5230     2.2410 H     1 <1>   0.0800 
@<TRIPOS>BOND
  1   1   2  2   
  2   2   3  am  
  3   2   4  1   
  4   3   5  1   
  5   3  29  1   
  6   4   6  1   
  7   4  30  1   
  8   4  31  1   
  9   5   7  1   
 10   5   8  1   
 11   5  32  1   
 12   6   8  1   
 13   7   9  ar  
 14   7  10  ar  
 15   8  11  1   
 16   8  33  1   
 17   9  12  ar  
 18   9  34  1   
 19  10  13  ar  
 20  10  35  1   
 21  11  14  2   
 22  11  15  am  
 23  12  16  1   
 24  12  17  ar  
 25  13  17  ar  
 26  13  36  1   
 27  15  18  1   
 28  15  19  1   
 29  16  20  1   
 30  17  21  1   
 31  18  22  1   
 32  18  37  1   
 33  18  38  1   
 34  19  39  1   
 35  19  40  1   
 36  19  41  1   
 37  20  42  1   
 38  20  43  1   
 39  20  44  1   
 40  21  23  1   
 41  22  24  2   
 42  22  25  1   
 43  23  45  1   
 44  23  46  1   
 45  23  47  1   
 46  24  26  1   
 47  25  27  1   
 48  25  28  1   
 49  26  27  2   
 50  27  48  1   
 51  28  49  1   
 52  28  50  1   
 53  28  51  1   
@<TRIPOS>SUBSTRUCTURE
  1 ****   9 GROUP 4 **** **** 0

# MOE 2024.06 (io_trps.svl 2023.06)
