@<TRIPOS>MOLECULE
NONAME
46 49 1 0 0 
SMALL
USER_CHARGES


@<TRIPOS>ATOM
  1 F        1.6540    -0.1270     0.0290 F     1 <1>  -0.1900 
  2 C        2.8000     0.4590    -0.2060 C.ar  1 <1>   0.1900 
  3 C        3.7290     0.5330     0.8040 C.ar  1 <1>  -0.1500 
  4 C        3.0170     0.9810    -1.4850 C.ar  1 <1>  -0.1500 
  5 C        4.9370     1.1630     0.5190 C.ar  1 <1>   0.2270 
  6 C        4.2140     1.6040    -1.7640 C.ar  1 <1>  -0.1500 
  7 N        6.0130     1.3750     1.3270 N.2   1 <1>  -0.5650 
  8 C        5.1690     1.6840    -0.7440 C.ar  1 <1>  -0.1520 
  9 C        6.8570     1.9970     0.5770 C.2   1 <1>   0.0060 
 10 N        6.4150     2.2170    -0.6860 N.pl3 1 <1>   0.0330 
 11 C        8.2290     2.4710     1.0270 C.3   1 <1>   0.3000 
 12 O        8.4960     3.7320     0.4850 O.3   1 <1>  -0.5600 
 13 C        7.7980     4.7910     1.1020 C.3   1 <1>   0.1810 
 14 C        7.9430     6.1040     0.3330 C.2   1 <1>   0.5690 
 15 O        6.9550     6.7820     0.1690 O.2   1 <1>  -0.5700 
 16 N        9.1590     6.4990    -0.1370 N.am  1 <1>  -0.5100 
 17 C       10.5480     6.1470     0.2940 C.3   1 <1>   0.2250 
 18 C        9.6080     7.8580    -0.5700 C.3   1 <1>   0.2250 
 19 C       10.8610     7.6700     0.3300 C.3   1 <1>   0.2100 
 20 N       12.1420     8.0510    -0.3050 N.3   1 <1>  -0.7500 
 21 C       13.2910     7.6090     0.5100 C.3   1 <1>   0.1100 
 22 C       12.2190     9.5120    -0.5020 C.3   1 <1>   0.1100 
 23 C       14.6210     8.0750    -0.1090 C.3   1 <1>   0.1200 
 24 C       13.5810     9.9220    -1.0900 C.3   1 <1>   0.1200 
 25 O       14.6220     9.4630    -0.2770 O.3   1 <1>  -0.5600 
 26 H        3.5500     0.1290     1.7810 H     1 <1>   0.1500 
 27 H        2.2450     0.8880    -2.2270 H     1 <1>   0.1500 
 28 H        4.4160     2.0190    -2.7360 H     1 <1>   0.1500 
 29 H        6.9130     2.7340    -1.4170 H     1 <1>   0.2700 
 30 H        8.9810     1.7930     0.6650 H     1 <1>   0.0800 
 31 H        8.2890     2.5190     2.1010 H     1 <1>   0.0800 
 32 H        8.1800     4.9170     2.0980 H     1 <1>   0.0800 
 33 H        6.7520     4.5410     1.1560 H     1 <1>   0.0800 
 34 H       11.0640     5.6060    -0.4800 H     1 <1>   0.0000 
 35 H       10.5630     5.6750     1.2600 H     1 <1>   0.0000 
 36 H        8.9400     8.6310    -0.2330 H     1 <1>   0.0000 
 37 H        9.8190     7.8740    -1.6250 H     1 <1>   0.0000 
 38 H       10.7410     8.1000     1.3100 H     1 <1>   0.0000 
 39 H       13.2960     6.5350     0.5740 H     1 <1>   0.0800 
 40 H       13.2130     8.0070     1.5070 H     1 <1>   0.0800 
 41 H       12.0780    10.0210     0.4370 H     1 <1>   0.0800 
 42 H       11.4420     9.8290    -1.1760 H     1 <1>   0.0800 
 43 H       14.7760     7.6110    -1.0680 H     1 <1>   0.0800 
 44 H       15.4430     7.8220     0.5370 H     1 <1>   0.0800 
 45 H       13.6560    10.9930    -1.1490 H     1 <1>   0.0800 
 46 H       13.7050     9.5090    -2.0760 H     1 <1>   0.0800 
@<TRIPOS>BOND
  1   1   2  1   
  2   2   3  ar  
  3   2   4  ar  
  4   3   5  ar  
  5   3  26  1   
  6   4   6  ar  
  7   4  27  1   
  8   5   7  1   
  9   5   8  ar  
 10   6   8  ar  
 11   6  28  1   
 12   7   9  2   
 13   8  10  1   
 14   9  10  1   
 15   9  11  1   
 16  10  29  1   
 17  11  12  1   
 18  11  30  1   
 19  11  31  1   
 20  12  13  1   
 21  13  14  1   
 22  13  32  1   
 23  13  33  1   
 24  14  15  2   
 25  14  16  am  
 26  16  17  1   
 27  16  18  1   
 28  17  19  1   
 29  17  34  1   
 30  17  35  1   
 31  18  19  1   
 32  18  36  1   
 33  18  37  1   
 34  19  20  1   
 35  19  38  1   
 36  20  21  1   
 37  20  22  1   
 38  21  23  1   
 39  21  39  1   
 40  21  40  1   
 41  22  24  1   
 42  22  41  1   
 43  22  42  1   
 44  23  25  1   
 45  23  43  1   
 46  23  44  1   
 47  24  25  1   
 48  24  45  1   
 49  24  46  1   
@<TRIPOS>SUBSTRUCTURE
  1 ****  12 GROUP 4 **** **** 0

# MOE 2024.06 (io_trps.svl 2023.06)
