@<TRIPOS>MOLECULE
NONAME
48 49 1 0 0 
SMALL
USER_CHARGES


@<TRIPOS>ATOM
  1 O       -2.4200     0.6030    -2.7930 O.2   1 <1>  -0.5700 
  2 C       -2.9050     1.1130    -1.8020 C.2   1 <1>   0.5440 
  3 N       -3.8770     0.4290    -1.0990 N.am  1 <1>  -0.6600 
  4 C       -2.4550     2.4310    -1.4030 C.ar  1 <1>   0.0860 
  5 C       -4.3150    -0.9390    -1.5300 C.3   1 <1>   0.3210 
  6 C       -4.7070     1.0740    -0.0210 C.3   1 <1>   0.1400 
  7 C       -1.7910     2.6320    -0.1970 C.ar  1 <1>  -0.1500 
  8 C       -2.6840     3.5410    -2.2100 C.ar  1 <1>  -0.1500 
  9 C       -3.9870    -1.9840    -0.4710 C.2   1 <1>   0.0460 
 10 C       -4.4390     0.5510     1.4050 C.3   1 <1>   0.1200 
 11 C       -1.3960     3.8970     0.2170 C.ar  1 <1>   0.0830 
 12 C       -2.2980     4.8130    -1.8300 C.ar  1 <1>   0.0830 
 13 N       -4.9670    -2.5510     0.2630 N.2   1 <1>  -0.5650 
 14 C       -2.7740    -2.4650    -0.1050 C.2   1 <1>  -0.3320 
 15 O       -3.1130     0.1770     1.5680 O.3   1 <1>  -0.6800 
 16 O       -0.7850     4.0990     1.4210 O.3   1 <1>  -0.3630 
 17 C       -1.6310     4.9990    -0.6110 C.ar  1 <1>   0.0830 
 18 O       -2.6080     5.8050    -2.7100 O.3   1 <1>  -0.3630 
 19 C       -4.3370    -3.3590     1.0520 C.2   1 <1>   0.0360 
 20 N       -3.0000    -3.3540     0.8790 N.pl3 1 <1>   0.0330 
 21 C       -1.3830    -2.1440    -0.6260 C.3   1 <1>  -0.0600 
 22 C       -0.8280     3.1130     2.4320 C.3   1 <1>   0.0400 
 23 O       -1.2090     6.2300    -0.2250 O.3   1 <1>  -0.3630 
 24 C       -3.0270     7.0680    -2.2390 C.3   1 <1>   0.0400 
 25 C        0.1700     6.4810    -0.3670 C.3   1 <1>   0.0400 
 26 H       -3.8350    -1.2270    -2.4480 H     1 <1>   0.0800 
 27 H       -5.3750    -0.9360    -1.7090 H     1 <1>   0.0800 
 28 H       -5.7490     0.9300    -0.2470 H     1 <1>   0.0800 
 29 H       -4.5450     2.1370    -0.0200 H     1 <1>   0.0800 
 30 H       -1.5910     1.7690     0.4050 H     1 <1>   0.1500 
 31 H       -3.1790     3.4060    -3.1550 H     1 <1>   0.1500 
 32 H       -5.0520    -0.3090     1.6070 H     1 <1>   0.0800 
 33 H       -4.6690     1.3100     2.1330 H     1 <1>   0.0800 
 34 H       -2.9360    -0.5420     0.9170 H     1 <1>   0.4000 
 35 H       -4.8160    -3.9860     1.7850 H     1 <1>   0.1500 
 36 H       -2.3100    -3.9120     1.3910 H     1 <1>   0.2700 
 37 H       -1.4360    -1.4560    -1.4510 H     1 <1>   0.0800 
 38 H       -0.8970    -3.0400    -0.9690 H     1 <1>   0.0800 
 39 H       -0.7870    -1.6970     0.1500 H     1 <1>   0.0800 
 40 H       -0.4340     3.5430     3.3350 H     1 <1>   0.0800 
 41 H       -0.2220     2.2770     2.1330 H     1 <1>   0.0800 
 42 H       -1.8490     2.8100     2.5860 H     1 <1>   0.0800 
 43 H       -3.5920     7.5460    -3.0190 H     1 <1>   0.0800 
 44 H       -2.1600     7.6590    -2.0060 H     1 <1>   0.0800 
 45 H       -3.6420     6.9350    -1.3660 H     1 <1>   0.0800 
 46 H        0.3590     7.4970    -0.0720 H     1 <1>   0.0800 
 47 H        0.4440     6.3360    -1.3970 H     1 <1>   0.0800 
 48 H        0.7190     5.8080     0.2670 H     1 <1>   0.0800 
@<TRIPOS>BOND
  1   1   2  2   
  2   2   3  am  
  3   2   4  1   
  4   3   5  1   
  5   3   6  1   
  6   4   7  ar  
  7   4   8  ar  
  8   5   9  1   
  9   5  26  1   
 10   5  27  1   
 11   6  10  1   
 12   6  28  1   
 13   6  29  1   
 14   7  11  ar  
 15   7  30  1   
 16   8  12  ar  
 17   8  31  1   
 18   9  13  1   
 19   9  14  2   
 20  10  15  1   
 21  10  32  1   
 22  10  33  1   
 23  11  16  1   
 24  11  17  ar  
 25  12  17  ar  
 26  12  18  1   
 27  13  19  2   
 28  14  20  1   
 29  14  21  1   
 30  15  34  1   
 31  16  22  1   
 32  17  23  1   
 33  18  24  1   
 34  19  20  1   
 35  19  35  1   
 36  20  36  1   
 37  21  37  1   
 38  21  38  1   
 39  21  39  1   
 40  22  40  1   
 41  22  41  1   
 42  22  42  1   
 43  23  25  1   
 44  24  43  1   
 45  24  44  1   
 46  24  45  1   
 47  25  46  1   
 48  25  47  1   
 49  25  48  1   
@<TRIPOS>SUBSTRUCTURE
  1 ****   4 GROUP 4 **** **** 0

# MOE 2024.06 (io_trps.svl 2023.06)
