@<TRIPOS>MOLECULE
NONAME
21 20 1 0 0 
SMALL
USER_CHARGES


@<TRIPOS>ATOM
  1 CL       0.4410    -0.7640    -2.3380 Cl    1 <1>  -0.2900 
  2 C        1.4640    -0.7460    -0.9170 C.3   1 <1>   0.4100 
  3 O        2.6910    -1.3080    -1.2960 O.3   1 <1>  -0.4300 
  4 C        3.6470    -1.4080    -0.3890 C.2   1 <1>   0.8700 
  5 O        3.4790    -1.0270     0.7500 O.2   1 <1>  -0.5700 
  6 O        4.7760    -1.9510    -0.8310 O.3   1 <1>  -0.4300 
  7 C        5.9540    -2.1810    -0.0920 C.3   1 <1>   0.2800 
  8 C        6.9310    -2.8200    -1.0800 C.3   1 <1>  -0.2400 
  9 C        6.5320    -0.8520     0.4070 C.3   1 <1>  -0.2400 
 10 C        5.6750    -3.1610     1.0540 C.3   1 <1>  -0.2400 
 11 H        1.0050    -1.3430    -0.1480 H     1 <1>   0.0800 
 12 H        1.6050     0.2730    -0.6000 H     1 <1>   0.0800 
 13 H        7.1170    -2.1550    -1.9040 H     1 <1>   0.0800 
 14 H        6.5280    -3.7430    -1.4590 H     1 <1>   0.0800 
 15 H        7.8670    -3.0330    -0.5970 H     1 <1>   0.0800 
 16 H        6.6520    -0.1650    -0.4110 H     1 <1>   0.0800 
 17 H        7.4950    -1.0170     0.8540 H     1 <1>   0.0800 
 18 H        5.9010    -0.4080     1.1540 H     1 <1>   0.0800 
 19 H        5.2090    -4.0540     0.6780 H     1 <1>   0.0800 
 20 H        5.0440    -2.7180     1.8010 H     1 <1>   0.0800 
 21 H        6.5980    -3.4360     1.5310 H     1 <1>   0.0800 
@<TRIPOS>BOND
  1   1   2  1   
  2   2   3  1   
  3   2  11  1   
  4   2  12  1   
  5   3   4  1   
  6   4   5  2   
  7   4   6  1   
  8   6   7  1   
  9   7   8  1   
 10   7   9  1   
 11   7  10  1   
 12   8  13  1   
 13   8  14  1   
 14   8  15  1   
 15   9  16  1   
 16   9  17  1   
 17   9  18  1   
 18  10  19  1   
 19  10  20  1   
 20  10  21  1   
@<TRIPOS>SUBSTRUCTURE
  1 ****   4 GROUP 4 **** **** 0

# MOE 2024.06 (io_trps.svl 2023.06)
