@<TRIPOS>MOLECULE
NONAME
46 49 1 0 0 
SMALL
USER_CHARGES


@<TRIPOS>ATOM
  1 O        2.2510    -0.5020    -2.7980 O.2   1 <1>  -0.5700 
  2 C        2.5910    -0.7770    -1.6650 C.2   1 <1>   0.7150 
  3 N        3.3070     0.1550    -0.9420 N.am  1 <1>  -0.6600 
  4 C        2.2320    -2.0450    -1.0930 C.2   1 <1>  -0.2370 
  5 C        3.5240     0.0030     0.5460 C.3   1 <1>   0.2200 
  6 C        3.8420     1.3590    -1.6540 C.3   1 <1>   0.1400 
  7 N        3.1520    -3.0440    -0.8670 N.pl3 1 <1>   0.0330 
  8 C        1.0140    -2.4970    -0.6710 C.2   1 <1>  -0.1500 
  9 C        3.1010     1.2540     1.3320 C.3   1 <1>   0.1200 
 10 C        4.9810    -0.3910     0.8730 C.3   1 <1>   0.3430 
 11 C        4.9080     2.1710    -0.8920 C.3   1 <1>  -0.0800 
 12 C        2.5220    -4.0980    -0.2670 C.ar  1 <1>  -0.1520 
 13 C        1.1740    -3.7880    -0.1370 C.ar  1 <1>   0.0000 
 14 O        4.1370     2.1900     1.3970 O.3   1 <1>  -0.5600 
 15 N        5.9270    -0.0590    -0.2430 N.4   1 <1>  -0.9590 
 16 C        4.3060     2.9780     0.2680 C.3   1 <1>   0.1200 
 17 C        6.1700     1.3880    -0.4750 C.3   1 <1>   0.3430 
 18 C        3.0310    -5.3180     0.1810 C.ar  1 <1>  -0.1500 
 19 C        0.3080    -4.7200     0.4480 C.ar  1 <1>  -0.1500 
 20 C        7.1760    -0.9190    -0.1580 C.3   1 <1>   0.2370 
 21 C        2.1700    -6.2230     0.7570 C.ar  1 <1>  -0.1500 
 22 C        0.8070    -5.9240     0.8890 C.ar  1 <1>  -0.1500 
 23 C        6.8660    -2.3950    -0.4310 C.2   1 <1>   0.9060 
 24 O        7.5490    -3.2710     0.0900 O.co2 1 <1>  -0.9000 
 25 O        5.8510    -2.6290    -1.1050 O.co2 1 <1>  -0.9000 
 26 H        2.8920    -0.7860     0.9140 H     1 <1>   0.0800 
 27 H        4.2650     1.0330    -2.5910 H     1 <1>   0.0800 
 28 H        3.0110     2.0010    -1.8970 H     1 <1>   0.0800 
 29 H        4.1640    -3.0240    -1.1070 H     1 <1>   0.2700 
 30 H        0.0740    -1.9780    -0.7220 H     1 <1>   0.1500 
 31 H        2.8850     0.9710     2.3480 H     1 <1>   0.0800 
 32 H        2.2160     1.7050     0.9150 H     1 <1>   0.0800 
 33 H        4.9970    -1.4560     1.0400 H     1 <1>   0.0800 
 34 H        5.2950     0.0860     1.7860 H     1 <1>   0.0800 
 35 H        5.2460     2.9170    -1.5880 H     1 <1>   0.0800 
 36 H        5.4320    -0.4540    -1.0700 H     1 <1>   0.4500 
 37 H        3.3610     3.4210    -0.0010 H     1 <1>   0.0800 
 38 H        4.9790     3.7720     0.5440 H     1 <1>   0.0800 
 39 H        6.5890     1.8310     0.4130 H     1 <1>   0.0800 
 40 H        6.8980     1.4820    -1.2640 H     1 <1>   0.0800 
 41 H        4.0820    -5.5270     0.0680 H     1 <1>   0.1500 
 42 H       -0.7340    -4.4770     0.5420 H     1 <1>   0.1500 
 43 H        7.8920    -0.6050    -0.8950 H     1 <1>   0.0800 
 44 H        7.6240    -0.8430     0.8150 H     1 <1>   0.0800 
 45 H        2.5390    -7.1700     1.1090 H     1 <1>   0.1500 
 46 H        0.1560    -6.6510     1.3410 H     1 <1>   0.1500 
@<TRIPOS>BOND
  1   1   2  2   
  2   2   3  am  
  3   2   4  1   
  4   3   5  1   
  5   3   6  1   
  6   4   7  1   
  7   4   8  2   
  8   5   9  1   
  9   5  10  1   
 10   5  26  1   
 11   6  11  1   
 12   6  27  1   
 13   6  28  1   
 14   7  12  1   
 15   7  29  1   
 16   8  13  1   
 17   8  30  1   
 18   9  14  1   
 19   9  31  1   
 20   9  32  1   
 21  10  15  1   
 22  10  33  1   
 23  10  34  1   
 24  11  16  1   
 25  11  17  1   
 26  11  35  1   
 27  12  13  ar  
 28  12  18  ar  
 29  13  19  ar  
 30  14  16  1   
 31  15  17  1   
 32  15  20  1   
 33  15  36  1   
 34  16  37  1   
 35  16  38  1   
 36  17  39  1   
 37  17  40  1   
 38  18  21  ar  
 39  18  41  1   
 40  19  22  ar  
 41  19  42  1   
 42  20  23  1   
 43  20  43  1   
 44  20  44  1   
 45  21  22  ar  
 46  21  45  1   
 47  22  46  1   
 48  23  24  ar  
 49  23  25  ar  
@<TRIPOS>SUBSTRUCTURE
  1 ****   5 GROUP 4 **** **** 0

# MOE 2024.06 (io_trps.svl 2023.06)
