@<TRIPOS>MOLECULE
NONAME
50 53 1 0 0 
SMALL
USER_CHARGES


@<TRIPOS>ATOM
  1 S       -0.6530     1.0630    -2.1670 S.3   1 <1>  -0.0800 
  2 C       -1.2090     1.3580    -0.5270 C.2   1 <1>  -0.1400 
  3 C       -2.0420     0.0330    -2.4870 C.2   1 <1>  -0.1100 
  4 C       -2.3630     0.7170    -0.2960 C.2   1 <1>  -0.1810 
  5 C       -0.4450     2.2330     0.4590 C.3   1 <1>   0.4600 
  6 C       -2.8420    -0.0470    -1.4060 C.2   1 <1>  -0.1500 
  7 C       -3.0300     0.8480     1.0550 C.3   1 <1>   0.0210 
  8 O       -1.0690     2.1370     1.7250 O.3   1 <1>  -0.5600 
  9 C        0.9830     1.7140     0.6520 C.3   1 <1>  -0.1600 
 10 C       -0.4330     3.7030     0.0190 C.3   1 <1>  -0.1600 
 11 C       -2.4770     2.0970     1.7700 C.3   1 <1>   0.1200 
 12 C        1.7730     2.6200     1.5930 C.3   1 <1>   0.2090 
 13 C        0.4000     4.5590     0.9710 C.3   1 <1>   0.2090 
 14 N        1.7910     4.0020     1.0220 N.pl3 1 <1>  -0.8380 
 15 C        2.8820     4.6740     0.5740 C.ar  1 <1>   0.4100 
 16 N        2.6990     5.9340     0.1510 N.ar  1 <1>  -0.6200 
 17 C        4.1700     4.1190     0.5270 C.ar  1 <1>  -0.1500 
 18 C        3.7150     6.6150    -0.2810 C.ar  1 <1>   0.5280 
 19 C        5.2190     4.8590     0.0690 C.ar  1 <1>   0.2180 
 20 N        4.9670     6.1190    -0.3340 N.ar  1 <1>  -0.1790 
 21 C        3.4820     8.0440    -0.7510 C.3   1 <1>  -0.0170 
 22 C        6.6400     4.3270    -0.0080 C.3   1 <1>  -0.0970 
 23 C        4.0960     9.0830     0.2030 C.3   1 <1>  -0.1600 
 24 C        3.8330    10.5100    -0.2880 C.3   1 <1>  -0.2400 
 25 H       -2.1120    -0.4100    -3.4640 H     1 <1>   0.1500 
 26 H       -3.7540    -0.6140    -1.3420 H     1 <1>   0.1500 
 27 H       -2.8320    -0.0290     1.6450 H     1 <1>   0.0800 
 28 H       -4.0930     0.9480     0.9340 H     1 <1>   0.0800 
 29 H        1.4890     1.6750    -0.2940 H     1 <1>   0.0800 
 30 H        0.9430     0.7150     1.0460 H     1 <1>   0.0800 
 31 H       -1.4350     4.0810    -0.0410 H     1 <1>   0.0800 
 32 H       -0.0060     3.7760    -0.9640 H     1 <1>   0.0800 
 33 H       -2.7720     2.0910     2.8050 H     1 <1>   0.0800 
 34 H       -2.8590     2.9900     1.3090 H     1 <1>   0.0800 
 35 H        2.7580     2.2220     1.7380 H     1 <1>   0.0800 
 36 H        1.2960     2.6440     2.5600 H     1 <1>   0.0800 
 37 H       -0.0300     4.5360     1.9590 H     1 <1>   0.0800 
 38 H        0.3820     5.5810     0.6360 H     1 <1>   0.0800 
 39 H        4.3320     3.1120     0.8470 H     1 <1>   0.1500 
 40 H        5.7150     6.7160    -0.6820 H     1 <1>   0.4570 
 41 H        2.4200     8.2170    -0.8160 H     1 <1>   0.0800 
 42 H        3.8850     8.1660    -1.7400 H     1 <1>   0.0800 
 43 H        6.6830     3.3120     0.3470 H     1 <1>   0.0800 
 44 H        7.2990     4.9220     0.6010 H     1 <1>   0.0800 
 45 H        6.9930     4.3400    -1.0250 H     1 <1>   0.0800 
 46 H        5.1590     8.9400     0.2930 H     1 <1>   0.0800 
 47 H        3.6610     8.9680     1.1830 H     1 <1>   0.0800 
 48 H        4.2710    10.6720    -1.2580 H     1 <1>   0.0800 
 49 H        4.2610    11.2210     0.3980 H     1 <1>   0.0800 
 50 H        2.7750    10.7020    -0.3510 H     1 <1>   0.0800 
@<TRIPOS>BOND
  1   1   2  1   
  2   1   3  1   
  3   2   4  2   
  4   2   5  1   
  5   3   6  2   
  6   3  25  1   
  7   4   6  1   
  8   4   7  1   
  9   5   8  1   
 10   5   9  1   
 11   5  10  1   
 12   6  26  1   
 13   7  11  1   
 14   7  27  1   
 15   7  28  1   
 16   8  11  1   
 17   9  12  1   
 18   9  29  1   
 19   9  30  1   
 20  10  13  1   
 21  10  31  1   
 22  10  32  1   
 23  11  33  1   
 24  11  34  1   
 25  12  14  1   
 26  12  35  1   
 27  12  36  1   
 28  13  14  1   
 29  13  37  1   
 30  13  38  1   
 31  14  15  1   
 32  15  16  ar  
 33  15  17  ar  
 34  16  18  ar  
 35  17  19  ar  
 36  17  39  1   
 37  18  20  ar  
 38  18  21  1   
 39  19  20  ar  
 40  19  22  1   
 41  20  40  1   
 42  21  23  1   
 43  21  41  1   
 44  21  42  1   
 45  22  43  1   
 46  22  44  1   
 47  22  45  1   
 48  23  24  1   
 49  23  46  1   
 50  23  47  1   
 51  24  48  1   
 52  24  49  1   
 53  24  50  1   
@<TRIPOS>SUBSTRUCTURE
  1 ****  14 GROUP 4 **** **** 0

# MOE 2024.06 (io_trps.svl 2023.06)
