@<TRIPOS>MOLECULE
NONAME
49 51 1 0 0 
SMALL
USER_CHARGES


@<TRIPOS>ATOM
  1 O       -2.4390     0.2510    -2.2050 O.2   1 <1>  -0.5700 
  2 C       -2.3850    -0.5680    -1.3240 C.2   1 <1>   0.5690 
  3 N       -2.2750    -0.2130    -0.0030 N.am  1 <1>  -0.6600 
  4 C       -2.5360    -2.0220    -1.7170 C.3   1 <1>  -0.0190 
  5 C       -2.3570    -1.2190     1.1110 C.3   1 <1>   0.2200 
  6 C       -1.9980     1.1960     0.4090 C.3   1 <1>   0.0600 
  7 C       -1.3430    -2.8650    -1.2520 C.3   1 <1>   0.1200 
  8 C       -3.8860    -2.5920    -1.2570 C.3   1 <1>   0.3430 
  9 C       -1.2130    -2.2440     1.0250 C.3   1 <1>   0.1200 
 10 C       -3.7310    -1.9380     1.1520 C.3   1 <1>   0.3430 
 11 O       -1.4910    -3.2360     0.0810 O.3   1 <1>  -0.5600 
 12 N       -4.5270    -1.8330    -0.1270 N.4   1 <1>  -0.9590 
 13 C       -5.9370    -2.2980     0.0990 C.3   1 <1>   0.5240 
 14 C       -5.9960    -3.7820     0.4560 C.2   1 <1>   0.1080 
 15 N       -5.5850    -4.2630     1.5920 N.2   1 <1>  -0.7070 
 16 C       -6.4750    -4.7770    -0.3890 C.2   1 <1>  -0.1500 
 17 N       -5.7990    -5.5920     1.4960 N.pl3 1 <1>   0.3000 
 18 C       -6.3320    -5.9290     0.3030 C.2   1 <1>  -0.3320 
 19 C       -6.6680    -7.3680    -0.0760 C.3   1 <1>   0.1800 
 20 C       -5.3930    -8.2170    -0.0290 C.3   1 <1>  -0.2400 
 21 C       -7.2520    -7.4260    -1.4920 C.3   1 <1>  -0.2400 
 22 C       -7.6990    -7.9260     0.9110 C.3   1 <1>  -0.2400 
 23 H       -2.5220    -2.0610    -2.7910 H     1 <1>   0.0800 
 24 H       -2.2310    -0.7010     2.0460 H     1 <1>   0.0800 
 25 H       -2.7940     1.5630     1.0330 H     1 <1>   0.0800 
 26 H       -1.9170     1.8400    -0.4520 H     1 <1>   0.0800 
 27 H       -1.0700     1.2440     0.9520 H     1 <1>   0.0800 
 28 H       -0.4090    -2.3430    -1.3830 H     1 <1>   0.0800 
 29 H       -1.3010    -3.7770    -1.8240 H     1 <1>   0.0800 
 30 H       -3.7530    -3.6230    -0.9690 H     1 <1>   0.0800 
 31 H       -4.5540    -2.5740    -2.1030 H     1 <1>   0.0800 
 32 H       -1.1130    -2.7450     1.9730 H     1 <1>   0.0800 
 33 H       -0.2730    -1.7720     0.7950 H     1 <1>   0.0800 
 34 H       -4.3040    -1.5150     1.9590 H     1 <1>   0.0800 
 35 H       -3.5700    -2.9760     1.3970 H     1 <1>   0.0800 
 36 H       -4.5380    -0.8340    -0.3800 H     1 <1>   0.4500 
 37 H       -6.3810    -1.7380     0.9050 H     1 <1>   0.0800 
 38 H       -6.5240    -2.1290    -0.7880 H     1 <1>   0.0800 
 39 H       -6.8730    -4.6410    -1.3800 H     1 <1>   0.1500 
 40 H       -5.5770    -6.2490     2.2560 H     1 <1>   0.2700 
 41 H       -5.6040    -9.2280    -0.3310 H     1 <1>   0.0800 
 42 H       -4.9810    -8.2430     0.9630 H     1 <1>   0.0800 
 43 H       -4.6530    -7.8110    -0.6950 H     1 <1>   0.0800 
 44 H       -7.4880    -8.4400    -1.7610 H     1 <1>   0.0800 
 45 H       -6.5460    -7.0430    -2.2060 H     1 <1>   0.0800 
 46 H       -8.1550    -6.8440    -1.5500 H     1 <1>   0.0800 
 47 H       -7.9780    -8.9280     0.6370 H     1 <1>   0.0800 
 48 H       -8.5840    -7.3140     0.9070 H     1 <1>   0.0800 
 49 H       -7.3060    -7.9480     1.9110 H     1 <1>   0.0800 
@<TRIPOS>BOND
  1   1   2  2   
  2   2   3  am  
  3   2   4  1   
  4   3   5  1   
  5   3   6  1   
  6   4   7  1   
  7   4   8  1   
  8   4  23  1   
  9   5   9  1   
 10   5  10  1   
 11   5  24  1   
 12   6  25  1   
 13   6  26  1   
 14   6  27  1   
 15   7  11  1   
 16   7  28  1   
 17   7  29  1   
 18   8  12  1   
 19   8  30  1   
 20   8  31  1   
 21   9  11  1   
 22   9  32  1   
 23   9  33  1   
 24  10  12  1   
 25  10  34  1   
 26  10  35  1   
 27  12  13  1   
 28  12  36  1   
 29  13  14  1   
 30  13  37  1   
 31  13  38  1   
 32  14  15  2   
 33  14  16  1   
 34  15  17  1   
 35  16  18  2   
 36  16  39  1   
 37  17  18  1   
 38  17  40  1   
 39  18  19  1   
 40  19  20  1   
 41  19  21  1   
 42  19  22  1   
 43  20  41  1   
 44  20  42  1   
 45  20  43  1   
 46  21  44  1   
 47  21  45  1   
 48  21  46  1   
 49  22  47  1   
 50  22  48  1   
 51  22  49  1   
@<TRIPOS>SUBSTRUCTURE
  1 ****   8 GROUP 4 **** **** 0

# MOE 2024.06 (io_trps.svl 2023.06)
