@<TRIPOS>MOLECULE
NONAME
41 43 1 0 0 
SMALL
USER_CHARGES


@<TRIPOS>ATOM
  1 N       -0.5100     0.3620     0.8720 N.ar  1 <1>  -0.6200 
  2 C       -1.5650    -0.0650     0.1280 C.ar  1 <1>   0.3100 
  3 C        0.2460     1.2320     0.2690 C.ar  1 <1>   0.1660 
  4 C       -1.8020     0.4080    -1.1880 C.ar  1 <1>   0.3100 
  5 C       -2.4520    -1.0050     0.6760 C.ar  1 <1>  -0.1500 
  6 C        0.0020     1.7000    -1.0410 C.ar  1 <1>   0.1600 
  7 C        1.4630     1.7910     0.9960 C.3   1 <1>   0.3530 
  8 N       -0.9900     1.3190    -1.7840 N.ar  1 <1>  -0.6200 
  9 C       -2.9140    -0.0820    -1.8900 C.ar  1 <1>  -0.1500 
 10 C       -3.5310    -1.4670    -0.0330 C.ar  1 <1>  -0.1500 
 11 N        1.4040     3.2900     1.0760 N.pl3 1 <1>  -0.8380 
 12 C       -3.7650    -1.0000    -1.3300 C.ar  1 <1>  -0.1500 
 13 C        2.4480     4.0820     0.6410 C.ar  1 <1>   0.4100 
 14 C        0.2650     3.8300     1.8710 C.3   1 <1>   0.1290 
 15 N        3.6400     3.5290     0.5440 N.ar  1 <1>  -0.6200 
 16 C        2.2630     5.4120     0.3060 C.ar  1 <1>  -0.1500 
 17 C        4.6100     4.3230     0.1340 C.ar  1 <1>   0.4700 
 18 C        3.3430     6.1440    -0.1140 C.ar  1 <1>   0.1670 
 19 N        4.5420     5.5990    -0.2030 N.ar  1 <1>  -0.6200 
 20 C        3.2140     7.6180    -0.5010 C.3   1 <1>   0.0630 
 21 C        2.7860     8.4740     0.6990 C.3   1 <1>  -0.2400 
 22 C        2.2450     7.8090    -1.6750 C.3   1 <1>  -0.2400 
 23 H       -2.2560    -1.3520     1.6740 H     1 <1>   0.1500 
 24 H        0.6910     2.4270    -1.4390 H     1 <1>   0.1500 
 25 H        2.3430     1.4650     0.4730 H     1 <1>   0.0800 
 26 H        1.5070     1.3870     1.9920 H     1 <1>   0.0800 
 27 H       -3.0760     0.2890    -2.8860 H     1 <1>   0.1500 
 28 H       -4.2060    -2.1880     0.3970 H     1 <1>   0.1500 
 29 H       -4.6150    -1.3690    -1.8780 H     1 <1>   0.1500 
 30 H        0.0280     3.1610     2.6800 H     1 <1>   0.0800 
 31 H       -0.6010     3.9350     1.2410 H     1 <1>   0.0800 
 32 H        0.5180     4.7890     2.2900 H     1 <1>   0.0800 
 33 H        1.2890     5.8490     0.3680 H     1 <1>   0.1500 
 34 H        5.5850     3.8730     0.0620 H     1 <1>   0.1500 
 35 H        4.1840     7.9620    -0.8190 H     1 <1>   0.0800 
 36 H        1.8020     8.2000     1.0350 H     1 <1>   0.0800 
 37 H        2.7820     9.5150     0.4300 H     1 <1>   0.0800 
 38 H        3.4780     8.3340     1.5100 H     1 <1>   0.0800 
 39 H        1.2450     7.5240    -1.4020 H     1 <1>   0.0800 
 40 H        2.5600     7.2040    -2.5080 H     1 <1>   0.0800 
 41 H        2.2370     8.8380    -1.9870 H     1 <1>   0.0800 
@<TRIPOS>BOND
  1   1   2  ar  
  2   1   3  ar  
  3   2   4  ar  
  4   2   5  ar  
  5   3   6  ar  
  6   3   7  1   
  7   4   8  ar  
  8   4   9  ar  
  9   5  10  ar  
 10   5  23  1   
 11   6   8  ar  
 12   6  24  1   
 13   7  11  1   
 14   7  25  1   
 15   7  26  1   
 16   9  12  ar  
 17   9  27  1   
 18  10  12  ar  
 19  10  28  1   
 20  11  13  1   
 21  11  14  1   
 22  12  29  1   
 23  13  15  ar  
 24  13  16  ar  
 25  14  30  1   
 26  14  31  1   
 27  14  32  1   
 28  15  17  ar  
 29  16  18  ar  
 30  16  33  1   
 31  17  19  ar  
 32  17  34  1   
 33  18  19  ar  
 34  18  20  1   
 35  20  21  1   
 36  20  22  1   
 37  20  35  1   
 38  21  36  1   
 39  21  37  1   
 40  21  38  1   
 41  22  39  1   
 42  22  40  1   
 43  22  41  1   
@<TRIPOS>SUBSTRUCTURE
  1 ****  11 GROUP 4 **** **** 0

# MOE 2024.06 (io_trps.svl 2023.06)
