@<TRIPOS>MOLECULE
NONAME
48 50 1 0 0 
SMALL
USER_CHARGES


@<TRIPOS>ATOM
  1 O        0.8790    -0.1270    -0.8380 O.2   1 <1>  -0.5700 
  2 C        1.8140    -0.6580    -0.2610 C.2   1 <1>   0.5440 
  3 N        2.7780     0.1770     0.2950 N.am  1 <1>  -0.6600 
  4 C        1.8230    -2.1220    -0.1740 C.ar  1 <1>   0.3960 
  5 C        3.7950    -0.3060     1.2850 C.3   1 <1>   0.1400 
  6 C        2.7200     1.6530     0.0530 C.3   1 <1>   0.1400 
  7 N        2.9680    -2.8260    -0.2160 N.ar  1 <1>  -0.6200 
  8 C        0.5890    -2.7730    -0.0550 C.ar  1 <1>   0.1600 
  9 C        5.1500    -0.5880     0.6180 C.3   1 <1>   0.1400 
 10 C        4.0860     2.3510     0.0000 C.3   1 <1>  -0.1600 
 11 C        2.7870    -4.1310    -0.1320 C.ar  1 <1>   0.1600 
 12 N        0.4090    -4.0810     0.0390 N.ar  1 <1>  -0.6200 
 13 N        5.8700     0.6710     0.2630 N.am  1 <1>  -0.6600 
 14 C        5.1740     1.5480    -0.7180 C.3   1 <1>   0.1400 
 15 C        1.5460    -4.7470    -0.0060 C.ar  1 <1>   0.1670 
 16 C        7.0820     1.0020     0.8380 C.2   1 <1>   0.5440 
 17 C        1.4340    -6.2560     0.0870 C.3   1 <1>  -0.0960 
 18 O        7.6010     0.2320     1.6250 O.2   1 <1>  -0.5700 
 19 C        7.7430     2.2550     0.5290 C.ar  1 <1>   0.0860 
 20 C        8.7670     2.3470    -0.4230 C.ar  1 <1>  -0.1440 
 21 C        7.3430     3.4210     1.1760 C.ar  1 <1>  -0.1500 
 22 C        9.3490     3.5720    -0.7140 C.ar  1 <1>  -0.1500 
 23 C        9.2510     1.0970    -1.1470 C.3   1 <1>  -0.0970 
 24 C        7.9220     4.6370     0.8760 C.ar  1 <1>   0.0820 
 25 C        8.9290     4.7210    -0.0690 C.ar  1 <1>  -0.1500 
 26 O        7.4960     5.7370     1.5120 O.3   1 <1>  -0.5330 
 27 H        3.4440    -1.2090     1.7500 H     1 <1>   0.0800 
 28 H        3.9240     0.4200     2.0680 H     1 <1>   0.0800 
 29 H        2.1130     2.1070     0.8180 H     1 <1>   0.0800 
 30 H        2.2300     1.8300    -0.8900 H     1 <1>   0.0800 
 31 H       -0.2970    -2.1640    -0.0370 H     1 <1>   0.1500 
 32 H        5.0070    -1.1790    -0.2680 H     1 <1>   0.0800 
 33 H        5.7430    -1.1720     1.2990 H     1 <1>   0.0800 
 34 H        4.4070     2.6020     0.9950 H     1 <1>   0.0800 
 35 H        3.9490     3.2790    -0.5230 H     1 <1>   0.0800 
 36 H        3.6680    -4.7470    -0.1640 H     1 <1>   0.1500 
 37 H        5.8780     2.2240    -1.1710 H     1 <1>   0.0800 
 38 H        4.7470     0.9510    -1.5060 H     1 <1>   0.0800 
 39 H        2.4000    -6.7230     0.0440 H     1 <1>   0.0800 
 40 H        0.8340    -6.6220    -0.7270 H     1 <1>   0.0800 
 41 H        0.9580    -6.5240     1.0120 H     1 <1>   0.0800 
 42 H        6.5710     3.3760     1.9220 H     1 <1>   0.1500 
 43 H       10.1360     3.6380    -1.4460 H     1 <1>   0.1500 
 44 H        9.6150     0.3790    -0.4320 H     1 <1>   0.0800 
 45 H       10.0470     1.3260    -1.8320 H     1 <1>   0.0800 
 46 H        8.4420     0.6520    -1.6990 H     1 <1>   0.0800 
 47 H        9.3850     5.6650    -0.3040 H     1 <1>   0.1500 
 48 H        7.9880     6.5390     1.2630 H     1 <1>   0.4500 
@<TRIPOS>BOND
  1   1   2  2   
  2   2   3  am  
  3   2   4  1   
  4   3   5  1   
  5   3   6  1   
  6   4   7  ar  
  7   4   8  ar  
  8   5   9  1   
  9   5  27  1   
 10   5  28  1   
 11   6  10  1   
 12   6  29  1   
 13   6  30  1   
 14   7  11  ar  
 15   8  12  ar  
 16   8  31  1   
 17   9  13  1   
 18   9  32  1   
 19   9  33  1   
 20  10  14  1   
 21  10  34  1   
 22  10  35  1   
 23  11  15  ar  
 24  11  36  1   
 25  12  15  ar  
 26  13  14  1   
 27  13  16  am  
 28  14  37  1   
 29  14  38  1   
 30  15  17  1   
 31  16  18  2   
 32  16  19  1   
 33  17  39  1   
 34  17  40  1   
 35  17  41  1   
 36  19  20  ar  
 37  19  21  ar  
 38  20  22  ar  
 39  20  23  1   
 40  21  24  ar  
 41  21  42  1   
 42  22  25  ar  
 43  22  43  1   
 44  23  44  1   
 45  23  45  1   
 46  23  46  1   
 47  24  25  ar  
 48  24  26  1   
 49  25  47  1   
 50  26  48  1   
@<TRIPOS>SUBSTRUCTURE
  1 ****   9 GROUP 4 **** **** 0

# MOE 2024.06 (io_trps.svl 2023.06)
