@<TRIPOS>MOLECULE
NONAME
50 52 1 0 0 
SMALL
USER_CHARGES


@<TRIPOS>ATOM
  1 O       -0.7290     0.2160     2.7280 O.2   1 <1>  -0.5700 
  2 C       -1.1230     0.9580     1.8580 C.2   1 <1>   0.5690 
  3 N       -1.9430     0.5010     0.8620 N.am  1 <1>  -0.6600 
  4 C       -0.6950     2.4180     1.9150 C.3   1 <1>   0.0440 
  5 C       -2.4930     1.2950    -0.2660 C.3   1 <1>   0.1400 
  6 C       -2.2860    -0.9320     0.7000 C.3   1 <1>   0.1400 
  7 C        0.1490     2.8370     0.7090 C.ar  1 <1>  -0.1440 
  8 C       -3.5670     0.3940    -0.8710 C.3   1 <1>   0.2000 
  9 C       -3.0170    -1.0190    -0.6450 C.3   1 <1>  -0.0800 
 10 C       -0.2570     3.8370    -0.1740 C.ar  1 <1>   0.0830 
 11 C        1.3590     2.1950     0.4970 C.ar  1 <1>  -0.1500 
 12 O       -4.7320     0.5600    -0.1360 O.3   1 <1>  -0.6800 
 13 C       -4.0570    -2.1520    -0.7180 C.3   1 <1>  -0.0170 
 14 O       -1.4550     4.4440     0.0520 O.3   1 <1>  -0.3630 
 15 C        0.5590     4.1760    -1.2520 C.ar  1 <1>  -0.1500 
 16 C        2.1710     2.5300    -0.5730 C.ar  1 <1>   0.0830 
 17 C       -3.3930    -3.5110    -0.5490 C.ar  1 <1>  -0.1430 
 18 C       -1.8570     5.5820    -0.6780 C.3   1 <1>   0.0400 
 19 C        1.7650     3.5290    -1.4510 C.ar  1 <1>  -0.1500 
 20 O        3.3380     1.8440    -0.6940 O.3   1 <1>  -0.3630 
 21 C       -2.7530    -4.1410    -1.5970 C.ar  1 <1>  -0.1500 
 22 C       -3.3920    -4.1810     0.6570 C.ar  1 <1>  -0.1500 
 23 C        4.2590     2.1460    -1.7180 C.3   1 <1>   0.0400 
 24 C       -2.1570    -5.3740    -1.3930 C.ar  1 <1>   0.1600 
 25 C       -2.7650    -5.4120     0.7550 C.ar  1 <1>   0.1600 
 26 N       -2.1470    -6.0250    -0.2420 N.ar  1 <1>  -0.6200 
 27 H       -1.5760     3.0210     2.0180 H     1 <1>   0.0800 
 28 H       -0.1110     2.5660     2.8040 H     1 <1>   0.0800 
 29 H       -2.9010     2.2360     0.0610 H     1 <1>   0.0800 
 30 H       -1.7110     1.4690    -0.9850 H     1 <1>   0.0800 
 31 H       -1.3960    -1.5410     0.7070 H     1 <1>   0.0800 
 32 H       -2.9270    -1.2310     1.5110 H     1 <1>   0.0800 
 33 H       -3.7750     0.6150    -1.9030 H     1 <1>   0.0800 
 34 H       -2.2700    -1.1990    -1.3990 H     1 <1>   0.0800 
 35 H        1.6880     1.4200     1.1670 H     1 <1>   0.1500 
 36 H       -4.5020     0.5310     0.8150 H     1 <1>   0.4000 
 37 H       -4.5580    -2.1160    -1.6690 H     1 <1>   0.0800 
 38 H       -4.8060    -2.0230     0.0440 H     1 <1>   0.0800 
 39 H        0.2730     4.9400    -1.9490 H     1 <1>   0.1500 
 40 H       -2.7910     5.9270    -0.2730 H     1 <1>   0.0800 
 41 H       -1.9870     5.3090    -1.7100 H     1 <1>   0.0800 
 42 H       -1.1090     6.3480    -0.5720 H     1 <1>   0.0800 
 43 H        2.3710     3.8130    -2.2900 H     1 <1>   0.1500 
 44 H       -2.7120    -3.6850    -2.5690 H     1 <1>   0.1500 
 45 H       -3.8700    -3.7600     1.5230 H     1 <1>   0.1500 
 46 H        5.1070     1.4950    -1.6050 H     1 <1>   0.0800 
 47 H        4.5690     3.1710    -1.6180 H     1 <1>   0.0800 
 48 H        3.7910     1.9730    -2.6710 H     1 <1>   0.0800 
 49 H       -1.6620    -5.8510    -2.2220 H     1 <1>   0.1500 
 50 H       -2.7730    -5.9200     1.7040 H     1 <1>   0.1500 
@<TRIPOS>BOND
  1   1   2  2   
  2   2   3  am  
  3   2   4  1   
  4   3   5  1   
  5   3   6  1   
  6   4   7  1   
  7   4  27  1   
  8   4  28  1   
  9   5   8  1   
 10   5  29  1   
 11   5  30  1   
 12   6   9  1   
 13   6  31  1   
 14   6  32  1   
 15   7  10  ar  
 16   7  11  ar  
 17   8   9  1   
 18   8  12  1   
 19   8  33  1   
 20   9  13  1   
 21   9  34  1   
 22  10  14  1   
 23  10  15  ar  
 24  11  16  ar  
 25  11  35  1   
 26  12  36  1   
 27  13  17  1   
 28  13  37  1   
 29  13  38  1   
 30  14  18  1   
 31  15  19  ar  
 32  15  39  1   
 33  16  19  ar  
 34  16  20  1   
 35  17  21  ar  
 36  17  22  ar  
 37  18  40  1   
 38  18  41  1   
 39  18  42  1   
 40  19  43  1   
 41  20  23  1   
 42  21  24  ar  
 43  21  44  1   
 44  22  25  ar  
 45  22  45  1   
 46  23  46  1   
 47  23  47  1   
 48  23  48  1   
 49  24  26  ar  
 50  24  49  1   
 51  25  26  ar  
 52  25  50  1   
@<TRIPOS>SUBSTRUCTURE
  1 ****   3 GROUP 4 **** **** 0

# MOE 2024.06 (io_trps.svl 2023.06)
