@<TRIPOS>MOLECULE
NONAME
57 60 1 0 0 
SMALL
USER_CHARGES


@<TRIPOS>ATOM
  1 O       -2.0320     0.2490    -1.8490 O.2   1 <1>  -0.5700 
  2 C       -1.7850     0.1160    -0.6740 C.2   1 <1>   0.5690 
  3 N       -1.8160    -1.1100    -0.0950 N.am  1 <1>  -0.7300 
  4 C       -1.4190     1.3750     0.1490 C.3   1 <1>   0.0610 
  5 C       -1.9970    -2.3980    -0.8100 C.3   1 <1>   0.2200 
  6 C       -2.5340     2.4350    -0.0200 C.3   1 <1>  -0.1600 
  7 C       -0.0940     1.9460    -0.4060 C.3   1 <1>  -0.1600 
  8 C       -1.2470     1.0550     1.6570 C.3   1 <1>  -0.2400 
  9 C       -3.3490    -3.0280    -0.4970 C.3   1 <1>  -0.0800 
 10 C       -1.0700    -3.4230    -0.1740 C.3   1 <1>   0.1200 
 11 C       -2.1450     3.8140     0.5120 C.3   1 <1>   0.3430 
 12 C        0.2440     3.3340     0.1350 C.3   1 <1>   0.3430 
 13 C       -3.0940    -3.7120     0.8550 C.3   1 <1>   0.1200 
 14 C       -4.5480    -2.0570    -0.5150 C.3   1 <1>  -0.0170 
 15 O       -1.7050    -3.7790     1.0160 O.3   1 <1>  -0.5600 
 16 N       -0.8860     4.2640    -0.1460 N.4   1 <1>  -0.9590 
 17 C       -5.9380    -2.6820    -0.3330 C.ar  1 <1>  -0.1440 
 18 C       -0.5410     5.6640     0.2470 C.3   1 <1>   0.2630 
 19 C       -7.0700    -1.8420    -0.1870 C.ar  1 <1>   0.0000 
 20 C       -6.1650    -4.0300    -0.3090 C.ar  1 <1>  -0.1500 
 21 C       -8.3340    -2.4530     0.0080 C.ar  1 <1>   0.3100 
 22 C       -7.0240    -0.4270    -0.2310 C.ar  1 <1>  -0.1500 
 23 C       -7.4590    -4.5320    -0.1200 C.ar  1 <1>   0.1600 
 24 N       -8.5110    -3.7960     0.0400 N.ar  1 <1>  -0.6200 
 25 C       -9.4670    -1.6400     0.1710 C.ar  1 <1>  -0.1500 
 26 C       -8.1490     0.3360    -0.0730 C.ar  1 <1>  -0.1500 
 27 C       -9.3870    -0.2750     0.1340 C.ar  1 <1>  -0.1500 
 28 H       -1.6340    -1.2330     0.9040 H     1 <1>   0.3700 
 29 H       -1.8230    -2.2820    -1.8670 H     1 <1>   0.0800 
 30 H       -3.4250     2.1020     0.4820 H     1 <1>   0.0800 
 31 H       -2.7880     2.5400    -1.0610 H     1 <1>   0.0800 
 32 H       -0.1440     2.0080    -1.4800 H     1 <1>   0.0800 
 33 H        0.7130     1.2730    -0.1740 H     1 <1>   0.0800 
 34 H       -1.0040     1.9290     2.2330 H     1 <1>   0.0800 
 35 H       -0.4570     0.3380     1.8040 H     1 <1>   0.0800 
 36 H       -2.1550     0.6390     2.0580 H     1 <1>   0.0800 
 37 H       -3.5170    -3.7910    -1.2350 H     1 <1>   0.0800 
 38 H       -0.0900    -3.0310     0.0380 H     1 <1>   0.0800 
 39 H       -0.9900    -4.3040    -0.7860 H     1 <1>   0.0800 
 40 H       -2.0060     3.7680     1.5800 H     1 <1>   0.0800 
 41 H       -2.9400     4.5130     0.3050 H     1 <1>   0.0800 
 42 H        1.1440     3.6930    -0.3390 H     1 <1>   0.0800 
 43 H        0.4200     3.2800     1.1980 H     1 <1>   0.0800 
 44 H       -3.4920    -4.7110     0.8860 H     1 <1>   0.0800 
 45 H       -3.4910    -3.1380     1.6740 H     1 <1>   0.0800 
 46 H       -4.5390    -1.5290    -1.4540 H     1 <1>   0.0800 
 47 H       -4.4080    -1.3320     0.2670 H     1 <1>   0.0800 
 48 H       -1.0510     4.2390    -1.1640 H     1 <1>   0.4500 
 49 H       -0.3610     5.7230     1.3090 H     1 <1>   0.0800 
 50 H       -1.3490     6.3330    -0.0030 H     1 <1>   0.0800 
 51 H        0.3460     5.9910    -0.2710 H     1 <1>   0.0800 
 52 H       -5.3860    -4.7560    -0.4310 H     1 <1>   0.1500 
 53 H       -6.0860     0.0660    -0.3990 H     1 <1>   0.1500 
 54 H       -7.5860    -5.6010    -0.1050 H     1 <1>   0.1500 
 55 H      -10.4090    -2.1330     0.3250 H     1 <1>   0.1500 
 56 H       -8.0990     1.4110    -0.1080 H     1 <1>   0.1500 
 57 H      -10.2660     0.3350     0.2600 H     1 <1>   0.1500 
@<TRIPOS>BOND
  1   1   2  2   
  2   2   3  am  
  3   2   4  1   
  4   3   5  1   
  5   3  28  1   
  6   4   6  1   
  7   4   7  1   
  8   4   8  1   
  9   5   9  1   
 10   5  10  1   
 11   5  29  1   
 12   6  11  1   
 13   6  30  1   
 14   6  31  1   
 15   7  12  1   
 16   7  32  1   
 17   7  33  1   
 18   8  34  1   
 19   8  35  1   
 20   8  36  1   
 21   9  13  1   
 22   9  14  1   
 23   9  37  1   
 24  10  15  1   
 25  10  38  1   
 26  10  39  1   
 27  11  16  1   
 28  11  40  1   
 29  11  41  1   
 30  12  16  1   
 31  12  42  1   
 32  12  43  1   
 33  13  15  1   
 34  13  44  1   
 35  13  45  1   
 36  14  17  1   
 37  14  46  1   
 38  14  47  1   
 39  16  18  1   
 40  16  48  1   
 41  17  19  ar  
 42  17  20  ar  
 43  18  49  1   
 44  18  50  1   
 45  18  51  1   
 46  19  21  ar  
 47  19  22  ar  
 48  20  23  ar  
 49  20  52  1   
 50  21  24  ar  
 51  21  25  ar  
 52  22  26  ar  
 53  22  53  1   
 54  23  24  ar  
 55  23  54  1   
 56  25  27  ar  
 57  25  55  1   
 58  26  27  ar  
 59  26  56  1   
 60  27  57  1   
@<TRIPOS>SUBSTRUCTURE
  1 ****  14 GROUP 4 **** **** 0

# MOE 2024.06 (io_trps.svl 2023.06)
