@<TRIPOS>MOLECULE
NONAME
48 50 1 0 0 
SMALL
USER_CHARGES


@<TRIPOS>ATOM
  1 S       -1.9690    -1.4810    -1.3940 S.3   1 <1>  -0.0800 
  2 C       -1.9490    -3.0670    -0.6690 C.2   1 <1>  -0.1400 
  3 C       -2.6510    -2.1830    -2.8450 C.2   1 <1>   0.2280 
  4 C       -2.4350    -3.9480    -1.5560 C.2   1 <1>   0.0770 
  5 C       -1.4310    -3.2260     0.7400 C.3   1 <1>   0.5230 
  6 N       -2.8320    -3.4410    -2.7810 N.2   1 <1>  -0.5650 
  7 N       -2.4890    -2.7760     1.6740 N.4   1 <1>  -0.9590 
  8 C       -2.5790    -3.6130     2.9120 C.3   1 <1>   0.3430 
  9 C       -2.4950    -1.3130     1.9480 C.3   1 <1>   0.3430 
 10 C       -4.0020    -3.5930     3.5170 C.3   1 <1>   0.1400 
 11 C       -3.9210    -0.7600     1.8430 C.3   1 <1>  -0.1600 
 12 N       -4.9750    -2.8500     2.6500 N.am  1 <1>  -0.6600 
 13 C       -4.9340    -1.3700     2.8210 C.3   1 <1>   0.1400 
 14 C       -5.7460    -3.4130     1.6460 C.2   1 <1>   0.5690 
 15 O       -6.4840    -2.7010     1.0060 O.2   1 <1>  -0.5700 
 16 C       -5.6380    -4.9210     1.2820 C.3   1 <1>   0.4040 
 17 O       -4.2720    -5.3030     1.1490 O.3   1 <1>  -0.5600 
 18 C       -6.3910    -5.3170     0.0050 C.ar  1 <1>  -0.1440 
 19 C       -4.0630    -6.6730     0.9490 C.3   1 <1>   0.0400 
 20 C       -7.4480    -6.2150     0.0690 C.ar  1 <1>  -0.1500 
 21 C       -6.0200    -4.8020    -1.2300 C.ar  1 <1>  -0.1500 
 22 C       -8.1150    -6.5970    -1.0830 C.ar  1 <1>  -0.1500 
 23 C       -6.6830    -5.1850    -2.3810 C.ar  1 <1>  -0.1500 
 24 C       -7.7310    -6.0840    -2.3090 C.ar  1 <1>  -0.1500 
 25 H       -2.8630    -1.5180    -3.6650 H     1 <1>   0.1500 
 26 H       -2.5530    -5.0090    -1.4050 H     1 <1>   0.1500 
 27 H       -0.5220    -2.6640     0.8810 H     1 <1>   0.0800 
 28 H       -1.2210    -4.2700     0.9070 H     1 <1>   0.0800 
 29 H       -3.3810    -2.9670     1.1840 H     1 <1>   0.4500 
 30 H       -2.3480    -4.6370     2.6640 H     1 <1>   0.0800 
 31 H       -1.8610    -3.2850     3.6450 H     1 <1>   0.0800 
 32 H       -2.0930    -1.1150     2.9280 H     1 <1>   0.0800 
 33 H       -1.8780    -0.8030     1.2260 H     1 <1>   0.0800 
 34 H       -3.9680    -3.1380     4.4910 H     1 <1>   0.0800 
 35 H       -4.3370    -4.6050     3.6640 H     1 <1>   0.0800 
 36 H       -3.8830     0.3000     2.0240 H     1 <1>   0.0800 
 37 H       -4.2830    -0.8840     0.8370 H     1 <1>   0.0800 
 38 H       -5.9110    -0.9560     2.6280 H     1 <1>   0.0800 
 39 H       -4.6760    -1.1200     3.8360 H     1 <1>   0.0800 
 40 H       -6.0460    -5.4710     2.1100 H     1 <1>   0.0800 
 41 H       -3.0070    -6.8700     1.0000 H     1 <1>   0.0800 
 42 H       -4.4270    -6.9570    -0.0250 H     1 <1>   0.0800 
 43 H       -4.5740    -7.2350     1.7130 H     1 <1>   0.0800 
 44 H       -7.7650    -6.6260     1.0110 H     1 <1>   0.1500 
 45 H       -5.2140    -4.0950    -1.3040 H     1 <1>   0.1500 
 46 H       -8.9340    -7.2920    -1.0270 H     1 <1>   0.1500 
 47 H       -6.3830    -4.7790    -3.3320 H     1 <1>   0.1500 
 48 H       -8.2490    -6.3800    -3.2050 H     1 <1>   0.1500 
@<TRIPOS>BOND
  1   1   2  1   
  2   1   3  1   
  3   2   4  2   
  4   2   5  1   
  5   3   6  2   
  6   3  25  1   
  7   4   6  1   
  8   4  26  1   
  9   5   7  1   
 10   5  27  1   
 11   5  28  1   
 12   7   8  1   
 13   7   9  1   
 14   7  29  1   
 15   8  10  1   
 16   8  30  1   
 17   8  31  1   
 18   9  11  1   
 19   9  32  1   
 20   9  33  1   
 21  10  12  1   
 22  10  34  1   
 23  10  35  1   
 24  11  13  1   
 25  11  36  1   
 26  11  37  1   
 27  12  13  1   
 28  12  14  am  
 29  13  38  1   
 30  13  39  1   
 31  14  15  2   
 32  14  16  1   
 33  16  17  1   
 34  16  18  1   
 35  16  40  1   
 36  17  19  1   
 37  18  20  ar  
 38  18  21  ar  
 39  19  41  1   
 40  19  42  1   
 41  19  43  1   
 42  20  22  ar  
 43  20  44  1   
 44  21  23  ar  
 45  21  45  1   
 46  22  24  ar  
 47  22  46  1   
 48  23  24  ar  
 49  23  47  1   
 50  24  48  1   
@<TRIPOS>SUBSTRUCTURE
  1 ****  17 GROUP 4 **** **** 0

# MOE 2024.06 (io_trps.svl 2023.06)
