@<TRIPOS>MOLECULE
NONAME
45 48 1 0 0 
SMALL
USER_CHARGES


@<TRIPOS>ATOM
  1 S       -0.7430     0.3510     1.5490 S.3   1 <1>  -0.0800 
  2 C       -0.4380     1.7950     0.6060 C.2   1 <1>  -0.1400 
  3 C        0.8710     0.4400     2.2390 C.2   1 <1>  -0.1100 
  4 C        0.7960     2.2740     0.8070 C.2   1 <1>  -0.1810 
  5 C       -1.4700     2.3990    -0.3070 C.3   1 <1>   0.0200 
  6 C        1.5480     1.4990     1.7530 C.2   1 <1>  -0.1500 
  7 C        1.2860     3.5230     0.0710 C.3   1 <1>   0.4610 
  8 C       -1.0300     3.8440    -0.5920 C.3   1 <1>   0.1200 
  9 O        0.3400     3.9060    -0.9130 O.3   1 <1>  -0.5600 
 10 C        1.4990     4.6910     1.0420 C.3   1 <1>  -0.1600 
 11 C        2.5800     3.2180    -0.6890 C.3   1 <1>  -0.1600 
 12 C        2.0590     5.9200     0.3280 C.3   1 <1>   0.2090 
 13 C        3.1160     4.4670    -1.3860 C.3   1 <1>   0.2090 
 14 N        3.3220     5.5410    -0.3700 N.pl3 1 <1>  -0.8380 
 15 C        4.5230     6.1380    -0.1420 C.ar  1 <1>   0.1000 
 16 C        5.7210     5.4120    -0.1740 C.ar  1 <1>  -0.1500 
 17 C        4.6250     7.5070     0.1330 C.ar  1 <1>  -0.1500 
 18 C        6.9280     6.0220     0.0520 C.ar  1 <1>   0.2180 
 19 C        5.8410     8.0990     0.3580 C.ar  1 <1>   0.2180 
 20 N        6.9700     7.3510     0.3140 N.ar  1 <1>  -0.1790 
 21 C        8.2350     5.2490     0.0230 C.3   1 <1>  -0.0970 
 22 C        5.9700     9.5840     0.6530 C.3   1 <1>  -0.0970 
 23 H        1.1450    -0.3220     2.9470 H     1 <1>   0.1500 
 24 H       -2.4360     2.3980     0.1630 H     1 <1>   0.0800 
 25 H       -1.5260     1.8380    -1.2210 H     1 <1>   0.0800 
 26 H        2.5530     1.7670     2.0250 H     1 <1>   0.1500 
 27 H       -1.2090     4.4660     0.2660 H     1 <1>   0.0800 
 28 H       -1.5820     4.2420    -1.4260 H     1 <1>   0.0800 
 29 H        2.1970     4.3940     1.8020 H     1 <1>   0.0800 
 30 H        0.5790     4.9350     1.5360 H     1 <1>   0.0800 
 31 H        2.3900     2.4460    -1.4120 H     1 <1>   0.0800 
 32 H        3.3270     2.8560    -0.0090 H     1 <1>   0.0800 
 33 H        2.2420     6.6930     1.0530 H     1 <1>   0.0800 
 34 H        1.3480     6.2870    -0.3930 H     1 <1>   0.0800 
 35 H        2.4060     4.8080    -2.1210 H     1 <1>   0.0800 
 36 H        4.0340     4.2420    -1.8990 H     1 <1>   0.0800 
 37 H        5.6710     4.3570    -0.3690 H     1 <1>   0.1500 
 38 H        3.7250     8.0930     0.1490 H     1 <1>   0.1500 
 39 H        7.8740     7.7990     0.4820 H     1 <1>   0.4570 
 40 H        8.0550     4.2110    -0.1950 H     1 <1>   0.0800 
 41 H        8.7290     5.3090     0.9770 H     1 <1>   0.0800 
 42 H        8.8870     5.6420    -0.7370 H     1 <1>   0.0800 
 43 H        5.0020    10.0540     0.6550 H     1 <1>   0.0800 
 44 H        6.5730    10.0650    -0.0970 H     1 <1>   0.0800 
 45 H        6.4190     9.7380     1.6180 H     1 <1>   0.0800 
@<TRIPOS>BOND
  1   1   2  1   
  2   1   3  1   
  3   2   4  2   
  4   2   5  1   
  5   3   6  2   
  6   3  23  1   
  7   4   6  1   
  8   4   7  1   
  9   5   8  1   
 10   5  24  1   
 11   5  25  1   
 12   6  26  1   
 13   7   9  1   
 14   7  10  1   
 15   7  11  1   
 16   8   9  1   
 17   8  27  1   
 18   8  28  1   
 19  10  12  1   
 20  10  29  1   
 21  10  30  1   
 22  11  13  1   
 23  11  31  1   
 24  11  32  1   
 25  12  14  1   
 26  12  33  1   
 27  12  34  1   
 28  13  14  1   
 29  13  35  1   
 30  13  36  1   
 31  14  15  1   
 32  15  16  ar  
 33  15  17  ar  
 34  16  18  ar  
 35  16  37  1   
 36  17  19  ar  
 37  17  38  1   
 38  18  20  ar  
 39  18  21  1   
 40  19  20  ar  
 41  19  22  1   
 42  20  39  1   
 43  21  40  1   
 44  21  41  1   
 45  21  42  1   
 46  22  43  1   
 47  22  44  1   
 48  22  45  1   
@<TRIPOS>SUBSTRUCTURE
  1 ****  14 GROUP 4 **** **** 0

# MOE 2024.06 (io_trps.svl 2023.06)
