@<TRIPOS>MOLECULE
NONAME
54 56 1 0 0 
SMALL
USER_CHARGES


@<TRIPOS>ATOM
  1 S       -0.5230     0.9790     1.0820 S.o2  1 <1>   1.4470 
  2 O       -0.3410    -0.1730     1.9430 O.2   1 <1>  -0.6500 
  3 O       -1.1560     2.1570     1.6370 O.2   1 <1>  -0.6500 
  4 N       -1.4610     0.4730    -0.2410 N.am  1 <1>  -0.8490 
  5 C        1.0740     1.4250     0.3220 C.ar  1 <1>  -0.0090 
  6 C       -2.8850     0.3630     0.0650 C.3   1 <1>   0.1960 
  7 C       -1.0770    -0.8370    -0.7650 C.3   1 <1>   0.1960 
  8 C        1.2240     2.4640    -0.6000 C.ar  1 <1>  -0.1440 
  9 C        2.2050     0.6900     0.6600 C.ar  1 <1>  -0.1500 
 10 C       -3.0870    -1.0540     0.6040 C.3   1 <1>  -0.0800 
 11 C       -2.0490    -1.8740    -0.1830 C.3   1 <1>  -0.0800 
 12 C        2.4670     2.7340    -1.1540 C.ar  1 <1>  -0.1500 
 13 C        0.0470     3.3330    -1.0290 C.3   1 <1>  -0.0970 
 14 C        3.4520     0.9570     0.1070 C.ar  1 <1>   0.0830 
 15 C       -4.5390    -1.6100     0.5880 C.3   1 <1>   0.2800 
 16 C       -2.6840    -2.7330    -1.2890 C.3   1 <1>  -0.1600 
 17 C        3.5810     1.9900    -0.8110 C.ar  1 <1>  -0.1430 
 18 O        4.5680     0.2490     0.4250 O.3   1 <1>  -0.3630 
 19 O       -5.2090    -1.1490    -0.5300 O.3   1 <1>  -0.6800 
 20 C       -4.4970    -3.1470     0.4950 C.3   1 <1>  -0.1600 
 21 C       -5.3710    -1.1960     1.8230 C.3   1 <1>  -0.1600 
 22 C       -3.7520    -3.6940    -0.7410 C.3   1 <1>  -0.1600 
 23 C        4.9320     2.3090    -1.4370 C.3   1 <1>  -0.0970 
 24 C        4.5590    -0.7510     1.4200 C.3   1 <1>   0.0400 
 25 C       -5.5700     0.3140     2.0400 C.3   1 <1>  -0.2400 
 26 H       -3.2070     1.1220     0.7550 H     1 <1>   0.0800 
 27 H       -3.4320     0.4910    -0.8530 H     1 <1>   0.0800 
 28 H       -1.1690    -0.8080    -1.8380 H     1 <1>   0.0800 
 29 H       -0.0550    -1.0800    -0.5250 H     1 <1>   0.0800 
 30 H        2.0930    -0.1070     1.3700 H     1 <1>   0.1500 
 31 H       -2.7650    -1.0540     1.6300 H     1 <1>   0.0800 
 32 H       -1.5160    -2.5190     0.4950 H     1 <1>   0.0800 
 33 H        2.5710     3.5360    -1.8640 H     1 <1>   0.1500 
 34 H        0.3510     4.0740    -1.7450 H     1 <1>   0.0800 
 35 H       -0.3670     3.8470    -0.1790 H     1 <1>   0.0800 
 36 H       -0.7210     2.7320    -1.4810 H     1 <1>   0.0800 
 37 H       -3.1520    -2.0790    -2.0060 H     1 <1>   0.0800 
 38 H       -1.9270    -3.2930    -1.8090 H     1 <1>   0.0800 
 39 H       -6.0970    -1.5480    -0.5580 H     1 <1>   0.4000 
 40 H       -3.9890    -3.5100     1.3710 H     1 <1>   0.0800 
 41 H       -5.4920    -3.5550     0.5240 H     1 <1>   0.0800 
 42 H       -6.3410    -1.6560     1.7540 H     1 <1>   0.0800 
 43 H       -4.9030    -1.5990     2.7040 H     1 <1>   0.0800 
 44 H       -3.2920    -4.6310    -0.4790 H     1 <1>   0.0800 
 45 H       -4.4610    -3.8920    -1.5260 H     1 <1>   0.0800 
 46 H        4.8590     3.1290    -2.1270 H     1 <1>   0.0800 
 47 H        5.3010     1.4480    -1.9630 H     1 <1>   0.0800 
 48 H        5.6350     2.5690    -0.6660 H     1 <1>   0.0800 
 49 H        5.5590    -1.1320     1.5180 H     1 <1>   0.0800 
 50 H        3.8950    -1.5400     1.1170 H     1 <1>   0.0800 
 51 H        4.2420    -0.3140     2.3510 H     1 <1>   0.0800 
 52 H       -5.9230     0.7900     1.1420 H     1 <1>   0.0800 
 53 H       -4.6510     0.7790     2.3480 H     1 <1>   0.0800 
 54 H       -6.2950     0.4770     2.8170 H     1 <1>   0.0800 
@<TRIPOS>BOND
  1   1   2  2   
  2   1   3  2   
  3   1   4  am  
  4   1   5  1   
  5   4   6  1   
  6   4   7  1   
  7   5   8  ar  
  8   5   9  ar  
  9   6  10  1   
 10   6  26  1   
 11   6  27  1   
 12   7  11  1   
 13   7  28  1   
 14   7  29  1   
 15   8  12  ar  
 16   8  13  1   
 17   9  14  ar  
 18   9  30  1   
 19  10  11  1   
 20  10  15  1   
 21  10  31  1   
 22  11  16  1   
 23  11  32  1   
 24  12  17  ar  
 25  12  33  1   
 26  13  34  1   
 27  13  35  1   
 28  13  36  1   
 29  14  17  ar  
 30  14  18  1   
 31  15  19  1   
 32  15  20  1   
 33  15  21  1   
 34  16  22  1   
 35  16  37  1   
 36  16  38  1   
 37  17  23  1   
 38  18  24  1   
 39  19  39  1   
 40  20  22  1   
 41  20  40  1   
 42  20  41  1   
 43  21  25  1   
 44  21  42  1   
 45  21  43  1   
 46  22  44  1   
 47  22  45  1   
 48  23  46  1   
 49  23  47  1   
 50  23  48  1   
 51  24  49  1   
 52  24  50  1   
 53  24  51  1   
 54  25  52  1   
 55  25  53  1   
 56  25  54  1   
@<TRIPOS>SUBSTRUCTURE
  1 ****   4 GROUP 4 **** **** 0

# MOE 2024.06 (io_trps.svl 2023.06)
