@<TRIPOS>MOLECULE
NONAME
53 55 1 0 0 
SMALL
USER_CHARGES


@<TRIPOS>ATOM
  1 O       -0.8510     0.3330     1.5810 O.2   1 <1>  -0.5700 
  2 C       -1.7130     0.9350     0.9710 C.2   1 <1>   0.5440 
  3 N       -2.7560     0.2200     0.4300 N.am  1 <1>  -0.6600 
  4 C       -1.6280     2.3720     0.8190 C.ar  1 <1>   0.0860 
  5 C       -3.7770     0.7560    -0.5070 C.3   1 <1>   0.1400 
  6 C       -2.8250    -1.2620     0.4730 C.3   1 <1>   0.1400 
  7 C       -0.6020     2.9540     0.0820 C.ar  1 <1>  -0.1500 
  8 C       -2.5660     3.2230     1.3990 C.ar  1 <1>  -0.1500 
  9 C       -4.7810    -0.3860    -0.6560 C.3   1 <1>   0.2000 
 10 C       -3.9150    -1.6450    -0.5350 C.3   1 <1>  -0.0800 
 11 C       -0.5080     4.3220    -0.0930 C.ar  1 <1>   0.0830 
 12 C       -2.4970     4.5940     1.2320 C.ar  1 <1>  -0.1500 
 13 O       -5.6600    -0.3240     0.4160 O.3   1 <1>  -0.6800 
 14 C       -4.6730    -2.9350    -0.1740 C.3   1 <1>  -0.0170 
 15 O        0.5520     4.7370    -0.8410 O.3   1 <1>  -0.3630 
 16 C       -1.4750     5.1670     0.4770 C.ar  1 <1>   0.0830 
 17 C       -3.7370    -4.1340    -0.1750 C.ar  1 <1>  -0.1430 
 18 C        1.2320     5.9310    -0.5280 C.3   1 <1>   0.1200 
 19 O       -1.4090     6.5100     0.2710 O.3   1 <1>  -0.3630 
 20 C       -3.4200    -4.8060    -1.3390 C.ar  1 <1>  -0.1500 
 21 C       -3.1540    -4.6100     0.9810 C.ar  1 <1>  -0.1500 
 22 C        2.6410     5.8370    -1.1050 C.3   1 <1>  -0.2400 
 23 C       -2.3720     7.4080     0.7690 C.3   1 <1>   0.1200 
 24 C       -2.5570    -5.8880    -1.2910 C.ar  1 <1>   0.1600 
 25 C       -2.3030    -5.7020     0.9200 C.ar  1 <1>   0.1600 
 26 C       -1.9770     8.8130     0.3240 C.3   1 <1>  -0.2400 
 27 N       -1.9900    -6.3520    -0.1890 N.ar  1 <1>  -0.6200 
 28 H       -4.2460     1.6490    -0.1330 H     1 <1>   0.0800 
 29 H       -3.3090     0.9610    -1.4540 H     1 <1>   0.0800 
 30 H       -1.8750    -1.6980     0.2110 H     1 <1>   0.0800 
 31 H       -3.0910    -1.5680     1.4700 H     1 <1>   0.0800 
 32 H        0.1450     2.3190    -0.3610 H     1 <1>   0.1500 
 33 H       -3.3580     2.7960     1.9890 H     1 <1>   0.1500 
 34 H       -5.3480    -0.3370    -1.5700 H     1 <1>   0.0800 
 35 H       -3.4300    -1.7950    -1.4840 H     1 <1>   0.0800 
 36 H       -3.2510     5.1980     1.6990 H     1 <1>   0.1500 
 37 H       -5.1370    -0.2370     1.2390 H     1 <1>   0.4000 
 38 H       -5.4610    -3.0990    -0.8890 H     1 <1>   0.0800 
 39 H       -5.1350    -2.8430     0.7940 H     1 <1>   0.0800 
 40 H        0.6960     6.7520    -0.9700 H     1 <1>   0.0800 
 41 H        1.2620     6.0410     0.5430 H     1 <1>   0.0800 
 42 H       -3.8340    -4.4990    -2.2810 H     1 <1>   0.1500 
 43 H       -3.3510    -4.1460     1.9300 H     1 <1>   0.1500 
 44 H        2.5940     5.7140    -2.1720 H     1 <1>   0.0800 
 45 H        3.1630     5.0040    -0.6680 H     1 <1>   0.0800 
 46 H        3.1840     6.7370    -0.8850 H     1 <1>   0.0800 
 47 H       -3.3330     7.1380     0.3660 H     1 <1>   0.0800 
 48 H       -2.3820     7.3390     1.8440 H     1 <1>   0.0800 
 49 H       -2.3210    -6.4000    -2.2080 H     1 <1>   0.1500 
 50 H       -1.8560    -6.0580     1.8320 H     1 <1>   0.1500 
 51 H       -1.9520     8.8660    -0.7490 H     1 <1>   0.0800 
 52 H       -1.0110     9.0680     0.7200 H     1 <1>   0.0800 
 53 H       -2.6950     9.5260     0.6870 H     1 <1>   0.0800 
@<TRIPOS>BOND
  1   1   2  2   
  2   2   3  am  
  3   2   4  1   
  4   3   5  1   
  5   3   6  1   
  6   4   7  ar  
  7   4   8  ar  
  8   5   9  1   
  9   5  28  1   
 10   5  29  1   
 11   6  10  1   
 12   6  30  1   
 13   6  31  1   
 14   7  11  ar  
 15   7  32  1   
 16   8  12  ar  
 17   8  33  1   
 18   9  10  1   
 19   9  13  1   
 20   9  34  1   
 21  10  14  1   
 22  10  35  1   
 23  11  15  1   
 24  11  16  ar  
 25  12  16  ar  
 26  12  36  1   
 27  13  37  1   
 28  14  17  1   
 29  14  38  1   
 30  14  39  1   
 31  15  18  1   
 32  16  19  1   
 33  17  20  ar  
 34  17  21  ar  
 35  18  22  1   
 36  18  40  1   
 37  18  41  1   
 38  19  23  1   
 39  20  24  ar  
 40  20  42  1   
 41  21  25  ar  
 42  21  43  1   
 43  22  44  1   
 44  22  45  1   
 45  22  46  1   
 46  23  26  1   
 47  23  47  1   
 48  23  48  1   
 49  24  27  ar  
 50  24  49  1   
 51  25  27  ar  
 52  25  50  1   
 53  26  51  1   
 54  26  52  1   
 55  26  53  1   
@<TRIPOS>SUBSTRUCTURE
  1 ****   2 GROUP 4 **** **** 0

# MOE 2024.06 (io_trps.svl 2023.06)
