@<TRIPOS>MOLECULE
NONAME
50 52 1 0 0 
SMALL
USER_CHARGES


@<TRIPOS>ATOM
  1 O        1.5290     1.7590     1.2200 O.3   1 <1>  -0.0190 
  2 N        2.0950     0.6040     1.3950 N.2   1 <1>  -0.4100 
  3 C        0.8930     1.8250     0.0810 C.2   1 <1>  -0.0400 
  4 C        1.8050    -0.0960     0.3570 C.2   1 <1>   0.1080 
  5 C        1.0280     0.6400    -0.5330 C.2   1 <1>  -0.1500 
  6 C        0.1860     3.1060    -0.3190 C.3   1 <1>   0.0200 
  7 C        2.2510    -1.5260     0.1420 C.3   1 <1>  -0.0590 
  8 C        1.1970     4.2560    -0.4970 C.3   1 <1>  -0.0800 
  9 C        0.5980     5.5780    -0.9800 C.3   1 <1>   0.2000 
 10 C        1.9390     4.6170     0.7980 C.3   1 <1>   0.3430 
 11 O       -0.5860     5.8030    -0.2710 O.3   1 <1>  -0.5600 
 12 C        1.6410     6.5900    -0.5090 C.3   1 <1>   0.3430 
 13 N        2.0090     6.1050     0.8500 N.4   1 <1>  -0.9590 
 14 C       -1.4850     6.6820    -0.8770 C.3   1 <1>   0.0400 
 15 C        3.2820     6.6590     1.3890 C.3   1 <1>   0.5230 
 16 C        3.1700     8.1660     1.5340 C.2   1 <1>  -0.0400 
 17 O        3.1390     8.9170     0.4480 O.3   1 <1>  -0.2800 
 18 C        3.0940     8.9370     2.6400 C.2   1 <1>  -0.1500 
 19 C        3.0450    10.1760     0.8270 C.2   1 <1>  -0.0400 
 20 C        3.0110    10.2540     2.1760 C.2   1 <1>  -0.1500 
 21 C        3.0000    11.2480    -0.2490 C.3   1 <1>   0.0200 
 22 C        2.8840    12.6640     0.3310 C.3   1 <1>  -0.1600 
 23 C        2.8390    13.7240    -0.7750 C.3   1 <1>  -0.2400 
 24 H        0.6480     0.3000    -1.4790 H     1 <1>   0.1500 
 25 H       -0.3410     2.9430    -1.2430 H     1 <1>   0.0800 
 26 H       -0.5420     3.3500     0.4360 H     1 <1>   0.0800 
 27 H        2.8500    -1.5930    -0.7470 H     1 <1>   0.0800 
 28 H        1.3930    -2.1640     0.0420 H     1 <1>   0.0800 
 29 H        2.8350    -1.8590     0.9810 H     1 <1>   0.0800 
 30 H        1.9350     3.9420    -1.2150 H     1 <1>   0.0800 
 31 H        0.4120     5.5970    -2.0410 H     1 <1>   0.0800 
 32 H        2.9230     4.1750     0.7900 H     1 <1>   0.0800 
 33 H        1.3980     4.2450     1.6540 H     1 <1>   0.0800 
 34 H        1.2430     7.5920    -0.4850 H     1 <1>   0.0800 
 35 H        2.5000     6.5600    -1.1580 H     1 <1>   0.0800 
 36 H        1.2380     6.4230     1.4560 H     1 <1>   0.4500 
 37 H       -2.3440     6.7800    -0.2340 H     1 <1>   0.0800 
 38 H       -1.7950     6.2790    -1.8260 H     1 <1>   0.0800 
 39 H       -1.0230     7.6460    -1.0070 H     1 <1>   0.0800 
 40 H        3.4830     6.2290     2.3560 H     1 <1>   0.0800 
 41 H        4.1020     6.4230     0.7320 H     1 <1>   0.0800 
 42 H        3.0960     8.6540     3.6800 H     1 <1>   0.1500 
 43 H        2.9390    11.1290     2.8000 H     1 <1>   0.1500 
 44 H        3.8960    11.1770    -0.8410 H     1 <1>   0.0800 
 45 H        2.1600    11.0560    -0.8930 H     1 <1>   0.0800 
 46 H        1.9890    12.7360     0.9250 H     1 <1>   0.0800 
 47 H        3.7280    12.8580     0.9710 H     1 <1>   0.0800 
 48 H        1.9900    13.5660    -1.4160 H     1 <1>   0.0800 
 49 H        3.7360    13.6890    -1.3690 H     1 <1>   0.0800 
 50 H        2.7590    14.7050    -0.3400 H     1 <1>   0.0800 
@<TRIPOS>BOND
  1   1   2  1   
  2   1   3  1   
  3   2   4  2   
  4   3   5  2   
  5   3   6  1   
  6   4   5  1   
  7   4   7  1   
  8   5  24  1   
  9   6   8  1   
 10   6  25  1   
 11   6  26  1   
 12   7  27  1   
 13   7  28  1   
 14   7  29  1   
 15   8   9  1   
 16   8  10  1   
 17   8  30  1   
 18   9  11  1   
 19   9  12  1   
 20   9  31  1   
 21  10  13  1   
 22  10  32  1   
 23  10  33  1   
 24  11  14  1   
 25  12  13  1   
 26  12  34  1   
 27  12  35  1   
 28  13  15  1   
 29  13  36  1   
 30  14  37  1   
 31  14  38  1   
 32  14  39  1   
 33  15  16  1   
 34  15  40  1   
 35  15  41  1   
 36  16  17  1   
 37  16  18  2   
 38  17  19  1   
 39  18  20  1   
 40  18  42  1   
 41  19  20  2   
 42  19  21  1   
 43  20  43  1   
 44  21  22  1   
 45  21  44  1   
 46  21  45  1   
 47  22  23  1   
 48  22  46  1   
 49  22  47  1   
 50  23  48  1   
 51  23  49  1   
 52  23  50  1   
@<TRIPOS>SUBSTRUCTURE
  1 ****  13 GROUP 4 **** **** 0

# MOE 2024.06 (io_trps.svl 2023.06)
