@<TRIPOS>MOLECULE
NONAME
48 50 1 0 0 
SMALL
USER_CHARGES


@<TRIPOS>ATOM
  1 O       -0.9780    -0.0800    -1.8930 O.2   1 <1>  -0.5700 
  2 C       -1.3500     0.5830    -0.9510 C.2   1 <1>   0.5690 
  3 N       -1.7870    -0.0240     0.1850 N.am  1 <1>  -0.7300 
  4 C       -1.3630     2.1300    -1.0510 C.3   1 <1>   0.2040 
  5 C       -1.8730    -1.4810     0.4200 C.3   1 <1>   0.2200 
  6 C       -1.6250     2.7650     0.3410 C.ar  1 <1>  -0.1440 
  7 C       -0.0110     2.6530    -1.5830 C.3   1 <1>  -0.2400 
  8 C       -2.4350     2.5310    -2.0880 C.3   1 <1>  -0.2400 
  9 C       -3.3210    -1.9200     0.5860 C.3   1 <1>  -0.0800 
 10 C       -1.3210    -1.7950     1.8040 C.3   1 <1>   0.1200 
 11 C       -0.6980     2.5660     1.3610 C.ar  1 <1>  -0.1500 
 12 C       -2.7600     3.5180     0.6360 C.ar  1 <1>  -0.1500 
 13 C       -3.5970    -1.6380     2.0660 C.3   1 <1>   0.1200 
 14 C       -4.3320    -1.2740    -0.3810 C.3   1 <1>  -0.0170 
 15 O       -2.3550    -1.5010     2.6940 O.3   1 <1>  -0.5600 
 16 C       -0.8940     3.0910     2.6260 C.ar  1 <1>  -0.1500 
 17 C       -2.9580     4.0460     1.9000 C.ar  1 <1>  -0.1500 
 18 C       -5.7260    -1.8400    -0.1670 C.ar  1 <1>  -0.1440 
 19 C       -2.0270     3.8330     2.8980 C.ar  1 <1>  -0.1500 
 20 C       -6.6710    -1.1890     0.6000 C.ar  1 <1>  -0.1500 
 21 C       -6.1170    -3.0380    -0.7290 C.ar  1 <1>  -0.1500 
 22 C       -7.9240    -1.7550     0.7680 C.ar  1 <1>   0.1600 
 23 C       -7.3970    -3.5170    -0.5000 C.ar  1 <1>   0.1600 
 24 N       -8.3090    -2.9040     0.2380 N.ar  1 <1>  -0.6200 
 25 H       -2.0490     0.5590     0.9890 H     1 <1>   0.3700 
 26 H       -1.3600    -2.0240    -0.3560 H     1 <1>   0.0800 
 27 H       -0.0040     3.7290    -1.5900 H     1 <1>   0.0800 
 28 H        0.1600     2.3010    -2.5850 H     1 <1>   0.0800 
 29 H        0.8020     2.3070    -0.9730 H     1 <1>   0.0800 
 30 H       -2.4760     3.6000    -2.2020 H     1 <1>   0.0800 
 31 H       -3.4010     2.1660    -1.7900 H     1 <1>   0.0800 
 32 H       -2.2030     2.0990    -3.0460 H     1 <1>   0.0800 
 33 H       -3.3590    -2.9860     0.4500 H     1 <1>   0.0800 
 34 H       -0.4530    -1.2100     2.0480 H     1 <1>   0.0800 
 35 H       -1.0970    -2.8430     1.8950 H     1 <1>   0.0800 
 36 H        0.1920     1.9880     1.1840 H     1 <1>   0.1500 
 37 H       -3.5160     3.7130    -0.1010 H     1 <1>   0.1500 
 38 H       -4.1410    -2.4410     2.5330 H     1 <1>   0.0800 
 39 H       -4.1290    -0.7120     2.2010 H     1 <1>   0.0800 
 40 H       -4.0220    -1.4570    -1.3950 H     1 <1>   0.0800 
 41 H       -4.3590    -0.2070    -0.2400 H     1 <1>   0.0800 
 42 H       -0.1650     2.9220     3.3980 H     1 <1>   0.1500 
 43 H       -3.8410     4.6260     2.1080 H     1 <1>   0.1500 
 44 H       -2.1810     4.2440     3.8810 H     1 <1>   0.1500 
 45 H       -6.4470    -0.2490     1.0700 H     1 <1>   0.1500 
 46 H       -5.4400    -3.6030    -1.3430 H     1 <1>   0.1500 
 47 H       -8.6490    -1.2340     1.3700 H     1 <1>   0.1500 
 48 H       -7.6850    -4.4530    -0.9460 H     1 <1>   0.1500 
@<TRIPOS>BOND
  1   1   2  2   
  2   2   3  am  
  3   2   4  1   
  4   3   5  1   
  5   3  25  1   
  6   4   6  1   
  7   4   7  1   
  8   4   8  1   
  9   5   9  1   
 10   5  10  1   
 11   5  26  1   
 12   6  11  ar  
 13   6  12  ar  
 14   7  27  1   
 15   7  28  1   
 16   7  29  1   
 17   8  30  1   
 18   8  31  1   
 19   8  32  1   
 20   9  13  1   
 21   9  14  1   
 22   9  33  1   
 23  10  15  1   
 24  10  34  1   
 25  10  35  1   
 26  11  16  ar  
 27  11  36  1   
 28  12  17  ar  
 29  12  37  1   
 30  13  15  1   
 31  13  38  1   
 32  13  39  1   
 33  14  18  1   
 34  14  40  1   
 35  14  41  1   
 36  16  19  ar  
 37  16  42  1   
 38  17  19  ar  
 39  17  43  1   
 40  18  20  ar  
 41  18  21  ar  
 42  19  44  1   
 43  20  22  ar  
 44  20  45  1   
 45  21  23  ar  
 46  21  46  1   
 47  22  24  ar  
 48  22  47  1   
 49  23  24  ar  
 50  23  48  1   
@<TRIPOS>SUBSTRUCTURE
  1 ****   3 GROUP 4 **** **** 0

# MOE 2024.06 (io_trps.svl 2023.06)
