@<TRIPOS>MOLECULE
NONAME
52 55 1 0 0 
SMALL
USER_CHARGES


@<TRIPOS>ATOM
  1 O        1.2170    -1.5020     2.9670 O.3   1 <1>  -0.2170 
  2 N        0.8160    -0.5090     2.2060 N.2   1 <1>  -0.5130 
  3 C        2.2970    -2.2080     2.4000 C.3   1 <1>   0.2000 
  4 C        1.6670    -0.2550     1.2990 C.2   1 <1>   0.3030 
  5 C        2.8370    -1.2030     1.3850 C.3   1 <1>  -0.0990 
  6 C        1.7120    -3.5000     1.7830 C.3   1 <1>   0.3430 
  7 C        1.5690     0.7480     0.2600 C.ar  1 <1>   0.0860 
  8 N        0.4010    -3.2350     1.0990 N.4   1 <1>  -0.9590 
  9 C        2.6240     1.0380    -0.6100 C.ar  1 <1>  -0.1500 
 10 C        0.3820     1.4610     0.0800 C.ar  1 <1>  -0.1500 
 11 C       -0.6500    -4.2200     1.4740 C.3   1 <1>   0.3430 
 12 C        0.5100    -3.0400    -0.3750 C.3   1 <1>   0.3430 
 13 C        2.4920     1.9760    -1.6180 C.ar  1 <1>  -0.1500 
 14 C        0.2450     2.4010    -0.9250 C.ar  1 <1>  -0.1500 
 15 C       -1.9990    -3.7430     0.9500 C.3   1 <1>  -0.1600 
 16 C       -0.8220    -2.5420    -0.9210 C.3   1 <1>  -0.1600 
 17 C        1.3000     2.6580    -1.7790 C.ar  1 <1>  -0.1500 
 18 C       -1.9390    -3.5170    -0.5610 C.3   1 <1>   0.2000 
 19 O       -3.1370    -2.9440    -0.9630 O.3   1 <1>  -0.5600 
 20 C       -3.9930    -3.7810    -1.7000 C.3   1 <1>   0.2630 
 21 C       -4.4880    -4.9650    -0.8710 C.ar  1 <1>   0.1670 
 22 N       -3.8090    -6.1030    -0.9700 N.ar  1 <1>  -0.6200 
 23 C       -5.6050    -4.7990    -0.0650 C.ar  1 <1>  -0.1500 
 24 C       -4.2780    -7.1140    -0.2540 C.ar  1 <1>   0.1600 
 25 C       -6.0740    -5.8590     0.6820 C.ar  1 <1>  -0.1500 
 26 C       -5.3850    -7.0460     0.5740 C.ar  1 <1>  -0.1500 
 27 H        3.0170    -2.4260     3.1690 H     1 <1>   0.0800 
 28 H        3.0830    -1.6580     0.4440 H     1 <1>   0.0800 
 29 H        3.6950    -0.6910     1.7820 H     1 <1>   0.0800 
 30 H        1.5590    -4.2020     2.5860 H     1 <1>   0.0800 
 31 H        2.4180    -3.9400     1.0970 H     1 <1>   0.0800 
 32 H        0.0950    -2.3200     1.5040 H     1 <1>   0.4500 
 33 H        3.5700     0.5390    -0.5090 H     1 <1>   0.1500 
 34 H       -0.4500     1.2800     0.7390 H     1 <1>   0.1500 
 35 H       -0.7010    -4.3160     2.5470 H     1 <1>   0.0800 
 36 H       -0.4200    -5.1850     1.0530 H     1 <1>   0.0800 
 37 H        0.7710    -3.9720    -0.8490 H     1 <1>   0.0800 
 38 H        1.2740    -2.3140    -0.6000 H     1 <1>   0.0800 
 39 H        3.3170     2.1840    -2.2790 H     1 <1>   0.1500 
 40 H       -0.6830     2.9360    -1.0420 H     1 <1>   0.1500 
 41 H       -2.2760    -2.8310     1.4500 H     1 <1>   0.0800 
 42 H       -2.7380    -4.4880     1.1780 H     1 <1>   0.0800 
 43 H       -0.7560    -2.4560    -1.9910 H     1 <1>   0.0800 
 44 H       -1.0360    -1.5680    -0.5160 H     1 <1>   0.0800 
 45 H        1.1960     3.3900    -2.5630 H     1 <1>   0.1500 
 46 H       -1.7810    -4.4510    -1.0780 H     1 <1>   0.0800 
 47 H       -3.4730    -4.1250    -2.5770 H     1 <1>   0.0800 
 48 H       -4.8290    -3.1830    -2.0160 H     1 <1>   0.0800 
 49 H       -6.1040    -3.8470    -0.0210 H     1 <1>   0.1500 
 50 H       -3.7530    -8.0510    -0.3320 H     1 <1>   0.1500 
 51 H       -6.9390    -5.7630     1.3160 H     1 <1>   0.1500 
 52 H       -5.7030    -7.9140     1.1240 H     1 <1>   0.1500 
@<TRIPOS>BOND
  1   1   2  1   
  2   1   3  1   
  3   2   4  2   
  4   3   5  1   
  5   3   6  1   
  6   3  27  1   
  7   4   5  1   
  8   4   7  1   
  9   5  28  1   
 10   5  29  1   
 11   6   8  1   
 12   6  30  1   
 13   6  31  1   
 14   7   9  ar  
 15   7  10  ar  
 16   8  11  1   
 17   8  12  1   
 18   8  32  1   
 19   9  13  ar  
 20   9  33  1   
 21  10  14  ar  
 22  10  34  1   
 23  11  15  1   
 24  11  35  1   
 25  11  36  1   
 26  12  16  1   
 27  12  37  1   
 28  12  38  1   
 29  13  17  ar  
 30  13  39  1   
 31  14  17  ar  
 32  14  40  1   
 33  15  18  1   
 34  15  41  1   
 35  15  42  1   
 36  16  18  1   
 37  16  43  1   
 38  16  44  1   
 39  17  45  1   
 40  18  19  1   
 41  18  46  1   
 42  19  20  1   
 43  20  21  1   
 44  20  47  1   
 45  20  48  1   
 46  21  22  ar  
 47  21  23  ar  
 48  22  24  ar  
 49  23  25  ar  
 50  23  49  1   
 51  24  26  ar  
 52  24  50  1   
 53  25  26  ar  
 54  25  51  1   
 55  26  52  1   
@<TRIPOS>SUBSTRUCTURE
  1 ****  16 GROUP 4 **** **** 0

# MOE 2024.06 (io_trps.svl 2023.06)
