@<TRIPOS>MOLECULE
NONAME
42 43 1 0 0 
SMALL
USER_CHARGES


@<TRIPOS>ATOM
  1 O        0.7610    -0.5180    -1.5840 O.2   1 <1>  -0.5700 
  2 C        0.5950    -0.5580    -0.3890 C.2   1 <1>   0.5690 
  3 N        0.9610     0.4520     0.4260 N.am  1 <1>  -0.7300 
  4 C       -0.0020    -1.8040     0.2110 C.3   1 <1>  -0.0990 
  5 C        1.7210     1.6290    -0.0150 C.3   1 <1>   0.4000 
  6 C        0.9980    -2.9570     0.0900 C.3   1 <1>   0.0960 
  7 C        3.1860     1.3850     0.3440 C.2   1 <1>   0.0060 
  8 C        1.1350     2.8740     0.6630 C.3   1 <1>  -0.1600 
  9 N        0.3960    -4.2120     0.5720 N.pl3 1 <1>   0.3140 
 10 N        3.6500     1.3880     1.5580 N.2   1 <1>  -0.5650 
 11 N        4.1290     1.1140    -0.5930 N.pl3 1 <1>   0.0480 
 12 C        1.8220     4.1710     0.2030 C.3   1 <1>  -0.1600 
 13 N        0.3610    -4.5380     1.8440 N.2   1 <1>  -0.4180 
 14 C       -0.2090    -5.1760    -0.1050 C.2   1 <1>   0.0070 
 15 C        4.9590     1.1210     1.4050 C.2   1 <1>   0.0770 
 16 C        5.2680     0.9500     0.1030 C.2   1 <1>  -0.3020 
 17 C        3.9770     0.9880    -2.0550 C.3   1 <1>   0.0160 
 18 C        1.1810     5.3950     0.8610 C.3   1 <1>  -0.2400 
 19 N       -0.2450    -5.6690     1.9120 N.2   1 <1>   0.0000 
 20 N       -0.6080    -6.0810     0.7020 N.2   1 <1>  -0.3380 
 21 C       -0.4080    -5.2130    -1.6090 C.3   1 <1>  -0.0600 
 22 H        1.0150     0.3200     1.4370 H     1 <1>   0.3700 
 23 H       -0.9030    -2.0370    -0.3260 H     1 <1>   0.0800 
 24 H       -0.2480    -1.6350     1.2440 H     1 <1>   0.0800 
 25 H        1.6150     1.7440    -1.0800 H     1 <1>   0.0800 
 26 H        1.8740    -2.7490     0.6790 H     1 <1>   0.0800 
 27 H        1.2990    -3.0840    -0.9340 H     1 <1>   0.0800 
 28 H        1.2420     2.7800     1.7300 H     1 <1>   0.0800 
 29 H        0.0870     2.9320     0.4280 H     1 <1>   0.0800 
 30 H        1.7470     4.2650    -0.8670 H     1 <1>   0.0800 
 31 H        2.8670     4.1410     0.4650 H     1 <1>   0.0800 
 32 H        5.6200     1.0640     2.2540 H     1 <1>   0.1500 
 33 H        6.2150     0.7250    -0.3510 H     1 <1>   0.1500 
 34 H        3.2160     0.2600    -2.2740 H     1 <1>   0.0800 
 35 H        4.9080     0.6690    -2.4880 H     1 <1>   0.0800 
 36 H        3.6980     1.9390    -2.4690 H     1 <1>   0.0800 
 37 H        0.1390     5.4650     0.6000 H     1 <1>   0.0800 
 38 H        1.6760     6.2910     0.5320 H     1 <1>   0.0800 
 39 H        1.2660     5.3330     1.9320 H     1 <1>   0.0800 
 40 H       -0.9470    -4.3420    -1.9360 H     1 <1>   0.0800 
 41 H       -0.9740    -6.0870    -1.8800 H     1 <1>   0.0800 
 42 H        0.5430    -5.2520    -2.1090 H     1 <1>   0.0800 
@<TRIPOS>BOND
  1   1   2  2   
  2   2   3  am  
  3   2   4  1   
  4   3   5  1   
  5   3  22  1   
  6   4   6  1   
  7   4  23  1   
  8   4  24  1   
  9   5   7  1   
 10   5   8  1   
 11   5  25  1   
 12   6   9  1   
 13   6  26  1   
 14   6  27  1   
 15   7  10  2   
 16   7  11  1   
 17   8  12  1   
 18   8  28  1   
 19   8  29  1   
 20   9  13  1   
 21   9  14  1   
 22  10  15  1   
 23  11  16  1   
 24  11  17  1   
 25  12  18  1   
 26  12  30  1   
 27  12  31  1   
 28  13  19  2   
 29  14  20  2   
 30  14  21  1   
 31  15  16  2   
 32  15  32  1   
 33  16  33  1   
 34  17  34  1   
 35  17  35  1   
 36  17  36  1   
 37  18  37  1   
 38  18  38  1   
 39  18  39  1   
 40  19  20  1   
 41  21  40  1   
 42  21  41  1   
 43  21  42  1   
@<TRIPOS>SUBSTRUCTURE
  1 ****   2 GROUP 4 **** **** 0

# MOE 2024.06 (io_trps.svl 2023.06)
