@<TRIPOS>MOLECULE
NONAME
54 56 1 0 0 
SMALL
USER_CHARGES


@<TRIPOS>ATOM
  1 O        3.1370     2.0150     1.8750 O.co2 1 <1>  -0.9000 
  2 C        2.4620     1.0730     1.4330 C.2   1 <1>   0.9060 
  3 O        2.2050     0.0930     2.1300 O.co2 1 <1>  -0.9000 
  4 C        2.2150     0.9620    -0.0800 C.3   1 <1>  -0.1060 
  5 C        3.1650    -0.1800    -0.5080 C.3   1 <1>   0.2000 
  6 C        2.6270     2.2610    -0.8510 C.3   1 <1>  -0.1600 
  7 C        0.7270     0.6100    -0.3410 C.3   1 <1>  -0.0160 
  8 O        3.1050    -0.3610    -1.8920 O.3   1 <1>  -0.6800 
  9 C        4.6280     0.1630    -0.1170 C.3   1 <1>   0.3430 
 10 C        4.1330     2.3740    -1.1470 C.3   1 <1>   0.3430 
 11 C       -0.2210     1.7710    -0.0600 C.ar  1 <1>  -0.1440 
 12 N        4.8930     1.6470    -0.0970 N.4   1 <1>  -0.9590 
 13 C       -0.7570     2.5140    -1.1030 C.ar  1 <1>  -0.1500 
 14 C       -0.5590     2.0960     1.2440 C.ar  1 <1>  -0.1500 
 15 C        6.3150     2.0060     0.0640 C.3   1 <1>   0.4860 
 16 C       -1.6120     3.5710    -0.8430 C.ar  1 <1>  -0.1500 
 17 C       -1.4130     3.1530     1.5060 C.ar  1 <1>  -0.1500 
 18 C        6.4810     3.5120     0.1160 C.ar  1 <1>  -0.1430 
 19 C       -1.9390     3.8930     0.4620 C.ar  1 <1>  -0.1500 
 20 C        5.8380     4.2690     1.0850 C.ar  1 <1>   0.1600 
 21 C        7.2760     4.1570    -0.8150 C.ar  1 <1>  -0.1500 
 22 N        5.9250     5.5840     1.1900 N.ar  1 <1>  -0.6200 
 23 C        7.3680     5.5240    -0.7120 C.ar  1 <1>  -0.1500 
 24 C        6.6850     6.2010     0.2930 C.ar  1 <1>   0.4100 
 25 N        6.7920     7.5760     0.3830 N.pl3 1 <1>  -0.8380 
 26 C        8.0910     8.1260     0.8460 C.3   1 <1>   0.1290 
 27 C        5.6110     8.3400     0.8710 C.3   1 <1>   0.1290 
 28 H        2.8820    -1.1110    -0.0450 H     1 <1>   0.0800 
 29 H        2.3110     3.1250    -0.2910 H     1 <1>   0.0800 
 30 H        2.1150     2.3050    -1.7950 H     1 <1>   0.0800 
 31 H        0.5950     0.3060    -1.3630 H     1 <1>   0.0800 
 32 H        0.4380    -0.2270     0.2730 H     1 <1>   0.0800 
 33 H        2.2200    -0.6930    -2.1440 H     1 <1>   0.4000 
 34 H        5.2940    -0.3350    -0.8000 H     1 <1>   0.0800 
 35 H        4.8030    -0.2230     0.8750 H     1 <1>   0.0800 
 36 H        4.4100     3.4160    -1.1740 H     1 <1>   0.0800 
 37 H        4.3460     1.9340    -2.1080 H     1 <1>   0.0800 
 38 H        4.4120     1.9680     0.7840 H     1 <1>   0.4500 
 39 H       -0.5120     2.2740    -2.1210 H     1 <1>   0.1500 
 40 H       -0.1550     1.5270     2.0670 H     1 <1>   0.1500 
 41 H        6.6940     1.5760     0.9770 H     1 <1>   0.0800 
 42 H        6.8820     1.6110    -0.7610 H     1 <1>   0.0800 
 43 H       -2.0220     4.1440    -1.6560 H     1 <1>   0.1500 
 44 H       -1.6610     3.3970     2.5230 H     1 <1>   0.1500 
 45 H       -2.6010     4.7160     0.6660 H     1 <1>   0.1500 
 46 H        5.2100     3.7770     1.8130 H     1 <1>   0.1500 
 47 H        7.8010     3.6280    -1.5920 H     1 <1>   0.1500 
 48 H        7.9580     6.0960    -1.4010 H     1 <1>   0.1500 
 49 H        8.2580     9.0900     0.3970 H     1 <1>   0.0800 
 50 H        8.8970     7.4690     0.5690 H     1 <1>   0.0800 
 51 H        8.0830     8.2290     1.9170 H     1 <1>   0.0800 
 52 H        5.6730     9.3630     0.5440 H     1 <1>   0.0800 
 53 H        5.5710     8.3060     1.9460 H     1 <1>   0.0800 
 54 H        4.7080     7.9040     0.4790 H     1 <1>   0.0800 
@<TRIPOS>BOND
  1   1   2  ar  
  2   2   3  ar  
  3   2   4  1   
  4   4   5  1   
  5   4   6  1   
  6   4   7  1   
  7   5   8  1   
  8   5   9  1   
  9   5  28  1   
 10   6  10  1   
 11   6  29  1   
 12   6  30  1   
 13   7  11  1   
 14   7  31  1   
 15   7  32  1   
 16   8  33  1   
 17   9  12  1   
 18   9  34  1   
 19   9  35  1   
 20  10  12  1   
 21  10  36  1   
 22  10  37  1   
 23  11  13  ar  
 24  11  14  ar  
 25  12  15  1   
 26  12  38  1   
 27  13  16  ar  
 28  13  39  1   
 29  14  17  ar  
 30  14  40  1   
 31  15  18  1   
 32  15  41  1   
 33  15  42  1   
 34  16  19  ar  
 35  16  43  1   
 36  17  19  ar  
 37  17  44  1   
 38  18  20  ar  
 39  18  21  ar  
 40  19  45  1   
 41  20  22  ar  
 42  20  46  1   
 43  21  23  ar  
 44  21  47  1   
 45  22  24  ar  
 46  23  24  ar  
 47  23  48  1   
 48  24  25  1   
 49  25  26  1   
 50  25  27  1   
 51  26  49  1   
 52  26  50  1   
 53  26  51  1   
 54  27  52  1   
 55  27  53  1   
 56  27  54  1   
@<TRIPOS>SUBSTRUCTURE
  1 ****   6 GROUP 4 **** **** 0

# MOE 2024.06 (io_trps.svl 2023.06)
