@<TRIPOS>MOLECULE
NONAME
46 48 1 0 0 
SMALL
USER_CHARGES


@<TRIPOS>ATOM
  1 S        0.0150    -0.4190     0.6620 S.3   1 <1>  -0.0800 
  2 C       -1.4200    -1.0050    -0.1170 C.2   1 <1>   0.4420 
  3 C       -0.4260     1.1630     0.1200 C.2   1 <1>   0.1980 
  4 N       -2.0740    -0.0590    -0.6900 N.2   1 <1>  -0.3380 
  5 N       -1.6590    -2.3610    -0.0390 N.am  1 <1>  -0.4940 
  6 N       -1.5030     1.1730    -0.5490 N.2   1 <1>  -0.3380 
  7 C        0.4640     2.3330     0.4760 C.3   1 <1>   0.0200 
  8 C       -2.7710    -3.0730    -0.4160 C.2   1 <1>   0.5440 
  9 C       -0.1740     3.6200    -0.0620 C.3   1 <1>   0.3430 
 10 O       -3.8000    -2.4950    -0.6880 O.2   1 <1>  -0.5700 
 11 C       -2.7200    -4.5230    -0.4450 C.ar  1 <1>   0.0860 
 12 N        0.5990     4.8560     0.2960 N.4   1 <1>  -0.9590 
 13 C       -3.8190    -5.2880    -0.1100 C.ar  1 <1>  -0.1500 
 14 C       -1.5440    -5.2090    -0.8190 C.ar  1 <1>  -0.1500 
 15 C       -0.2220     6.0670    -0.0210 C.3   1 <1>   0.2630 
 16 C        1.9180     4.9350    -0.4130 C.3   1 <1>   0.2630 
 17 C       -3.7980    -6.6880    -0.1080 C.ar  1 <1>   0.3100 
 18 C       -1.4920    -6.5780    -0.8280 C.ar  1 <1>  -0.1500 
 19 N       -4.9150    -7.3690     0.2480 N.ar  1 <1>  -0.6200 
 20 C       -2.6040    -7.3540    -0.4720 C.ar  1 <1>   0.3100 
 21 C       -4.7930    -8.6600     0.2220 C.ar  1 <1>   0.1670 
 22 N       -2.5060    -8.7040    -0.4870 N.ar  1 <1>  -0.6200 
 23 C       -3.5910    -9.3260    -0.1440 C.ar  1 <1>   0.1670 
 24 C       -6.0290    -9.4540     0.6130 C.3   1 <1>  -0.0970 
 25 C       -3.5210   -10.8440    -0.1510 C.3   1 <1>  -0.0970 
 26 H       -0.9230    -2.9040     0.4020 H     1 <1>   0.3700 
 27 H        1.4300     2.1720     0.0350 H     1 <1>   0.0800 
 28 H        0.5570     2.3830     1.5450 H     1 <1>   0.0800 
 29 H       -1.1710     3.6920     0.3440 H     1 <1>   0.0800 
 30 H       -0.2700     3.5440    -1.1340 H     1 <1>   0.0800 
 31 H        0.7690     4.8540     1.3140 H     1 <1>   0.4500 
 32 H       -4.7430    -4.8080     0.1640 H     1 <1>   0.1500 
 33 H       -0.6770    -4.6450    -1.1150 H     1 <1>   0.1500 
 34 H       -0.4320     6.1120    -1.0780 H     1 <1>   0.0800 
 35 H        0.3040     6.9630     0.2640 H     1 <1>   0.0800 
 36 H       -1.1590     6.0350     0.5130 H     1 <1>   0.0800 
 37 H        1.7710     4.9250    -1.4810 H     1 <1>   0.0800 
 38 H        2.5440     4.1010    -0.1430 H     1 <1>   0.0800 
 39 H        2.4310     5.8450    -0.1460 H     1 <1>   0.0800 
 40 H       -0.5970    -7.1020    -1.1140 H     1 <1>   0.1500 
 41 H       -6.8390    -8.7900     0.8550 H     1 <1>   0.0800 
 42 H       -5.8210   -10.0610     1.4740 H     1 <1>   0.0800 
 43 H       -6.3390   -10.0800    -0.2030 H     1 <1>   0.0800 
 44 H       -4.2360   -11.2450    -0.8450 H     1 <1>   0.0800 
 45 H       -3.7190   -11.2290     0.8320 H     1 <1>   0.0800 
 46 H       -2.5410   -11.1720    -0.4500 H     1 <1>   0.0800 
@<TRIPOS>BOND
  1   1   2  1   
  2   1   3  1   
  3   2   4  2   
  4   2   5  1   
  5   3   6  2   
  6   3   7  1   
  7   4   6  1   
  8   5   8  am  
  9   5  26  1   
 10   7   9  1   
 11   7  27  1   
 12   7  28  1   
 13   8  10  2   
 14   8  11  1   
 15   9  12  1   
 16   9  29  1   
 17   9  30  1   
 18  11  13  ar  
 19  11  14  ar  
 20  12  15  1   
 21  12  16  1   
 22  12  31  1   
 23  13  17  ar  
 24  13  32  1   
 25  14  18  ar  
 26  14  33  1   
 27  15  34  1   
 28  15  35  1   
 29  15  36  1   
 30  16  37  1   
 31  16  38  1   
 32  16  39  1   
 33  17  19  ar  
 34  17  20  ar  
 35  18  20  ar  
 36  18  40  1   
 37  19  21  ar  
 38  20  22  ar  
 39  21  23  ar  
 40  21  24  1   
 41  22  23  ar  
 42  23  25  1   
 43  24  41  1   
 44  24  42  1   
 45  24  43  1   
 46  25  44  1   
 47  25  45  1   
 48  25  46  1   
@<TRIPOS>SUBSTRUCTURE
  1 ****   8 GROUP 4 **** **** 0

# MOE 2024.06 (io_trps.svl 2023.06)
