@<TRIPOS>MOLECULE
NONAME
47 50 1 0 0 
SMALL
USER_CHARGES


@<TRIPOS>ATOM
  1 F        0.2910    -0.4040    -0.4440 F     1 <1>  -0.1900 
  2 C        1.5000    -0.8620    -0.6330 C.ar  1 <1>   0.1900 
  3 C        1.8070    -2.1750    -0.2660 C.ar  1 <1>   0.0530 
  4 C        2.4140     0.0010    -1.2070 C.ar  1 <1>  -0.1500 
  5 C        0.8530    -3.0800     0.3400 C.2   1 <1>   0.0870 
  6 C        3.1170    -2.5870    -0.5210 C.ar  1 <1>  -0.1500 
  7 C        3.7020    -0.4430    -1.4410 C.ar  1 <1>  -0.1500 
  8 O        1.0340    -4.3920     0.2440 O.3   1 <1>  -0.2800 
  9 C       -0.2860    -2.8600     1.0510 C.2   1 <1>  -0.1500 
 10 C        4.0490    -1.7400    -1.0970 C.ar  1 <1>  -0.1500 
 11 C        0.0510    -5.0120     0.8580 C.2   1 <1>  -0.0400 
 12 C       -0.8070    -4.1110     1.3870 C.2   1 <1>  -0.1500 
 13 C        0.0670    -6.5310     0.8500 C.3   1 <1>   0.5230 
 14 N       -1.3140    -7.0710     0.9780 N.4   1 <1>  -0.9590 
 15 C       -2.2250    -6.6780    -0.1290 C.3   1 <1>   0.3430 
 16 C       -1.3840    -8.5580     1.0650 C.3   1 <1>   0.3430 
 17 C       -3.3720    -7.6800    -0.0150 C.3   1 <1>   0.2000 
 18 C       -2.6570    -8.9930     0.3130 C.3   1 <1>  -0.0800 
 19 O       -4.1390    -7.3220     1.0880 O.3   1 <1>  -0.6800 
 20 C       -2.3320    -9.7890    -0.9700 C.3   1 <1>  -0.0170 
 21 C       -1.6360   -11.1100    -0.6720 C.ar  1 <1>   0.1670 
 22 N       -0.3590   -11.0360    -0.3320 N.ar  1 <1>  -0.6200 
 23 C       -2.3390   -12.3110    -0.7690 C.ar  1 <1>   0.1600 
 24 C        0.1660   -12.2320    -0.1100 C.ar  1 <1>   0.1600 
 25 N       -1.8180   -13.5010    -0.5330 N.ar  1 <1>  -0.6200 
 26 C       -0.5400   -13.4250    -0.2060 C.ar  1 <1>   0.1600 
 27 H        2.1190     1.0020    -1.4670 H     1 <1>   0.1500 
 28 H        3.4120    -3.5880    -0.2610 H     1 <1>   0.1500 
 29 H        4.4310     0.2130    -1.8870 H     1 <1>   0.1500 
 30 H       -0.7230    -1.9140     1.3220 H     1 <1>   0.1500 
 31 H        5.0510    -2.0890    -1.2780 H     1 <1>   0.1500 
 32 H       -1.7090    -4.2580     1.9550 H     1 <1>   0.1500 
 33 H        0.6870    -6.8820     1.6590 H     1 <1>   0.0800 
 34 H        0.5000    -6.8680    -0.0770 H     1 <1>   0.0800 
 35 H       -1.7460    -6.6950     1.8340 H     1 <1>   0.4500 
 36 H       -2.5770    -5.6640    -0.0280 H     1 <1>   0.0800 
 37 H       -1.7290    -6.7970    -1.0780 H     1 <1>   0.0800 
 38 H       -0.5100    -8.9910     0.6120 H     1 <1>   0.0800 
 39 H       -1.4300    -8.8710     2.0960 H     1 <1>   0.0800 
 40 H       -4.0020    -7.7090    -0.8900 H     1 <1>   0.0800 
 41 H       -3.2650    -9.6160     0.9480 H     1 <1>   0.0800 
 42 H       -4.9810    -7.8240     1.1210 H     1 <1>   0.4000 
 43 H       -1.6990    -9.2130    -1.6230 H     1 <1>   0.0800 
 44 H       -3.2440    -9.9890    -1.5050 H     1 <1>   0.0800 
 45 H       -3.3770   -12.2920    -1.0530 H     1 <1>   0.1500 
 46 H        1.2070   -12.2760     0.1610 H     1 <1>   0.1500 
 47 H       -0.0280   -14.3500    -0.0050 H     1 <1>   0.1500 
@<TRIPOS>BOND
  1   1   2  1   
  2   2   3  ar  
  3   2   4  ar  
  4   3   5  1   
  5   3   6  ar  
  6   4   7  ar  
  7   4  27  1   
  8   5   8  1   
  9   5   9  2   
 10   6  10  ar  
 11   6  28  1   
 12   7  10  ar  
 13   7  29  1   
 14   8  11  1   
 15   9  12  1   
 16   9  30  1   
 17  10  31  1   
 18  11  12  2   
 19  11  13  1   
 20  12  32  1   
 21  13  14  1   
 22  13  33  1   
 23  13  34  1   
 24  14  15  1   
 25  14  16  1   
 26  14  35  1   
 27  15  17  1   
 28  15  36  1   
 29  15  37  1   
 30  16  18  1   
 31  16  38  1   
 32  16  39  1   
 33  17  18  1   
 34  17  19  1   
 35  17  40  1   
 36  18  20  1   
 37  18  41  1   
 38  19  42  1   
 39  20  21  1   
 40  20  43  1   
 41  20  44  1   
 42  21  22  ar  
 43  21  23  ar  
 44  22  24  ar  
 45  23  25  ar  
 46  23  45  1   
 47  24  26  ar  
 48  24  46  1   
 49  25  26  ar  
 50  26  47  1   
@<TRIPOS>SUBSTRUCTURE
  1 ****  13 GROUP 4 **** **** 0

# MOE 2024.06 (io_trps.svl 2023.06)
