@<TRIPOS>MOLECULE
NONAME
35 36 1 0 0 
SMALL
USER_CHARGES


@<TRIPOS>ATOM
  1 CL       0.4220    -1.9290    -3.2900 Cl    1 <1>  -0.1770 
  2 C       -0.0720    -3.1810    -2.1780 C.ar  1 <1>   0.1770 
  3 C       -0.7970    -4.2580    -2.6500 C.ar  1 <1>  -0.1500 
  4 C        0.2700    -3.0770    -0.8410 C.ar  1 <1>  -0.1500 
  5 C       -1.1700    -5.2270    -1.7410 C.ar  1 <1>   0.1900 
  6 C       -0.1180    -4.0660     0.0500 C.ar  1 <1>  -0.1500 
  7 F       -1.8570    -6.2510    -2.1880 F     1 <1>  -0.1900 
  8 C       -0.8540    -5.1700    -0.3820 C.ar  1 <1>   0.1170 
  9 N       -1.2700    -6.2020     0.4820 N.am  1 <1>  -0.5470 
 10 C       -1.2780    -6.3440     1.8400 C.2   1 <1>   0.5690 
 11 O       -0.8790    -5.5070     2.6130 O.2   1 <1>  -0.5700 
 12 C       -1.8310    -7.6600     2.3930 C.3   1 <1>   0.1710 
 13 N       -2.7050    -8.4010     1.4330 N.3   1 <1>  -0.8100 
 14 C       -2.8340    -9.8290     1.8290 C.3   1 <1>   0.2900 
 15 C       -4.0340    -7.7650     1.3290 C.3   1 <1>   0.0300 
 16 C       -3.6090   -10.6750     0.8230 C.2   1 <1>   0.2980 
 17 O       -3.1560   -10.8560    -0.3760 O.3   1 <1>  -0.2800 
 18 N       -4.7230   -11.2750     1.0160 N.2   1 <1>  -0.3380 
 19 C       -4.0550   -11.5990    -0.9310 C.2   1 <1>   0.2980 
 20 N       -5.0160   -11.8800    -0.1360 N.2   1 <1>  -0.3380 
 21 C       -3.8920   -12.0330    -2.3680 C.3   1 <1>  -0.0600 
 22 H       -1.0590    -4.3360    -3.6880 H     1 <1>   0.1500 
 23 H        0.8360    -2.2270    -0.5010 H     1 <1>   0.1500 
 24 H        0.1590    -3.9710     1.0840 H     1 <1>   0.1500 
 25 H       -1.7290    -7.0000     0.0230 H     1 <1>   0.3700 
 26 H       -2.3700    -7.4550     3.3020 H     1 <1>   0.0800 
 27 H       -0.9800    -8.2670     2.6450 H     1 <1>   0.0800 
 28 H       -3.3250    -9.8970     2.7850 H     1 <1>   0.0800 
 29 H       -1.8530   -10.2600     1.9260 H     1 <1>   0.0800 
 30 H       -3.9360    -6.7260     1.0630 H     1 <1>   0.0800 
 31 H       -4.5630    -7.8340     2.2650 H     1 <1>   0.0800 
 32 H       -4.6200    -8.2470     0.5640 H     1 <1>   0.0800 
 33 H       -2.9870   -12.6020    -2.4740 H     1 <1>   0.0800 
 34 H       -3.8430   -11.1670    -3.0030 H     1 <1>   0.0800 
 35 H       -4.7270   -12.6400    -2.6640 H     1 <1>   0.0800 
@<TRIPOS>BOND
  1   1   2  1   
  2   2   3  ar  
  3   2   4  ar  
  4   3   5  ar  
  5   3  22  1   
  6   4   6  ar  
  7   4  23  1   
  8   5   7  1   
  9   5   8  ar  
 10   6   8  ar  
 11   6  24  1   
 12   8   9  1   
 13   9  10  am  
 14   9  25  1   
 15  10  11  2   
 16  10  12  1   
 17  12  13  1   
 18  12  26  1   
 19  12  27  1   
 20  13  14  1   
 21  13  15  1   
 22  14  16  1   
 23  14  28  1   
 24  14  29  1   
 25  15  30  1   
 26  15  31  1   
 27  15  32  1   
 28  16  17  1   
 29  16  18  2   
 30  17  19  1   
 31  18  20  1   
 32  19  20  2   
 33  19  21  1   
 34  21  33  1   
 35  21  34  1   
 36  21  35  1   
@<TRIPOS>SUBSTRUCTURE
  1 ****   9 GROUP 4 **** **** 0

# MOE 2024.06 (io_trps.svl 2023.06)
