@<TRIPOS>MOLECULE
NONAME
55 58 1 0 0 
SMALL
USER_CHARGES


@<TRIPOS>ATOM
  1 O       -1.7160     0.6680     1.9310 O.2   1 <1>  -0.5700 
  2 C       -2.1810     0.6920     0.8160 C.2   1 <1>   0.5770 
  3 N       -2.4090    -0.4810     0.1260 N.am  1 <1>  -0.6600 
  4 C       -2.5260     2.0470     0.1960 C.3   1 <1>   0.0530 
  5 C       -2.0390    -1.7940     0.7140 C.3   1 <1>   0.1400 
  6 C       -3.0590    -0.5790    -1.2040 C.3   1 <1>   0.1400 
  7 C       -2.3190     3.3090     1.0840 C.3   1 <1>   0.0000 
  8 C       -4.0410     2.3910     0.2150 C.3   1 <1>   0.0000 
  9 C       -3.3210    -2.5960     0.9280 C.3   1 <1>  -0.1600 
 10 C       -4.3650    -1.3600    -1.0360 C.3   1 <1>  -0.1600 
 11 C       -3.6230     3.8640     0.4580 C.3   1 <1>   0.0000 
 12 C       -4.1100    -2.7230    -0.3770 C.3   1 <1>   0.4230 
 13 N       -5.3960    -3.3770    -0.0600 N.4   1 <1>  -0.9060 
 14 C       -6.1960    -3.8570    -1.2220 C.3   1 <1>   0.4230 
 15 C       -7.5430    -4.4040    -0.7450 C.3   1 <1>  -0.0800 
 16 C       -5.5660    -5.1490    -1.7290 C.3   1 <1>   0.1200 
 17 C       -7.2100    -5.8490    -0.3360 C.3   1 <1>   0.1200 
 18 C       -8.2880    -3.5990     0.3390 C.3   1 <1>  -0.0170 
 19 O       -5.8800    -6.0490    -0.7190 O.3   1 <1>  -0.5600 
 20 C       -9.6450    -4.2190     0.6210 C.ar  1 <1>  -0.1430 
 21 C       -9.8700    -5.0320     1.7160 C.ar  1 <1>  -0.1500 
 22 C      -10.7280    -4.0020    -0.2080 C.ar  1 <1>  -0.1500 
 23 C      -11.1270    -5.5780     1.9160 C.ar  1 <1>   0.1600 
 24 C      -11.9450    -4.5960     0.0830 C.ar  1 <1>   0.1600 
 25 N      -12.1670    -5.3810     1.1230 N.ar  1 <1>  -0.6200 
 26 H       -2.0920     2.1860    -0.7810 H     1 <1>   0.0000 
 27 H       -1.3700    -2.3090     0.0450 H     1 <1>   0.0800 
 28 H       -1.5260    -1.6680     1.6550 H     1 <1>   0.0800 
 29 H       -3.2630     0.3930    -1.6170 H     1 <1>   0.0800 
 30 H       -2.3960    -1.0900    -1.8830 H     1 <1>   0.0800 
 31 H       -2.4280     3.1290     2.1400 H     1 <1>   0.0000 
 32 H       -1.4420     3.8780     0.8340 H     1 <1>   0.0000 
 33 H       -4.5400     2.2310    -0.7230 H     1 <1>   0.0000 
 34 H       -4.5590     1.9630     1.0570 H     1 <1>   0.0000 
 35 H       -3.9030    -2.0920     1.6800 H     1 <1>   0.0800 
 36 H       -3.0540    -3.5710     1.2970 H     1 <1>   0.0800 
 37 H       -4.8040    -1.4880    -2.0080 H     1 <1>   0.0800 
 38 H       -5.0310    -0.7690    -0.4320 H     1 <1>   0.0800 
 39 H       -3.4490     4.4030    -0.4580 H     1 <1>   0.0000 
 40 H       -4.2540     4.3870     1.1540 H     1 <1>   0.0000 
 41 H       -3.5410    -3.3380    -1.0560 H     1 <1>   0.0800 
 42 H       -5.9500    -2.7550     0.5330 H     1 <1>   0.4500 
 43 H       -5.2020    -4.2310     0.4860 H     1 <1>   0.4500 
 44 H       -6.2980    -3.1030    -1.9860 H     1 <1>   0.0800 
 45 H       -8.1900    -4.4650    -1.6050 H     1 <1>   0.0800 
 46 H       -4.4990    -5.1010    -1.8550 H     1 <1>   0.0800 
 47 H       -6.0270    -5.4870    -2.6420 H     1 <1>   0.0800 
 48 H       -7.8320    -6.5620    -0.8530 H     1 <1>   0.0800 
 49 H       -7.2820    -6.0130     0.7260 H     1 <1>   0.0800 
 50 H       -8.4360    -2.5850     0.0080 H     1 <1>   0.0800 
 51 H       -7.7270    -3.5710     1.2570 H     1 <1>   0.0800 
 52 H       -9.0900    -5.2500     2.4210 H     1 <1>   0.1500 
 53 H      -10.6470    -3.3760    -1.0780 H     1 <1>   0.1500 
 54 H      -11.2880    -6.2090     2.7740 H     1 <1>   0.1500 
 55 H      -12.7800    -4.4170    -0.5730 H     1 <1>   0.1500 
@<TRIPOS>BOND
  1   1   2  2   
  2   2   3  am  
  3   2   4  1   
  4   3   5  1   
  5   3   6  1   
  6   4   7  1   
  7   4   8  1   
  8   4  26  1   
  9   5   9  1   
 10   5  27  1   
 11   5  28  1   
 12   6  10  1   
 13   6  29  1   
 14   6  30  1   
 15   7  11  1   
 16   7  31  1   
 17   7  32  1   
 18   8  11  1   
 19   8  33  1   
 20   8  34  1   
 21   9  12  1   
 22   9  35  1   
 23   9  36  1   
 24  10  12  1   
 25  10  37  1   
 26  10  38  1   
 27  11  39  1   
 28  11  40  1   
 29  12  13  1   
 30  12  41  1   
 31  13  14  1   
 32  13  42  1   
 33  13  43  1   
 34  14  15  1   
 35  14  16  1   
 36  14  44  1   
 37  15  17  1   
 38  15  18  1   
 39  15  45  1   
 40  16  19  1   
 41  16  46  1   
 42  16  47  1   
 43  17  19  1   
 44  17  48  1   
 45  17  49  1   
 46  18  20  1   
 47  18  50  1   
 48  18  51  1   
 49  20  21  ar  
 50  20  22  ar  
 51  21  23  ar  
 52  21  52  1   
 53  22  24  ar  
 54  22  53  1   
 55  23  25  ar  
 56  23  54  1   
 57  24  25  ar  
 58  24  55  1   
@<TRIPOS>SUBSTRUCTURE
  1 ****  13 GROUP 4 **** **** 0

# MOE 2024.06 (io_trps.svl 2023.06)
