@<TRIPOS>MOLECULE
NONAME
47 49 1 0 0 
SMALL
USER_CHARGES


@<TRIPOS>ATOM
  1 O       -3.0170     1.7780    -1.7330 O.2   1 <1>  -0.5700 
  2 C       -2.1910     2.2510    -0.9860 C.2   1 <1>   0.6900 
  3 N       -2.3570     2.4130     0.3580 N.am  1 <1>  -0.4200 
  4 N       -0.9710     2.6570    -1.3880 N.am  1 <1>  -0.7300 
  5 C       -1.2010     2.8810     0.9030 C.2   1 <1>   0.5690 
  6 C       -3.4470     1.7790     1.1390 C.3   1 <1>   0.2010 
  7 C       -0.1600     3.0370    -0.2240 C.3   1 <1>   0.3610 
  8 O       -1.0220     3.1440     2.0690 O.2   1 <1>  -0.5700 
  9 C       -3.3520     0.2530     1.1000 C.2   1 <1>   0.5690 
 10 C        1.0070     2.0550    -0.0960 C.3   1 <1>  -0.2400 
 11 C        0.3220     4.4770    -0.4100 C.3   1 <1>  -0.2400 
 12 O       -2.3990    -0.2630     1.6370 O.2   1 <1>  -0.5700 
 13 N       -4.3110    -0.5070     0.4820 N.am  1 <1>  -0.6600 
 14 C       -5.4620    -0.0150    -0.3190 C.3   1 <1>   0.1400 
 15 C       -4.1750    -1.9780     0.3430 C.3   1 <1>   0.1400 
 16 C       -6.0090    -1.2490    -1.0380 C.3   1 <1>   0.2000 
 17 C       -5.5070    -2.4510    -0.2410 C.3   1 <1>  -0.0800 
 18 O       -7.3960    -1.2480    -1.0660 O.3   1 <1>  -0.6800 
 19 C       -5.4000    -3.7240    -1.0980 C.3   1 <1>  -0.0160 
 20 C       -4.9480    -4.9190    -0.2750 C.ar  1 <1>   0.1670 
 21 N       -3.6430    -5.0450    -0.0880 N.ar  1 <1>  -0.6200 
 22 C       -5.8930    -5.7980     0.2330 C.ar  1 <1>  -0.1500 
 23 C       -3.2650    -6.0860     0.6350 C.ar  1 <1>   0.1600 
 24 C       -5.4840    -6.8790     0.9850 C.ar  1 <1>  -0.1500 
 25 C       -4.1280    -7.0170     1.1860 C.ar  1 <1>  -0.1500 
 26 H       -0.5610     2.3280    -2.2600 H     1 <1>   0.3700 
 27 H       -3.3740     2.0930     2.1640 H     1 <1>   0.0800 
 28 H       -4.3910     2.1120     0.7540 H     1 <1>   0.0800 
 29 H        1.5750     2.2860     0.7880 H     1 <1>   0.0800 
 30 H        1.6580     2.1220    -0.9480 H     1 <1>   0.0800 
 31 H        0.6390     1.0480    -0.0020 H     1 <1>   0.0800 
 32 H        0.8670     4.7910     0.4630 H     1 <1>   0.0800 
 33 H       -0.5170     5.1370    -0.5390 H     1 <1>   0.0800 
 34 H        0.9690     4.5530    -1.2650 H     1 <1>   0.0800 
 35 H       -6.2010     0.4030     0.3410 H     1 <1>   0.0800 
 36 H       -5.1440     0.7200    -1.0370 H     1 <1>   0.0800 
 37 H       -3.3610    -2.1920    -0.3310 H     1 <1>   0.0800 
 38 H       -3.9710    -2.4400     1.2950 H     1 <1>   0.0800 
 39 H       -5.6450    -1.2670    -2.0520 H     1 <1>   0.0800 
 40 H       -6.1670    -2.6350     0.5880 H     1 <1>   0.0800 
 41 H       -7.7530    -1.2790    -0.1580 H     1 <1>   0.4000 
 42 H       -4.7020    -3.5690    -1.9030 H     1 <1>   0.0800 
 43 H       -6.3580    -3.9350    -1.5390 H     1 <1>   0.0800 
 44 H       -6.9390    -5.6400     0.0450 H     1 <1>   0.1500 
 45 H       -2.2070    -6.2030     0.7990 H     1 <1>   0.1500 
 46 H       -6.1900    -7.5810     1.3950 H     1 <1>   0.1500 
 47 H       -3.7410    -7.8370     1.7630 H     1 <1>   0.1500 
@<TRIPOS>BOND
  1   1   2  2   
  2   2   3  am  
  3   2   4  am  
  4   3   5  am  
  5   3   6  1   
  6   4   7  1   
  7   4  26  1   
  8   5   7  1   
  9   5   8  2   
 10   6   9  1   
 11   6  27  1   
 12   6  28  1   
 13   7  10  1   
 14   7  11  1   
 15   9  12  2   
 16   9  13  am  
 17  10  29  1   
 18  10  30  1   
 19  10  31  1   
 20  11  32  1   
 21  11  33  1   
 22  11  34  1   
 23  13  14  1   
 24  13  15  1   
 25  14  16  1   
 26  14  35  1   
 27  14  36  1   
 28  15  17  1   
 29  15  37  1   
 30  15  38  1   
 31  16  17  1   
 32  16  18  1   
 33  16  39  1   
 34  17  19  1   
 35  17  40  1   
 36  18  41  1   
 37  19  20  1   
 38  19  42  1   
 39  19  43  1   
 40  20  21  ar  
 41  20  22  ar  
 42  21  23  ar  
 43  22  24  ar  
 44  22  44  1   
 45  23  25  ar  
 46  23  45  1   
 47  24  25  ar  
 48  24  46  1   
 49  25  47  1   
@<TRIPOS>SUBSTRUCTURE
  1 ****  13 GROUP 4 **** **** 0

# MOE 2024.06 (io_trps.svl 2023.06)
