@<TRIPOS>MOLECULE
NONAME
55 59 1 0 0 
SMALL
USER_CHARGES


@<TRIPOS>ATOM
  1 O        3.7430    -2.4280    -1.5590 O.2   1 <1>  -0.5700 
  2 C        2.7330    -2.4300    -0.8730 C.2   1 <1>   0.5440 
  3 N        2.1970    -1.1980    -0.5380 N.am  1 <1>  -0.6600 
  4 C        2.1850    -3.7150    -0.4300 C.ar  1 <1>   0.3960 
  5 C        2.8310     0.0820    -0.9230 C.3   1 <1>   0.1400 
  6 C        1.0660    -0.9650     0.3910 C.3   1 <1>   0.1400 
  7 N        0.8660    -3.8870    -0.2430 N.ar  1 <1>  -0.6200 
  8 C        3.0880    -4.7610    -0.2140 C.ar  1 <1>   0.1600 
  9 C        2.3010     1.0940     0.0840 C.3   1 <1>  -0.1600 
 10 C        0.9340     0.5520     0.4880 C.3   1 <1>  -0.1600 
 11 C        0.5230    -5.1020     0.1530 C.ar  1 <1>   0.4100 
 12 N        2.7760    -5.9820     0.1970 N.ar  1 <1>  -0.6200 
 13 N       -0.8360    -5.3310     0.3510 N.pl3 1 <1>  -0.8380 
 14 C        1.4770    -6.1110     0.3740 C.ar  1 <1>   0.1600 
 15 C       -1.8420    -4.2570     0.0900 C.3   1 <1>   0.2090 
 16 C       -1.4460    -6.6500     0.0140 C.3   1 <1>   0.2090 
 17 C       -3.1880    -4.9780     0.0990 C.3   1 <1>   0.2000 
 18 C       -2.8490    -6.3360    -0.5180 C.3   1 <1>  -0.0800 
 19 O       -3.5710    -5.1560     1.4210 O.3   1 <1>  -0.6800 
 20 C       -3.8960    -7.4450    -0.2910 C.3   1 <1>  -0.0170 
 21 C       -3.4390    -8.7600    -0.9190 C.ar  1 <1>  -0.1430 
 22 C       -2.7980    -9.7960    -0.1940 C.ar  1 <1>   0.0000 
 23 C       -3.6400    -8.9590    -2.2540 C.ar  1 <1>  -0.1500 
 24 C       -2.3910   -10.9460    -0.9150 C.ar  1 <1>   0.3100 
 25 C       -2.5360    -9.7670     1.1970 C.ar  1 <1>  -0.1500 
 26 C       -3.2080   -10.1410    -2.8670 C.ar  1 <1>   0.1600 
 27 N       -2.6040   -11.1020    -2.2460 N.ar  1 <1>  -0.6200 
 28 C       -1.7340   -11.9830    -0.2340 C.ar  1 <1>  -0.1500 
 29 C       -1.8950   -10.7960     1.8320 C.ar  1 <1>  -0.1500 
 30 C       -1.4850   -11.9190     1.1090 C.ar  1 <1>  -0.1500 
 31 H        3.9060     0.0130    -0.8890 H     1 <1>   0.0800 
 32 H        2.5180     0.3390    -1.9210 H     1 <1>   0.0800 
 33 H        0.1600    -1.4040     0.0100 H     1 <1>   0.0800 
 34 H        1.3020    -1.3890     1.3520 H     1 <1>   0.0800 
 35 H        4.1320    -4.5690    -0.3920 H     1 <1>   0.1500 
 36 H        2.9560     1.1100     0.9380 H     1 <1>   0.0800 
 37 H        2.2460     2.0830    -0.3340 H     1 <1>   0.0800 
 38 H        0.1900     0.8810    -0.2170 H     1 <1>   0.0800 
 39 H        0.6430     0.8640     1.4750 H     1 <1>   0.0800 
 40 H        1.1260    -7.0640     0.7190 H     1 <1>   0.1500 
 41 H       -1.7950    -3.4820     0.8360 H     1 <1>   0.0800 
 42 H       -1.6650    -3.8290    -0.8820 H     1 <1>   0.0800 
 43 H       -0.8670    -7.1780    -0.7250 H     1 <1>   0.0800 
 44 H       -1.5040    -7.2400     0.9120 H     1 <1>   0.0800 
 45 H       -3.9640    -4.4450    -0.4210 H     1 <1>   0.0800 
 46 H       -2.7510    -6.1900    -1.5790 H     1 <1>   0.0800 
 47 H       -2.7680    -5.3770     1.9370 H     1 <1>   0.4000 
 48 H       -4.8190    -7.1410    -0.7520 H     1 <1>   0.0800 
 49 H       -4.1140    -7.5710     0.7520 H     1 <1>   0.0800 
 50 H       -4.1260    -8.2220    -2.8660 H     1 <1>   0.1500 
 51 H       -2.8470    -8.9250     1.7840 H     1 <1>   0.1500 
 52 H       -3.3870   -10.2550    -3.9230 H     1 <1>   0.1500 
 53 H       -1.4320   -12.8380    -0.8110 H     1 <1>   0.1500 
 54 H       -1.7010   -10.7590     2.8900 H     1 <1>   0.1500 
 55 H       -0.9790   -12.7220     1.6180 H     1 <1>   0.1500 
@<TRIPOS>BOND
  1   1   2  2   
  2   2   3  am  
  3   2   4  1   
  4   3   5  1   
  5   3   6  1   
  6   4   7  ar  
  7   4   8  ar  
  8   5   9  1   
  9   5  31  1   
 10   5  32  1   
 11   6  10  1   
 12   6  33  1   
 13   6  34  1   
 14   7  11  ar  
 15   8  12  ar  
 16   8  35  1   
 17   9  10  1   
 18   9  36  1   
 19   9  37  1   
 20  10  38  1   
 21  10  39  1   
 22  11  13  1   
 23  11  14  ar  
 24  12  14  ar  
 25  13  15  1   
 26  13  16  1   
 27  14  40  1   
 28  15  17  1   
 29  15  41  1   
 30  15  42  1   
 31  16  18  1   
 32  16  43  1   
 33  16  44  1   
 34  17  18  1   
 35  17  19  1   
 36  17  45  1   
 37  18  20  1   
 38  18  46  1   
 39  19  47  1   
 40  20  21  1   
 41  20  48  1   
 42  20  49  1   
 43  21  22  ar  
 44  21  23  ar  
 45  22  24  ar  
 46  22  25  ar  
 47  23  26  ar  
 48  23  50  1   
 49  24  27  ar  
 50  24  28  ar  
 51  25  29  ar  
 52  25  51  1   
 53  26  27  ar  
 54  26  52  1   
 55  28  30  ar  
 56  28  53  1   
 57  29  30  ar  
 58  29  54  1   
 59  30  55  1   
@<TRIPOS>SUBSTRUCTURE
  1 ****  13 GROUP 4 **** **** 0

# MOE 2024.06 (io_trps.svl 2023.06)
