@<TRIPOS>MOLECULE
NONAME
51 54 1 0 0 
SMALL
USER_CHARGES


@<TRIPOS>ATOM
  1 S       -0.8220    -0.3540    -0.2720 S.3   1 <1>  -0.3320 
  2 C       -2.2340     0.7490    -0.1020 C.ar  1 <1>   0.1020 
  3 C        0.6260     0.6750    -0.7800 C.3   1 <1>  -0.0100 
  4 C       -3.4270     0.1840     0.2740 C.ar  1 <1>  -0.1500 
  5 C       -2.1290     2.1180    -0.3410 C.ar  1 <1>  -0.1500 
  6 C       -4.5800     0.9700     0.4300 C.ar  1 <1>   0.0000 
  7 C       -3.2450     2.9080    -0.1940 C.ar  1 <1>  -0.1500 
  8 C       -4.4730     2.3520     0.1890 C.ar  1 <1>   0.3610 
  9 C       -5.8570     0.4610     0.8170 C.ar  1 <1>  -0.1440 
 10 N       -5.5980     3.1440     0.3360 N.ar  1 <1>  -0.1790 
 11 C       -6.9140     1.3110     0.9400 C.ar  1 <1>  -0.1500 
 12 C       -6.0320    -1.0290     1.0880 C.3   1 <1>  -0.0970 
 13 C       -6.8060     2.7080     0.6980 C.ar  1 <1>   0.4610 
 14 N       -7.8280     3.5920     0.8010 N.pl3 1 <1>  -0.8380 
 15 C       -9.2270     3.2310     1.2440 C.3   1 <1>   0.2090 
 16 C       -7.7890     5.0510     0.4520 C.3   1 <1>   0.2090 
 17 C      -10.2410     3.4220     0.0870 C.3   1 <1>   0.0000 
 18 C       -8.7290     5.3130    -0.7290 C.3   1 <1>  -0.1600 
 19 C      -11.6690     3.0450     0.5230 C.3   1 <1>   0.2000 
 20 C      -10.1710     4.8830    -0.4120 C.3   1 <1>  -0.1600 
 21 C       -9.9860     2.4090    -1.0450 C.3   1 <1>  -0.1600 
 22 O      -11.9310     3.4130     1.8320 O.3   1 <1>  -0.6800 
 23 C      -11.7820     1.5270     0.3730 C.3   1 <1>  -0.1600 
 24 C      -10.6740     1.1130    -0.6050 C.3   1 <1>  -0.1600 
 25 H        1.4710     0.0170    -0.8810 H     1 <1>   0.0800 
 26 H        0.8050     1.4050    -0.0110 H     1 <1>   0.0800 
 27 H        0.3940     1.1390    -1.7220 H     1 <1>   0.0800 
 28 H       -3.4590    -0.8770     0.4480 H     1 <1>   0.1500 
 29 H       -1.1920     2.5510    -0.6350 H     1 <1>   0.1500 
 30 H       -3.1650     3.9650    -0.3790 H     1 <1>   0.1500 
 31 H       -5.5130     4.1360     0.1650 H     1 <1>   0.4570 
 32 H       -7.8650     0.9120     1.2240 H     1 <1>   0.1500 
 33 H       -7.0460    -1.2590     1.3660 H     1 <1>   0.0800 
 34 H       -5.3880    -1.3400     1.8910 H     1 <1>   0.0800 
 35 H       -5.7920    -1.5990     0.2070 H     1 <1>   0.0800 
 36 H       -9.2960     2.2340     1.6280 H     1 <1>   0.0800 
 37 H       -9.4980     3.8830     2.0580 H     1 <1>   0.0800 
 38 H       -8.1170     5.6280     1.3030 H     1 <1>   0.0800 
 39 H       -6.8010     5.3840     0.1980 H     1 <1>   0.0800 
 40 H       -8.7200     6.3630    -0.9630 H     1 <1>   0.0800 
 41 H       -8.3710     4.7840    -1.5950 H     1 <1>   0.0800 
 42 H      -12.3890     3.5280    -0.1180 H     1 <1>   0.0800 
 43 H      -10.7900     5.0120    -1.2830 H     1 <1>   0.0800 
 44 H      -10.5630     5.5270     0.3580 H     1 <1>   0.0800 
 45 H      -10.4600     2.7540    -1.9480 H     1 <1>   0.0800 
 46 H       -8.9420     2.2570    -1.2530 H     1 <1>   0.0800 
 47 H      -12.8500     3.1790     2.0680 H     1 <1>   0.4000 
 48 H      -11.6310     1.0320     1.3170 H     1 <1>   0.0800 
 49 H      -12.7490     1.2640    -0.0190 H     1 <1>   0.0800 
 50 H       -9.9690     0.4740    -0.1020 H     1 <1>   0.0800 
 51 H      -11.0740     0.5830    -1.4530 H     1 <1>   0.0800 
@<TRIPOS>BOND
  1   1   2  1   
  2   1   3  1   
  3   2   4  ar  
  4   2   5  ar  
  5   3  25  1   
  6   3  26  1   
  7   3  27  1   
  8   4   6  ar  
  9   4  28  1   
 10   5   7  ar  
 11   5  29  1   
 12   6   8  ar  
 13   6   9  ar  
 14   7   8  ar  
 15   7  30  1   
 16   8  10  ar  
 17   9  11  ar  
 18   9  12  1   
 19  10  13  ar  
 20  10  31  1   
 21  11  13  ar  
 22  11  32  1   
 23  12  33  1   
 24  12  34  1   
 25  12  35  1   
 26  13  14  1   
 27  14  15  1   
 28  14  16  1   
 29  15  17  1   
 30  15  36  1   
 31  15  37  1   
 32  16  18  1   
 33  16  38  1   
 34  16  39  1   
 35  17  19  1   
 36  17  20  1   
 37  17  21  1   
 38  18  20  1   
 39  18  40  1   
 40  18  41  1   
 41  19  22  1   
 42  19  23  1   
 43  19  42  1   
 44  20  43  1   
 45  20  44  1   
 46  21  24  1   
 47  21  45  1   
 48  21  46  1   
 49  22  47  1   
 50  23  24  1   
 51  23  48  1   
 52  23  49  1   
 53  24  50  1   
 54  24  51  1   
@<TRIPOS>SUBSTRUCTURE
  1 ****  13 GROUP 4 **** **** 0

# MOE 2024.06 (io_trps.svl 2023.06)
