@<TRIPOS>MOLECULE
NONAME
46 48 1 0 0 
SMALL
USER_CHARGES


@<TRIPOS>ATOM
  1 O        0.0060    -0.1620     0.6070 O.2   1 <1>  -0.5700 
  2 C        0.9920     0.4120     0.1730 C.2   1 <1>   0.5440 
  3 N        1.2550     1.6980     0.6110 N.am  1 <1>  -0.6600 
  4 C        1.8490    -0.2610    -0.7740 C.ar  1 <1>   0.0860 
  5 C        2.6000     2.3320     0.5280 C.3   1 <1>   0.0600 
  6 C        0.2520     2.4780     1.3890 C.3   1 <1>   0.0600 
  7 C        2.3500    -1.5480    -0.5060 C.ar  1 <1>   0.4100 
  8 C        2.1940     0.3320    -1.9810 C.ar  1 <1>  -0.1500 
  9 N        3.1390    -2.2230    -1.3400 N.ar  1 <1>  -0.6200 
 10 N        2.0310    -2.1840     0.6710 N.pl3 1 <1>  -0.8690 
 11 C        3.0120    -0.3660    -2.8400 C.ar  1 <1>  -0.1500 
 12 C        3.4510    -1.6250    -2.4730 C.ar  1 <1>   0.1600 
 13 C        1.9680    -3.6580     0.8120 C.3   1 <1>   0.2890 
 14 C        0.5480    -4.1400     0.6050 C.3   1 <1>  -0.0800 
 15 C        2.2800    -4.1300     2.2290 C.3   1 <1>   0.1200 
 16 C        0.5060    -5.3960     1.4660 C.3   1 <1>   0.1200 
 17 C        0.1950    -4.3710    -0.8720 C.3   1 <1>  -0.0170 
 18 O        1.3920    -5.1740     2.5210 O.3   1 <1>  -0.5600 
 19 C       -1.2370    -4.8590    -1.0150 C.ar  1 <1>  -0.1430 
 20 C       -1.5450    -6.1740    -1.2980 C.ar  1 <1>  -0.1500 
 21 C       -2.3060    -4.0000    -0.8640 C.ar  1 <1>  -0.1500 
 22 C       -2.8720    -6.5560    -1.4100 C.ar  1 <1>   0.1600 
 23 C       -3.5960    -4.4840    -0.9950 C.ar  1 <1>   0.1600 
 24 N       -3.9060    -5.7430    -1.2640 N.ar  1 <1>  -0.6200 
 25 H        2.8650     2.7490     1.4840 H     1 <1>   0.0800 
 26 H        2.5850     3.1180    -0.2060 H     1 <1>   0.0800 
 27 H        3.3500     1.6100     0.2580 H     1 <1>   0.0800 
 28 H        0.2410     3.5000     1.0520 H     1 <1>   0.0800 
 29 H        0.5030     2.4490     2.4350 H     1 <1>   0.0800 
 30 H       -0.7340     2.0650     1.2580 H     1 <1>   0.0800 
 31 H        1.8250     1.3110    -2.2330 H     1 <1>   0.1500 
 32 H        1.2780    -1.7130     1.1940 H     1 <1>   0.4000 
 33 H        3.3070     0.0540    -3.7850 H     1 <1>   0.1500 
 34 H        4.0920    -2.1660    -3.1490 H     1 <1>   0.1500 
 35 H        2.6450    -4.1470     0.1330 H     1 <1>   0.0800 
 36 H       -0.1380    -3.4290     1.0330 H     1 <1>   0.0800 
 37 H        2.1100    -3.3460     2.9450 H     1 <1>   0.0800 
 38 H        3.2870    -4.4970     2.3090 H     1 <1>   0.0800 
 39 H        0.8570    -6.2550     0.9210 H     1 <1>   0.0800 
 40 H       -0.4770    -5.5870     1.8610 H     1 <1>   0.0800 
 41 H        0.8750    -5.0810    -1.3080 H     1 <1>   0.0800 
 42 H        0.3050    -3.4460    -1.4120 H     1 <1>   0.0800 
 43 H       -0.7690    -6.9050    -1.4330 H     1 <1>   0.1500 
 44 H       -2.1440    -2.9600    -0.6430 H     1 <1>   0.1500 
 45 H       -3.0950    -7.5850    -1.6310 H     1 <1>   0.1500 
 46 H       -4.4170    -3.7980    -0.8720 H     1 <1>   0.1500 
@<TRIPOS>BOND
  1   1   2  2   
  2   2   3  am  
  3   2   4  1   
  4   3   5  1   
  5   3   6  1   
  6   4   7  ar  
  7   4   8  ar  
  8   5  25  1   
  9   5  26  1   
 10   5  27  1   
 11   6  28  1   
 12   6  29  1   
 13   6  30  1   
 14   7   9  ar  
 15   7  10  1   
 16   8  11  ar  
 17   8  31  1   
 18   9  12  ar  
 19  10  13  1   
 20  10  32  1   
 21  11  12  ar  
 22  11  33  1   
 23  12  34  1   
 24  13  14  1   
 25  13  15  1   
 26  13  35  1   
 27  14  16  1   
 28  14  17  1   
 29  14  36  1   
 30  15  18  1   
 31  15  37  1   
 32  15  38  1   
 33  16  18  1   
 34  16  39  1   
 35  16  40  1   
 36  17  19  1   
 37  17  41  1   
 38  17  42  1   
 39  19  20  ar  
 40  19  21  ar  
 41  20  22  ar  
 42  20  43  1   
 43  21  23  ar  
 44  21  44  1   
 45  22  24  ar  
 46  22  45  1   
 47  23  24  ar  
 48  23  46  1   
@<TRIPOS>SUBSTRUCTURE
  1 ****  10 GROUP 4 **** **** 0

# MOE 2024.06 (io_trps.svl 2023.06)
