@<TRIPOS>MOLECULE
NONAME
51 54 1 0 0 
SMALL
USER_CHARGES


@<TRIPOS>ATOM
  1 O        0.0590     0.4650    -1.4400 O.2   1 <1>  -0.5700 
  2 C       -0.3930     1.5040    -0.9970 C.2   1 <1>   0.7800 
  3 O        0.3760     2.4550    -0.4640 O.3   1 <1>  -0.2330 
  4 N       -1.7110     1.8590    -0.9420 N.am  1 <1>  -0.4770 
  5 C       -0.4510     3.4330    -0.0410 C.ar  1 <1>   0.0830 
  6 C       -1.7550     3.0880    -0.3200 C.ar  1 <1>   0.1170 
  7 C       -2.8570     1.0360    -1.3820 C.3   1 <1>   0.1400 
  8 C       -0.1250     4.6210     0.5860 C.ar  1 <1>  -0.1500 
  9 C       -2.7940     3.9360     0.0340 C.ar  1 <1>  -0.1500 
 10 C       -3.3620     0.1880    -0.2110 C.3   1 <1>   0.1100 
 11 C       -1.1610     5.4730     0.9390 C.ar  1 <1>  -0.1500 
 12 C       -2.4840     5.1310     0.6660 C.ar  1 <1>  -0.1500 
 13 N       -4.5090    -0.6510    -0.6050 N.3   1 <1>  -0.8100 
 14 C       -4.6730    -1.7560     0.3660 C.3   1 <1>   0.1100 
 15 C       -5.7470     0.1550    -0.6920 C.3   1 <1>   0.1100 
 16 C       -5.8430    -2.6870    -0.0410 C.3   1 <1>   0.4230 
 17 C       -6.9310    -0.7260    -1.1090 C.3   1 <1>  -0.1600 
 18 N       -6.0160    -3.8900     0.8440 N.4   1 <1>  -0.9590 
 19 C       -7.1560    -1.8860    -0.1060 C.3   1 <1>  -0.1060 
 20 C       -7.0620    -4.8100     0.3310 C.3   1 <1>   0.3430 
 21 C       -4.7670    -4.5980     1.2250 C.3   1 <1>   0.2630 
 22 C       -7.4870    -1.3440     1.2990 C.2   1 <1>   0.9060 
 23 C       -8.2940    -2.7950    -0.6280 C.3   1 <1>  -0.1600 
 24 C       -8.4030    -4.0830     0.2040 C.3   1 <1>  -0.1600 
 25 O       -8.0910    -0.2780     1.4130 O.co2 1 <1>  -0.9000 
 26 O       -7.1380    -2.0000     2.2950 O.co2 1 <1>  -0.9000 
 27 H       -3.6310     1.6870    -1.7450 H     1 <1>   0.0800 
 28 H       -2.5410     0.3890    -2.1810 H     1 <1>   0.0800 
 29 H        0.9030     4.8650     0.7900 H     1 <1>   0.1500 
 30 H       -3.8130     3.6680    -0.1770 H     1 <1>   0.1500 
 31 H       -3.6390     0.8220     0.6150 H     1 <1>   0.0800 
 32 H       -2.5500    -0.4450     0.1030 H     1 <1>   0.0800 
 33 H       -0.9420     6.4060     1.4300 H     1 <1>   0.1500 
 34 H       -3.2750     5.8050     0.9500 H     1 <1>   0.1500 
 35 H       -3.7600    -2.3220     0.3780 H     1 <1>   0.0800 
 36 H       -4.8430    -1.3520     1.3500 H     1 <1>   0.0800 
 37 H       -5.9540     0.6220     0.2580 H     1 <1>   0.0800 
 38 H       -5.6300     0.9340    -1.4250 H     1 <1>   0.0800 
 39 H       -5.6210    -3.0370    -1.0340 H     1 <1>   0.0800 
 40 H       -7.8150    -0.1120    -1.1510 H     1 <1>   0.0800 
 41 H       -6.7480    -1.1040    -2.0990 H     1 <1>   0.0800 
 42 H       -6.4260    -3.4330     1.7040 H     1 <1>   0.4500 
 43 H       -6.7660    -5.1890    -0.6340 H     1 <1>   0.0800 
 44 H       -7.1770    -5.6430     1.0050 H     1 <1>   0.0800 
 45 H       -4.2720    -4.9810     0.3480 H     1 <1>   0.0800 
 46 H       -4.9950    -5.4170     1.8870 H     1 <1>   0.0800 
 47 H       -4.1010    -3.9240     1.7390 H     1 <1>   0.0800 
 48 H       -9.2270    -2.2580    -0.5830 H     1 <1>   0.0800 
 49 H       -8.1120    -3.0540    -1.6570 H     1 <1>   0.0800 
 50 H       -9.1220    -4.7410    -0.2510 H     1 <1>   0.0800 
 51 H       -8.7680    -3.8480     1.1900 H     1 <1>   0.0800 
@<TRIPOS>BOND
  1   1   2  2   
  2   2   3  1   
  3   2   4  am  
  4   3   5  1   
  5   4   6  1   
  6   4   7  1   
  7   5   6  ar  
  8   5   8  ar  
  9   6   9  ar  
 10   7  10  1   
 11   7  27  1   
 12   7  28  1   
 13   8  11  ar  
 14   8  29  1   
 15   9  12  ar  
 16   9  30  1   
 17  10  13  1   
 18  10  31  1   
 19  10  32  1   
 20  11  12  ar  
 21  11  33  1   
 22  12  34  1   
 23  13  14  1   
 24  13  15  1   
 25  14  16  1   
 26  14  35  1   
 27  14  36  1   
 28  15  17  1   
 29  15  37  1   
 30  15  38  1   
 31  16  18  1   
 32  16  19  1   
 33  16  39  1   
 34  17  19  1   
 35  17  40  1   
 36  17  41  1   
 37  18  20  1   
 38  18  21  1   
 39  18  42  1   
 40  19  22  1   
 41  19  23  1   
 42  20  24  1   
 43  20  43  1   
 44  20  44  1   
 45  21  45  1   
 46  21  46  1   
 47  21  47  1   
 48  22  25  ar  
 49  22  26  ar  
 50  23  24  1   
 51  23  48  1   
 52  23  49  1   
 53  24  50  1   
 54  24  51  1   
@<TRIPOS>SUBSTRUCTURE
  1 ****  10 GROUP 4 **** **** 0

# MOE 2024.06 (io_trps.svl 2023.06)
