@<TRIPOS>MOLECULE
NONAME
46 48 1 0 0 
SMALL
USER_CHARGES


@<TRIPOS>ATOM
  1 F       -0.3070    -1.6800    -2.3360 F     1 <1>  -0.1900 
  2 C       -0.9650    -2.5700    -1.6370 C.ar  1 <1>   0.1900 
  3 C       -0.5220    -3.0050    -0.3830 C.ar  1 <1>   0.0820 
  4 C       -2.1230    -3.0630    -2.2050 C.ar  1 <1>  -0.1500 
  5 O        0.5990    -2.5960     0.2790 O.3   1 <1>  -0.3630 
  6 C       -1.2890    -3.9530     0.2760 C.ar  1 <1>  -0.1500 
  7 C       -2.8620    -4.0090    -1.5200 C.ar  1 <1>  -0.1500 
  8 C        1.4650    -1.6000    -0.2180 C.3   1 <1>   0.0400 
  9 C       -2.4680    -4.4750    -0.2640 C.ar  1 <1>   0.0530 
 10 C       -3.2320    -5.4620     0.4640 C.2   1 <1>   0.0870 
 11 O       -2.6260    -6.2580     1.3140 O.3   1 <1>  -0.0190 
 12 C       -4.5470    -5.7990     0.4870 C.2   1 <1>  -0.2330 
 13 N       -3.4410    -7.0980     1.8960 N.2   1 <1>  -0.4100 
 14 C       -4.6060    -6.8350     1.4180 C.2   1 <1>   0.3720 
 15 C       -5.6560    -5.2930    -0.2510 C.2   1 <1>   1.0330 
 16 N       -5.7440    -7.5440     1.8090 N.pl3 1 <1>  -0.8210 
 17 O       -6.5240    -4.5880     0.2910 O.co2 1 <1>  -0.9000 
 18 O       -5.7860    -5.5640    -1.4620 O.co2 1 <1>  -0.9000 
 19 C       -5.9920    -8.9050     1.2470 C.3   1 <1>   0.2090 
 20 C       -6.8700    -6.7750     2.4070 C.3   1 <1>   0.1290 
 21 C       -6.1390    -8.9600    -0.2980 C.3   1 <1>   0.0000 
 22 C       -4.7810    -8.8910    -1.0850 C.3   1 <1>   0.0000 
 23 C       -6.2420   -10.4340    -0.7980 C.3   1 <1>   0.0000 
 24 C       -7.3410    -8.1290    -0.8100 C.3   1 <1>   0.1200 
 25 C       -4.7050   -10.4350    -0.9870 C.3   1 <1>   0.0000 
 26 O       -7.1770    -7.7140    -2.1180 O.3   1 <1>  -0.6800 
 27 H       -2.4450    -2.7150    -3.1690 H     1 <1>   0.1500 
 28 H       -0.9620    -4.2920     1.2410 H     1 <1>   0.1500 
 29 H       -3.7580    -4.3940    -1.9750 H     1 <1>   0.1500 
 30 H        2.2480    -1.4470     0.5030 H     1 <1>   0.0800 
 31 H        0.9090    -0.6890    -0.3530 H     1 <1>   0.0800 
 32 H        1.8880    -1.9370    -1.1480 H     1 <1>   0.0800 
 33 H       -6.8850    -9.3020     1.6940 H     1 <1>   0.0800 
 34 H       -5.1750    -9.5340     1.5540 H     1 <1>   0.0800 
 35 H       -6.5370    -5.7840     2.6680 H     1 <1>   0.0800 
 36 H       -7.2140    -7.2680     3.2980 H     1 <1>   0.0800 
 37 H       -7.6860    -6.6790     1.7160 H     1 <1>   0.0800 
 38 H       -3.9650    -8.4180    -0.5750 H     1 <1>   0.0000 
 39 H       -4.8570    -8.5770    -2.1100 H     1 <1>   0.0000 
 40 H       -6.7590   -10.5300    -1.7380 H     1 <1>   0.0000 
 41 H       -6.5860   -11.1340    -0.0570 H     1 <1>   0.0000 
 42 H       -7.4710    -7.2360    -0.2320 H     1 <1>   0.0800 
 43 H       -8.2480    -8.7040    -0.7550 H     1 <1>   0.0800 
 44 H       -4.1750   -10.7740    -0.1140 H     1 <1>   0.0000 
 45 H       -4.3810   -10.9110    -1.8950 H     1 <1>   0.0000 
 46 H       -6.6280    -6.8670    -2.0790 H     1 <1>   0.4000 
@<TRIPOS>BOND
  1   1   2  1   
  2   2   3  ar  
  3   2   4  ar  
  4   3   5  1   
  5   3   6  ar  
  6   4   7  ar  
  7   4  27  1   
  8   5   8  1   
  9   6   9  ar  
 10   6  28  1   
 11   7   9  ar  
 12   7  29  1   
 13   8  30  1   
 14   8  31  1   
 15   8  32  1   
 16   9  10  1   
 17  10  11  1   
 18  10  12  2   
 19  11  13  1   
 20  12  14  1   
 21  12  15  1   
 22  13  14  2   
 23  14  16  1   
 24  15  17  ar  
 25  15  18  ar  
 26  16  19  1   
 27  16  20  1   
 28  19  21  1   
 29  19  33  1   
 30  19  34  1   
 31  20  35  1   
 32  20  36  1   
 33  20  37  1   
 34  21  22  1   
 35  21  23  1   
 36  21  24  1   
 37  22  25  1   
 38  22  38  1   
 39  22  39  1   
 40  23  25  1   
 41  23  40  1   
 42  23  41  1   
 43  24  26  1   
 44  24  42  1   
 45  24  43  1   
 46  25  44  1   
 47  25  45  1   
 48  26  46  1   
@<TRIPOS>SUBSTRUCTURE
  1 ****  10 GROUP 4 **** **** 0

# MOE 2024.06 (io_trps.svl 2023.06)
