@<TRIPOS>MOLECULE
NONAME
44 45 1 0 0 
SMALL
USER_CHARGES


@<TRIPOS>ATOM
  1 O        0.8650     0.3560    -1.0690 O.co2 1 <1>  -0.9000 
  2 C        1.5900     0.3780    -0.0550 C.2   1 <1>   1.0320 
  3 O        1.5870    -0.6220     0.6920 O.co2 1 <1>  -0.9000 
  4 C        2.4290     1.5220     0.2750 C.2   1 <1>  -0.0920 
  5 O        2.4850     2.6230    -0.4780 O.3   1 <1>  -0.2800 
  6 C        3.2670     1.6940     1.3340 C.2   1 <1>  -0.1500 
  7 C        3.3270     3.4750     0.0650 C.2   1 <1>  -0.0400 
  8 C        3.8460     2.9570     1.1990 C.2   1 <1>  -0.1500 
  9 C        3.5330     4.8020    -0.6440 C.3   1 <1>   0.2900 
 10 N        4.7290     5.5390    -0.1530 N.3   1 <1>  -0.8100 
 11 C        4.6880     6.9490    -0.5570 C.3   1 <1>   0.1100 
 12 C        5.9560     4.8590    -0.6140 C.3   1 <1>   0.0300 
 13 C        5.6270     7.7770     0.3370 C.3   1 <1>   0.3430 
 14 N        5.5470     9.2530     0.0600 N.4   1 <1>  -0.9590 
 15 C        6.7190     9.9660     0.6450 C.3   1 <1>   0.4230 
 16 C        4.2490     9.8050     0.5740 C.3   1 <1>   0.2630 
 17 C        6.6420    11.4770     0.3980 C.3   1 <1>  -0.1600 
 18 C        8.0390     9.5160    -0.0030 C.3   1 <1>  -0.1600 
 19 C        8.0860    11.9310     0.2200 C.3   1 <1>  -0.1600 
 20 C        8.7450    10.7740    -0.5170 C.3   1 <1>  -0.1600 
 21 H        3.4440     0.9860     2.1240 H     1 <1>   0.1500 
 22 H        4.5530     3.4010     1.8740 H     1 <1>   0.1500 
 23 H        2.6440     5.3850    -0.4830 H     1 <1>   0.0800 
 24 H        3.6230     4.6190    -1.7020 H     1 <1>   0.0800 
 25 H        3.6840     7.3120    -0.4330 H     1 <1>   0.0800 
 26 H        4.9670     7.0410    -1.5930 H     1 <1>   0.0800 
 27 H        5.9560     3.8310    -0.2910 H     1 <1>   0.0800 
 28 H        6.8310     5.3300    -0.2020 H     1 <1>   0.0800 
 29 H        6.0190     4.8730    -1.6890 H     1 <1>   0.0800 
 30 H        6.6320     7.4280     0.1730 H     1 <1>   0.0800 
 31 H        5.3760     7.5880     1.3670 H     1 <1>   0.0800 
 32 H        5.6000     9.4010    -0.9570 H     1 <1>   0.4500 
 33 H        6.7730     9.7870     1.7070 H     1 <1>   0.0800 
 34 H        4.1850     9.6750     1.6420 H     1 <1>   0.0800 
 35 H        3.4150     9.3000     0.1160 H     1 <1>   0.0800 
 36 H        4.1690    10.8560     0.3500 H     1 <1>   0.0800 
 37 H        6.1770    11.9930     1.2200 H     1 <1>   0.0800 
 38 H        6.1100    11.6880    -0.5130 H     1 <1>   0.0800 
 39 H        7.9050     8.8230    -0.8140 H     1 <1>   0.0800 
 40 H        8.6530     9.0550     0.7520 H     1 <1>   0.0800 
 41 H        8.5530    12.0590     1.1840 H     1 <1>   0.0800 
 42 H        8.1600    12.8550    -0.3290 H     1 <1>   0.0800 
 43 H        8.5720    10.8820    -1.5750 H     1 <1>   0.0800 
 44 H        9.8090    10.7440    -0.3440 H     1 <1>   0.0800 
@<TRIPOS>BOND
  1   1   2  ar  
  2   2   3  ar  
  3   2   4  1   
  4   4   5  1   
  5   4   6  2   
  6   5   7  1   
  7   6   8  1   
  8   6  21  1   
  9   7   8  2   
 10   7   9  1   
 11   8  22  1   
 12   9  10  1   
 13   9  23  1   
 14   9  24  1   
 15  10  11  1   
 16  10  12  1   
 17  11  13  1   
 18  11  25  1   
 19  11  26  1   
 20  12  27  1   
 21  12  28  1   
 22  12  29  1   
 23  13  14  1   
 24  13  30  1   
 25  13  31  1   
 26  14  15  1   
 27  14  16  1   
 28  14  32  1   
 29  15  17  1   
 30  15  18  1   
 31  15  33  1   
 32  16  34  1   
 33  16  35  1   
 34  16  36  1   
 35  17  19  1   
 36  17  37  1   
 37  17  38  1   
 38  18  20  1   
 39  18  39  1   
 40  18  40  1   
 41  19  20  1   
 42  19  41  1   
 43  19  42  1   
 44  20  43  1   
 45  20  44  1   
@<TRIPOS>SUBSTRUCTURE
  1 ****  10 GROUP 4 **** **** 0

# MOE 2024.06 (io_trps.svl 2023.06)
