@<TRIPOS>MOLECULE
NONAME
52 54 1 0 0 
SMALL
USER_CHARGES


@<TRIPOS>ATOM
  1 O        0.2870     1.1670    -0.8710 O.2   1 <1>  -0.5700 
  2 C        0.0340     2.3360    -0.7280 C.2   1 <1>   0.5690 
  3 N       -0.8780     2.7390     0.1830 N.am  1 <1>  -0.7300 
  4 C        0.7140     3.3860    -1.6060 C.3   1 <1>   0.1810 
  5 C       -1.3200     4.1450     0.3520 C.3   1 <1>   0.3640 
  6 O        0.6710     4.6760    -1.0330 O.3   1 <1>  -0.5600 
  7 C       -2.8370     4.1780     0.1890 C.ar  1 <1>  -0.1440 
  8 C       -0.6280     5.1180    -0.6470 C.3   1 <1>   0.2610 
  9 C       -3.6200     4.8820     1.0960 C.ar  1 <1>   0.1600 
 10 C       -3.4700     3.5200    -0.8510 C.ar  1 <1>  -0.1500 
 11 C       -0.5290     6.5280    -0.0490 C.2   1 <1>   0.5690 
 12 N       -4.9400     4.9720     1.0520 N.ar  1 <1>  -0.6200 
 13 C       -4.8430     3.6070    -0.9130 C.ar  1 <1>  -0.1500 
 14 O       -1.4090     6.9580     0.6560 O.2   1 <1>  -0.5700 
 15 N        0.5660     7.2880    -0.3250 N.am  1 <1>  -0.7300 
 16 C       -5.5200     4.3340     0.0500 C.ar  1 <1>   0.1600 
 17 C        0.7970     8.6350     0.2090 C.3   1 <1>   0.2200 
 18 C        0.1340     9.6550    -0.7120 C.3   1 <1>  -0.1600 
 19 C        2.2970     8.8950     0.3200 C.3   1 <1>  -0.1600 
 20 C        0.4110    11.0710    -0.2190 C.3   1 <1>   0.3430 
 21 C        2.5510    10.3250     0.7920 C.3   1 <1>   0.3430 
 22 N        1.8900    11.2970    -0.1320 N.4   1 <1>  -0.9590 
 23 C        2.2760    12.6950     0.2000 C.3   1 <1>   0.4230 
 24 C        1.5950    13.1920     1.4770 C.3   1 <1>  -0.2400 
 25 C        1.9470    13.5980    -0.9840 C.3   1 <1>  -0.2400 
 26 H       -1.3550     2.0280     0.7400 H     1 <1>   0.3700 
 27 H        0.2330     3.4210    -2.5660 H     1 <1>   0.0800 
 28 H        1.7460     3.1200    -1.7420 H     1 <1>   0.0800 
 29 H       -1.0670     4.4470     1.3550 H     1 <1>   0.0800 
 30 H       -1.2210     5.1840    -1.5410 H     1 <1>   0.0800 
 31 H       -3.1390     5.4080     1.9040 H     1 <1>   0.1500 
 32 H       -2.9240     2.9540    -1.5870 H     1 <1>   0.1500 
 33 H       -5.3890     3.1160    -1.6980 H     1 <1>   0.1500 
 34 H        1.3130     6.8410    -0.8680 H     1 <1>   0.3700 
 35 H       -6.5940     4.3950    -0.0060 H     1 <1>   0.1500 
 36 H        0.3510     8.7010     1.1890 H     1 <1>   0.0800 
 37 H        0.4890     9.5450    -1.7210 H     1 <1>   0.0800 
 38 H       -0.9300     9.4920    -0.7100 H     1 <1>   0.0800 
 39 H        2.7240     8.2130     1.0330 H     1 <1>   0.0800 
 40 H        2.7800     8.7400    -0.6290 H     1 <1>   0.0800 
 41 H       -0.0380    11.2050     0.7520 H     1 <1>   0.0800 
 42 H       -0.0360    11.7780    -0.8990 H     1 <1>   0.0800 
 43 H        3.6130    10.5090     0.8240 H     1 <1>   0.0800 
 44 H        2.1580    10.4470     1.7890 H     1 <1>   0.0800 
 45 H        2.2690    11.1190    -1.0700 H     1 <1>   0.4500 
 46 H        3.3440    12.7290     0.3520 H     1 <1>   0.0800 
 47 H        0.5300    13.2780     1.3560 H     1 <1>   0.0800 
 48 H        1.9700    14.1720     1.7150 H     1 <1>   0.0800 
 49 H        1.8140    12.5530     2.3120 H     1 <1>   0.0800 
 50 H        0.8870    13.6770    -1.1450 H     1 <1>   0.0800 
 51 H        2.4220    13.2420    -1.8800 H     1 <1>   0.0800 
 52 H        2.3200    14.5890    -0.7900 H     1 <1>   0.0800 
@<TRIPOS>BOND
  1   1   2  2   
  2   2   3  am  
  3   2   4  1   
  4   3   5  1   
  5   3  26  1   
  6   4   6  1   
  7   4  27  1   
  8   4  28  1   
  9   5   7  1   
 10   5   8  1   
 11   5  29  1   
 12   6   8  1   
 13   7   9  ar  
 14   7  10  ar  
 15   8  11  1   
 16   8  30  1   
 17   9  12  ar  
 18   9  31  1   
 19  10  13  ar  
 20  10  32  1   
 21  11  14  2   
 22  11  15  am  
 23  12  16  ar  
 24  13  16  ar  
 25  13  33  1   
 26  15  17  1   
 27  15  34  1   
 28  16  35  1   
 29  17  18  1   
 30  17  19  1   
 31  17  36  1   
 32  18  20  1   
 33  18  37  1   
 34  18  38  1   
 35  19  21  1   
 36  19  39  1   
 37  19  40  1   
 38  20  22  1   
 39  20  41  1   
 40  20  42  1   
 41  21  22  1   
 42  21  43  1   
 43  21  44  1   
 44  22  23  1   
 45  22  45  1   
 46  23  24  1   
 47  23  25  1   
 48  23  46  1   
 49  24  47  1   
 50  24  48  1   
 51  24  49  1   
 52  25  50  1   
 53  25  51  1   
 54  25  52  1   
@<TRIPOS>SUBSTRUCTURE
  1 ****  11 GROUP 4 **** **** 0

# MOE 2024.06 (io_trps.svl 2023.06)
