@<TRIPOS>MOLECULE
NONAME
54 55 1 0 0 
SMALL
USER_CHARGES


@<TRIPOS>ATOM
  1 O       -0.9970     0.2720    -0.8010 O.2   1 <1>  -0.5700 
  2 C       -2.0780     0.7750    -0.5970 C.2   1 <1>   0.5690 
  3 N       -3.2250     0.0150    -0.6030 N.am  1 <1>  -0.6600 
  4 C       -2.1210     2.2930    -0.3570 C.3   1 <1>  -0.0190 
  5 C       -3.1380    -1.4580    -0.8170 C.3   1 <1>   0.3200 
  6 C       -4.6110     0.5620    -0.5030 C.3   1 <1>   0.1400 
  7 C       -2.1160     3.0590    -1.6920 C.3   1 <1>  -0.1600 
  8 C       -0.9580     2.7790     0.5300 C.3   1 <1>  -0.1600 
  9 C       -3.4680    -2.1870     0.4710 C.2   1 <1>  -0.3320 
 10 C       -5.0680     0.6910     0.9570 C.3   1 <1>   0.1200 
 11 C       -2.1790     4.5770    -1.4690 C.3   1 <1>  -0.1600 
 12 C       -1.0150     4.2970     0.7590 C.3   1 <1>  -0.1600 
 13 N       -4.6480    -2.7620     0.7880 N.pl3 1 <1>   0.0480 
 14 C       -2.6460    -2.3920     1.5230 C.2   1 <1>   0.0770 
 15 O       -6.4130     1.0360     0.9740 O.3   1 <1>  -0.6800 
 16 C       -1.0290     5.0720    -0.5730 C.3   1 <1>  -0.0800 
 17 C       -4.4530    -3.2750     2.0240 C.2   1 <1>   0.0360 
 18 C       -5.8990    -2.8160     0.0100 C.3   1 <1>   0.0160 
 19 N       -3.2670    -3.0770     2.5000 N.2   1 <1>  -0.5650 
 20 C       -1.1580     6.5930    -0.3620 C.3   1 <1>  -0.1600 
 21 C        0.0430     7.2140     0.3690 C.3   1 <1>  -0.1600 
 22 C       -0.0750     8.7420     0.4240 C.3   1 <1>  -0.1600 
 23 C        1.1190     9.3600     1.1570 C.3   1 <1>  -0.2400 
 24 H       -3.0210     2.5410     0.1670 H     1 <1>   0.0800 
 25 H       -2.1440    -1.7390    -1.1230 H     1 <1>   0.0800 
 26 H       -3.8040    -1.7530    -1.6080 H     1 <1>   0.0800 
 27 H       -5.2850    -0.0940    -1.0250 H     1 <1>   0.0800 
 28 H       -4.6570     1.5220    -0.9830 H     1 <1>   0.0800 
 29 H       -2.9530     2.7500    -2.2930 H     1 <1>   0.0800 
 30 H       -1.2170     2.8150    -2.2340 H     1 <1>   0.0800 
 31 H       -0.0200     2.5310     0.0620 H     1 <1>   0.0800 
 32 H       -0.9920     2.2690     1.4780 H     1 <1>   0.0800 
 33 H       -4.5130     1.4470     1.4840 H     1 <1>   0.0800 
 34 H       -4.9680    -0.2420     1.4780 H     1 <1>   0.0800 
 35 H       -3.1220     4.8300    -1.0160 H     1 <1>   0.0800 
 36 H       -2.1290     5.0720    -2.4230 H     1 <1>   0.0800 
 37 H       -0.1580     4.5800     1.3430 H     1 <1>   0.0800 
 38 H       -1.8960     4.5390     1.3280 H     1 <1>   0.0800 
 39 H       -1.6210    -2.0720     1.6260 H     1 <1>   0.1500 
 40 H       -6.5340     1.9900     0.7980 H     1 <1>   0.4000 
 41 H       -0.1020     4.8780    -1.0860 H     1 <1>   0.0800 
 42 H       -5.2300    -3.7980     2.5530 H     1 <1>   0.1500 
 43 H       -5.6750    -3.0100    -1.0220 H     1 <1>   0.0800 
 44 H       -6.4150    -1.8770     0.1020 H     1 <1>   0.0800 
 45 H       -6.5240    -3.6020     0.3910 H     1 <1>   0.0800 
 46 H       -2.0590     6.8070     0.1870 H     1 <1>   0.0800 
 47 H       -1.2460     7.0640    -1.3260 H     1 <1>   0.0800 
 48 H        0.9520     6.9460    -0.1430 H     1 <1>   0.0800 
 49 H        0.0990     6.8340     1.3730 H     1 <1>   0.0800 
 50 H       -0.9840     9.0170     0.9330 H     1 <1>   0.0800 
 51 H       -0.1200     9.1390    -0.5760 H     1 <1>   0.0800 
 52 H        1.1700     8.9960     2.1670 H     1 <1>   0.0800 
 53 H        1.0180    10.4310     1.1840 H     1 <1>   0.0800 
 54 H        2.0370     9.1160     0.6520 H     1 <1>   0.0800 
@<TRIPOS>BOND
  1   1   2  2   
  2   2   3  am  
  3   2   4  1   
  4   3   5  1   
  5   3   6  1   
  6   4   7  1   
  7   4   8  1   
  8   4  24  1   
  9   5   9  1   
 10   5  25  1   
 11   5  26  1   
 12   6  10  1   
 13   6  27  1   
 14   6  28  1   
 15   7  11  1   
 16   7  29  1   
 17   7  30  1   
 18   8  12  1   
 19   8  31  1   
 20   8  32  1   
 21   9  13  1   
 22   9  14  2   
 23  10  15  1   
 24  10  33  1   
 25  10  34  1   
 26  11  16  1   
 27  11  35  1   
 28  11  36  1   
 29  12  16  1   
 30  12  37  1   
 31  12  38  1   
 32  13  17  1   
 33  13  18  1   
 34  14  19  1   
 35  14  39  1   
 36  15  40  1   
 37  16  20  1   
 38  16  41  1   
 39  17  19  2   
 40  17  42  1   
 41  18  43  1   
 42  18  44  1   
 43  18  45  1   
 44  20  21  1   
 45  20  46  1   
 46  20  47  1   
 47  21  22  1   
 48  21  48  1   
 49  21  49  1   
 50  22  23  1   
 51  22  50  1   
 52  22  51  1   
 53  23  52  1   
 54  23  53  1   
 55  23  54  1   
@<TRIPOS>SUBSTRUCTURE
  1 ****   4 GROUP 4 **** **** 0

# MOE 2024.06 (io_trps.svl 2023.06)
