@<TRIPOS>MOLECULE
NONAME
48 50 1 0 0 
SMALL
USER_CHARGES


@<TRIPOS>ATOM
  1 S       -0.5430     0.4840     1.4570 S.o2  1 <1>   1.4470 
  2 O       -0.3120    -0.6850     2.2800 O.2   1 <1>  -0.6500 
  3 O       -1.2670     1.5980     2.0340 O.2   1 <1>  -0.6500 
  4 N       -1.3810    -0.0090     0.0660 N.am  1 <1>  -0.8490 
  5 C        1.0510     1.0750     0.8130 C.ar  1 <1>  -0.0090 
  6 C       -0.8700    -1.2290    -0.5970 C.3   1 <1>   0.1960 
  7 C       -2.8390     0.0190     0.1540 C.3   1 <1>   0.1960 
  8 C        1.1340     2.1580    -0.1060 C.ar  1 <1>   0.0000 
  9 C        2.2090     0.4570     1.2230 C.ar  1 <1>  -0.1500 
 10 C       -1.7570    -2.5000    -0.4540 C.3   1 <1>  -0.1060 
 11 C       -3.3690    -1.1200     1.0280 C.3   1 <1>  -0.1600 
 12 C        2.4090     2.5690    -0.5680 C.ar  1 <1>   0.0000 
 13 C        0.0130     2.8680    -0.6030 C.ar  1 <1>  -0.1500 
 14 C        3.4660     0.8610     0.7660 C.ar  1 <1>  -0.1500 
 15 C       -2.6970    -2.5640    -1.6730 C.2   1 <1>   0.9060 
 16 C       -2.5590    -2.4170     0.8730 C.3   1 <1>   0.2000 
 17 C       -0.8590    -3.7740    -0.5000 C.3   1 <1>  -0.1600 
 18 C        3.5590     1.8990    -0.1120 C.ar  1 <1>  -0.1500 
 19 C        2.5100     3.6420    -1.4770 C.ar  1 <1>  -0.1500 
 20 C        0.1380     3.9040    -1.4850 C.ar  1 <1>  -0.1500 
 21 O       -3.8970    -2.8480    -1.5270 O.co2 1 <1>  -0.9000 
 22 O       -2.2320    -2.3630    -2.8010 O.co2 1 <1>  -0.9000 
 23 O       -3.4390    -3.4770     0.9590 O.3   1 <1>  -0.6800 
 24 C        0.0530    -4.0190     0.7190 C.3   1 <1>  -0.1600 
 25 C        1.4020     4.2990    -1.9300 C.ar  1 <1>  -0.1500 
 26 C        0.9900    -5.2030     0.4660 C.3   1 <1>  -0.2400 
 27 H       -0.7290    -1.0010    -1.6400 H     1 <1>   0.0800 
 28 H        0.1150    -1.4350    -0.2210 H     1 <1>   0.0800 
 29 H       -3.1750     0.9670     0.5370 H     1 <1>   0.0800 
 30 H       -3.2430    -0.0840    -0.8410 H     1 <1>   0.0800 
 31 H        2.1690    -0.3660     1.9170 H     1 <1>   0.1500 
 32 H       -4.3960    -1.2870     0.7560 H     1 <1>   0.0800 
 33 H       -3.3440    -0.8180     2.0580 H     1 <1>   0.0800 
 34 H       -0.9760     2.5920    -0.2870 H     1 <1>   0.1500 
 35 H        4.3440     0.3470     1.1160 H     1 <1>   0.1500 
 36 H       -1.8910    -2.4940     1.7110 H     1 <1>   0.0800 
 37 H       -1.5030    -4.6310    -0.6110 H     1 <1>   0.0800 
 38 H       -0.2570    -3.7260    -1.3920 H     1 <1>   0.0800 
 39 H        4.5200     2.2210    -0.4720 H     1 <1>   0.1500 
 40 H        3.4860     3.9380    -1.8150 H     1 <1>   0.1500 
 41 H       -0.7310     4.4250    -1.8480 H     1 <1>   0.1500 
 42 H       -3.9030    -3.4870     0.0710 H     1 <1>   0.4000 
 43 H        0.6420    -3.1490     0.9430 H     1 <1>   0.0800 
 44 H       -0.5520    -4.2410     1.5810 H     1 <1>   0.0800 
 45 H        1.4830     5.1170    -2.6240 H     1 <1>   0.1500 
 46 H        1.6280    -5.0030    -0.3770 H     1 <1>   0.0800 
 47 H        0.4190    -6.0930     0.2660 H     1 <1>   0.0800 
 48 H        1.6050    -5.3760     1.3310 H     1 <1>   0.0800 
@<TRIPOS>BOND
  1   1   2  2   
  2   1   3  2   
  3   1   4  am  
  4   1   5  1   
  5   4   6  1   
  6   4   7  1   
  7   5   8  ar  
  8   5   9  ar  
  9   6  10  1   
 10   6  27  1   
 11   6  28  1   
 12   7  11  1   
 13   7  29  1   
 14   7  30  1   
 15   8  12  ar  
 16   8  13  ar  
 17   9  14  ar  
 18   9  31  1   
 19  10  15  1   
 20  10  16  1   
 21  10  17  1   
 22  11  16  1   
 23  11  32  1   
 24  11  33  1   
 25  12  18  ar  
 26  12  19  ar  
 27  13  20  ar  
 28  13  34  1   
 29  14  18  ar  
 30  14  35  1   
 31  15  21  ar  
 32  15  22  ar  
 33  16  23  1   
 34  16  36  1   
 35  17  24  1   
 36  17  37  1   
 37  17  38  1   
 38  18  39  1   
 39  19  25  ar  
 40  19  40  1   
 41  20  25  ar  
 42  20  41  1   
 43  23  42  1   
 44  24  26  1   
 45  24  43  1   
 46  24  44  1   
 47  25  45  1   
 48  26  46  1   
 49  26  47  1   
 50  26  48  1   
@<TRIPOS>SUBSTRUCTURE
  1 ****   4 GROUP 4 **** **** 0

# MOE 2024.06 (io_trps.svl 2023.06)
