@<TRIPOS>MOLECULE
NONAME
42 44 1 0 0 
SMALL
USER_CHARGES


@<TRIPOS>ATOM
  1 O       -0.4640     0.2230    -0.6570 O.2   1 <1>  -0.5700 
  2 C       -1.4640     0.7990    -0.2800 C.2   1 <1>   0.5440 
  3 N       -2.5880     0.0590     0.0070 N.am  1 <1>  -0.6600 
  4 C       -1.4470     2.2350    -0.1620 C.ar  1 <1>   0.0860 
  5 C       -3.9780     0.5880     0.0230 C.3   1 <1>   0.1400 
  6 C       -2.6020    -1.4230    -0.1110 C.3   1 <1>   0.1400 
  7 C       -1.9530     2.9060     0.9330 C.ar  1 <1>   0.1600 
  8 C       -0.9110     3.0390    -1.1480 C.ar  1 <1>   0.1600 
  9 C       -4.8650    -0.6230    -0.2620 C.3   1 <1>   0.2000 
 10 C       -4.0480    -1.8390     0.1690 C.3   1 <1>  -0.0800 
 11 N       -1.9690     4.2180     1.0340 N.ar  1 <1>  -0.6200 
 12 N       -0.9070     4.3550    -1.0820 N.ar  1 <1>  -0.6200 
 13 O       -6.0500    -0.5680     0.4540 O.3   1 <1>  -0.6800 
 14 C       -4.4880    -3.1280    -0.5470 C.3   1 <1>  -0.0170 
 15 C       -1.4400     4.8750     0.0130 C.ar  1 <1>   0.4770 
 16 C       -3.7260    -4.3450    -0.0460 C.ar  1 <1>   0.1670 
 17 C       -1.4400     6.3920     0.1110 C.3   1 <1>  -0.0170 
 18 N       -2.5160    -4.5330    -0.5470 N.ar  1 <1>  -0.6200 
 19 C       -4.3090    -5.1950     0.8930 C.ar  1 <1>   0.1600 
 20 C       -0.1700     6.9280     0.7870 C.3   1 <1>  -0.2400 
 21 C       -1.9330    -5.6120    -0.0510 C.ar  1 <1>   0.1600 
 22 N       -3.7280    -6.2730     1.3930 N.ar  1 <1>  -0.6200 
 23 C       -2.5190    -6.4530     0.8880 C.ar  1 <1>   0.1600 
 24 H       -4.1930     0.9940     0.9960 H     1 <1>   0.0800 
 25 H       -4.1090     1.3420    -0.7340 H     1 <1>   0.0800 
 26 H       -2.3080    -1.7010    -1.1100 H     1 <1>   0.0800 
 27 H       -1.9170    -1.8700     0.5910 H     1 <1>   0.0800 
 28 H       -2.3560     2.3370     1.7530 H     1 <1>   0.1500 
 29 H       -0.4760     2.5750    -2.0180 H     1 <1>   0.1500 
 30 H       -5.1020    -0.6620    -1.3120 H     1 <1>   0.0800 
 31 H       -4.1390    -1.9720     1.2330 H     1 <1>   0.0800 
 32 H       -5.8740    -0.5560     1.4150 H     1 <1>   0.4000 
 33 H       -4.3340    -3.0320    -1.6070 H     1 <1>   0.0800 
 34 H       -5.5410    -3.2770    -0.3880 H     1 <1>   0.0800 
 35 H       -1.5200     6.8060    -0.8790 H     1 <1>   0.0800 
 36 H       -2.3040     6.7060     0.6680 H     1 <1>   0.0800 
 37 H       -5.3000    -4.9730     1.2490 H     1 <1>   0.1500 
 38 H        0.6990     6.6320     0.2270 H     1 <1>   0.0800 
 39 H       -0.0890     6.5330     1.7850 H     1 <1>   0.0800 
 40 H       -0.2010     8.0020     0.8390 H     1 <1>   0.0800 
 41 H       -0.9440    -5.8430    -0.4040 H     1 <1>   0.1500 
 42 H       -1.9650    -7.3070     1.2320 H     1 <1>   0.1500 
@<TRIPOS>BOND
  1   1   2  2   
  2   2   3  am  
  3   2   4  1   
  4   3   5  1   
  5   3   6  1   
  6   4   7  ar  
  7   4   8  ar  
  8   5   9  1   
  9   5  24  1   
 10   5  25  1   
 11   6  10  1   
 12   6  26  1   
 13   6  27  1   
 14   7  11  ar  
 15   7  28  1   
 16   8  12  ar  
 17   8  29  1   
 18   9  10  1   
 19   9  13  1   
 20   9  30  1   
 21  10  14  1   
 22  10  31  1   
 23  11  15  ar  
 24  12  15  ar  
 25  13  32  1   
 26  14  16  1   
 27  14  33  1   
 28  14  34  1   
 29  15  17  1   
 30  16  18  ar  
 31  16  19  ar  
 32  17  20  1   
 33  17  35  1   
 34  17  36  1   
 35  18  21  ar  
 36  19  22  ar  
 37  19  37  1   
 38  20  38  1   
 39  20  39  1   
 40  20  40  1   
 41  21  23  ar  
 42  21  41  1   
 43  22  23  ar  
 44  23  42  1   
@<TRIPOS>SUBSTRUCTURE
  1 ****   3 GROUP 4 **** **** 0

# MOE 2024.06 (io_trps.svl 2023.06)
