@<TRIPOS>MOLECULE
NONAME
53 55 1 0 0 
SMALL
USER_CHARGES


@<TRIPOS>ATOM
  1 S        0.6540    -0.6230     2.3940 S.o2  1 <1>   1.4470 
  2 O        1.6390    -1.5700     2.8690 O.2   1 <1>  -0.6500 
  3 O        0.2300     0.4400     3.2760 O.2   1 <1>  -0.6500 
  4 N       -0.7210    -1.5310     2.0940 N.am  1 <1>  -0.9140 
  5 C        1.1580     0.0220     0.7790 C.ar  1 <1>  -0.0090 
  6 C       -0.4800    -2.8100     1.4450 C.3   1 <1>   0.2760 
  7 C        0.2790     0.7340    -0.0310 C.ar  1 <1>   0.0830 
  8 C        2.4520    -0.1770     0.3110 C.ar  1 <1>  -0.1500 
  9 C       -1.7380    -3.2620     0.7190 C.3   1 <1>  -0.0800 
 10 C       -0.3580    -3.9160     2.4910 C.3   1 <1>   0.1200 
 11 O       -0.9910     0.9550     0.3600 O.3   1 <1>  -0.3630 
 12 C        0.6780     1.2120    -1.2690 C.ar  1 <1>  -0.1500 
 13 C        2.8710     0.3010    -0.9230 C.ar  1 <1>  -0.1430 
 14 C       -2.5570    -3.9180     1.8360 C.3   1 <1>   0.1200 
 15 C       -2.4910    -2.1650    -0.0600 C.3   1 <1>  -0.0170 
 16 O       -1.6690    -4.1930     2.8820 O.3   1 <1>  -0.5600 
 17 C       -1.2720     2.2300     0.8920 C.3   1 <1>   0.0400 
 18 C        1.9680     0.9980    -1.7120 C.ar  1 <1>  -0.1500 
 19 C        4.3060     0.0570    -1.3870 C.3   1 <1>   0.0630 
 20 C       -3.6860    -2.7500    -0.7950 C.ar  1 <1>  -0.1430 
 21 C        5.0510     1.3830    -1.5670 C.3   1 <1>  -0.2400 
 22 C        4.3340    -0.7620    -2.6820 C.3   1 <1>  -0.2400 
 23 C       -3.5500    -3.4000    -2.0040 C.ar  1 <1>  -0.1500 
 24 C       -4.9670    -2.6620    -0.2890 C.ar  1 <1>  -0.1500 
 25 C       -4.6700    -3.9230    -2.6290 C.ar  1 <1>   0.1600 
 26 C       -6.0210    -3.2200    -0.9940 C.ar  1 <1>   0.1600 
 27 N       -5.9020    -3.8510    -2.1500 N.ar  1 <1>  -0.6200 
 28 H       -1.1110    -1.7410     3.0120 H     1 <1>   0.4200 
 29 H        0.3700    -2.7630     0.7830 H     1 <1>   0.0800 
 30 H        3.1470    -0.7180     0.9300 H     1 <1>   0.1500 
 31 H       -1.4610    -4.0370     0.0270 H     1 <1>   0.0800 
 32 H        0.2240    -3.6320     3.3500 H     1 <1>   0.0800 
 33 H        0.0520    -4.8090     2.0540 H     1 <1>   0.0800 
 34 H       -0.0250     1.7480    -1.8820 H     1 <1>   0.1500 
 35 H       -3.0160    -4.8360     1.5110 H     1 <1>   0.0800 
 36 H       -3.3090    -3.2500     2.2190 H     1 <1>   0.0800 
 37 H       -1.8250    -1.7060    -0.7700 H     1 <1>   0.0800 
 38 H       -2.8280    -1.3900     0.6050 H     1 <1>   0.0800 
 39 H       -2.3010     2.2440     1.2030 H     1 <1>   0.0800 
 40 H       -1.1040     2.9730     0.1340 H     1 <1>   0.0800 
 41 H       -0.6330     2.4050     1.7400 H     1 <1>   0.0800 
 42 H        2.2660     1.3780    -2.6730 H     1 <1>   0.1500 
 43 H        4.8240    -0.5090    -0.6310 H     1 <1>   0.0800 
 44 H        4.6060     1.9710    -2.3480 H     1 <1>   0.0800 
 45 H        6.0800     1.1990    -1.8190 H     1 <1>   0.0800 
 46 H        5.0190     1.9470    -0.6520 H     1 <1>   0.0800 
 47 H        3.8750    -0.2220    -3.4890 H     1 <1>   0.0800 
 48 H        3.8020    -1.6870    -2.5410 H     1 <1>   0.0800 
 49 H        5.3480    -0.9900    -2.9550 H     1 <1>   0.0800 
 50 H       -2.5860    -3.5040    -2.4670 H     1 <1>   0.1500 
 51 H       -5.1570    -2.1660     0.6450 H     1 <1>   0.1500 
 52 H       -4.5470    -4.4270    -3.5720 H     1 <1>   0.1500 
 53 H       -7.0140    -3.1430    -0.5850 H     1 <1>   0.1500 
@<TRIPOS>BOND
  1   1   2  2   
  2   1   3  2   
  3   1   4  am  
  4   1   5  1   
  5   4   6  1   
  6   4  28  1   
  7   5   7  ar  
  8   5   8  ar  
  9   6   9  1   
 10   6  10  1   
 11   6  29  1   
 12   7  11  1   
 13   7  12  ar  
 14   8  13  ar  
 15   8  30  1   
 16   9  14  1   
 17   9  15  1   
 18   9  31  1   
 19  10  16  1   
 20  10  32  1   
 21  10  33  1   
 22  11  17  1   
 23  12  18  ar  
 24  12  34  1   
 25  13  18  ar  
 26  13  19  1   
 27  14  16  1   
 28  14  35  1   
 29  14  36  1   
 30  15  20  1   
 31  15  37  1   
 32  15  38  1   
 33  17  39  1   
 34  17  40  1   
 35  17  41  1   
 36  18  42  1   
 37  19  21  1   
 38  19  22  1   
 39  19  43  1   
 40  20  23  ar  
 41  20  24  ar  
 42  21  44  1   
 43  21  45  1   
 44  21  46  1   
 45  22  47  1   
 46  22  48  1   
 47  22  49  1   
 48  23  25  ar  
 49  23  50  1   
 50  24  26  ar  
 51  24  51  1   
 52  25  27  ar  
 53  25  52  1   
 54  26  27  ar  
 55  26  53  1   
@<TRIPOS>SUBSTRUCTURE
  1 ****   6 GROUP 4 **** **** 0

# MOE 2024.06 (io_trps.svl 2023.06)
