@<TRIPOS>MOLECULE
NONAME
49 51 1 0 0 
SMALL
USER_CHARGES


@<TRIPOS>ATOM
  1 O        0.9710     1.2010     2.1140 O.co2 1 <1>  -0.9000 
  2 C        1.4930     2.3280     2.0300 C.2   1 <1>   1.0330 
  3 O        2.3350     2.6690     2.8810 O.co2 1 <1>  -0.9000 
  4 C        1.1150     3.2100     0.9260 C.2   1 <1>  -0.0060 
  5 N        1.5480     4.4950     0.6900 N.2   1 <1>  -0.5650 
  6 C        0.2640     2.8960    -0.0740 C.2   1 <1>  -0.0100 
  7 C        0.9520     4.8250    -0.3930 C.2   1 <1>   0.2980 
  8 O        0.1660     3.9060    -0.8930 O.3   1 <1>  -0.2800 
  9 C        1.1020     6.1650    -1.0990 C.3   1 <1>   0.5230 
 10 N        2.2020     6.9780    -0.4720 N.4   1 <1>  -0.9590 
 11 C        2.0850     8.4290    -0.7650 C.3   1 <1>   0.3430 
 12 C        3.5430     6.4050    -0.7850 C.3   1 <1>   0.3430 
 13 C        3.1540     9.2110    -0.0010 C.3   1 <1>  -0.1600 
 14 C        4.6240     7.1710    -0.0230 C.3   1 <1>  -0.1600 
 15 C        4.5740     8.6870    -0.3000 C.3   1 <1>  -0.0800 
 16 C        5.6970     9.4250     0.4680 C.3   1 <1>   0.2000 
 17 O        5.4760     9.3130     1.8260 O.3   1 <1>  -0.6800 
 18 C        5.8210    10.9140     0.1170 C.3   1 <1>  -0.1600 
 19 C        7.0310    11.5870     0.7820 C.3   1 <1>  -0.0170 
 20 C        7.1010    13.0470     0.3680 C.ar  1 <1>  -0.1430 
 21 C        7.7640    13.4130    -0.7930 C.ar  1 <1>  -0.1500 
 22 C        6.4960    14.0250     1.1420 C.ar  1 <1>  -0.1500 
 23 C        7.8200    14.7410    -1.1780 C.ar  1 <1>  -0.1500 
 24 C        6.5510    15.3540     0.7590 C.ar  1 <1>  -0.1500 
 25 C        7.2130    15.7130    -0.4020 C.ar  1 <1>  -0.1500 
 26 H       -0.2840     1.9840    -0.2430 H     1 <1>   0.1500 
 27 H        0.1650     6.6880    -1.0170 H     1 <1>   0.0800 
 28 H        1.3110     5.9950    -2.1410 H     1 <1>   0.0800 
 29 H        2.0870     6.8120     0.5450 H     1 <1>   0.4500 
 30 H        1.1090     8.7870    -0.4780 H     1 <1>   0.0800 
 31 H        2.2110     8.5970    -1.8230 H     1 <1>   0.0800 
 32 H        3.7340     6.4690    -1.8440 H     1 <1>   0.0800 
 33 H        3.5780     5.3650    -0.4940 H     1 <1>   0.0800 
 34 H        2.9450     9.1430     1.0530 H     1 <1>   0.0800 
 35 H        3.0760    10.2460    -0.2820 H     1 <1>   0.0800 
 36 H        5.5860     6.7820    -0.3080 H     1 <1>   0.0800 
 37 H        4.5070     6.9770     1.0300 H     1 <1>   0.0800 
 38 H        4.7680     8.8300    -1.3500 H     1 <1>   0.0800 
 39 H        6.6360     8.9380     0.2620 H     1 <1>   0.0800 
 40 H        4.9030    10.0370     2.1390 H     1 <1>   0.4000 
 41 H        4.9280    11.4440     0.3940 H     1 <1>   0.0800 
 42 H        5.9330    11.0080    -0.9490 H     1 <1>   0.0800 
 43 H        7.9380    11.0860     0.4910 H     1 <1>   0.0800 
 44 H        6.9560    11.5210     1.8540 H     1 <1>   0.0800 
 45 H        8.2400    12.6660    -1.4040 H     1 <1>   0.1500 
 46 H        5.9800    13.7580     2.0470 H     1 <1>   0.1500 
 47 H        8.3360    15.0190    -2.0800 H     1 <1>   0.1500 
 48 H        6.0810    16.1080     1.3640 H     1 <1>   0.1500 
 49 H        7.2560    16.7460    -0.7000 H     1 <1>   0.1500 
@<TRIPOS>BOND
  1   1   2  ar  
  2   2   3  ar  
  3   2   4  1   
  4   4   5  1   
  5   4   6  2   
  6   5   7  2   
  7   6   8  1   
  8   6  26  1   
  9   7   8  1   
 10   7   9  1   
 11   9  10  1   
 12   9  27  1   
 13   9  28  1   
 14  10  11  1   
 15  10  12  1   
 16  10  29  1   
 17  11  13  1   
 18  11  30  1   
 19  11  31  1   
 20  12  14  1   
 21  12  32  1   
 22  12  33  1   
 23  13  15  1   
 24  13  34  1   
 25  13  35  1   
 26  14  15  1   
 27  14  36  1   
 28  14  37  1   
 29  15  16  1   
 30  15  38  1   
 31  16  17  1   
 32  16  18  1   
 33  16  39  1   
 34  17  40  1   
 35  18  19  1   
 36  18  41  1   
 37  18  42  1   
 38  19  20  1   
 39  19  43  1   
 40  19  44  1   
 41  20  21  ar  
 42  20  22  ar  
 43  21  23  ar  
 44  21  45  1   
 45  22  24  ar  
 46  22  46  1   
 47  23  25  ar  
 48  23  47  1   
 49  24  25  ar  
 50  24  48  1   
 51  25  49  1   
@<TRIPOS>SUBSTRUCTURE
  1 ****  15 GROUP 4 **** **** 0

# MOE 2024.06 (io_trps.svl 2023.06)
