@<TRIPOS>MOLECULE
NONAME
56 59 1 0 0 
SMALL
USER_CHARGES


@<TRIPOS>ATOM
  1 O       -0.3710     0.6310     1.0660 O.2   1 <1>  -0.5700 
  2 C       -1.4650     1.1410     0.9910 C.2   1 <1>   0.5690 
  3 N       -2.5880     0.3900     0.7960 N.am  1 <1>  -0.6600 
  4 C       -1.5910     2.6540     1.1290 C.3   1 <1>  -0.0990 
  5 C       -3.9800     0.8860     0.7160 C.3   1 <1>   0.1400 
  6 C       -2.5320    -1.0660     0.5530 C.3   1 <1>   0.1400 
  7 C       -0.2580     3.4120     0.9800 C.3   1 <1>  -0.1600 
  8 C       -4.8610    -0.3730     0.7110 C.3   1 <1>  -0.0800 
  9 C       -3.9480    -1.4750     0.1410 C.3   1 <1>  -0.0800 
 10 C       -0.4510     4.9310     1.0890 C.3   1 <1>   0.0200 
 11 C       -6.2500    -0.2390     0.0120 C.3   1 <1>   0.2800 
 12 C       -4.1100    -1.5840    -1.3830 C.3   1 <1>  -0.1600 
 13 C        0.8560     5.6760     0.8970 C.2   1 <1>   0.2980 
 14 O       -6.2110     0.7550    -0.9480 O.3   1 <1>  -0.6800 
 15 C       -6.6020    -1.5440    -0.7270 C.3   1 <1>  -0.1600 
 16 C       -7.3800     0.1320     0.9970 C.3   1 <1>  -0.1600 
 17 C       -5.5500    -1.9640    -1.7760 C.3   1 <1>  -0.1600 
 18 O        1.7890     5.5600     1.8070 O.3   1 <1>  -0.0190 
 19 N        1.1420     6.4270    -0.0840 N.2   1 <1>  -0.5650 
 20 C       -7.2030     1.4660     1.7420 C.3   1 <1>  -0.2400 
 21 N        2.7540     6.3010     1.3650 N.2   1 <1>  -0.4100 
 22 C        2.3780     6.8130     0.2470 C.2   1 <1>   0.4620 
 23 C        3.1660     7.7040    -0.5820 C.ar  1 <1>   0.0540 
 24 C        4.4490     8.1080    -0.2340 C.ar  1 <1>  -0.1500 
 25 C        2.7050     8.2250    -1.7840 C.ar  1 <1>  -0.1500 
 26 C        5.1650     8.9590    -1.0540 C.ar  1 <1>   0.1600 
 27 C        3.4990     9.0700    -2.5340 C.ar  1 <1>   0.1600 
 28 N        4.7200     9.4510    -2.1980 N.ar  1 <1>  -0.6200 
 29 H       -2.2720     3.0060     0.3770 H     1 <1>   0.0800 
 30 H       -2.0160     2.8610     2.0940 H     1 <1>   0.0800 
 31 H       -4.2110     1.5220     1.5520 H     1 <1>   0.0800 
 32 H       -4.0780     1.4440    -0.1970 H     1 <1>   0.0800 
 33 H       -1.8060    -1.2950    -0.2090 H     1 <1>   0.0800 
 34 H       -2.2490    -1.5570     1.4680 H     1 <1>   0.0800 
 35 H        0.4280     3.0800     1.7410 H     1 <1>   0.0800 
 36 H        0.1760     3.1760     0.0230 H     1 <1>   0.0800 
 37 H       -5.0330    -0.6380     1.7390 H     1 <1>   0.0800 
 38 H       -4.1830    -2.4300     0.5780 H     1 <1>   0.0800 
 39 H       -0.8540     5.1830     2.0530 H     1 <1>   0.0800 
 40 H       -1.1460     5.2610     0.3380 H     1 <1>   0.0800 
 41 H       -3.8680    -0.6310    -1.8250 H     1 <1>   0.0800 
 42 H       -3.4230    -2.3100    -1.7830 H     1 <1>   0.0800 
 43 H       -7.0500     0.7550    -1.4430 H     1 <1>   0.4000 
 44 H       -6.6750    -2.3280     0.0070 H     1 <1>   0.0800 
 45 H       -7.5680    -1.4660    -1.1940 H     1 <1>   0.0800 
 46 H       -8.3130     0.1620     0.4610 H     1 <1>   0.0800 
 47 H       -7.4700    -0.6530     1.7280 H     1 <1>   0.0800 
 48 H       -5.6140    -3.0290    -1.9200 H     1 <1>   0.0800 
 49 H       -5.7770    -1.4970    -2.7190 H     1 <1>   0.0800 
 50 H       -7.0650     2.2760     1.0480 H     1 <1>   0.0800 
 51 H       -6.3580     1.4260     2.4050 H     1 <1>   0.0800 
 52 H       -8.0790     1.6730     2.3320 H     1 <1>   0.0800 
 53 H        4.8910     7.7560     0.6800 H     1 <1>   0.1500 
 54 H        1.7230     7.9690    -2.1370 H     1 <1>   0.1500 
 55 H        6.1570     9.2520    -0.7550 H     1 <1>   0.1500 
 56 H        3.1110     9.4560    -3.4620 H     1 <1>   0.1500 
@<TRIPOS>BOND
  1   1   2  2   
  2   2   3  am  
  3   2   4  1   
  4   3   5  1   
  5   3   6  1   
  6   4   7  1   
  7   4  29  1   
  8   4  30  1   
  9   5   8  1   
 10   5  31  1   
 11   5  32  1   
 12   6   9  1   
 13   6  33  1   
 14   6  34  1   
 15   7  10  1   
 16   7  35  1   
 17   7  36  1   
 18   8   9  1   
 19   8  11  1   
 20   8  37  1   
 21   9  12  1   
 22   9  38  1   
 23  10  13  1   
 24  10  39  1   
 25  10  40  1   
 26  11  14  1   
 27  11  15  1   
 28  11  16  1   
 29  12  17  1   
 30  12  41  1   
 31  12  42  1   
 32  13  18  1   
 33  13  19  2   
 34  14  43  1   
 35  15  17  1   
 36  15  44  1   
 37  15  45  1   
 38  16  20  1   
 39  16  46  1   
 40  16  47  1   
 41  17  48  1   
 42  17  49  1   
 43  18  21  1   
 44  19  22  1   
 45  20  50  1   
 46  20  51  1   
 47  20  52  1   
 48  21  22  2   
 49  22  23  1   
 50  23  24  ar  
 51  23  25  ar  
 52  24  26  ar  
 53  24  53  1   
 54  25  27  ar  
 55  25  54  1   
 56  26  28  ar  
 57  26  55  1   
 58  27  28  ar  
 59  27  56  1   
@<TRIPOS>SUBSTRUCTURE
  1 ****   4 GROUP 4 **** **** 0

# MOE 2024.06 (io_trps.svl 2023.06)
