@<TRIPOS>MOLECULE
NONAME
43 46 1 0 0 
SMALL
USER_CHARGES


@<TRIPOS>ATOM
  1 CL      -3.5720    -3.3230     2.3910 Cl    1 <1>  -0.1770 
  2 C       -2.8930    -1.9300     1.5790 C.ar  1 <1>   0.1770 
  3 C       -3.6490    -1.1780     0.6750 C.ar  1 <1>   0.0540 
  4 C       -1.5750    -1.6260     1.8650 C.ar  1 <1>  -0.1500 
  5 C       -5.0350    -1.4640     0.3680 C.2   1 <1>   0.4620 
  6 C       -3.0010    -0.1070     0.0560 C.ar  1 <1>  -0.1500 
  7 C       -0.9640    -0.5530     1.2420 C.ar  1 <1>  -0.1500 
  8 N       -5.9570    -1.7750     1.2070 N.2   1 <1>  -0.4100 
  9 N       -5.5050    -1.3960    -0.8820 N.2   1 <1>  -0.5650 
 10 C       -1.6820     0.2040     0.3330 C.ar  1 <1>  -0.1500 
 11 O       -7.0570    -1.9460     0.5450 O.3   1 <1>  -0.0190 
 12 C       -6.7240    -1.7090    -0.6970 C.2   1 <1>   0.2980 
 13 C       -7.7980    -1.8390    -1.7750 C.3   1 <1>   0.3890 
 14 N       -7.9430    -3.2430    -2.2380 N.pl3 1 <1>  -0.8690 
 15 C       -8.3110    -4.1570    -1.3210 C.ar  1 <1>   0.7200 
 16 N       -7.4620    -5.1600    -1.2090 N.ar  1 <1>  -0.6200 
 17 N       -9.4180    -3.9180    -0.6280 N.ar  1 <1>  -0.6200 
 18 C       -7.7160    -6.0250    -0.2450 C.ar  1 <1>   0.4100 
 19 C       -9.6820    -4.8040     0.3140 C.ar  1 <1>   0.1600 
 20 N       -6.7930    -7.0410    -0.0500 N.pl3 1 <1>  -0.8380 
 21 C       -8.8530    -5.8670     0.5440 C.ar  1 <1>   0.1900 
 22 C       -5.9570    -6.9770     1.1870 C.3   1 <1>   0.2090 
 23 C       -6.0320    -7.5950    -1.2150 C.3   1 <1>   0.2090 
 24 F       -9.1430    -6.7170     1.5080 F     1 <1>  -0.1900 
 25 C       -4.5960    -6.3180     0.8980 C.3   1 <1>   0.1200 
 26 C       -4.6570    -6.9150    -1.3620 C.3   1 <1>   0.1200 
 27 O       -3.9400    -6.9650    -0.1590 O.3   1 <1>  -0.5600 
 28 H       -1.0300    -2.2290     2.5700 H     1 <1>   0.1500 
 29 H       -3.5450     0.4920    -0.6540 H     1 <1>   0.1500 
 30 H        0.0630    -0.3110     1.4590 H     1 <1>   0.1500 
 31 H       -1.2100     1.0390    -0.1590 H     1 <1>   0.1500 
 32 H       -7.5240    -1.2250    -2.6140 H     1 <1>   0.0800 
 33 H       -8.7380    -1.4810    -1.3920 H     1 <1>   0.0800 
 34 H       -7.0900    -3.5730    -2.6880 H     1 <1>   0.4000 
 35 H      -10.5670    -4.6740     0.9110 H     1 <1>   0.1500 
 36 H       -5.7980    -7.9730     1.5610 H     1 <1>   0.0800 
 37 H       -6.4670    -6.4150     1.9500 H     1 <1>   0.0800 
 38 H       -6.5990    -7.4600    -2.1200 H     1 <1>   0.0800 
 39 H       -5.8900    -8.6510    -1.0720 H     1 <1>   0.0800 
 40 H       -3.9620    -6.3750     1.7640 H     1 <1>   0.0800 
 41 H       -4.7330    -5.2820     0.6360 H     1 <1>   0.0800 
 42 H       -4.7790    -5.8850    -1.6470 H     1 <1>   0.0800 
 43 H       -4.0750    -7.4160    -2.1130 H     1 <1>   0.0800 
@<TRIPOS>BOND
  1   1   2  1   
  2   2   3  ar  
  3   2   4  ar  
  4   3   5  1   
  5   3   6  ar  
  6   4   7  ar  
  7   4  28  1   
  8   5   8  2   
  9   5   9  1   
 10   6  10  ar  
 11   6  29  1   
 12   7  10  ar  
 13   7  30  1   
 14   8  11  1   
 15   9  12  2   
 16  10  31  1   
 17  11  12  1   
 18  12  13  1   
 19  13  14  1   
 20  13  32  1   
 21  13  33  1   
 22  14  15  1   
 23  14  34  1   
 24  15  16  ar  
 25  15  17  ar  
 26  16  18  ar  
 27  17  19  ar  
 28  18  20  1   
 29  18  21  ar  
 30  19  21  ar  
 31  19  35  1   
 32  20  22  1   
 33  20  23  1   
 34  21  24  1   
 35  22  25  1   
 36  22  36  1   
 37  22  37  1   
 38  23  26  1   
 39  23  38  1   
 40  23  39  1   
 41  25  27  1   
 42  25  40  1   
 43  25  41  1   
 44  26  27  1   
 45  26  42  1   
 46  26  43  1   
@<TRIPOS>SUBSTRUCTURE
  1 ****  11 GROUP 4 **** **** 0

# MOE 2024.06 (io_trps.svl 2023.06)
