@<TRIPOS>MOLECULE
NONAME
37 39 1 0 0 
SMALL
USER_CHARGES


@<TRIPOS>ATOM
  1 O       -0.4320     0.1850    -0.2730 O.2   1 <1>  -0.5700 
  2 C       -1.4790     0.8080    -0.1970 C.2   1 <1>   0.7160 
  3 N       -2.6540     0.0810    -0.2790 N.am  1 <1>  -0.6600 
  4 C       -1.4270     2.2570    -0.0280 C.2   1 <1>   0.2030 
  5 C       -4.0340     0.6260    -0.2170 C.3   1 <1>   0.1400 
  6 C       -2.6830    -1.3960    -0.4100 C.3   1 <1>   0.1400 
  7 N       -2.4160     3.0940     0.1160 N.2   1 <1>  -0.4100 
  8 C       -0.2480     2.9890     0.0100 C.2   1 <1>  -0.1500 
  9 C       -4.9510    -0.5910    -0.3540 C.3   1 <1>   0.2000 
 10 C       -4.0950    -1.7990     0.0190 C.3   1 <1>  -0.0800 
 11 O       -1.9700     4.3200     0.2430 O.3   1 <1>  -0.0190 
 12 C       -0.6590     4.2480     0.1780 C.2   1 <1>  -0.0400 
 13 O       -6.0440    -0.5100     0.4940 O.3   1 <1>  -0.6800 
 14 C       -4.6010    -3.1040    -0.6190 C.3   1 <1>  -0.0170 
 15 C        0.1460     5.5250     0.2960 C.3   1 <1>  -0.0600 
 16 C       -3.7480    -4.2940    -0.2110 C.ar  1 <1>   0.1670 
 17 N       -2.6510    -4.5060    -0.9200 N.ar  1 <1>  -0.6200 
 18 C       -4.1360    -5.0920     0.8640 C.ar  1 <1>   0.1600 
 19 C       -1.9740    -5.5560    -0.4860 C.ar  1 <1>   0.1600 
 20 N       -3.4600    -6.1410     1.3010 N.ar  1 <1>  -0.6200 
 21 C       -2.3650    -6.3460     0.5880 C.ar  1 <1>   0.1600 
 22 H       -4.1830     1.1180     0.7280 H     1 <1>   0.0800 
 23 H       -4.1990     1.3190    -1.0250 H     1 <1>   0.0800 
 24 H       -2.5020    -1.6620    -1.4380 H     1 <1>   0.0800 
 25 H       -1.9350    -1.8600     0.2120 H     1 <1>   0.0800 
 26 H        0.7430     2.5840    -0.0820 H     1 <1>   0.1500 
 27 H       -5.3110    -0.6630    -1.3670 H     1 <1>   0.0800 
 28 H       -4.0800    -1.9080     1.0900 H     1 <1>   0.0800 
 29 H       -5.7510    -0.3660     1.4140 H     1 <1>   0.4000 
 30 H       -4.5930    -3.0170    -1.6910 H     1 <1>   0.0800 
 31 H       -5.6200    -3.2720    -0.3170 H     1 <1>   0.0800 
 32 H        1.1970     5.3120     0.2250 H     1 <1>   0.0800 
 33 H       -0.0530     5.9940     1.2430 H     1 <1>   0.0800 
 34 H       -0.1280     6.2020    -0.4930 H     1 <1>   0.0800 
 35 H       -5.0440    -4.8510     1.3870 H     1 <1>   0.1500 
 36 H       -1.0650    -5.8030    -1.0050 H     1 <1>   0.1500 
 37 H       -1.7460    -7.1810     0.8670 H     1 <1>   0.1500 
@<TRIPOS>BOND
  1   1   2  2   
  2   2   3  am  
  3   2   4  1   
  4   3   5  1   
  5   3   6  1   
  6   4   7  2   
  7   4   8  1   
  8   5   9  1   
  9   5  22  1   
 10   5  23  1   
 11   6  10  1   
 12   6  24  1   
 13   6  25  1   
 14   7  11  1   
 15   8  12  2   
 16   8  26  1   
 17   9  10  1   
 18   9  13  1   
 19   9  27  1   
 20  10  14  1   
 21  10  28  1   
 22  11  12  1   
 23  12  15  1   
 24  13  29  1   
 25  14  16  1   
 26  14  30  1   
 27  14  31  1   
 28  15  32  1   
 29  15  33  1   
 30  15  34  1   
 31  16  17  ar  
 32  16  18  ar  
 33  17  19  ar  
 34  18  20  ar  
 35  18  35  1   
 36  19  21  ar  
 37  19  36  1   
 38  20  21  ar  
 39  21  37  1   
@<TRIPOS>SUBSTRUCTURE
  1 ****   6 GROUP 4 **** **** 0

# MOE 2024.06 (io_trps.svl 2023.06)
