@<TRIPOS>MOLECULE
NONAME
56 60 1 0 0 
SMALL
USER_CHARGES


@<TRIPOS>ATOM
  1 O       -0.7260     5.9060    -1.0460 O.2   1 <1>  -0.5700 
  2 C       -0.6620     4.7210    -0.7750 C.2   1 <1>   0.5440 
  3 N       -1.8310     4.0140    -0.5910 N.am  1 <1>  -0.6600 
  4 C        0.6370     4.1000    -0.6330 C.ar  1 <1>   0.0860 
  5 C       -3.1630     4.6110    -0.9170 C.3   1 <1>   0.1400 
  6 C       -1.8910     2.7260     0.1680 C.3   1 <1>   0.1400 
  7 C        1.6230     4.7080     0.1340 C.ar  1 <1>   0.1600 
  8 C        0.9670     2.8960    -1.2400 C.ar  1 <1>  -0.1500 
  9 C       -3.9510     4.9540     0.3690 C.3   1 <1>   0.1440 
 10 C       -3.2140     2.5730     0.9410 C.3   1 <1>  -0.1600 
 11 N        2.8330     4.2240     0.3610 N.ar  1 <1>  -0.6200 
 12 C        2.2250     2.3690    -1.0290 C.ar  1 <1>  -0.1440 
 13 C       -5.4190     5.0510    -0.0100 C.ar  1 <1>   0.1670 
 14 C       -3.6930     3.9220     1.5010 C.3   1 <1>  -0.1600 
 15 C       -3.6490     6.3960     0.8520 C.3   1 <1>  -0.1600 
 16 C        3.1150     3.0680    -0.2160 C.ar  1 <1>   0.1670 
 17 C        2.5930     1.0510    -1.6990 C.3   1 <1>  -0.0970 
 18 N       -6.2140     4.0350    -0.2510 N.ar  1 <1>  -0.6200 
 19 C       -5.8310     6.3450    -0.0900 C.ar  1 <1>  -0.1440 
 20 C       -4.7150     7.3090     0.2230 C.3   1 <1>  -0.0170 
 21 C        4.5120     2.5440     0.0640 C.3   1 <1>  -0.0970 
 22 C       -7.4770     4.3430    -0.5760 C.ar  1 <1>   0.6200 
 23 C       -7.1370     6.5800    -0.4320 C.ar  1 <1>   0.1600 
 24 N       -7.9650     5.5890    -0.6760 N.ar  1 <1>  -0.6200 
 25 C       -8.3880     3.2380    -0.8420 C.ar  1 <1>   0.0000 
 26 C       -8.2110     1.9820    -0.2520 C.ar  1 <1>  -0.1500 
 27 C       -9.4830     3.3790    -1.7000 C.ar  1 <1>  -0.1500 
 28 C       -9.0730     0.9300    -0.5020 C.ar  1 <1>  -0.1500 
 29 C      -10.3500     2.3320    -1.9550 C.ar  1 <1>  -0.1500 
 30 C      -10.1460     1.1020    -1.3560 C.ar  1 <1>  -0.1500 
 31 H       -3.7190     3.8890    -1.4910 H     1 <1>   0.0800 
 32 H       -3.0540     5.4870    -1.5320 H     1 <1>   0.0800 
 33 H       -1.0770     2.6970     0.8720 H     1 <1>   0.0800 
 34 H       -1.7770     1.9010    -0.5140 H     1 <1>   0.0800 
 35 H        1.3860     5.6550     0.5880 H     1 <1>   0.1500 
 36 H        0.2460     2.4000    -1.8650 H     1 <1>   0.1500 
 37 H       -3.0770     1.8690     1.7430 H     1 <1>   0.0800 
 38 H       -3.9670     2.1690     0.2860 H     1 <1>   0.0800 
 39 H       -4.5870     3.7860     2.0850 H     1 <1>   0.0800 
 40 H       -2.9260     4.2930     2.1570 H     1 <1>   0.0800 
 41 H       -2.6510     6.7120     0.6010 H     1 <1>   0.0800 
 42 H       -3.7620     6.4480     1.9210 H     1 <1>   0.0800 
 43 H        1.8380     0.7520    -2.4030 H     1 <1>   0.0800 
 44 H        2.6940     0.2770    -0.9590 H     1 <1>   0.0800 
 45 H        3.5220     1.1520    -2.2310 H     1 <1>   0.0800 
 46 H       -4.3470     7.7490    -0.6880 H     1 <1>   0.0800 
 47 H       -5.0280     8.0810     0.9040 H     1 <1>   0.0800 
 48 H        4.9030     2.9920     0.9590 H     1 <1>   0.0800 
 49 H        5.1600     2.7950    -0.7550 H     1 <1>   0.0800 
 50 H        4.5050     1.4790     0.2010 H     1 <1>   0.0800 
 51 H       -7.5090     7.5870    -0.5080 H     1 <1>   0.1500 
 52 H       -7.3820     1.8290     0.4170 H     1 <1>   0.1500 
 53 H       -9.6590     4.3280    -2.1760 H     1 <1>   0.1500 
 54 H       -8.9080    -0.0240    -0.0320 H     1 <1>   0.1500 
 55 H      -11.1840     2.4740    -2.6200 H     1 <1>   0.1500 
 56 H      -10.8190     0.2860    -1.5520 H     1 <1>   0.1500 
@<TRIPOS>BOND
  1   1   2  2   
  2   2   3  am  
  3   2   4  1   
  4   3   5  1   
  5   3   6  1   
  6   4   7  ar  
  7   4   8  ar  
  8   5   9  1   
  9   5  31  1   
 10   5  32  1   
 11   6  10  1   
 12   6  33  1   
 13   6  34  1   
 14   7  11  ar  
 15   7  35  1   
 16   8  12  ar  
 17   8  36  1   
 18   9  13  1   
 19   9  14  1   
 20   9  15  1   
 21  10  14  1   
 22  10  37  1   
 23  10  38  1   
 24  11  16  ar  
 25  12  16  ar  
 26  12  17  1   
 27  13  18  ar  
 28  13  19  ar  
 29  14  39  1   
 30  14  40  1   
 31  15  20  1   
 32  15  41  1   
 33  15  42  1   
 34  16  21  1   
 35  17  43  1   
 36  17  44  1   
 37  17  45  1   
 38  18  22  ar  
 39  19  20  1   
 40  19  23  ar  
 41  20  46  1   
 42  20  47  1   
 43  21  48  1   
 44  21  49  1   
 45  21  50  1   
 46  22  24  ar  
 47  22  25  1   
 48  23  24  ar  
 49  23  51  1   
 50  25  26  ar  
 51  25  27  ar  
 52  26  28  ar  
 53  26  52  1   
 54  27  29  ar  
 55  27  53  1   
 56  28  30  ar  
 57  28  54  1   
 58  29  30  ar  
 59  29  55  1   
 60  30  56  1   
@<TRIPOS>SUBSTRUCTURE
  1 ****   5 GROUP 4 **** **** 0

# MOE 2024.06 (io_trps.svl 2023.06)
