@<TRIPOS>MOLECULE
NONAME
47 49 1 0 0 
SMALL
USER_CHARGES


@<TRIPOS>ATOM
  1 O        0.1290     1.2410    -0.8070 O.2   1 <1>  -0.5700 
  2 C       -0.1670     2.3890    -1.0430 C.2   1 <1>   0.5690 
  3 N       -1.0000     3.1370    -0.2540 N.am  1 <1>  -0.5090 
  4 C        0.4260     3.0470    -2.2820 C.3   1 <1>   0.1810 
  5 C       -1.3430     4.5500    -0.6240 C.3   1 <1>   0.3640 
  6 C       -1.4030     2.6940     1.1040 C.3   1 <1>   0.0490 
  7 O        0.7210     4.3960    -2.0330 O.3   1 <1>  -0.5600 
  8 C       -2.7850     4.6230    -1.1280 C.ar  1 <1>  -0.1440 
  9 C       -0.4060     5.1930    -1.6910 C.3   1 <1>   0.2610 
 10 C       -2.1490     1.4050     1.2470 C.3   1 <1>  -0.2000 
 11 C       -2.8430     2.6990     1.5190 C.3   1 <1>  -0.2000 
 12 C       -3.5740     5.7130    -0.7830 C.ar  1 <1>   0.1600 
 13 C       -3.3390     3.6380    -1.9280 C.ar  1 <1>  -0.1500 
 14 C        0.0440     6.5790    -1.2160 C.2   1 <1>   0.5690 
 15 N       -4.8310     5.8900    -1.1570 N.ar  1 <1>  -0.6200 
 16 C       -4.6460     3.8090    -2.3260 C.ar  1 <1>  -0.1500 
 17 O       -0.7760     7.3410    -0.7610 O.2   1 <1>  -0.5700 
 18 N        1.3570     6.9210    -1.3060 N.am  1 <1>  -0.7300 
 19 C       -5.3380     4.9350    -1.9180 C.ar  1 <1>   0.1600 
 20 C        1.9380     8.2420    -0.9560 C.3   1 <1>   0.1400 
 21 C        2.4250     8.2450     0.4920 C.3   1 <1>   0.1200 
 22 O        3.1060     9.4370     0.7230 O.3   1 <1>  -0.5600 
 23 C        3.5540     9.5900     2.0270 C.3   1 <1>   0.1200 
 24 C        4.2780    10.9280     2.1090 C.3   1 <1>  -0.2400 
 25 H       -0.2600     2.9820    -3.1070 H     1 <1>   0.0800 
 26 H        1.3440     2.5520    -2.5460 H     1 <1>   0.0800 
 27 H       -1.2770     5.1320     0.2800 H     1 <1>   0.0800 
 28 H       -0.6540     2.9200     1.8450 H     1 <1>   0.1000 
 29 H       -0.9630     5.3420    -2.5990 H     1 <1>   0.0800 
 30 H       -2.3940     0.8550     0.3550 H     1 <1>   0.1000 
 31 H       -1.9090     0.7630     2.0750 H     1 <1>   0.1000 
 32 H       -3.0880     2.9320     2.5400 H     1 <1>   0.1000 
 33 H       -3.6220     2.9900     0.8370 H     1 <1>   0.1000 
 34 H       -3.1520     6.4910    -0.1660 H     1 <1>   0.1500 
 35 H       -2.7900     2.7630    -2.2280 H     1 <1>   0.1500 
 36 H       -5.1310     3.0750    -2.9450 H     1 <1>   0.1500 
 37 H        2.0020     6.2120    -1.6720 H     1 <1>   0.3700 
 38 H       -6.3600     5.0580    -2.2330 H     1 <1>   0.1500 
 39 H        2.7620     8.4520    -1.6160 H     1 <1>   0.0800 
 40 H        1.1910     9.0090    -1.0780 H     1 <1>   0.0800 
 41 H        3.1040     7.4270     0.6630 H     1 <1>   0.0800 
 42 H        1.5850     8.1870     1.1630 H     1 <1>   0.0800 
 43 H        2.7060     9.5760     2.6920 H     1 <1>   0.0800 
 44 H        4.2250     8.7800     2.2640 H     1 <1>   0.0800 
 45 H        3.6030    11.7270     1.8580 H     1 <1>   0.0800 
 46 H        5.1120    10.9370     1.4320 H     1 <1>   0.0800 
 47 H        4.6420    11.0860     3.1080 H     1 <1>   0.0800 
@<TRIPOS>BOND
  1   1   2  2   
  2   2   3  am  
  3   2   4  1   
  4   3   5  1   
  5   3   6  1   
  6   4   7  1   
  7   4  25  1   
  8   4  26  1   
  9   5   8  1   
 10   5   9  1   
 11   5  27  1   
 12   6  10  1   
 13   6  11  1   
 14   6  28  1   
 15   7   9  1   
 16   8  12  ar  
 17   8  13  ar  
 18   9  14  1   
 19   9  29  1   
 20  10  11  1   
 21  10  30  1   
 22  10  31  1   
 23  11  32  1   
 24  11  33  1   
 25  12  15  ar  
 26  12  34  1   
 27  13  16  ar  
 28  13  35  1   
 29  14  17  2   
 30  14  18  am  
 31  15  19  ar  
 32  16  19  ar  
 33  16  36  1   
 34  18  20  1   
 35  18  37  1   
 36  19  38  1   
 37  20  21  1   
 38  20  39  1   
 39  20  40  1   
 40  21  22  1   
 41  21  41  1   
 42  21  42  1   
 43  22  23  1   
 44  23  24  1   
 45  23  43  1   
 46  23  44  1   
 47  24  45  1   
 48  24  46  1   
 49  24  47  1   
@<TRIPOS>SUBSTRUCTURE
  1 ****   5 GROUP 4 **** **** 0

# MOE 2024.06 (io_trps.svl 2023.06)
