@<TRIPOS>MOLECULE
NONAME
26 26 1 0 0 
SMALL
USER_CHARGES


@<TRIPOS>ATOM
  1 O       -0.6480    -0.1430     0.9760 O.2   1 <1>  -0.5700 
  2 C       -1.3980    -0.8900     0.3820 C.2   1 <1>   0.6340 
  3 O       -2.3470    -0.3580    -0.3980 O.3   1 <1>  -0.4300 
  4 C       -1.3190    -2.3380     0.4730 C.ar  1 <1>   0.0860 
  5 C       -2.4970     1.0410    -0.5420 C.3   1 <1>   0.0400 
  6 C       -2.1870    -3.1770    -0.2300 C.ar  1 <1>  -0.1500 
  7 C       -0.3600    -2.9560     1.2770 C.ar  1 <1>  -0.1500 
  8 C       -2.1050    -4.5550    -0.1310 C.ar  1 <1>  -0.1500 
  9 C       -0.2720    -4.3330     1.3800 C.ar  1 <1>  -0.1500 
 10 C       -1.1460    -5.1440     0.6760 C.ar  1 <1>  -0.1440 
 11 C       -1.0580    -6.6590     0.7880 C.3   1 <1>  -0.0170 
 12 C       -0.1340    -7.2230    -0.2930 C.3   1 <1>   0.0860 
 13 N       -0.0820    -8.6780    -0.1890 N.2   1 <1>  -0.5640 
 14 N        1.0320    -9.2260    -0.0250 N.1   1 <1>   0.6880 
 15 N        2.1370    -9.7470     0.1400 N.1   1 <1>  -0.3700 
 16 H       -3.3170     1.2290    -1.2100 H     1 <1>   0.0800 
 17 H       -1.5860     1.4480    -0.9460 H     1 <1>   0.0800 
 18 H       -2.6980     1.4700     0.4240 H     1 <1>   0.0800 
 19 H       -2.9430    -2.7460    -0.8640 H     1 <1>   0.1500 
 20 H        0.3290    -2.3420     1.8330 H     1 <1>   0.1500 
 21 H       -2.7930    -5.1680    -0.6870 H     1 <1>   0.1500 
 22 H        0.4810    -4.7690     2.0130 H     1 <1>   0.1500 
 23 H       -2.0400    -7.0850     0.6780 H     1 <1>   0.0800 
 24 H       -0.6830    -6.9270     1.7600 H     1 <1>   0.0800 
 25 H        0.8500    -6.7960    -0.1880 H     1 <1>   0.0800 
 26 H       -0.5160    -6.9580    -1.2640 H     1 <1>   0.0800 
@<TRIPOS>BOND
  1   1   2  2   
  2   2   3  1   
  3   2   4  1   
  4   3   5  1   
  5   4   6  ar  
  6   4   7  ar  
  7   5  16  1   
  8   5  17  1   
  9   5  18  1   
 10   6   8  ar  
 11   6  19  1   
 12   7   9  ar  
 13   7  20  1   
 14   8  10  ar  
 15   8  21  1   
 16   9  10  ar  
 17   9  22  1   
 18  10  11  1   
 19  11  12  1   
 20  11  23  1   
 21  11  24  1   
 22  12  13  1   
 23  12  25  1   
 24  12  26  1   
 25  13  14  2   
 26  14  15  3   
@<TRIPOS>SUBSTRUCTURE
  1 ****  10 GROUP 4 **** **** 0

# MOE 2024.06 (io_trps.svl 2023.06)
