@<TRIPOS>MOLECULE
NONAME
41 43 1 0 0 
SMALL
USER_CHARGES


@<TRIPOS>ATOM
  1 N       -0.8460     0.0630     0.2720 N.ar  1 <1>  -0.6200 
  2 C        0.2800     0.5490     0.7250 C.ar  1 <1>   0.7710 
  3 C       -1.6650     0.8890    -0.3490 C.ar  1 <1>   0.4100 
  4 N        0.6410     1.8300     0.5700 N.ar  1 <1>  -0.1790 
  5 N        1.0720    -0.3030     1.3700 N.pl3 1 <1>  -0.9000 
  6 N       -2.8660     0.3710    -0.7030 N.pl3 1 <1>  -0.8380 
  7 C       -1.3180     2.2450    -0.6080 C.ar  1 <1>  -0.1430 
  8 C       -0.1380     2.7120    -0.1010 C.ar  1 <1>   0.2170 
  9 C       -2.9860    -0.9990    -1.2940 C.3   1 <1>   0.3530 
 10 C       -4.1370     0.8590    -0.1040 C.3   1 <1>   0.2090 
 11 C       -2.2470     3.1200    -1.4600 C.3   1 <1>  -0.0970 
 12 C        0.4000     4.1400    -0.2230 C.3   1 <1>  -0.0170 
 13 C       -3.7930    -1.9550    -0.4170 C.ar  1 <1>  -0.1430 
 14 C       -4.5280    -0.0430     1.0680 C.3   1 <1>  -0.0170 
 15 C        0.6810     4.7790     1.1450 C.3   1 <1>  -0.2400 
 16 C       -4.5260    -1.5140     0.6800 C.ar  1 <1>  -0.1430 
 17 C       -3.7990    -3.3050    -0.7370 C.ar  1 <1>  -0.1500 
 18 C       -5.2490    -2.4200     1.4390 C.ar  1 <1>  -0.1500 
 19 C       -4.5230    -4.2070     0.0210 C.ar  1 <1>  -0.1500 
 20 C       -5.2500    -3.7640     1.1110 C.ar  1 <1>  -0.1500 
 21 H        1.5260     2.1110     0.9730 H     1 <1>   0.4570 
 22 H        1.9830    -0.1420     1.8020 H     1 <1>   0.4000 
 23 H        0.7300    -1.2650     1.4670 H     1 <1>   0.4000 
 24 H       -2.0080    -1.4140    -1.4630 H     1 <1>   0.0800 
 25 H       -3.4730    -0.9170    -2.2500 H     1 <1>   0.0800 
 26 H       -4.9120     0.8380    -0.8520 H     1 <1>   0.0800 
 27 H       -4.0280     1.8690     0.2480 H     1 <1>   0.0800 
 28 H       -2.8620     2.5190    -2.1060 H     1 <1>   0.0800 
 29 H       -1.6910     3.7770    -2.1030 H     1 <1>   0.0800 
 30 H       -2.8900     3.7080    -0.8290 H     1 <1>   0.0800 
 31 H       -0.3010     4.7730    -0.7350 H     1 <1>   0.0800 
 32 H        1.3030     4.1340    -0.8090 H     1 <1>   0.0800 
 33 H       -5.5040     0.2410     1.4170 H     1 <1>   0.0800 
 34 H       -3.8300     0.1050     1.8720 H     1 <1>   0.0800 
 35 H       -0.2080     4.7770     1.7520 H     1 <1>   0.0800 
 36 H        0.9860     5.8040     1.0100 H     1 <1>   0.0800 
 37 H        1.4670     4.2700     1.6730 H     1 <1>   0.0800 
 38 H       -3.2390    -3.6640    -1.5830 H     1 <1>   0.1500 
 39 H       -5.8150    -2.0860     2.2900 H     1 <1>   0.1500 
 40 H       -4.5210    -5.2520    -0.2350 H     1 <1>   0.1500 
 41 H       -5.8130    -4.4630     1.7030 H     1 <1>   0.1500 
@<TRIPOS>BOND
  1   1   2  ar  
  2   1   3  ar  
  3   2   4  ar  
  4   2   5  1   
  5   3   6  1   
  6   3   7  ar  
  7   4   8  ar  
  8   4  21  1   
  9   5  22  1   
 10   5  23  1   
 11   6   9  1   
 12   6  10  1   
 13   7   8  ar  
 14   7  11  1   
 15   8  12  1   
 16   9  13  1   
 17   9  24  1   
 18   9  25  1   
 19  10  14  1   
 20  10  26  1   
 21  10  27  1   
 22  11  28  1   
 23  11  29  1   
 24  11  30  1   
 25  12  15  1   
 26  12  31  1   
 27  12  32  1   
 28  13  16  ar  
 29  13  17  ar  
 30  14  16  1   
 31  14  33  1   
 32  14  34  1   
 33  15  35  1   
 34  15  36  1   
 35  15  37  1   
 36  16  18  ar  
 37  17  19  ar  
 38  17  38  1   
 39  18  20  ar  
 40  18  39  1   
 41  19  20  ar  
 42  19  40  1   
 43  20  41  1   
@<TRIPOS>SUBSTRUCTURE
  1 ****   3 GROUP 4 **** **** 0

# MOE 2024.06 (io_trps.svl 2023.06)
