@<TRIPOS>MOLECULE
NONAME
45 47 1 0 0 
SMALL
USER_CHARGES


@<TRIPOS>ATOM
  1 CL      -1.1160    -0.9090    -0.5640 Cl    1 <1>  -0.1770 
  2 C        0.4850    -1.4650    -0.1270 C.ar  1 <1>   0.1770 
  3 C        0.6610    -2.5460     0.7330 C.ar  1 <1>  -0.1440 
  4 C        1.5600    -0.7880    -0.6750 C.ar  1 <1>  -0.1500 
  5 C        1.9580    -2.9330     1.0470 C.ar  1 <1>  -0.1500 
  6 C       -0.5090    -3.3170     1.3510 C.3   1 <1>   0.0450 
  7 C        2.8440    -1.1900    -0.3630 C.ar  1 <1>   0.0830 
  8 C        3.0440    -2.2610     0.5100 C.ar  1 <1>   0.0830 
  9 C       -0.4060    -4.8210     1.1200 C.2   1 <1>   0.5690 
 10 O        3.8920    -0.5320    -0.9210 O.3   1 <1>  -0.3630 
 11 O        4.2950    -2.6620     0.8520 O.3   1 <1>  -0.3630 
 12 O       -0.0030    -5.4880     2.0450 O.2   1 <1>  -0.5700 
 13 N       -0.7610    -5.4010    -0.0750 N.am  1 <1>  -0.6600 
 14 C        5.1620    -1.1500    -0.8290 C.3   1 <1>   0.1200 
 15 C        5.3540    -1.7700     0.5620 C.3   1 <1>   0.1200 
 16 C       -0.7230    -6.8780    -0.2150 C.3   1 <1>   0.3200 
 17 C       -1.2280    -4.6280    -1.2730 C.3   1 <1>   0.1400 
 18 C       -2.0880    -7.4250     0.1450 C.2   1 <1>  -0.3320 
 19 C       -2.7580    -4.6130    -1.4380 C.3   1 <1>   0.1200 
 20 N       -2.9460    -8.0120    -0.7110 N.pl3 1 <1>   0.0330 
 21 C       -2.6950    -7.4280     1.3510 C.2   1 <1>   0.0770 
 22 O       -3.3940    -4.4930    -0.2130 O.3   1 <1>  -0.6800 
 23 C       -4.0310    -8.3180     0.0310 C.2   1 <1>   0.0060 
 24 N       -3.9190    -7.9820     1.2730 N.2   1 <1>  -0.5650 
 25 C       -5.2580    -8.9900    -0.5460 C.3   1 <1>  -0.0600 
 26 H        1.4010     0.0420    -1.3380 H     1 <1>   0.1500 
 27 H        2.1410    -3.7580     1.7150 H     1 <1>   0.1500 
 28 H       -1.4590    -2.9780     0.9880 H     1 <1>   0.0800 
 29 H       -0.5060    -3.1400     2.4110 H     1 <1>   0.0800 
 30 H        5.9090    -0.4030    -1.0210 H     1 <1>   0.0800 
 31 H        5.2190    -1.9110    -1.5870 H     1 <1>   0.0800 
 32 H        6.2750    -2.3210     0.6120 H     1 <1>   0.0800 
 33 H        5.3610    -1.0020     1.3160 H     1 <1>   0.0800 
 34 H        0.0160    -7.2950     0.4490 H     1 <1>   0.0800 
 35 H       -0.4510    -7.1490    -1.2200 H     1 <1>   0.0800 
 36 H       -0.7810    -5.0400    -2.1610 H     1 <1>   0.0800 
 37 H       -0.8870    -3.6130    -1.2130 H     1 <1>   0.0800 
 38 H       -3.0990    -5.5210    -1.9000 H     1 <1>   0.0800 
 39 H       -3.0570    -3.7820    -2.0520 H     1 <1>   0.0800 
 40 H       -2.8210    -8.1980    -1.7090 H     1 <1>   0.2700 
 41 H       -2.3070    -7.0480     2.2840 H     1 <1>   0.1500 
 42 H       -3.1920    -5.2860     0.3370 H     1 <1>   0.4000 
 43 H       -4.9960    -9.9460    -0.9620 H     1 <1>   0.0800 
 44 H       -5.6940    -8.3720    -1.3080 H     1 <1>   0.0800 
 45 H       -5.9860    -9.1420     0.2320 H     1 <1>   0.0800 
@<TRIPOS>BOND
  1   1   2  1   
  2   2   3  ar  
  3   2   4  ar  
  4   3   5  ar  
  5   3   6  1   
  6   4   7  ar  
  7   4  26  1   
  8   5   8  ar  
  9   5  27  1   
 10   6   9  1   
 11   6  28  1   
 12   6  29  1   
 13   7   8  ar  
 14   7  10  1   
 15   8  11  1   
 16   9  12  2   
 17   9  13  am  
 18  10  14  1   
 19  11  15  1   
 20  13  16  1   
 21  13  17  1   
 22  14  15  1   
 23  14  30  1   
 24  14  31  1   
 25  15  32  1   
 26  15  33  1   
 27  16  18  1   
 28  16  34  1   
 29  16  35  1   
 30  17  19  1   
 31  17  36  1   
 32  17  37  1   
 33  18  20  1   
 34  18  21  2   
 35  19  22  1   
 36  19  38  1   
 37  19  39  1   
 38  20  23  1   
 39  20  40  1   
 40  21  24  1   
 41  21  41  1   
 42  22  42  1   
 43  23  24  2   
 44  23  25  1   
 45  25  43  1   
 46  25  44  1   
 47  25  45  1   
@<TRIPOS>SUBSTRUCTURE
  1 ****   9 GROUP 4 **** **** 0

# MOE 2024.06 (io_trps.svl 2023.06)
