@<TRIPOS>MOLECULE
NONAME
43 44 1 0 0 
SMALL
USER_CHARGES


@<TRIPOS>ATOM
  1 O       -2.0720    -0.1240     1.4610 O.2   1 <1>  -0.5700 
  2 C       -2.7290     0.7690     0.9740 C.2   1 <1>   0.5690 
  3 N       -4.1030     0.7270     1.0250 N.am  1 <1>  -0.6600 
  4 C       -1.9400     1.9020     0.3050 C.3   1 <1>  -0.0190 
  5 C       -4.7760    -0.3750     1.7770 C.3   1 <1>   0.3200 
  6 C       -5.0620     1.5610     0.2440 C.3   1 <1>   0.0600 
  7 C       -2.2670     3.3050     0.8640 C.3   1 <1>  -0.1600 
  8 C       -1.9800     1.8320    -1.2420 C.3   1 <1>  -0.1600 
  9 C       -4.8930    -1.6100     0.9020 C.2   1 <1>   0.0060 
 10 C       -1.3300     4.3920     0.2990 C.3   1 <1>   0.2000 
 11 C       -1.7950     3.2010    -1.9200 C.3   1 <1>  -0.1600 
 12 N       -3.7920    -2.2530     0.4640 N.pl3 1 <1>   0.0330 
 13 N       -6.0020    -2.1480     0.5030 N.2   1 <1>  -0.5650 
 14 O       -2.0430     5.6050     0.2750 O.3   1 <1>  -0.5600 
 15 C       -0.8150     4.0710    -1.1310 C.3   1 <1>   0.2000 
 16 C       -4.2480    -3.2820    -0.2730 C.2   1 <1>  -0.3320 
 17 C       -5.5970    -3.2000    -0.2360 C.2   1 <1>   0.0770 
 18 C       -2.0740     6.2980     1.4850 C.3   1 <1>   0.0400 
 19 O       -0.6360     5.2480    -1.8270 O.3   1 <1>  -0.6800 
 20 C       -3.3420    -4.2800    -0.9680 C.3   1 <1>  -0.0600 
 21 H       -0.9120     1.7290     0.5780 H     1 <1>   0.0800 
 22 H       -4.2110    -0.6160     2.6610 H     1 <1>   0.0800 
 23 H       -5.7570    -0.0630     2.0880 H     1 <1>   0.0800 
 24 H       -5.7310     0.9200    -0.3050 H     1 <1>   0.0800 
 25 H       -4.5630     2.2000    -0.4580 H     1 <1>   0.0800 
 26 H       -5.6400     2.1710     0.9160 H     1 <1>   0.0800 
 27 H       -2.1790     3.2850     1.9360 H     1 <1>   0.0800 
 28 H       -3.2790     3.5650     0.6190 H     1 <1>   0.0800 
 29 H       -1.1910     1.1730    -1.5640 H     1 <1>   0.0800 
 30 H       -2.8990     1.3940    -1.5880 H     1 <1>   0.0800 
 31 H       -0.4690     4.5060     0.9360 H     1 <1>   0.0800 
 32 H       -2.7450     3.7060    -1.9690 H     1 <1>   0.0800 
 33 H       -1.4340     3.0600    -2.9240 H     1 <1>   0.0800 
 34 H       -2.8260    -1.9600     0.6660 H     1 <1>   0.2700 
 35 H        0.1380     3.5720    -1.0800 H     1 <1>   0.0800 
 36 H       -6.3110    -3.8530    -0.7100 H     1 <1>   0.1500 
 37 H       -2.6400     7.2000     1.3380 H     1 <1>   0.0800 
 38 H       -1.0680     6.5470     1.7770 H     1 <1>   0.0800 
 39 H       -2.5490     5.6920     2.2360 H     1 <1>   0.0800 
 40 H       -1.2600     5.8940    -1.4230 H     1 <1>   0.4000 
 41 H       -3.9310    -5.0100    -1.4960 H     1 <1>   0.0800 
 42 H       -2.7290    -4.7900    -0.2460 H     1 <1>   0.0800 
 43 H       -2.7070    -3.7750    -1.6740 H     1 <1>   0.0800 
@<TRIPOS>BOND
  1   1   2  2   
  2   2   3  am  
  3   2   4  1   
  4   3   5  1   
  5   3   6  1   
  6   4   7  1   
  7   4   8  1   
  8   4  21  1   
  9   5   9  1   
 10   5  22  1   
 11   5  23  1   
 12   6  24  1   
 13   6  25  1   
 14   6  26  1   
 15   7  10  1   
 16   7  27  1   
 17   7  28  1   
 18   8  11  1   
 19   8  29  1   
 20   8  30  1   
 21   9  12  1   
 22   9  13  2   
 23  10  14  1   
 24  10  15  1   
 25  10  31  1   
 26  11  15  1   
 27  11  32  1   
 28  11  33  1   
 29  12  16  1   
 30  12  34  1   
 31  13  17  1   
 32  14  18  1   
 33  15  19  1   
 34  15  35  1   
 35  16  17  2   
 36  16  20  1   
 37  17  36  1   
 38  18  37  1   
 39  18  38  1   
 40  18  39  1   
 41  19  40  1   
 42  20  41  1   
 43  20  42  1   
 44  20  43  1   
@<TRIPOS>SUBSTRUCTURE
  1 ****   2 GROUP 4 **** **** 0

# MOE 2024.06 (io_trps.svl 2023.06)
