@<TRIPOS>MOLECULE
NONAME
48 50 1 0 0 
SMALL
USER_CHARGES


@<TRIPOS>ATOM
  1 O        1.8030    -0.5560     1.8850 O.2   1 <1>  -0.5700 
  2 C        1.7300    -0.9650     0.7510 C.2   1 <1>   0.5690 
  3 N        1.5870    -0.1130    -0.3020 N.am  1 <1>  -0.7300 
  4 C        1.8540    -2.4740     0.4940 C.3   1 <1>   0.1710 
  5 C        1.4030     1.3600    -0.1770 C.3   1 <1>   0.1400 
  6 N        0.5710    -3.2000     0.2540 N.3   1 <1>  -0.8100 
  7 C        2.6740     2.0650     0.3180 C.3   1 <1>   0.2000 
  8 C        0.7600    -4.6530     0.3690 C.3   1 <1>   0.2900 
  9 C       -0.0540    -2.8370    -1.0310 C.3   1 <1>   0.0300 
 10 O        2.5150     3.4380     0.1840 O.3   1 <1>  -0.5600 
 11 C        3.9370     1.7650    -0.4810 C.3   1 <1>  -0.1600 
 12 C       -0.5910    -5.3100     0.5350 C.2   1 <1>  -0.3320 
 13 C        3.7590     4.0590     0.2180 C.3   1 <1>   0.1200 
 14 C        4.7550     3.0390    -0.3290 C.3   1 <1>  -0.1600 
 15 N       -1.5510    -4.7660     1.3010 N.pl3 1 <1>   0.3000 
 16 C       -1.1070    -6.4460     0.0250 C.2   1 <1>  -0.1500 
 17 N       -2.6700    -5.5100     1.3080 N.2   1 <1>  -0.7070 
 18 C       -2.4080    -6.5390     0.5370 C.2   1 <1>   0.2350 
 19 C       -3.3490    -7.6090     0.2590 C.ar  1 <1>   0.0540 
 20 C       -2.9300    -8.8730    -0.1600 C.ar  1 <1>  -0.1500 
 21 C       -4.7220    -7.4090     0.4040 C.ar  1 <1>  -0.1500 
 22 C       -3.8370    -9.8820    -0.4310 C.ar  1 <1>  -0.1500 
 23 C       -5.6350    -8.4120     0.1360 C.ar  1 <1>  -0.1500 
 24 C       -5.1930    -9.6530    -0.2850 C.ar  1 <1>  -0.1500 
 25 H        1.5090    -0.4900    -1.2460 H     1 <1>   0.3700 
 26 H        2.3270    -2.8880     1.3670 H     1 <1>   0.0800 
 27 H        2.5180    -2.6300    -0.3370 H     1 <1>   0.0800 
 28 H        0.6060     1.5560     0.5200 H     1 <1>   0.0800 
 29 H        1.1280     1.7610    -1.1360 H     1 <1>   0.0800 
 30 H        2.8290     1.8580     1.3640 H     1 <1>   0.0800 
 31 H        1.3500    -4.8740     1.2430 H     1 <1>   0.0800 
 32 H        1.2690    -5.0410    -0.4970 H     1 <1>   0.0800 
 33 H       -0.3170    -1.7940    -1.0320 H     1 <1>   0.0800 
 34 H       -0.9620    -3.3980    -1.1790 H     1 <1>   0.0800 
 35 H        0.6140    -3.0410    -1.8500 H     1 <1>   0.0800 
 36 H        3.6860     1.6070    -1.5150 H     1 <1>   0.0800 
 37 H        4.4460     0.8980    -0.0990 H     1 <1>   0.0800 
 38 H        3.9790     4.3090     1.2420 H     1 <1>   0.0800 
 39 H        3.7140     4.9520    -0.3810 H     1 <1>   0.0800 
 40 H        5.1580     3.3620    -1.2730 H     1 <1>   0.0800 
 41 H        5.5610     2.9060     0.3710 H     1 <1>   0.0800 
 42 H       -1.4560    -3.8660     1.7910 H     1 <1>   0.2700 
 43 H       -0.6440    -7.1490    -0.6410 H     1 <1>   0.1500 
 44 H       -1.8810    -9.0750    -0.2700 H     1 <1>   0.1500 
 45 H       -5.0710    -6.4450     0.7340 H     1 <1>   0.1500 
 46 H       -3.4880   -10.8470    -0.7540 H     1 <1>   0.1500 
 47 H       -6.6870    -8.2260     0.2560 H     1 <1>   0.1500 
 48 H       -5.9010   -10.4370    -0.4950 H     1 <1>   0.1500 
@<TRIPOS>BOND
  1   1   2  2   
  2   2   3  am  
  3   2   4  1   
  4   3   5  1   
  5   3  25  1   
  6   4   6  1   
  7   4  26  1   
  8   4  27  1   
  9   5   7  1   
 10   5  28  1   
 11   5  29  1   
 12   6   8  1   
 13   6   9  1   
 14   7  10  1   
 15   7  11  1   
 16   7  30  1   
 17   8  12  1   
 18   8  31  1   
 19   8  32  1   
 20   9  33  1   
 21   9  34  1   
 22   9  35  1   
 23  10  13  1   
 24  11  14  1   
 25  11  36  1   
 26  11  37  1   
 27  12  15  1   
 28  12  16  2   
 29  13  14  1   
 30  13  38  1   
 31  13  39  1   
 32  14  40  1   
 33  14  41  1   
 34  15  17  1   
 35  15  42  1   
 36  16  18  1   
 37  16  43  1   
 38  17  18  2   
 39  18  19  1   
 40  19  20  ar  
 41  19  21  ar  
 42  20  22  ar  
 43  20  44  1   
 44  21  23  ar  
 45  21  45  1   
 46  22  24  ar  
 47  22  46  1   
 48  23  24  ar  
 49  23  47  1   
 50  24  48  1   
@<TRIPOS>SUBSTRUCTURE
  1 ****   6 GROUP 4 **** **** 0

# MOE 2024.06 (io_trps.svl 2023.06)
