@<TRIPOS>MOLECULE
NONAME
34 35 1 0 0 
SMALL
USER_CHARGES


@<TRIPOS>ATOM
  1 CL       1.2170    -0.4860    -0.6190 Cl    1 <1>  -0.1770 
  2 C        2.4590     0.7390    -0.5040 C.ar  1 <1>   0.1770 
  3 C        2.1430     2.0710    -0.7280 C.ar  1 <1>   0.1600 
  4 C        3.7480     0.3680    -0.1890 C.ar  1 <1>  -0.1500 
  5 N        3.0120     3.0750    -0.6630 N.ar  1 <1>  -0.6200 
  6 C        4.6450     1.4060    -0.1250 C.ar  1 <1>   0.1900 
  7 C        4.2660     2.7380    -0.3650 C.ar  1 <1>   0.4100 
  8 F        5.8920     1.1290     0.1760 F     1 <1>  -0.1900 
  9 N        5.1830     3.7680    -0.3080 N.pl3 1 <1>  -0.8690 
 10 C        4.7500     5.1480    -0.0050 C.3   1 <1>   0.3890 
 11 C        5.9380     5.9450     0.4910 C.2   1 <1>  -0.0400 
 12 O        6.4860     5.6460     1.6390 O.3   1 <1>  -0.0190 
 13 C        6.6140     6.9790    -0.0330 C.2   1 <1>  -0.1500 
 14 N        7.4920     6.4250     1.9120 N.2   1 <1>  -0.4100 
 15 C        7.5960     7.2380     0.9210 C.2   1 <1>   0.1080 
 16 C        8.6470     8.3300     0.8170 C.3   1 <1>   0.0210 
 17 C        9.6460     8.0880    -0.3320 C.3   1 <1>  -0.0800 
 18 C       10.4420     6.7910    -0.1260 C.3   1 <1>  -0.2400 
 19 C       10.6130     9.2720    -0.4570 C.3   1 <1>  -0.2400 
 20 H        1.1240     2.3170    -0.9710 H     1 <1>   0.1500 
 21 H        4.0270    -0.6540    -0.0080 H     1 <1>   0.1500 
 22 H        6.0670     3.5350     0.1560 H     1 <1>   0.4000 
 23 H        3.9810     5.1380     0.7490 H     1 <1>   0.0800 
 24 H        4.3510     5.5960    -0.8990 H     1 <1>   0.0800 
 25 H        6.4670     7.5020    -0.9590 H     1 <1>   0.1500 
 26 H        9.1780     8.3920     1.7500 H     1 <1>   0.0800 
 27 H        8.1430     9.2670     0.6660 H     1 <1>   0.0800 
 28 H        9.0950     8.0050    -1.2540 H     1 <1>   0.0800 
 29 H       10.9920     6.8260     0.7980 H     1 <1>   0.0800 
 30 H       11.1360     6.6450    -0.9350 H     1 <1>   0.0800 
 31 H        9.7820     5.9410    -0.0960 H     1 <1>   0.0800 
 32 H       11.1910     9.3870     0.4440 H     1 <1>   0.0800 
 33 H       10.0720    10.1830    -0.6380 H     1 <1>   0.0800 
 34 H       11.2900     9.1150    -1.2790 H     1 <1>   0.0800 
@<TRIPOS>BOND
  1   1   2  1   
  2   2   3  ar  
  3   2   4  ar  
  4   3   5  ar  
  5   3  20  1   
  6   4   6  ar  
  7   4  21  1   
  8   5   7  ar  
  9   6   7  ar  
 10   6   8  1   
 11   7   9  1   
 12   9  10  1   
 13   9  22  1   
 14  10  11  1   
 15  10  23  1   
 16  10  24  1   
 17  11  12  1   
 18  11  13  2   
 19  12  14  1   
 20  13  15  1   
 21  13  25  1   
 22  14  15  2   
 23  15  16  1   
 24  16  17  1   
 25  16  26  1   
 26  16  27  1   
 27  17  18  1   
 28  17  19  1   
 29  17  28  1   
 30  18  29  1   
 31  18  30  1   
 32  18  31  1   
 33  19  32  1   
 34  19  33  1   
 35  19  34  1   
@<TRIPOS>SUBSTRUCTURE
  1 ****   9 GROUP 4 **** **** 0

# MOE 2024.06 (io_trps.svl 2023.06)
