@<TRIPOS>MOLECULE
NONAME
54 58 1 0 0 
SMALL
USER_CHARGES


@<TRIPOS>ATOM
  1 N       -0.5760     2.1550     0.4530 N.2   1 <1>  -0.5650 
  2 C        0.2370     2.0320    -0.5460 C.2   1 <1>   0.0060 
  3 C       -1.6470     1.4210     0.0950 C.2   1 <1>   0.0770 
  4 N       -0.2480     1.2530    -1.5380 N.pl3 1 <1>   0.0330 
  5 C        1.6090     2.6830    -0.6120 C.3   1 <1>   0.0200 
  6 C       -1.4640     0.8620    -1.1200 C.2   1 <1>  -0.3020 
  7 C        1.6550     3.9540     0.2460 C.3   1 <1>   0.1100 
  8 N        2.9680     4.6310     0.1680 N.3   1 <1>  -0.8100 
  9 C        2.8380     6.0360     0.6190 C.3   1 <1>   0.1100 
 10 C        3.9900     3.9380     0.9920 C.3   1 <1>   0.1100 
 11 C        4.1770     6.8070     0.5360 C.3   1 <1>   0.3430 
 12 C        5.3320     4.7080     1.0540 C.3   1 <1>   0.3430 
 13 N        5.3180     5.9060     0.1450 N.4   1 <1>  -0.9590 
 14 C        6.6330     6.5790    -0.0760 C.3   1 <1>   0.5030 
 15 C        6.4720     7.7160    -1.1120 C.3   1 <1>  -0.1600 
 16 C        7.6520     5.5580    -0.6350 C.3   1 <1>  -0.1600 
 17 C        7.1860     7.1730     1.2380 C.3   1 <1>  -0.1600 
 18 C        7.8240     8.4040    -1.3780 C.3   1 <1>  -0.0800 
 19 C        9.0100     6.2350    -0.8970 C.3   1 <1>  -0.0800 
 20 C        8.5440     7.8580     0.9810 C.3   1 <1>  -0.0800 
 21 C        8.8230     7.3680    -1.9200 C.3   1 <1>  -0.1600 
 22 C        8.3600     8.9830    -0.0550 C.3   1 <1>  -0.1600 
 23 C        9.5400     6.8240     0.4230 C.3   1 <1>  -0.1600 
 24 H       -2.5060     1.3330     0.7400 H     1 <1>   0.1500 
 25 H        0.2130     1.0100    -2.4200 H     1 <1>   0.2700 
 26 H        1.8330     2.9430    -1.6310 H     1 <1>   0.0800 
 27 H        2.3320     1.9710    -0.2630 H     1 <1>   0.0800 
 28 H       -2.1160     0.2260    -1.6910 H     1 <1>   0.1500 
 29 H        1.4160     3.7140     1.2690 H     1 <1>   0.0800 
 30 H        0.8850     4.6140    -0.1190 H     1 <1>   0.0800 
 31 H        2.4770     6.0610     1.6340 H     1 <1>   0.0800 
 32 H        2.1110     6.5440     0.0080 H     1 <1>   0.0800 
 33 H        4.1800     2.9610     0.5820 H     1 <1>   0.0800 
 34 H        3.6230     3.7980     1.9960 H     1 <1>   0.0800 
 35 H        4.3770     7.2700     1.4880 H     1 <1>   0.0800 
 36 H        4.0620     7.5920    -0.1910 H     1 <1>   0.0800 
 37 H        6.1200     4.0300     0.7770 H     1 <1>   0.0800 
 38 H        5.5130     5.0220     2.0690 H     1 <1>   0.0800 
 39 H        5.0120     5.5170    -0.7570 H     1 <1>   0.4500 
 40 H        5.7950     8.4700    -0.7590 H     1 <1>   0.0800 
 41 H        6.0910     7.3220    -2.0380 H     1 <1>   0.0800 
 42 H        7.2860     5.1370    -1.5550 H     1 <1>   0.0800 
 43 H        7.8230     4.7590     0.0610 H     1 <1>   0.0800 
 44 H        7.3280     6.4000     1.9720 H     1 <1>   0.0800 
 45 H        6.5060     7.9010     1.6390 H     1 <1>   0.0800 
 46 H        7.6990     9.1970    -2.0970 H     1 <1>   0.0800 
 47 H        9.7130     5.5140    -1.2810 H     1 <1>   0.0800 
 48 H        8.9270     8.2710     1.9000 H     1 <1>   0.0800 
 49 H        9.7700     7.8440    -2.1120 H     1 <1>   0.0800 
 50 H        8.4700     6.9680    -2.8550 H     1 <1>   0.0800 
 51 H        7.6820     9.7280     0.3250 H     1 <1>   0.0800 
 52 H        9.3040     9.4710    -0.2300 H     1 <1>   0.0800 
 53 H       10.4930     7.2960     0.2510 H     1 <1>   0.0800 
 54 H        9.6990     6.0380     1.1420 H     1 <1>   0.0800 
@<TRIPOS>BOND
  1   1   2  2   
  2   1   3  1   
  3   2   4  1   
  4   2   5  1   
  5   3   6  2   
  6   3  24  1   
  7   4   6  1   
  8   4  25  1   
  9   5   7  1   
 10   5  26  1   
 11   5  27  1   
 12   6  28  1   
 13   7   8  1   
 14   7  29  1   
 15   7  30  1   
 16   8   9  1   
 17   8  10  1   
 18   9  11  1   
 19   9  31  1   
 20   9  32  1   
 21  10  12  1   
 22  10  33  1   
 23  10  34  1   
 24  11  13  1   
 25  11  35  1   
 26  11  36  1   
 27  12  13  1   
 28  12  37  1   
 29  12  38  1   
 30  13  14  1   
 31  13  39  1   
 32  14  15  1   
 33  14  16  1   
 34  14  17  1   
 35  15  18  1   
 36  15  40  1   
 37  15  41  1   
 38  16  19  1   
 39  16  42  1   
 40  16  43  1   
 41  17  20  1   
 42  17  44  1   
 43  17  45  1   
 44  18  21  1   
 45  18  22  1   
 46  18  46  1   
 47  19  21  1   
 48  19  23  1   
 49  19  47  1   
 50  20  22  1   
 51  20  23  1   
 52  20  48  1   
 53  21  49  1   
 54  21  50  1   
 55  22  51  1   
 56  22  52  1   
 57  23  53  1   
 58  23  54  1   
@<TRIPOS>SUBSTRUCTURE
  1 ****  13 GROUP 4 **** **** 0

# MOE 2024.06 (io_trps.svl 2023.06)
