@<TRIPOS>MOLECULE
NONAME
44 46 1 0 0 
SMALL
USER_CHARGES


@<TRIPOS>ATOM
  1 S        2.1230    -1.1750     1.3000 S.3   1 <1>  -0.0800 
  2 C        0.5460    -1.4880     0.6190 C.2   1 <1>   0.1980 
  3 C        1.8730     0.5260     1.0310 C.2   1 <1>  -0.1400 
  4 N       -0.0830    -0.4460     0.2390 N.2   1 <1>  -0.5650 
  5 C        0.0930    -2.9390     0.5500 C.3   1 <1>   0.5230 
  6 C        0.6630     0.6990     0.4700 C.2   1 <1>   0.0460 
  7 C        2.9970     1.4530     1.4540 C.3   1 <1>  -0.0600 
  8 N       -1.1880    -3.0400    -0.2290 N.4   1 <1>  -0.9590 
  9 C        0.0200     2.0090     0.0640 C.3   1 <1>  -0.0590 
 10 C       -0.9630    -2.8190    -1.6960 C.3   1 <1>   0.3430 
 11 C       -1.8250    -4.3760    -0.0630 C.3   1 <1>   0.3430 
 12 C       -1.5630    -4.0400    -2.4110 C.3   1 <1>   0.2000 
 13 C       -1.5310    -5.1430    -1.3560 C.3   1 <1>  -0.0800 
 14 O       -2.8860    -3.7860    -2.7540 O.3   1 <1>  -0.6800 
 15 C       -0.1540    -5.8460    -1.3480 C.3   1 <1>   0.0210 
 16 C        0.1580    -6.5160    -0.0240 C.2   1 <1>   0.1080 
 17 N        0.6360    -5.8650     0.9940 N.2   1 <1>  -0.7070 
 18 C       -0.0190    -7.8670     0.2450 C.2   1 <1>  -0.1500 
 19 N        0.8000    -6.8120     1.9480 N.pl3 1 <1>   0.3000 
 20 C        0.4000    -8.0250     1.5170 C.2   1 <1>  -0.3320 
 21 C        0.4530    -9.2890     2.3580 C.3   1 <1>  -0.0600 
 22 H       -0.0560    -3.3020     1.5530 H     1 <1>   0.0800 
 23 H        0.8610    -3.5390     0.0910 H     1 <1>   0.0800 
 24 H        2.7470     2.4770     1.2500 H     1 <1>   0.0800 
 25 H        3.8970     1.2050     0.9210 H     1 <1>   0.0800 
 26 H        3.1800     1.3490     2.5090 H     1 <1>   0.0800 
 27 H       -1.7770    -2.2740     0.1310 H     1 <1>   0.4500 
 28 H        0.6640     2.8390     0.2800 H     1 <1>   0.0800 
 29 H       -0.9030     2.1400     0.5990 H     1 <1>   0.0800 
 30 H       -0.1890     1.9990    -0.9900 H     1 <1>   0.0800 
 31 H       -1.4220    -1.9050    -2.0380 H     1 <1>   0.0800 
 32 H        0.0940    -2.7720    -1.8980 H     1 <1>   0.0800 
 33 H       -1.4720    -4.8910     0.8150 H     1 <1>   0.0800 
 34 H       -2.8920    -4.2500     0.0280 H     1 <1>   0.0800 
 35 H       -1.0330    -4.2920    -3.3140 H     1 <1>   0.0800 
 36 H       -2.2910    -5.8860    -1.5300 H     1 <1>   0.0800 
 37 H       -3.4300    -3.4840    -2.0020 H     1 <1>   0.4000 
 38 H        0.6380    -5.1470    -1.5460 H     1 <1>   0.0800 
 39 H       -0.1260    -6.5830    -2.1310 H     1 <1>   0.0800 
 40 H       -0.4020    -8.6120    -0.4320 H     1 <1>   0.1500 
 41 H        1.1940    -6.6100     2.8770 H     1 <1>   0.2700 
 42 H        0.0840   -10.1260     1.7920 H     1 <1>   0.0800 
 43 H       -0.1540    -9.1790     3.2390 H     1 <1>   0.0800 
 44 H        1.4660    -9.4990     2.6540 H     1 <1>   0.0800 
@<TRIPOS>BOND
  1   1   2  1   
  2   1   3  1   
  3   2   4  2   
  4   2   5  1   
  5   3   6  2   
  6   3   7  1   
  7   4   6  1   
  8   5   8  1   
  9   5  22  1   
 10   5  23  1   
 11   6   9  1   
 12   7  24  1   
 13   7  25  1   
 14   7  26  1   
 15   8  10  1   
 16   8  11  1   
 17   8  27  1   
 18   9  28  1   
 19   9  29  1   
 20   9  30  1   
 21  10  12  1   
 22  10  31  1   
 23  10  32  1   
 24  11  13  1   
 25  11  33  1   
 26  11  34  1   
 27  12  13  1   
 28  12  14  1   
 29  12  35  1   
 30  13  15  1   
 31  13  36  1   
 32  14  37  1   
 33  15  16  1   
 34  15  38  1   
 35  15  39  1   
 36  16  17  2   
 37  16  18  1   
 38  17  19  1   
 39  18  20  2   
 40  18  40  1   
 41  19  20  1   
 42  19  41  1   
 43  20  21  1   
 44  21  42  1   
 45  21  43  1   
 46  21  44  1   
@<TRIPOS>SUBSTRUCTURE
  1 ****   5 GROUP 4 **** **** 0

# MOE 2024.06 (io_trps.svl 2023.06)
