@<TRIPOS>MOLECULE
NONAME
52 55 1 0 0 
SMALL
USER_CHARGES


@<TRIPOS>ATOM
  1 O       -2.7070     2.1840    -0.5460 O.3   1 <1>  -0.5320 
  2 C       -3.5480     1.6170     0.3290 C.ar  1 <1>   0.0830 
  3 C       -4.1710     0.4340    -0.0220 C.ar  1 <1>  -0.1500 
  4 C       -3.7910     2.2070     1.5570 C.ar  1 <1>  -0.1500 
  5 C       -5.0630    -0.1660     0.8540 C.ar  1 <1>  -0.1430 
  6 C       -4.6710     1.6040     2.4380 C.ar  1 <1>  -0.1500 
  7 C       -5.3060     0.4230     2.0890 C.ar  1 <1>  -0.1500 
  8 C       -5.7820    -1.4370     0.4510 C.3   1 <1>   0.4860 
  9 N       -6.7220    -1.0960    -0.6480 N.4   1 <1>  -0.9590 
 10 C       -7.7790    -0.1360    -0.1730 C.3   1 <1>   0.3430 
 11 C       -7.3250    -2.3040    -1.2750 C.3   1 <1>   0.3430 
 12 C       -8.6700     0.3470    -1.3280 C.3   1 <1>   0.1440 
 13 C       -8.1840    -1.8870    -2.4730 C.3   1 <1>  -0.1600 
 14 C       -9.7700     1.1940    -0.7390 C.ar  1 <1>   0.1670 
 15 C       -9.2640    -0.8590    -2.0870 C.3   1 <1>  -0.1600 
 16 C       -7.9470     1.3430    -2.2750 C.3   1 <1>  -0.1600 
 17 N      -10.4870     0.8490     0.2980 N.ar  1 <1>  -0.6200 
 18 C       -9.9120     2.3750    -1.3980 C.ar  1 <1>  -0.1430 
 19 C       -8.9350     2.4970    -2.5410 C.3   1 <1>  -0.0170 
 20 C      -11.3970     1.7530     0.6750 C.ar  1 <1>   0.7200 
 21 C      -10.8730     3.2410    -0.9400 C.ar  1 <1>   0.1600 
 22 N      -11.6180     2.9380     0.0970 N.ar  1 <1>  -0.6200 
 23 N      -12.1740     1.4330     1.7680 N.pl3 1 <1>  -0.8380 
 24 C      -12.4600     0.0250     2.1590 C.3   1 <1>   0.1290 
 25 C      -12.9650     2.4670     2.4910 C.3   1 <1>   0.1290 
 26 H       -2.2690     2.9840    -0.2010 H     1 <1>   0.4500 
 27 H       -3.9390     0.0060    -0.9810 H     1 <1>   0.1500 
 28 H       -3.3030     3.1250     1.8310 H     1 <1>   0.1500 
 29 H       -4.8620     2.0560     3.3970 H     1 <1>   0.1500 
 30 H       -5.9880    -0.0240     2.7930 H     1 <1>   0.1500 
 31 H       -6.3180    -1.8450     1.2930 H     1 <1>   0.0800 
 32 H       -5.0590    -2.1630     0.1150 H     1 <1>   0.0800 
 33 H       -6.1670    -0.5990    -1.3560 H     1 <1>   0.4500 
 34 H       -7.3260     0.7230     0.2940 H     1 <1>   0.0800 
 35 H       -8.4030    -0.6180     0.5610 H     1 <1>   0.0800 
 36 H       -7.9420    -2.8180    -0.5550 H     1 <1>   0.0800 
 37 H       -6.5510    -2.9790    -1.6050 H     1 <1>   0.0800 
 38 H       -8.6630    -2.7620    -2.8780 H     1 <1>   0.0800 
 39 H       -7.5490    -1.4900    -3.2460 H     1 <1>   0.0800 
 40 H       -9.7890    -0.5210    -2.9650 H     1 <1>   0.0800 
 41 H       -9.9890    -1.3420    -1.4520 H     1 <1>   0.0800 
 42 H       -7.6270     0.8920    -3.1980 H     1 <1>   0.0800 
 43 H       -7.0850     1.7560    -1.7790 H     1 <1>   0.0800 
 44 H       -9.4530     2.3530    -3.4740 H     1 <1>   0.0800 
 45 H       -8.4410     3.4540    -2.5420 H     1 <1>   0.0800 
 46 H      -11.0320     4.1890    -1.4240 H     1 <1>   0.1500 
 47 H      -12.2080    -0.6530     1.3630 H     1 <1>   0.0800 
 48 H      -13.5080    -0.0890     2.3780 H     1 <1>   0.0800 
 49 H      -11.8870    -0.2290     3.0330 H     1 <1>   0.0800 
 50 H      -12.4610     3.4180     2.4560 H     1 <1>   0.0800 
 51 H      -13.0860     2.1860     3.5230 H     1 <1>   0.0800 
 52 H      -13.9330     2.5680     2.0320 H     1 <1>   0.0800 
@<TRIPOS>BOND
  1   1   2  1   
  2   1  26  1   
  3   2   3  ar  
  4   2   4  ar  
  5   3   5  ar  
  6   3  27  1   
  7   4   6  ar  
  8   4  28  1   
  9   5   7  ar  
 10   5   8  1   
 11   6   7  ar  
 12   6  29  1   
 13   7  30  1   
 14   8   9  1   
 15   8  31  1   
 16   8  32  1   
 17   9  10  1   
 18   9  11  1   
 19   9  33  1   
 20  10  12  1   
 21  10  34  1   
 22  10  35  1   
 23  11  13  1   
 24  11  36  1   
 25  11  37  1   
 26  12  14  1   
 27  12  15  1   
 28  12  16  1   
 29  13  15  1   
 30  13  38  1   
 31  13  39  1   
 32  14  17  ar  
 33  14  18  ar  
 34  15  40  1   
 35  15  41  1   
 36  16  19  1   
 37  16  42  1   
 38  16  43  1   
 39  17  20  ar  
 40  18  19  1   
 41  18  21  ar  
 42  19  44  1   
 43  19  45  1   
 44  20  22  ar  
 45  20  23  1   
 46  21  22  ar  
 47  21  46  1   
 48  23  24  1   
 49  23  25  1   
 50  24  47  1   
 51  24  48  1   
 52  24  49  1   
 53  25  50  1   
 54  25  51  1   
 55  25  52  1   
@<TRIPOS>SUBSTRUCTURE
  1 ****  10 GROUP 4 **** **** 0

# MOE 2024.06 (io_trps.svl 2023.06)
