@<TRIPOS>MOLECULE
NONAME
51 55 1 0 0 
SMALL
USER_CHARGES


@<TRIPOS>ATOM
  1 O       -3.1580     2.0820     4.1310 O.2   1 <1>  -0.5700 
  2 C       -3.1570     2.5220     3.0080 C.2   1 <1>   0.5690 
  3 N       -4.2130     2.2740     2.1580 N.am  1 <1>  -0.6600 
  4 C       -1.9250     3.2960     2.5680 C.3   1 <1>   0.1570 
  5 C       -5.2340     1.2310     2.4980 C.3   1 <1>   0.1400 
  6 C       -4.3360     2.7600     0.7510 C.3   1 <1>   0.1400 
  7 N       -1.2200     2.5370     1.5130 N.pl3 1 <1>   0.0480 
  8 C       -5.3910     0.1690     1.3780 C.3   1 <1>   0.4230 
  9 C       -4.1010     1.6130    -0.2590 C.3   1 <1>   0.3430 
 10 C       -1.0560     2.9070     0.1960 C.ar  1 <1>  -0.1520 
 11 C       -0.7950     1.2420     1.6340 C.2   1 <1>  -0.3020 
 12 N       -4.2860     0.2340     0.3390 N.4   1 <1>  -0.9590 
 13 C       -6.7770     0.2620     0.6970 C.3   1 <1>   0.1200 
 14 C       -0.5370     1.8200    -0.5030 C.ar  1 <1>   0.0000 
 15 C       -1.3170     4.1120    -0.4670 C.ar  1 <1>  -0.1500 
 16 C       -0.3650     0.7840     0.4360 C.2   1 <1>  -0.1500 
 17 C       -4.5190    -0.8370    -0.6800 C.3   1 <1>   0.5180 
 18 O       -6.9130    -0.7310    -0.2830 O.3   1 <1>  -0.5600 
 19 C       -0.3000     1.9210    -1.8770 C.ar  1 <1>  -0.1500 
 20 C       -1.0870     4.1960    -1.8210 C.ar  1 <1>  -0.1500 
 21 C       -3.4260    -0.8160    -1.7550 C.3   1 <1>  -0.1950 
 22 C       -5.9350    -0.7310    -1.2900 C.3   1 <1>   0.1200 
 23 C       -0.5820     3.0990    -2.5270 C.ar  1 <1>  -0.1500 
 24 C       -3.0430    -2.0880    -2.4480 C.3   1 <1>  -0.2000 
 25 C       -2.0780    -1.4210    -1.5110 C.3   1 <1>  -0.2000 
 26 H       -1.2620     3.4180     3.4040 H     1 <1>   0.0800 
 27 H       -2.2060     4.2650     2.2070 H     1 <1>   0.0800 
 28 H       -4.9560     0.7190     3.4040 H     1 <1>   0.0800 
 29 H       -6.1770     1.7120     2.6960 H     1 <1>   0.0800 
 30 H       -5.3310     3.1480     0.6100 H     1 <1>   0.0800 
 31 H       -3.6650     3.5730     0.5530 H     1 <1>   0.0800 
 32 H       -5.3580    -0.7960     1.8580 H     1 <1>   0.0800 
 33 H       -3.1000     1.6940    -0.6490 H     1 <1>   0.0800 
 34 H       -4.7730     1.7510    -1.0890 H     1 <1>   0.0800 
 35 H       -0.8130     0.7250     2.5800 H     1 <1>   0.1500 
 36 H       -3.4010     0.0260     0.8220 H     1 <1>   0.4500 
 37 H       -6.9290     1.2230     0.2380 H     1 <1>   0.0800 
 38 H       -7.5570     0.1040     1.4220 H     1 <1>   0.0800 
 39 H       -1.6820     4.9680     0.0730 H     1 <1>   0.1500 
 40 H        0.0510    -0.1810     0.2020 H     1 <1>   0.1500 
 41 H       -4.4620    -1.7930    -0.1870 H     1 <1>   0.0800 
 42 H        0.1080     1.0790    -2.4070 H     1 <1>   0.1500 
 43 H       -1.2810     5.1130    -2.3520 H     1 <1>   0.1500 
 44 H       -3.4820     0.0460    -2.3970 H     1 <1>   0.1000 
 45 H       -6.1230    -1.5800    -1.9240 H     1 <1>   0.0800 
 46 H       -6.0440     0.1620    -1.8800 H     1 <1>   0.0800 
 47 H       -0.4030     3.1940    -3.5850 H     1 <1>   0.1500 
 48 H       -3.4720    -3.0280    -2.1440 H     1 <1>   0.1000 
 49 H       -2.8230    -2.0660    -3.5030 H     1 <1>   0.1000 
 50 H       -1.2050    -0.9610    -1.9410 H     1 <1>   0.1000 
 51 H       -1.8620    -1.9140    -0.5780 H     1 <1>   0.1000 
@<TRIPOS>BOND
  1   1   2  2   
  2   2   3  am  
  3   2   4  1   
  4   3   5  1   
  5   3   6  1   
  6   4   7  1   
  7   4  26  1   
  8   4  27  1   
  9   5   8  1   
 10   5  28  1   
 11   5  29  1   
 12   6   9  1   
 13   6  30  1   
 14   6  31  1   
 15   7  10  1   
 16   7  11  1   
 17   8  12  1   
 18   8  13  1   
 19   8  32  1   
 20   9  12  1   
 21   9  33  1   
 22   9  34  1   
 23  10  14  ar  
 24  10  15  ar  
 25  11  16  2   
 26  11  35  1   
 27  12  17  1   
 28  12  36  1   
 29  13  18  1   
 30  13  37  1   
 31  13  38  1   
 32  14  16  1   
 33  14  19  ar  
 34  15  20  ar  
 35  15  39  1   
 36  16  40  1   
 37  17  21  1   
 38  17  22  1   
 39  17  41  1   
 40  18  22  1   
 41  19  23  ar  
 42  19  42  1   
 43  20  23  ar  
 44  20  43  1   
 45  21  24  1   
 46  21  25  1   
 47  21  44  1   
 48  22  45  1   
 49  22  46  1   
 50  23  47  1   
 51  24  25  1   
 52  24  48  1   
 53  24  49  1   
 54  25  50  1   
 55  25  51  1   
@<TRIPOS>SUBSTRUCTURE
  1 ****   9 GROUP 4 **** **** 0

# MOE 2024.06 (io_trps.svl 2023.06)
