@<TRIPOS>MOLECULE
NONAME
55 59 1 0 0 
SMALL
USER_CHARGES


@<TRIPOS>ATOM
  1 S       -0.3070     0.0720    -1.4260 S.o2  1 <1>   1.5010 
  2 O       -0.1960     1.1120    -2.4260 O.2   1 <1>  -0.6500 
  3 O       -0.9940    -1.1610    -1.7470 O.2   1 <1>  -0.6500 
  4 N       -1.1270     0.7510    -0.1060 N.am  1 <1>  -0.8490 
  5 C        1.3190    -0.2900    -0.7480 C.2   1 <1>  -0.0630 
  6 C       -2.4040     1.3540    -0.5330 C.3   1 <1>   0.1960 
  7 C       -1.3530    -0.2210     0.9690 C.3   1 <1>   0.1960 
  8 C        2.2690     0.4810    -0.1570 C.2   1 <1>  -0.3320 
  9 C        1.8660    -1.5650    -0.7290 C.2   1 <1>   0.1390 
 10 C       -3.0810     2.1230     0.6180 C.3   1 <1>   0.1440 
 11 C       -1.9710     0.4720     2.1890 C.3   1 <1>  -0.1600 
 12 N        3.2940    -0.3330     0.1740 N.pl3 1 <1>   0.3140 
 13 C        2.2380     1.9790     0.1060 C.3   1 <1>  -0.0600 
 14 N        3.0390    -1.6020    -0.1760 N.2   1 <1>  -0.7070 
 15 C       -4.3870     2.7010     0.1060 C.ar  1 <1>   0.1660 
 16 C       -3.2850     1.1810     1.8220 C.3   1 <1>  -0.1600 
 17 C       -2.2780     3.3970     0.9990 C.3   1 <1>  -0.1600 
 18 C        4.5560     0.0370     0.8270 C.3   1 <1>   0.0160 
 19 N       -5.4740     2.0140    -0.1470 N.ar  1 <1>  -0.6200 
 20 C       -4.2990     4.0450    -0.0860 C.ar  1 <1>  -0.1440 
 21 C       -2.9310     4.5770     0.2600 C.3   1 <1>  -0.0160 
 22 C       -6.5200     2.7200    -0.5970 C.ar  1 <1>   0.6200 
 23 C       -5.4110     4.6960    -0.5520 C.ar  1 <1>   0.1600 
 24 N       -6.5230     4.0450    -0.8070 N.ar  1 <1>  -0.6200 
 25 C       -7.7500     1.9920    -0.8800 C.ar  1 <1>   0.0000 
 26 C       -7.7350     0.6500    -1.2730 C.ar  1 <1>  -0.1500 
 27 C       -9.0040     2.6010    -0.7710 C.ar  1 <1>  -0.1500 
 28 C       -8.9010    -0.0440    -1.5410 C.ar  1 <1>  -0.1500 
 29 C      -10.1740     1.9130    -1.0370 C.ar  1 <1>  -0.1500 
 30 C      -10.1260     0.5870    -1.4230 C.ar  1 <1>  -0.1500 
 31 H       -3.0680     0.5830    -0.8900 H     1 <1>   0.0800 
 32 H       -2.2310     2.0390    -1.3470 H     1 <1>   0.0800 
 33 H       -0.4170    -0.6680     1.2620 H     1 <1>   0.0800 
 34 H       -2.0080    -1.0070     0.6250 H     1 <1>   0.0800 
 35 H        1.3720    -2.4370    -1.1270 H     1 <1>   0.1500 
 36 H       -1.2640     1.1800     2.5840 H     1 <1>   0.0800 
 37 H       -2.1610    -0.2610     2.9530 H     1 <1>   0.0800 
 38 H        1.3190     2.4070    -0.2560 H     1 <1>   0.0800 
 39 H        3.0560     2.4630    -0.3980 H     1 <1>   0.0800 
 40 H        2.3100     2.1750     1.1610 H     1 <1>   0.0800 
 41 H       -4.0170     0.4360     1.5610 H     1 <1>   0.0800 
 42 H       -3.6680     1.7270     2.6670 H     1 <1>   0.0800 
 43 H       -1.2320     3.3100     0.7600 H     1 <1>   0.0800 
 44 H       -2.3660     3.5740     2.0570 H     1 <1>   0.0800 
 45 H        5.0770     0.7450     0.2120 H     1 <1>   0.0800 
 46 H        5.1590    -0.8440     0.9520 H     1 <1>   0.0800 
 47 H        4.3440     0.4670     1.7870 H     1 <1>   0.0800 
 48 H       -2.3920     4.8050    -0.6430 H     1 <1>   0.0800 
 49 H       -2.9890     5.4530     0.8840 H     1 <1>   0.0800 
 50 H       -5.3900     5.7600    -0.7200 H     1 <1>   0.1500 
 51 H       -6.7920     0.1420    -1.3710 H     1 <1>   0.1500 
 52 H       -9.0620     3.6330    -0.4710 H     1 <1>   0.1500 
 53 H       -8.8560    -1.0770    -1.8410 H     1 <1>   0.1500 
 54 H      -11.1240     2.4120    -0.9440 H     1 <1>   0.1500 
 55 H      -11.0350     0.0490    -1.6310 H     1 <1>   0.1500 
@<TRIPOS>BOND
  1   1   2  2   
  2   1   3  2   
  3   1   4  am  
  4   1   5  1   
  5   4   6  1   
  6   4   7  1   
  7   5   8  2   
  8   5   9  1   
  9   6  10  1   
 10   6  31  1   
 11   6  32  1   
 12   7  11  1   
 13   7  33  1   
 14   7  34  1   
 15   8  12  1   
 16   8  13  1   
 17   9  14  2   
 18   9  35  1   
 19  10  15  1   
 20  10  16  1   
 21  10  17  1   
 22  11  16  1   
 23  11  36  1   
 24  11  37  1   
 25  12  14  1   
 26  12  18  1   
 27  13  38  1   
 28  13  39  1   
 29  13  40  1   
 30  15  19  ar  
 31  15  20  ar  
 32  16  41  1   
 33  16  42  1   
 34  17  21  1   
 35  17  43  1   
 36  17  44  1   
 37  18  45  1   
 38  18  46  1   
 39  18  47  1   
 40  19  22  ar  
 41  20  21  1   
 42  20  23  ar  
 43  21  48  1   
 44  21  49  1   
 45  22  24  ar  
 46  22  25  1   
 47  23  24  ar  
 48  23  50  1   
 49  25  26  ar  
 50  25  27  ar  
 51  26  28  ar  
 52  26  51  1   
 53  27  29  ar  
 54  27  52  1   
 55  28  30  ar  
 56  28  53  1   
 57  29  30  ar  
 58  29  54  1   
 59  30  55  1   
@<TRIPOS>SUBSTRUCTURE
  1 ****   6 GROUP 4 **** **** 0

# MOE 2024.06 (io_trps.svl 2023.06)
