@<TRIPOS>MOLECULE
NONAME
48 51 1 0 0 
SMALL
USER_CHARGES


@<TRIPOS>ATOM
  1 O       -0.5020     0.3260     1.1770 O.2   1 <1>  -0.5700 
  2 C       -1.4720     1.0110     0.9090 C.2   1 <1>   0.5440 
  3 N       -2.6830     0.3920     0.6940 N.am  1 <1>  -0.6600 
  4 C       -1.3270     2.4490     0.7970 C.ar  1 <1>   0.0860 
  5 C       -3.7590     0.9450    -0.1690 C.3   1 <1>   0.1400 
  6 C       -2.8910    -1.0650     0.8700 C.3   1 <1>   0.1400 
  7 C       -0.2770     3.0030     0.0720 C.ar  1 <1>  -0.1500 
  8 C       -2.2410     3.3220     1.4210 C.ar  1 <1>  -0.1500 
  9 C       -4.6670    -0.2410    -0.5300 C.3   1 <1>   0.2000 
 10 C       -3.7800    -1.4700    -0.3050 C.3   1 <1>  -0.0800 
 11 C       -0.1530     4.3850    -0.0480 C.ar  1 <1>   0.0000 
 12 C       -2.1300     4.6920     1.3110 C.ar  1 <1>  -0.1500 
 13 O       -5.7490    -0.2960     0.3570 O.3   1 <1>  -0.5600 
 14 C       -4.5480    -2.7850    -0.0710 C.3   1 <1>   0.0200 
 15 C       -1.0790     5.2090     0.5670 C.ar  1 <1>   0.1400 
 16 C        0.7420     5.2690    -0.6840 C.2   1 <1>  -0.1500 
 17 C       -6.8520     0.4740    -0.0040 C.3   1 <1>   0.0400 
 18 C       -3.6430    -4.0050    -0.0260 C.2   1 <1>  -0.0400 
 19 O       -0.7930     6.4870     0.3330 O.3   1 <1>  -0.2800 
 20 C        0.3030     6.5130    -0.4180 C.2   1 <1>  -0.0400 
 21 O       -4.1710    -5.1680     0.2480 O.3   1 <1>  -0.0190 
 22 C       -2.3270    -4.1920    -0.2200 C.2   1 <1>  -0.1500 
 23 C        0.8480     7.8640    -0.8270 C.3   1 <1>  -0.0600 
 24 N       -3.2820    -6.1200     0.2510 N.2   1 <1>  -0.4100 
 25 C       -2.1610    -5.5600    -0.0270 C.2   1 <1>   0.1080 
 26 C       -0.8430    -6.2950    -0.1270 C.3   1 <1>  -0.0590 
 27 H       -4.3090     1.7130     0.3450 H     1 <1>   0.0800 
 28 H       -3.3170     1.3510    -1.0620 H     1 <1>   0.0800 
 29 H       -1.9590    -1.6030     0.8730 H     1 <1>   0.0800 
 30 H       -3.4000    -1.2300     1.8040 H     1 <1>   0.0800 
 31 H        0.4480     2.3630    -0.3980 H     1 <1>   0.1500 
 32 H       -3.0390     2.8960     2.0040 H     1 <1>   0.1500 
 33 H       -5.0350    -0.1930    -1.5400 H     1 <1>   0.0800 
 34 H       -3.1510    -1.5840    -1.1690 H     1 <1>   0.0800 
 35 H       -2.8230     5.3640     1.7830 H     1 <1>   0.1500 
 36 H       -5.2630    -2.9240    -0.8620 H     1 <1>   0.0800 
 37 H       -5.0940    -2.7290     0.8550 H     1 <1>   0.0800 
 38 H        1.5960     4.9590    -1.2580 H     1 <1>   0.1500 
 39 H       -7.6010     0.3600     0.7600 H     1 <1>   0.0800 
 40 H       -7.2410     0.1200    -0.9430 H     1 <1>   0.0800 
 41 H       -6.5650     1.5080    -0.0760 H     1 <1>   0.0800 
 42 H       -1.5510    -3.4910    -0.4660 H     1 <1>   0.1500 
 43 H        1.7310     7.7430    -1.4280 H     1 <1>   0.0800 
 44 H        1.0950     8.4350     0.0490 H     1 <1>   0.0800 
 45 H        0.1070     8.3970    -1.3950 H     1 <1>   0.0800 
 46 H       -0.1320    -5.8630     0.5530 H     1 <1>   0.0800 
 47 H       -0.4640    -6.2260    -1.1300 H     1 <1>   0.0800 
 48 H       -0.9810    -7.3310     0.1240 H     1 <1>   0.0800 
@<TRIPOS>BOND
  1   1   2  2   
  2   2   3  am  
  3   2   4  1   
  4   3   5  1   
  5   3   6  1   
  6   4   7  ar  
  7   4   8  ar  
  8   5   9  1   
  9   5  27  1   
 10   5  28  1   
 11   6  10  1   
 12   6  29  1   
 13   6  30  1   
 14   7  11  ar  
 15   7  31  1   
 16   8  12  ar  
 17   8  32  1   
 18   9  10  1   
 19   9  13  1   
 20   9  33  1   
 21  10  14  1   
 22  10  34  1   
 23  11  15  ar  
 24  11  16  1   
 25  12  15  ar  
 26  12  35  1   
 27  13  17  1   
 28  14  18  1   
 29  14  36  1   
 30  14  37  1   
 31  15  19  1   
 32  16  20  2   
 33  16  38  1   
 34  17  39  1   
 35  17  40  1   
 36  17  41  1   
 37  18  21  1   
 38  18  22  2   
 39  19  20  1   
 40  20  23  1   
 41  21  24  1   
 42  22  25  1   
 43  22  42  1   
 44  23  43  1   
 45  23  44  1   
 46  23  45  1   
 47  24  25  2   
 48  25  26  1   
 49  26  46  1   
 50  26  47  1   
 51  26  48  1   
@<TRIPOS>SUBSTRUCTURE
  1 ****   3 GROUP 4 **** **** 0

# MOE 2024.06 (io_trps.svl 2023.06)
