@<TRIPOS>MOLECULE
NONAME
40 41 1 0 0 
SMALL
USER_CHARGES


@<TRIPOS>ATOM
  1 S        0.6970     0.6930     0.7830 S.3   1 <1>  -0.0800 
  2 C        1.6330    -0.3660    -0.2670 C.2   1 <1>   0.4620 
  3 C       -0.0830    -0.6950     1.4680 C.2   1 <1>  -0.1100 
  4 N        1.3670    -1.6100    -0.0960 N.2   1 <1>  -0.5650 
  5 N        2.5470     0.1770    -1.1500 N.pl3 1 <1>  -0.8220 
  6 C        0.3890    -1.8190     0.8890 C.2   1 <1>   0.1410 
  7 C        2.7670     1.6450    -1.3040 C.3   1 <1>   0.2090 
  8 C        3.3550    -0.6930    -2.0510 C.3   1 <1>   0.1290 
  9 C       -0.0440    -3.1700     1.2210 C.2   1 <1>   0.7160 
 10 C        3.7850     2.1350    -0.2760 C.3   1 <1>   0.1200 
 11 O       -0.8790    -3.3900     2.0740 O.2   1 <1>  -0.5700 
 12 N        0.4760    -4.2420     0.5830 N.am  1 <1>  -0.8000 
 13 O        4.0320     3.5070    -0.4990 O.3   1 <1>  -0.3630 
 14 C        4.8990     4.1960     0.2840 C.ar  1 <1>   0.0830 
 15 C        5.1000     5.5300    -0.0320 C.ar  1 <1>  -0.1500 
 16 C        5.5790     3.6380     1.3630 C.ar  1 <1>  -0.1500 
 17 C        5.9690     6.3140     0.7100 C.ar  1 <1>  -0.1430 
 18 C        6.4490     4.4170     2.1070 C.ar  1 <1>  -0.1500 
 19 C        6.6430     5.7480     1.7810 C.ar  1 <1>  -0.1500 
 20 C        6.1810     7.7760     0.3520 C.3   1 <1>  -0.0170 
 21 C        7.3400     7.9240    -0.6360 C.3   1 <1>  -0.2400 
 22 H       -0.8200    -0.5450     2.2360 H     1 <1>   0.1500 
 23 H        1.8390     2.1750    -1.1780 H     1 <1>   0.0800 
 24 H        3.1350     1.8500    -2.2940 H     1 <1>   0.0800 
 25 H        3.2090    -1.7320    -1.8150 H     1 <1>   0.0800 
 26 H        4.4000    -0.4620    -1.9400 H     1 <1>   0.0800 
 27 H        3.0620    -0.5280    -3.0730 H     1 <1>   0.0800 
 28 H        4.7130     1.6040    -0.3860 H     1 <1>   0.0800 
 29 H        3.3950     2.0180     0.7190 H     1 <1>   0.0800 
 30 H        0.1670    -5.1840     0.8130 H     1 <1>   0.3700 
 31 H        1.1770    -4.1130    -0.1480 H     1 <1>   0.3700 
 32 H        4.5700     5.9480    -0.8680 H     1 <1>   0.1500 
 33 H        5.4480     2.6100     1.6390 H     1 <1>   0.1500 
 34 H        6.9760     3.9870     2.9400 H     1 <1>   0.1500 
 35 H        7.3230     6.3440     2.3650 H     1 <1>   0.1500 
 36 H        6.3900     8.3410     1.2440 H     1 <1>   0.0800 
 37 H        5.2820     8.1750    -0.0840 H     1 <1>   0.0800 
 38 H        8.2470     7.5430    -0.2020 H     1 <1>   0.0800 
 39 H        7.4820     8.9590    -0.8880 H     1 <1>   0.0800 
 40 H        7.1310     7.3720    -1.5350 H     1 <1>   0.0800 
@<TRIPOS>BOND
  1   1   2  1   
  2   1   3  1   
  3   2   4  2   
  4   2   5  1   
  5   3   6  2   
  6   3  22  1   
  7   4   6  1   
  8   5   7  1   
  9   5   8  1   
 10   6   9  1   
 11   7  10  1   
 12   7  23  1   
 13   7  24  1   
 14   8  25  1   
 15   8  26  1   
 16   8  27  1   
 17   9  11  2   
 18   9  12  am  
 19  10  13  1   
 20  10  28  1   
 21  10  29  1   
 22  12  30  1   
 23  12  31  1   
 24  13  14  1   
 25  14  15  ar  
 26  14  16  ar  
 27  15  17  ar  
 28  15  32  1   
 29  16  18  ar  
 30  16  33  1   
 31  17  19  ar  
 32  17  20  1   
 33  18  19  ar  
 34  18  34  1   
 35  19  35  1   
 36  20  21  1   
 37  20  36  1   
 38  20  37  1   
 39  21  38  1   
 40  21  39  1   
 41  21  40  1   
@<TRIPOS>SUBSTRUCTURE
  1 ****  10 GROUP 4 **** **** 0

# MOE 2024.06 (io_trps.svl 2023.06)
