@<TRIPOS>MOLECULE
NONAME
47 49 1 0 0 
SMALL
USER_CHARGES


@<TRIPOS>ATOM
  1 O       -0.3170     0.5490    -0.4940 O.2   1 <1>  -0.5700 
  2 C       -1.4390     1.0160    -0.4100 C.2   1 <1>   0.6900 
  3 N       -1.6150     2.3450    -0.0410 N.am  1 <1>  -0.4690 
  4 N       -2.5380     0.2230    -0.6750 N.am  1 <1>  -0.4200 
  5 C       -2.8960     2.9350    -0.0400 C.2   1 <1>   0.1230 
  6 C       -0.4310     3.0710     0.5240 C.3   1 <1>   0.0600 
  7 C       -3.8100     0.7440    -0.5660 C.2   1 <1>   0.6160 
  8 C       -2.3510    -1.2160    -1.0280 C.3   1 <1>   0.0600 
  9 C       -3.0920     4.3580     0.1850 C.2   1 <1>   0.6160 
 10 C       -3.9560     2.1190    -0.2710 C.2   1 <1>  -0.1360 
 11 O       -4.7870     0.0370    -0.7360 O.2   1 <1>  -0.5700 
 12 O       -3.9790     4.7380     0.9270 O.2   1 <1>  -0.5700 
 13 N       -2.2810     5.2510    -0.4550 N.am  1 <1>  -0.4930 
 14 C       -1.9880     6.5920    -0.1170 C.2   1 <1>   0.0630 
 15 C       -0.6800     7.0740    -0.0040 C.2   1 <1>   0.3720 
 16 C       -2.7780     7.6550     0.1500 C.2   1 <1>  -0.3320 
 17 N       -0.6400     8.3280     0.3180 N.2   1 <1>  -0.7070 
 18 N        0.4700     6.2880    -0.2250 N.pl3 1 <1>  -0.8210 
 19 N       -1.9400     8.6860     0.4230 N.pl3 1 <1>   0.3140 
 20 C       -4.2960     7.7590     0.1550 C.3   1 <1>  -0.0600 
 21 C        1.4150     6.3510     0.9290 C.3   1 <1>   0.2090 
 22 C        1.2080     6.7330    -1.4400 C.3   1 <1>   0.2090 
 23 C       -2.3140    10.0560     0.7940 C.3   1 <1>   0.0160 
 24 C        2.6900     7.0020     0.4130 C.3   1 <1>  -0.1600 
 25 C        2.6840     6.6970    -1.0750 C.3   1 <1>  -0.1600 
 26 H        0.2150     2.3840     1.0440 H     1 <1>   0.0800 
 27 H       -0.7380     3.8260     1.2270 H     1 <1>   0.0800 
 28 H        0.1290     3.5310    -0.2710 H     1 <1>   0.0800 
 29 H       -1.4370    -1.3520    -1.5790 H     1 <1>   0.0800 
 30 H       -3.1670    -1.5650    -1.6370 H     1 <1>   0.0800 
 31 H       -2.3090    -1.8020    -0.1270 H     1 <1>   0.0800 
 32 H       -4.9640     2.4910    -0.2480 H     1 <1>   0.1500 
 33 H       -1.4970     4.8280    -0.9530 H     1 <1>   0.3700 
 34 H       -4.7320     6.8840    -0.2910 H     1 <1>   0.0800 
 35 H       -4.6180     8.6160    -0.4090 H     1 <1>   0.0800 
 36 H       -4.6560     7.8410     1.1650 H     1 <1>   0.0800 
 37 H        1.6230     5.3480     1.2560 H     1 <1>   0.0800 
 38 H        1.0060     6.9070     1.7570 H     1 <1>   0.0800 
 39 H        0.9230     7.7390    -1.7030 H     1 <1>   0.0800 
 40 H        0.9960     6.0790    -2.2680 H     1 <1>   0.0800 
 41 H       -2.9930    10.0240     1.6240 H     1 <1>   0.0800 
 42 H       -2.7810    10.5320    -0.0470 H     1 <1>   0.0800 
 43 H       -1.4300    10.6000     1.0720 H     1 <1>   0.0800 
 44 H        3.5650     6.6270     0.9120 H     1 <1>   0.0800 
 45 H        2.6190     8.0650     0.5690 H     1 <1>   0.0800 
 46 H        3.2530     7.4100    -1.6440 H     1 <1>   0.0800 
 47 H        3.0680     5.7090    -1.2530 H     1 <1>   0.0800 
@<TRIPOS>BOND
  1   1   2  2   
  2   2   3  am  
  3   2   4  am  
  4   3   5  1   
  5   3   6  1   
  6   4   7  am  
  7   4   8  1   
  8   5   9  1   
  9   5  10  2   
 10   6  26  1   
 11   6  27  1   
 12   6  28  1   
 13   7  10  1   
 14   7  11  2   
 15   8  29  1   
 16   8  30  1   
 17   8  31  1   
 18   9  12  2   
 19   9  13  am  
 20  10  32  1   
 21  13  14  1   
 22  13  33  1   
 23  14  15  1   
 24  14  16  2   
 25  15  17  2   
 26  15  18  1   
 27  16  19  1   
 28  16  20  1   
 29  17  19  1   
 30  18  21  1   
 31  18  22  1   
 32  19  23  1   
 33  20  34  1   
 34  20  35  1   
 35  20  36  1   
 36  21  24  1   
 37  21  37  1   
 38  21  38  1   
 39  22  25  1   
 40  22  39  1   
 41  22  40  1   
 42  23  41  1   
 43  23  42  1   
 44  23  43  1   
 45  24  25  1   
 46  24  44  1   
 47  24  45  1   
 48  25  46  1   
 49  25  47  1   
@<TRIPOS>SUBSTRUCTURE
  1 ****  13 GROUP 4 **** **** 0

# MOE 2024.06 (io_trps.svl 2023.06)
