@<TRIPOS>MOLECULE
NONAME
57 59 1 0 0 
SMALL
USER_CHARGES


@<TRIPOS>ATOM
  1 F       -0.6270    -0.3140     0.0800 F     1 <1>  -0.1900 
  2 C       -1.8090    -0.8690     0.0430 C.ar  1 <1>   0.1900 
  3 C       -2.7610    -0.3560    -0.8160 C.ar  1 <1>  -0.1500 
  4 C       -2.0630    -1.9490     0.8650 C.ar  1 <1>  -0.1500 
  5 C       -4.0120    -0.9490    -0.8490 C.ar  1 <1>  -0.1500 
  6 C       -3.3170    -2.5350     0.8230 C.ar  1 <1>  -0.1500 
  7 C       -4.2940    -2.0380    -0.0320 C.ar  1 <1>  -0.1440 
  8 C       -5.6720    -2.6780    -0.0730 C.3   1 <1>  -0.0160 
  9 C       -6.6240    -1.9310     0.8620 C.3   1 <1>   0.1400 
 10 N       -7.9620    -2.5820     0.8640 N.am  1 <1>  -0.7300 
 11 C       -9.0320    -2.1260     0.1530 C.2   1 <1>   0.5690 
 12 O       -8.9540    -1.1560    -0.5640 O.2   1 <1>  -0.5700 
 13 C      -10.4030    -2.8230     0.2470 C.3   1 <1>   0.4040 
 14 N      -11.5530    -1.9310    -0.1690 N.4   1 <1>  -0.9590 
 15 C      -11.7460    -0.7990     0.7820 C.3   1 <1>   0.3430 
 16 C      -12.8060    -2.6870    -0.4360 C.3   1 <1>   0.3430 
 17 C      -12.7910     0.1640     0.2260 C.3   1 <1>  -0.1600 
 18 C      -13.8720    -1.7400    -0.9800 C.3   1 <1>  -0.1600 
 19 C      -14.1290    -0.5400    -0.0550 C.3   1 <1>   0.2800 
 20 O      -14.9140     0.3280    -0.8110 O.3   1 <1>  -0.5600 
 21 C      -14.8740    -0.9390     1.2460 C.3   1 <1>  -0.1600 
 22 C      -15.6000     1.3500    -0.1450 C.3   1 <1>   0.1200 
 23 C      -16.3890    -0.7030     1.1610 C.3   1 <1>   0.2800 
 24 C      -16.6730     0.7610     0.7830 C.3   1 <1>  -0.1600 
 25 O      -16.8950    -0.9230     2.4330 O.3   1 <1>  -0.6800 
 26 C      -17.0940    -1.6880     0.1940 C.3   1 <1>   0.1200 
 27 O      -18.4650    -1.6920     0.4100 O.3   1 <1>  -0.6800 
 28 H       -2.5250     0.4860    -1.4410 H     1 <1>   0.1500 
 29 H       -1.2950    -2.3200     1.5200 H     1 <1>   0.1500 
 30 H       -4.7630    -0.5590    -1.5150 H     1 <1>   0.1500 
 31 H       -3.5260    -3.3780     1.4590 H     1 <1>   0.1500 
 32 H       -5.5980    -3.7080     0.2240 H     1 <1>   0.0800 
 33 H       -6.0520    -2.6400    -1.0790 H     1 <1>   0.0800 
 34 H       -6.7110    -0.9070     0.5370 H     1 <1>   0.0800 
 35 H       -6.2240    -1.9280     1.8620 H     1 <1>   0.0800 
 36 H       -8.0110    -3.4270     1.4400 H     1 <1>   0.3700 
 37 H      -10.5520    -3.1640     1.2560 H     1 <1>   0.0800 
 38 H      -10.3700    -3.6840    -0.3970 H     1 <1>   0.0800 
 39 H      -11.2360    -1.4900    -1.0520 H     1 <1>   0.4500 
 40 H      -10.8160    -0.2690     0.9170 H     1 <1>   0.0800 
 41 H      -12.0690    -1.1730     1.7400 H     1 <1>   0.0800 
 42 H      -13.1580    -3.1470     0.4730 H     1 <1>   0.0800 
 43 H      -12.6210    -3.4650    -1.1600 H     1 <1>   0.0800 
 44 H      -12.4120     0.5970    -0.6840 H     1 <1>   0.0800 
 45 H      -12.9260     0.9610     0.9330 H     1 <1>   0.0800 
 46 H      -14.7780    -2.2950    -1.1310 H     1 <1>   0.0800 
 47 H      -13.5530    -1.3840    -1.9440 H     1 <1>   0.0800 
 48 H      -14.4950    -0.3440     2.0580 H     1 <1>   0.0800 
 49 H      -14.6850    -1.9660     1.4980 H     1 <1>   0.0800 
 50 H      -16.0570     1.9790    -0.8900 H     1 <1>   0.0800 
 51 H      -14.8910     1.9410     0.4090 H     1 <1>   0.0800 
 52 H      -17.6270     0.8310     0.2900 H     1 <1>   0.0800 
 53 H      -16.7250     1.3830     1.6570 H     1 <1>   0.0800 
 54 H      -16.6910    -0.1680     3.0160 H     1 <1>   0.4000 
 55 H      -16.7380    -2.6890     0.3580 H     1 <1>   0.0800 
 56 H      -16.9220    -1.4160    -0.8330 H     1 <1>   0.0800 
 57 H      -18.6090    -1.6530     1.3810 H     1 <1>   0.4000 
@<TRIPOS>BOND
  1   1   2  1   
  2   2   3  ar  
  3   2   4  ar  
  4   3   5  ar  
  5   3  28  1   
  6   4   6  ar  
  7   4  29  1   
  8   5   7  ar  
  9   5  30  1   
 10   6   7  ar  
 11   6  31  1   
 12   7   8  1   
 13   8   9  1   
 14   8  32  1   
 15   8  33  1   
 16   9  10  1   
 17   9  34  1   
 18   9  35  1   
 19  10  11  am  
 20  10  36  1   
 21  11  12  2   
 22  11  13  1   
 23  13  14  1   
 24  13  37  1   
 25  13  38  1   
 26  14  15  1   
 27  14  16  1   
 28  14  39  1   
 29  15  17  1   
 30  15  40  1   
 31  15  41  1   
 32  16  18  1   
 33  16  42  1   
 34  16  43  1   
 35  17  19  1   
 36  17  44  1   
 37  17  45  1   
 38  18  19  1   
 39  18  46  1   
 40  18  47  1   
 41  19  20  1   
 42  19  21  1   
 43  20  22  1   
 44  21  23  1   
 45  21  48  1   
 46  21  49  1   
 47  22  24  1   
 48  22  50  1   
 49  22  51  1   
 50  23  24  1   
 51  23  25  1   
 52  23  26  1   
 53  24  52  1   
 54  24  53  1   
 55  25  54  1   
 56  26  27  1   
 57  26  55  1   
 58  26  56  1   
 59  27  57  1   
@<TRIPOS>SUBSTRUCTURE
  1 ****  11 GROUP 4 **** **** 0

# MOE 2024.06 (io_trps.svl 2023.06)
