@<TRIPOS>MOLECULE
NONAME
48 51 1 0 0 
SMALL
USER_CHARGES


@<TRIPOS>ATOM
  1 O        0.2040     1.5420    -1.8400 O.2   1 <1>  -0.5700 
  2 C       -0.0130     2.6590    -1.4310 C.2   1 <1>   0.5690 
  3 N       -1.0150     2.9570    -0.5460 N.am  1 <1>  -0.5090 
  4 C        0.8580     3.7940    -1.9590 C.3   1 <1>   0.1810 
  5 C       -1.3990     4.3740    -0.2540 C.3   1 <1>   0.3640 
  6 C       -1.8680     1.9200     0.0830 C.3   1 <1>   0.0490 
  7 O        0.8850     4.8860    -1.0760 O.3   1 <1>  -0.5600 
  8 C       -2.7910     4.6460    -0.8260 C.ar  1 <1>  -0.1440 
  9 C       -0.3920     5.4330    -0.7840 C.3   1 <1>   0.2610 
 10 C       -1.9070     1.8390     1.5770 C.3   1 <1>  -0.2000 
 11 C       -1.2310     0.7640     0.7880 C.3   1 <1>  -0.2000 
 12 C       -3.7300     5.3290    -0.0640 C.ar  1 <1>   0.1600 
 13 C       -3.1530     4.2290    -2.0960 C.ar  1 <1>  -0.1500 
 14 C       -0.2530     6.5730     0.2330 C.2   1 <1>   0.5690 
 15 N       -4.9620     5.6150    -0.4530 N.ar  1 <1>  -0.6200 
 16 C       -4.4320     4.5220    -2.5160 C.ar  1 <1>  -0.1500 
 17 O       -1.2390     7.0360     0.7550 O.2   1 <1>  -0.5700 
 18 N        0.9800     7.0400     0.5450 N.am  1 <1>  -0.7300 
 19 C       -5.2840     5.2060    -1.6680 C.ar  1 <1>   0.1600 
 20 C        1.2500     8.1720     1.4680 C.3   1 <1>   0.3200 
 21 C        2.6220     8.7790     1.2230 C.2   1 <1>   0.2980 
 22 O        3.6750     8.0220     1.4040 O.3   1 <1>  -0.0190 
 23 N        2.8640     9.9730     0.8510 N.2   1 <1>  -0.5650 
 24 N        4.6730     8.8020     1.1210 N.2   1 <1>  -0.4100 
 25 C        4.1880     9.9360     0.8010 C.2   1 <1>   0.3350 
 26 C        4.9720    11.1740     0.3910 C.3   1 <1>   0.0210 
 27 C        6.4980    10.9940     0.4350 C.3   1 <1>  -0.2400 
 28 H        0.4920     4.1260    -2.9130 H     1 <1>   0.0800 
 29 H        1.8670     3.4420    -2.0750 H     1 <1>   0.0800 
 30 H       -1.4470     4.4720     0.8170 H     1 <1>   0.0800 
 31 H       -2.7760     1.7380    -0.4690 H     1 <1>   0.1000 
 32 H       -0.7710     5.8580    -1.6960 H     1 <1>   0.0800 
 33 H       -1.2850     2.4850     2.1710 H     1 <1>   0.1000 
 34 H       -2.8390     1.6010     2.0590 H     1 <1>   0.1000 
 35 H       -1.7030    -0.1990     0.7180 H     1 <1>   0.1000 
 36 H       -0.1570     0.6970     0.7940 H     1 <1>   0.1000 
 37 H       -3.4570     5.6660     0.9230 H     1 <1>   0.1500 
 38 H       -2.4770     3.6900    -2.7380 H     1 <1>   0.1500 
 39 H       -4.7700     4.2220    -3.4910 H     1 <1>   0.1500 
 40 H        1.7940     6.5930     0.1090 H     1 <1>   0.3700 
 41 H       -6.2820     5.4290    -2.0060 H     1 <1>   0.1500 
 42 H        0.4980     8.9310     1.3330 H     1 <1>   0.0800 
 43 H        1.1970     7.8220     2.4830 H     1 <1>   0.0800 
 44 H        4.6760    11.4440    -0.6070 H     1 <1>   0.0800 
 45 H        4.6930    11.9800     1.0460 H     1 <1>   0.0800 
 46 H        6.7980    10.2060    -0.2330 H     1 <1>   0.0800 
 47 H        6.8120    10.7380     1.4320 H     1 <1>   0.0800 
 48 H        6.9890    11.9040     0.1400 H     1 <1>   0.0800 
@<TRIPOS>BOND
  1   1   2  2   
  2   2   3  am  
  3   2   4  1   
  4   3   5  1   
  5   3   6  1   
  6   4   7  1   
  7   4  28  1   
  8   4  29  1   
  9   5   8  1   
 10   5   9  1   
 11   5  30  1   
 12   6  10  1   
 13   6  11  1   
 14   6  31  1   
 15   7   9  1   
 16   8  12  ar  
 17   8  13  ar  
 18   9  14  1   
 19   9  32  1   
 20  10  11  1   
 21  10  33  1   
 22  10  34  1   
 23  11  35  1   
 24  11  36  1   
 25  12  15  ar  
 26  12  37  1   
 27  13  16  ar  
 28  13  38  1   
 29  14  17  2   
 30  14  18  am  
 31  15  19  ar  
 32  16  19  ar  
 33  16  39  1   
 34  18  20  1   
 35  18  40  1   
 36  19  41  1   
 37  20  21  1   
 38  20  42  1   
 39  20  43  1   
 40  21  22  1   
 41  21  23  2   
 42  22  24  1   
 43  23  25  1   
 44  24  25  2   
 45  25  26  1   
 46  26  27  1   
 47  26  44  1   
 48  26  45  1   
 49  27  46  1   
 50  27  47  1   
 51  27  48  1   
@<TRIPOS>SUBSTRUCTURE
  1 ****   9 GROUP 4 **** **** 0

# MOE 2024.06 (io_trps.svl 2023.06)
