@<TRIPOS>MOLECULE
NONAME
45 47 1 0 0 
SMALL
USER_CHARGES


@<TRIPOS>ATOM
  1 S       -3.5020    -2.6280    -1.7840 S.3   1 <1>  -0.0800 
  2 C       -3.3650    -0.9130    -1.4250 C.2   1 <1>  -0.1400 
  3 C       -1.8500    -2.6850    -2.3700 C.2   1 <1>  -0.1100 
  4 C       -2.1370    -0.4640    -1.7490 C.2   1 <1>  -0.1500 
  5 C       -4.5850    -0.2060    -0.8450 C.3   1 <1>   0.0810 
  6 C       -1.2740    -1.4720    -2.2860 C.2   1 <1>  -0.1500 
  7 C       -4.8650    -0.4750     0.6340 C.2   1 <1>   0.5690 
  8 O       -4.2430    -1.3450     1.2030 O.2   1 <1>  -0.5700 
  9 N       -5.8000     0.2690     1.3240 N.am  1 <1>  -0.6600 
 10 C       -6.0930    -0.0740     2.7440 C.3   1 <1>   0.1400 
 11 C       -6.6140     1.3910     0.7780 C.3   1 <1>   0.1400 
 12 C       -7.1520    -1.1830     2.8250 C.3   1 <1>   0.1400 
 13 C       -8.0960     1.0240     0.6280 C.3   1 <1>  -0.1600 
 14 N       -8.4770    -0.8600     2.1840 N.am  1 <1>  -0.6600 
 15 C       -8.7880     0.5740     1.9230 C.3   1 <1>   0.1400 
 16 C       -9.3500    -1.8200     1.7210 C.2   1 <1>   0.5690 
 17 O      -10.5070    -1.5590     1.4820 O.2   1 <1>  -0.5700 
 18 C       -8.9100    -3.2500     1.4520 C.3   1 <1>   0.0810 
 19 C       -8.3230    -3.3530     0.0560 C.2   1 <1>  -0.0400 
 20 O       -7.3430    -2.5670    -0.3020 O.3   1 <1>  -0.0190 
 21 C       -8.6320    -4.1300    -0.9940 C.2   1 <1>  -0.1500 
 22 N       -6.9880    -2.7680    -1.5370 N.2   1 <1>  -0.4100 
 23 C       -7.7410    -3.7100    -1.9770 C.2   1 <1>   0.1080 
 24 C       -7.6610    -4.2720    -3.3790 C.3   1 <1>  -0.0590 
 25 H       -1.4840    -3.6340    -2.7170 H     1 <1>   0.1500 
 26 H       -1.7900     0.5470    -1.6330 H     1 <1>   0.1500 
 27 H       -5.4520    -0.4800    -1.4140 H     1 <1>   0.0800 
 28 H       -4.4240     0.8460    -0.9670 H     1 <1>   0.0800 
 29 H       -0.2670    -1.2370    -2.5790 H     1 <1>   0.1500 
 30 H       -6.4120     0.7980     3.2860 H     1 <1>   0.0800 
 31 H       -5.1930    -0.4240     3.2210 H     1 <1>   0.0800 
 32 H       -6.2410     1.7000    -0.1800 H     1 <1>   0.0800 
 33 H       -6.5220     2.2350     1.4400 H     1 <1>   0.0800 
 34 H       -7.3250    -1.4150     3.8610 H     1 <1>   0.0800 
 35 H       -6.7210    -2.0520     2.3620 H     1 <1>   0.0800 
 36 H       -8.2110     0.2660    -0.1270 H     1 <1>   0.0800 
 37 H       -8.6080     1.8990     0.2720 H     1 <1>   0.0800 
 38 H       -9.8510     0.6960     1.8030 H     1 <1>   0.0800 
 39 H       -8.4970     1.1850     2.7580 H     1 <1>   0.0800 
 40 H       -9.7680    -3.8910     1.5180 H     1 <1>   0.0800 
 41 H       -8.2000    -3.5850     2.1810 H     1 <1>   0.0800 
 42 H       -9.3810    -4.8930    -1.0920 H     1 <1>   0.1500 
 43 H       -7.6140    -5.3440    -3.3410 H     1 <1>   0.0800 
 44 H       -6.7790    -3.9020    -3.8700 H     1 <1>   0.0800 
 45 H       -8.5260    -3.9720    -3.9400 H     1 <1>   0.0800 
@<TRIPOS>BOND
  1   1   2  1   
  2   1   3  1   
  3   2   4  2   
  4   2   5  1   
  5   3   6  2   
  6   3  25  1   
  7   4   6  1   
  8   4  26  1   
  9   5   7  1   
 10   5  27  1   
 11   5  28  1   
 12   6  29  1   
 13   7   8  2   
 14   7   9  am  
 15   9  10  1   
 16   9  11  1   
 17  10  12  1   
 18  10  30  1   
 19  10  31  1   
 20  11  13  1   
 21  11  32  1   
 22  11  33  1   
 23  12  14  1   
 24  12  34  1   
 25  12  35  1   
 26  13  15  1   
 27  13  36  1   
 28  13  37  1   
 29  14  15  1   
 30  14  16  am  
 31  15  38  1   
 32  15  39  1   
 33  16  17  2   
 34  16  18  1   
 35  18  19  1   
 36  18  40  1   
 37  18  41  1   
 38  19  20  1   
 39  19  21  2   
 40  20  22  1   
 41  21  23  1   
 42  21  42  1   
 43  22  23  2   
 44  23  24  1   
 45  24  43  1   
 46  24  44  1   
 47  24  45  1   
@<TRIPOS>SUBSTRUCTURE
  1 ****  20 GROUP 4 **** **** 0

# MOE 2024.06 (io_trps.svl 2023.06)
