@<TRIPOS>MOLECULE
NONAME
41 43 1 0 0 
SMALL
USER_CHARGES


@<TRIPOS>ATOM
  1 CL       1.4310     0.1260    -0.6350 Cl    1 <1>  -0.1770 
  2 C        1.1380     1.7680    -0.1290 C.ar  1 <1>   0.1770 
  3 C        2.1430     2.7140    -0.2160 C.ar  1 <1>   0.1600 
  4 C       -0.0970     2.1250     0.3570 C.ar  1 <1>  -0.1500 
  5 N        2.0080     3.9820     0.1410 N.ar  1 <1>  -0.6200 
  6 C       -0.2450     3.4430     0.7350 C.ar  1 <1>  -0.1500 
  7 C        0.8060     4.3630     0.6250 C.ar  1 <1>   0.3960 
  8 C        0.5650     5.7450     1.0640 C.2   1 <1>   0.5440 
  9 O       -0.1470     5.9210     2.0410 O.2   1 <1>  -0.5700 
 10 N        1.0610     6.8740     0.4240 N.am  1 <1>  -0.6600 
 11 C        1.7060     6.8350    -0.9230 C.3   1 <1>   0.1400 
 12 C        0.8470     8.2290     1.0140 C.3   1 <1>   0.1400 
 13 C        3.2390     6.8370    -0.8160 C.3   1 <1>   0.1100 
 14 C        1.9450     9.2460     0.6800 C.3   1 <1>  -0.1600 
 15 N        3.8130     8.1640    -0.5100 N.3   1 <1>  -0.8100 
 16 C        3.3670     8.6920     0.7920 C.3   1 <1>   0.1100 
 17 C        5.2950     8.1120    -0.5910 C.3   1 <1>   0.2900 
 18 C        6.0100     9.4680    -0.6140 C.2   1 <1>   0.2980 
 19 O        7.2990     9.4850    -0.4790 O.3   1 <1>  -0.2800 
 20 N        5.5300    10.6490    -0.7530 N.2   1 <1>  -0.3380 
 21 C        7.5990    10.7410    -0.5400 C.2   1 <1>   0.2980 
 22 N        6.5710    11.4810    -0.7020 N.2   1 <1>  -0.3380 
 23 C        9.0390    11.1800    -0.4200 C.3   1 <1>  -0.0600 
 24 H        3.1000     2.4030    -0.5980 H     1 <1>   0.1500 
 25 H       -0.8960     1.4090     0.4370 H     1 <1>   0.1500 
 26 H       -1.1880     3.7800     1.1310 H     1 <1>   0.1500 
 27 H        1.3830     7.6720    -1.5170 H     1 <1>   0.0800 
 28 H        1.3960     5.9460    -1.4410 H     1 <1>   0.0800 
 29 H        0.8000     8.1360     2.0860 H     1 <1>   0.0800 
 30 H       -0.1050     8.6070     0.6810 H     1 <1>   0.0800 
 31 H        3.6230     6.5140    -1.7670 H     1 <1>   0.0800 
 32 H        3.5480     6.1200    -0.0750 H     1 <1>   0.0800 
 33 H        1.8470    10.0580     1.3760 H     1 <1>   0.0800 
 34 H        1.7920     9.6640    -0.3000 H     1 <1>   0.0800 
 35 H        3.4270     7.9340     1.5550 H     1 <1>   0.0800 
 36 H        4.0050     9.5080     1.0860 H     1 <1>   0.0800 
 37 H        5.5760     7.6010    -1.4940 H     1 <1>   0.0800 
 38 H        5.6720     7.5420     0.2390 H     1 <1>   0.0800 
 39 H        9.6170    10.7410    -1.2110 H     1 <1>   0.0800 
 40 H        9.4350    10.8670     0.5270 H     1 <1>   0.0800 
 41 H        9.1000    12.2510    -0.4920 H     1 <1>   0.0800 
@<TRIPOS>BOND
  1   1   2  1   
  2   2   3  ar  
  3   2   4  ar  
  4   3   5  ar  
  5   3  24  1   
  6   4   6  ar  
  7   4  25  1   
  8   5   7  ar  
  9   6   7  ar  
 10   6  26  1   
 11   7   8  1   
 12   8   9  2   
 13   8  10  am  
 14  10  11  1   
 15  10  12  1   
 16  11  13  1   
 17  11  27  1   
 18  11  28  1   
 19  12  14  1   
 20  12  29  1   
 21  12  30  1   
 22  13  15  1   
 23  13  31  1   
 24  13  32  1   
 25  14  16  1   
 26  14  33  1   
 27  14  34  1   
 28  15  16  1   
 29  15  17  1   
 30  16  35  1   
 31  16  36  1   
 32  17  18  1   
 33  17  37  1   
 34  17  38  1   
 35  18  19  1   
 36  18  20  2   
 37  19  21  1   
 38  20  22  1   
 39  21  22  2   
 40  21  23  1   
 41  23  39  1   
 42  23  40  1   
 43  23  41  1   
@<TRIPOS>SUBSTRUCTURE
  1 ****  13 GROUP 4 **** **** 0

# MOE 2024.06 (io_trps.svl 2023.06)
