@<TRIPOS>MOLECULE
NONAME
37 38 1 0 0 
SMALL
USER_CHARGES


@<TRIPOS>ATOM
  1 O       -1.4050     1.2580     1.4110 O.co2 1 <1>  -0.9000 
  2 C       -2.1220     2.1990     1.0380 C.2   1 <1>   0.9060 
  3 O       -3.2140     2.4270     1.5800 O.co2 1 <1>  -0.9000 
  4 C       -1.6080     3.1860    -0.0200 C.3   1 <1>   0.0940 
  5 O       -1.8060     2.7800    -1.3770 O.3   1 <1>  -0.5600 
  6 C       -0.1190     3.4620     0.2360 C.3   1 <1>   0.2090 
  7 C       -1.3730     3.7260    -2.3140 C.3   1 <1>   0.1200 
  8 N        0.3930     4.4760    -0.7410 N.pl3 1 <1>  -0.8380 
  9 C        0.1220     4.0450    -2.1370 C.3   1 <1>   0.2090 
 10 C        1.5400     5.1750    -0.4470 C.ar  1 <1>   0.4100 
 11 N        2.6510     4.7670    -1.0290 N.ar  1 <1>  -0.6200 
 12 C        1.5380     6.2690     0.4130 C.ar  1 <1>  -0.1440 
 13 C        3.7440     5.4330    -0.7230 C.ar  1 <1>   0.4770 
 14 C        2.7450     6.8770     0.6400 C.ar  1 <1>   0.1600 
 15 C        0.2690     6.8080     1.0680 C.3   1 <1>  -0.0160 
 16 N        3.8680     6.4710     0.0820 N.ar  1 <1>  -0.6200 
 17 C        5.0150     4.9540    -1.3800 C.3   1 <1>  -0.0970 
 18 C       -0.5300     7.6670     0.0810 C.3   1 <1>  -0.1600 
 19 C       -1.8120     8.2120     0.7200 C.3   1 <1>  -0.2400 
 20 H       -2.1570     4.0960     0.1260 H     1 <1>   0.0800 
 21 H        0.4330     2.5430     0.1280 H     1 <1>   0.0800 
 22 H        0.0190     3.8060     1.2450 H     1 <1>   0.0800 
 23 H       -1.9610     4.6180    -2.1910 H     1 <1>   0.0800 
 24 H       -1.5530     3.3200    -3.2930 H     1 <1>   0.0800 
 25 H        0.4130     4.8260    -2.8160 H     1 <1>   0.0800 
 26 H        0.7050     3.1680    -2.3590 H     1 <1>   0.0800 
 27 H        2.8030     7.7280     1.2960 H     1 <1>   0.1500 
 28 H        0.5270     7.3980     1.9290 H     1 <1>   0.0800 
 29 H       -0.3440     5.9950     1.4110 H     1 <1>   0.0800 
 30 H        4.9230     3.9200    -1.6550 H     1 <1>   0.0800 
 31 H        5.8410     5.0610    -0.7010 H     1 <1>   0.0800 
 32 H        5.2010     5.5400    -2.2590 H     1 <1>   0.0800 
 33 H       -0.7900     7.0680    -0.7760 H     1 <1>   0.0800 
 34 H        0.0810     8.4850    -0.2600 H     1 <1>   0.0800 
 35 H       -2.4430     7.4000     1.0390 H     1 <1>   0.0800 
 36 H       -2.3550     8.8040     0.0050 H     1 <1>   0.0800 
 37 H       -1.5790     8.8270     1.5700 H     1 <1>   0.0800 
@<TRIPOS>BOND
  1   1   2  ar  
  2   2   3  ar  
  3   2   4  1   
  4   4   5  1   
  5   4   6  1   
  6   4  20  1   
  7   5   7  1   
  8   6   8  1   
  9   6  21  1   
 10   6  22  1   
 11   7   9  1   
 12   7  23  1   
 13   7  24  1   
 14   8   9  1   
 15   8  10  1   
 16   9  25  1   
 17   9  26  1   
 18  10  11  ar  
 19  10  12  ar  
 20  11  13  ar  
 21  12  14  ar  
 22  12  15  1   
 23  13  16  ar  
 24  13  17  1   
 25  14  16  ar  
 26  14  27  1   
 27  15  18  1   
 28  15  28  1   
 29  15  29  1   
 30  17  30  1   
 31  17  31  1   
 32  17  32  1   
 33  18  19  1   
 34  18  33  1   
 35  18  34  1   
 36  19  35  1   
 37  19  36  1   
 38  19  37  1   
@<TRIPOS>SUBSTRUCTURE
  1 ****   8 GROUP 4 **** **** 0

# MOE 2024.06 (io_trps.svl 2023.06)
