@<TRIPOS>MOLECULE
NONAME
61 64 1 0 0 
SMALL
USER_CHARGES


@<TRIPOS>ATOM
  1 O       -1.3590     0.5590     1.1760 O.2   1 <1>  -0.5700 
  2 C       -2.2790     1.3390     1.3490 C.2   1 <1>   0.5440 
  3 N       -3.5530     0.8220     1.4200 N.am  1 <1>  -0.6600 
  4 C       -2.0230     2.7660     1.4440 C.ar  1 <1>   0.0860 
  5 C       -3.7560    -0.6390     1.6360 C.3   1 <1>   0.1400 
  6 C       -4.7070     1.4770     0.7420 C.3   1 <1>   0.1400 
  7 C       -1.0520     3.3750     0.6530 C.ar  1 <1>  -0.1500 
  8 C       -2.7300     3.5780     2.3320 C.ar  1 <1>  -0.1500 
  9 C       -3.8970    -1.3230     0.2570 C.3   1 <1>   0.4230 
 10 C       -4.9230     0.7990    -0.6200 C.3   1 <1>  -0.1600 
 11 C       -0.8000     4.7330     0.7240 C.ar  1 <1>   0.0820 
 12 C       -2.4890     4.9370     2.4150 C.ar  1 <1>  -0.1500 
 13 N       -3.9830    -2.8220     0.3110 N.4   1 <1>  -0.9590 
 14 C       -5.1180    -0.7400    -0.4910 C.3   1 <1>  -0.1060 
 15 O        0.1640     5.2170    -0.0970 O.3   1 <1>  -0.3620 
 16 C       -1.5260     5.5210     1.6120 C.ar  1 <1>  -0.1500 
 17 C       -3.9950    -3.4260    -1.0450 C.3   1 <1>   0.3430 
 18 C       -2.9970    -3.4740     1.2130 C.3   1 <1>   0.2630 
 19 C       -6.3890    -1.0610     0.3190 C.2   1 <1>   0.9060 
 20 C       -5.1990    -1.3530    -1.9090 C.3   1 <1>  -0.1600 
 21 C        0.5680     6.5670    -0.0390 C.3   1 <1>   0.1200 
 22 C       -5.1740    -2.8890    -1.8610 C.3   1 <1>  -0.1600 
 23 O       -6.4340    -2.1160     0.9730 O.co2 1 <1>  -0.9000 
 24 O       -7.3280    -0.2660     0.3170 O.co2 1 <1>  -0.9000 
 25 C        1.7040     6.7770    -1.0370 C.3   1 <1>  -0.0170 
 26 C        2.1720     8.2220    -0.9940 C.ar  1 <1>  -0.1440 
 27 C        1.6000     9.1690    -1.8290 C.ar  1 <1>  -0.1500 
 28 C        3.1710     8.6070    -0.1130 C.ar  1 <1>  -0.1500 
 29 C        2.0210    10.4870    -1.7830 C.ar  1 <1>  -0.1500 
 30 C        3.5930     9.9240    -0.0660 C.ar  1 <1>  -0.1500 
 31 C        3.0180    10.8650    -0.9020 C.ar  1 <1>  -0.1500 
 32 H       -2.9100    -1.0320     2.1700 H     1 <1>   0.0800 
 33 H       -4.6350    -0.7910     2.2380 H     1 <1>   0.0800 
 34 H       -5.5900     1.3770     1.3530 H     1 <1>   0.0800 
 35 H       -4.5240     2.5270     0.5940 H     1 <1>   0.0800 
 36 H       -0.4800     2.7750    -0.0320 H     1 <1>   0.1500 
 37 H       -3.4780     3.1320     2.9650 H     1 <1>   0.1500 
 38 H       -3.0120    -1.0650    -0.3000 H     1 <1>   0.0800 
 39 H       -5.7910     1.2350    -1.0850 H     1 <1>   0.0800 
 40 H       -4.0780     1.0200    -1.2490 H     1 <1>   0.0800 
 41 H       -3.0510     5.5420     3.1060 H     1 <1>   0.1500 
 42 H       -4.9570    -2.9490     0.7010 H     1 <1>   0.4500 
 43 H       -1.3560     6.5780     1.6930 H     1 <1>   0.1500 
 44 H       -3.0720    -3.1920    -1.5500 H     1 <1>   0.0800 
 45 H       -4.0810    -4.4970    -0.9660 H     1 <1>   0.0800 
 46 H       -1.9930    -3.2400     0.8980 H     1 <1>   0.0800 
 47 H       -3.1320    -4.5430     1.1990 H     1 <1>   0.0800 
 48 H       -3.1350    -3.1290     2.2250 H     1 <1>   0.0800 
 49 H       -6.1080    -1.0250    -2.3880 H     1 <1>   0.0800 
 50 H       -4.3710    -1.0080    -2.5040 H     1 <1>   0.0800 
 51 H       -0.2730     7.1880    -0.2910 H     1 <1>   0.0800 
 52 H        0.9030     6.7810     0.9610 H     1 <1>   0.0800 
 53 H       -5.1170    -3.2770    -2.8620 H     1 <1>   0.0800 
 54 H       -6.0910    -3.2550    -1.4310 H     1 <1>   0.0800 
 55 H        2.5220     6.1230    -0.7920 H     1 <1>   0.0800 
 56 H        1.3610     6.5350    -2.0270 H     1 <1>   0.0800 
 57 H        0.8240     8.8860    -2.5190 H     1 <1>   0.1500 
 58 H        3.6260     7.8830     0.5410 H     1 <1>   0.1500 
 59 H        1.5740    11.2170    -2.4340 H     1 <1>   0.1500 
 60 H        4.3690    10.2160     0.6190 H     1 <1>   0.1500 
 61 H        3.3460    11.8890    -0.8660 H     1 <1>   0.1500 
@<TRIPOS>BOND
  1   1   2  2   
  2   2   3  am  
  3   2   4  1   
  4   3   5  1   
  5   3   6  1   
  6   4   7  ar  
  7   4   8  ar  
  8   5   9  1   
  9   5  32  1   
 10   5  33  1   
 11   6  10  1   
 12   6  34  1   
 13   6  35  1   
 14   7  11  ar  
 15   7  36  1   
 16   8  12  ar  
 17   8  37  1   
 18   9  13  1   
 19   9  14  1   
 20   9  38  1   
 21  10  14  1   
 22  10  39  1   
 23  10  40  1   
 24  11  15  1   
 25  11  16  ar  
 26  12  16  ar  
 27  12  41  1   
 28  13  17  1   
 29  13  18  1   
 30  13  42  1   
 31  14  19  1   
 32  14  20  1   
 33  15  21  1   
 34  16  43  1   
 35  17  22  1   
 36  17  44  1   
 37  17  45  1   
 38  18  46  1   
 39  18  47  1   
 40  18  48  1   
 41  19  23  ar  
 42  19  24  ar  
 43  20  22  1   
 44  20  49  1   
 45  20  50  1   
 46  21  25  1   
 47  21  51  1   
 48  21  52  1   
 49  22  53  1   
 50  22  54  1   
 51  25  26  1   
 52  25  55  1   
 53  25  56  1   
 54  26  27  ar  
 55  26  28  ar  
 56  27  29  ar  
 57  27  57  1   
 58  28  30  ar  
 59  28  58  1   
 60  29  31  ar  
 61  29  59  1   
 62  30  31  ar  
 63  30  60  1   
 64  31  61  1   
@<TRIPOS>SUBSTRUCTURE
  1 ****   4 GROUP 4 **** **** 0

# MOE 2024.06 (io_trps.svl 2023.06)
