@<TRIPOS>MOLECULE
NONAME
42 44 1 0 0 
SMALL
USER_CHARGES


@<TRIPOS>ATOM
  1 O        0.3080     0.1280    -1.5380 O.3   1 <1>  -0.0190 
  2 N        0.7460     1.2990    -1.1870 N.2   1 <1>  -0.4100 
  3 C        1.0260    -0.8360    -1.0330 C.2   1 <1>  -0.0400 
  4 C        1.7790     1.1000    -0.4270 C.2   1 <1>   0.2350 
  5 C        2.0010    -0.2780    -0.3050 C.2   1 <1>  -0.1500 
  6 C        0.6750    -2.2830    -1.3350 C.3   1 <1>   0.2900 
  7 C        2.5700     2.1480     0.1870 C.ar  1 <1>   0.0540 
  8 N       -0.2060    -2.8700    -0.2960 N.3   1 <1>  -0.8100 
  9 C        2.5130     3.4590    -0.2870 C.ar  1 <1>   0.1600 
 10 C        3.4130     1.9080     1.2650 C.ar  1 <1>  -0.1500 
 11 C       -0.4050    -4.3140    -0.5220 C.3   1 <1>   0.1100 
 12 C       -1.4870    -2.1390    -0.2110 C.3   1 <1>   0.0300 
 13 N        3.1950     4.4910     0.1900 N.ar  1 <1>  -0.6200 
 14 C        4.1310     2.9670     1.7780 C.ar  1 <1>  -0.1500 
 15 C       -0.7890    -5.0340     0.7810 C.3   1 <1>   0.3540 
 16 C        3.9890     4.2210     1.2120 C.ar  1 <1>   0.1600 
 17 N       -0.9090    -6.5040     0.5580 N.pl3 1 <1>  -0.7640 
 18 C       -2.0050    -7.2190     0.3310 C.cat 1 <1>   0.6560 
 19 C        0.1510    -7.3830     0.5820 C.2   1 <1>   0.2000 
 20 N       -1.6940    -8.4960     0.2040 N.pl3 1 <1>  -0.7000 
 21 C       -3.4100    -6.6710     0.2300 C.3   1 <1>  -0.0960 
 22 C       -0.3380    -8.6200     0.3610 C.2   1 <1>   0.2000 
 23 H        2.7830    -0.7540     0.2540 H     1 <1>   0.1500 
 24 H        1.5930    -2.8420    -1.3710 H     1 <1>   0.0800 
 25 H        0.2070    -2.3440    -2.3030 H     1 <1>   0.0800 
 26 H        1.8590     3.6630    -1.1180 H     1 <1>   0.1500 
 27 H        3.5050     0.9280     1.6970 H     1 <1>   0.1500 
 28 H        0.5150    -4.7470    -0.8740 H     1 <1>   0.0800 
 29 H       -1.1630    -4.4670    -1.2720 H     1 <1>   0.0800 
 30 H       -1.3130    -1.1180     0.0870 H     1 <1>   0.0800 
 31 H       -2.1330    -2.5800     0.5260 H     1 <1>   0.0800 
 32 H       -1.9880    -2.1380    -1.1640 H     1 <1>   0.0800 
 33 H        4.7950     2.8260     2.6110 H     1 <1>   0.1500 
 34 H       -1.7220    -4.6470     1.1520 H     1 <1>   0.0800 
 35 H       -0.0310    -4.8470     1.5230 H     1 <1>   0.0800 
 36 H        4.5540     5.0430     1.6190 H     1 <1>   0.1500 
 37 H        1.1730    -7.0810     0.7540 H     1 <1>   0.1500 
 38 H       -2.3480    -9.2650     0.0270 H     1 <1>   0.4500 
 39 H       -3.4450    -5.8860    -0.5020 H     1 <1>   0.0800 
 40 H       -3.7160    -6.2810     1.1830 H     1 <1>   0.0800 
 41 H       -4.0940    -7.4460    -0.0620 H     1 <1>   0.0800 
 42 H        0.1870    -9.5620     0.3090 H     1 <1>   0.1500 
@<TRIPOS>BOND
  1   1   2  1   
  2   1   3  1   
  3   2   4  2   
  4   3   5  2   
  5   3   6  1   
  6   4   5  1   
  7   4   7  1   
  8   5  23  1   
  9   6   8  1   
 10   6  24  1   
 11   6  25  1   
 12   7   9  ar  
 13   7  10  ar  
 14   8  11  1   
 15   8  12  1   
 16   9  13  ar  
 17   9  26  1   
 18  10  14  ar  
 19  10  27  1   
 20  11  15  1   
 21  11  28  1   
 22  11  29  1   
 23  12  30  1   
 24  12  31  1   
 25  12  32  1   
 26  13  16  ar  
 27  14  16  ar  
 28  14  33  1   
 29  15  17  1   
 30  15  34  1   
 31  15  35  1   
 32  16  36  1   
 33  17  18  ar  
 34  17  19  1   
 35  18  20  ar  
 36  18  21  1   
 37  19  22  2   
 38  19  37  1   
 39  20  22  1   
 40  20  38  1   
 41  21  39  1   
 42  21  40  1   
 43  21  41  1   
 44  22  42  1   
@<TRIPOS>SUBSTRUCTURE
  1 ****   8 GROUP 4 **** **** 0

# MOE 2024.06 (io_trps.svl 2023.06)
