@<TRIPOS>MOLECULE
NONAME
58 60 1 0 0 
SMALL
USER_CHARGES


@<TRIPOS>ATOM
  1 O       -0.6430     0.7970    -0.0380 O.2   1 <1>  -0.5700 
  2 C       -1.3270     1.7480    -0.3210 C.2   1 <1>   0.5690 
  3 N       -2.4710     1.7240    -1.0320 N.am  1 <1>  -0.6600 
  4 C       -0.9990     3.1490     0.1090 C.3   1 <1>  -0.0990 
  5 C       -3.0900     3.0560    -1.1560 C.3   1 <1>   0.1400 
  6 C       -3.1450     0.5030    -1.5280 C.3   1 <1>   0.2840 
  7 C       -2.3230     3.9040    -0.1260 C.3   1 <1>  -0.0190 
  8 C       -4.4910     0.3500    -0.8390 C.ar  1 <1>  -0.1440 
  9 C       -2.1430     5.3620    -0.5270 C.2   1 <1>   0.5690 
 10 C       -4.5450    -0.0160     0.4960 C.ar  1 <1>  -0.1500 
 11 C       -5.6730     0.5800    -1.5260 C.ar  1 <1>  -0.1500 
 12 O       -2.7360     5.7860    -1.4890 O.2   1 <1>  -0.5700 
 13 N       -1.3100     6.1270     0.2420 N.am  1 <1>  -0.4940 
 14 C       -5.7640    -0.1510     1.1380 C.ar  1 <1>  -0.1500 
 15 C       -6.8920     0.4460    -0.8840 C.ar  1 <1>  -0.1500 
 16 C       -0.8540     7.4600     0.0950 C.2   1 <1>  -0.0880 
 17 C       -6.9450     0.0810     0.4520 C.ar  1 <1>  -0.1430 
 18 N       -1.5230     8.5310    -0.4210 N.pl3 1 <1>   0.3140 
 19 C        0.3650     7.9200     0.4690 C.2   1 <1>  -0.1810 
 20 C       -8.2840    -0.0660     1.1550 C.3   1 <1>  -0.0170 
 21 N       -0.7640     9.6470    -0.3850 N.2   1 <1>  -0.7070 
 22 C       -2.9110     8.6200    -0.8920 C.3   1 <1>   0.0160 
 23 C        0.3590     9.2730     0.1390 C.2   1 <1>   0.1080 
 24 C        1.5040     7.1370     1.1010 C.3   1 <1>   0.0210 
 25 C       -8.8100    -1.4960     1.0160 C.3   1 <1>  -0.2400 
 26 C        1.5030    10.2510     0.3460 C.3   1 <1>   0.0210 
 27 C        2.3660     6.4870     0.0190 C.3   1 <1>  -0.2400 
 28 C        1.4350    10.8990     1.7330 C.3   1 <1>  -0.2400 
 29 H       -0.2120     3.5200    -0.5230 H     1 <1>   0.0800 
 30 H       -0.6950     3.1680     1.1390 H     1 <1>   0.0800 
 31 H       -4.1420     3.0270    -0.9270 H     1 <1>   0.0800 
 32 H       -2.9450     3.4170    -2.1610 H     1 <1>   0.0800 
 33 H       -2.5340    -0.3590    -1.3210 H     1 <1>   0.0800 
 34 H       -3.2720     0.5760    -2.5940 H     1 <1>   0.0800 
 35 H       -2.8950     3.8830     0.7840 H     1 <1>   0.0800 
 36 H       -3.6320    -0.1960     1.0390 H     1 <1>   0.1500 
 37 H       -5.6520     0.8650    -2.5630 H     1 <1>   0.1500 
 38 H       -0.8320     5.6210     0.9860 H     1 <1>   0.3700 
 39 H       -5.7880    -0.4390     2.1740 H     1 <1>   0.1500 
 40 H       -7.8010     0.6250    -1.4290 H     1 <1>   0.1500 
 41 H       -8.9940     0.6230     0.7320 H     1 <1>   0.0800 
 42 H       -8.1750     0.1780     2.1980 H     1 <1>   0.0800 
 43 H       -3.5340     7.9850    -0.2920 H     1 <1>   0.0800 
 44 H       -2.9500     8.3100    -1.9190 H     1 <1>   0.0800 
 45 H       -3.2460     9.6360    -0.8110 H     1 <1>   0.0800 
 46 H        1.1060     6.3780     1.7490 H     1 <1>   0.0800 
 47 H        2.1080     7.7920     1.7040 H     1 <1>   0.0800 
 48 H       -8.9390    -1.7440    -0.0230 H     1 <1>   0.0800 
 49 H       -9.7560    -1.5950     1.5160 H     1 <1>   0.0800 
 50 H       -8.1130    -2.1910     1.4510 H     1 <1>   0.0800 
 51 H        1.4400    11.0150    -0.4080 H     1 <1>   0.0800 
 52 H        2.4410     9.7430     0.2220 H     1 <1>   0.0800 
 53 H        1.7710     5.8200    -0.5800 H     1 <1>   0.0800 
 54 H        3.1700     5.9300     0.4660 H     1 <1>   0.0800 
 55 H        2.7830     7.2410    -0.6250 H     1 <1>   0.0800 
 56 H        0.5000    11.4210     1.8410 H     1 <1>   0.0800 
 57 H        2.2400    11.6000     1.8560 H     1 <1>   0.0800 
 58 H        1.5000    10.1500     2.5000 H     1 <1>   0.0800 
@<TRIPOS>BOND
  1   1   2  2   
  2   2   3  am  
  3   2   4  1   
  4   3   5  1   
  5   3   6  1   
  6   4   7  1   
  7   4  29  1   
  8   4  30  1   
  9   5   7  1   
 10   5  31  1   
 11   5  32  1   
 12   6   8  1   
 13   6  33  1   
 14   6  34  1   
 15   7   9  1   
 16   7  35  1   
 17   8  10  ar  
 18   8  11  ar  
 19   9  12  2   
 20   9  13  am  
 21  10  14  ar  
 22  10  36  1   
 23  11  15  ar  
 24  11  37  1   
 25  13  16  1   
 26  13  38  1   
 27  14  17  ar  
 28  14  39  1   
 29  15  17  ar  
 30  15  40  1   
 31  16  18  1   
 32  16  19  2   
 33  17  20  1   
 34  18  21  1   
 35  18  22  1   
 36  19  23  1   
 37  19  24  1   
 38  20  25  1   
 39  20  41  1   
 40  20  42  1   
 41  21  23  2   
 42  22  43  1   
 43  22  44  1   
 44  22  45  1   
 45  23  26  1   
 46  24  27  1   
 47  24  46  1   
 48  24  47  1   
 49  25  48  1   
 50  25  49  1   
 51  25  50  1   
 52  26  28  1   
 53  26  51  1   
 54  26  52  1   
 55  27  53  1   
 56  27  54  1   
 57  27  55  1   
 58  28  56  1   
 59  28  57  1   
 60  28  58  1   
@<TRIPOS>SUBSTRUCTURE
  1 ****   7 GROUP 4 **** **** 0

# MOE 2024.06 (io_trps.svl 2023.06)
