@<TRIPOS>MOLECULE
NONAME
44 46 1 0 0 
SMALL
USER_CHARGES


@<TRIPOS>ATOM
  1 F        1.0100    -1.6310    -1.1440 F     1 <1>  -0.1900 
  2 C        0.5710    -2.6750    -0.4960 C.ar  1 <1>   0.1900 
  3 C        0.9050    -3.9310    -0.9600 C.ar  1 <1>  -0.1500 
  4 C       -0.2120    -2.4800     0.6250 C.ar  1 <1>  -0.1500 
  5 C        0.4310    -5.0420    -0.2690 C.ar  1 <1>   0.0830 
  6 C       -0.6780    -3.5890     1.3100 C.ar  1 <1>  -0.1500 
  7 O        0.6960    -6.3180    -0.6580 O.3   1 <1>  -0.3630 
  8 C       -0.3600    -4.8680     0.8680 C.ar  1 <1>  -0.1440 
  9 C        1.5210    -6.5970    -1.7720 C.3   1 <1>   0.0400 
 10 C       -0.8740    -6.0760     1.6320 C.3   1 <1>   0.4870 
 11 N       -1.6950    -6.9020     0.7150 N.4   1 <1>  -0.9590 
 12 C       -2.8910    -6.2140     0.1330 C.3   1 <1>   0.3430 
 13 C       -2.1470    -8.2050     1.2480 C.3   1 <1>   0.3430 
 14 C       -4.0130    -7.2680     0.1020 C.3   1 <1>   0.2000 
 15 C       -3.3000    -8.6040     0.3220 C.3   1 <1>  -0.0800 
 16 O       -4.8920    -7.0490     1.1550 O.3   1 <1>  -0.6800 
 17 C       -2.8280    -9.1810    -1.0360 C.3   1 <1>  -0.0170 
 18 C       -1.6720   -10.1600    -0.9090 C.ar  1 <1>   0.1670 
 19 N       -0.4670    -9.6190    -0.7990 N.ar  1 <1>  -0.6200 
 20 C       -1.9060   -11.5340    -0.9150 C.ar  1 <1>   0.1600 
 21 C        0.4810   -10.5410    -0.7070 C.ar  1 <1>   0.1600 
 22 N       -0.9600   -12.4490    -0.8060 N.ar  1 <1>  -0.6200 
 23 C        0.2420   -11.9100    -0.7090 C.ar  1 <1>   0.1600 
 24 H        1.5180    -4.0070    -1.8370 H     1 <1>   0.1500 
 25 H       -0.4440    -1.4800     0.9480 H     1 <1>   0.1500 
 26 H       -1.2840    -3.4370     2.1890 H     1 <1>   0.1500 
 27 H        1.5870    -7.6640    -1.8830 H     1 <1>   0.0800 
 28 H        2.5010    -6.1880    -1.5940 H     1 <1>   0.0800 
 29 H        1.0820    -6.1670    -2.6550 H     1 <1>   0.0800 
 30 H       -1.4600    -5.7600     2.4780 H     1 <1>   0.0800 
 31 H       -0.0330    -6.6500     1.9860 H     1 <1>   0.0800 
 32 H       -1.0430    -7.1170    -0.0660 H     1 <1>   0.4500 
 33 H       -3.1940    -5.3670     0.7270 H     1 <1>   0.0800 
 34 H       -2.6630    -5.8810    -0.8660 H     1 <1>   0.0800 
 35 H       -1.3520    -8.9330     1.2600 H     1 <1>   0.0800 
 36 H       -2.5200    -8.0810     2.2510 H     1 <1>   0.0800 
 37 H       -4.5830    -7.2280    -0.8110 H     1 <1>   0.0800 
 38 H       -3.9370    -9.3270     0.8020 H     1 <1>   0.0800 
 39 H       -4.4880    -7.1670     2.0360 H     1 <1>   0.4000 
 40 H       -2.5070    -8.3920    -1.6940 H     1 <1>   0.0800 
 41 H       -3.6590    -9.6660    -1.5200 H     1 <1>   0.0800 
 42 H       -2.9150   -11.8950    -1.0120 H     1 <1>   0.1500 
 43 H        1.4990   -10.2020    -0.6260 H     1 <1>   0.1500 
 44 H        1.0770   -12.5840    -0.6280 H     1 <1>   0.1500 
@<TRIPOS>BOND
  1   1   2  1   
  2   2   3  ar  
  3   2   4  ar  
  4   3   5  ar  
  5   3  24  1   
  6   4   6  ar  
  7   4  25  1   
  8   5   7  1   
  9   5   8  ar  
 10   6   8  ar  
 11   6  26  1   
 12   7   9  1   
 13   8  10  1   
 14   9  27  1   
 15   9  28  1   
 16   9  29  1   
 17  10  11  1   
 18  10  30  1   
 19  10  31  1   
 20  11  12  1   
 21  11  13  1   
 22  11  32  1   
 23  12  14  1   
 24  12  33  1   
 25  12  34  1   
 26  13  15  1   
 27  13  35  1   
 28  13  36  1   
 29  14  15  1   
 30  14  16  1   
 31  14  37  1   
 32  15  17  1   
 33  15  38  1   
 34  16  39  1   
 35  17  18  1   
 36  17  40  1   
 37  17  41  1   
 38  18  19  ar  
 39  18  20  ar  
 40  19  21  ar  
 41  20  22  ar  
 42  20  42  1   
 43  21  23  ar  
 44  21  43  1   
 45  22  23  ar  
 46  23  44  1   
@<TRIPOS>SUBSTRUCTURE
  1 ****  11 GROUP 4 **** **** 0

# MOE 2024.06 (io_trps.svl 2023.06)
