@<TRIPOS>MOLECULE
NONAME
50 52 1 0 0 
SMALL
USER_CHARGES


@<TRIPOS>ATOM
  1 O       -0.0020    -1.0890     0.9620 O.3   1 <1>  -0.0190 
  2 N       -0.8750    -0.3840     0.3080 N.2   1 <1>  -0.4100 
  3 C        0.0120    -2.3330     0.5710 C.2   1 <1>  -0.0400 
  4 C       -1.4350    -1.1800    -0.5260 C.2   1 <1>   0.1080 
  5 C       -0.9180    -2.4690    -0.3900 C.2   1 <1>  -0.1810 
  6 C        0.9960    -3.2830     1.2270 C.3   1 <1>  -0.0600 
  7 C       -2.4950    -0.7170    -1.5070 C.3   1 <1>  -0.0590 
  8 C       -1.3460    -3.6930    -1.1610 C.3   1 <1>   0.5240 
  9 N       -2.1650    -4.5540    -0.2550 N.4   1 <1>  -0.9590 
 10 C       -2.4670    -5.8910    -0.8920 C.3   1 <1>   0.3430 
 11 C       -3.4090    -3.8330     0.1620 C.3   1 <1>   0.3430 
 12 C       -3.3900    -6.8150    -0.0320 C.3   1 <1>   0.4230 
 13 C       -4.2370    -4.7170     1.0990 C.3   1 <1>  -0.1600 
 14 N       -3.6880    -8.1910    -0.6300 N.4   1 <1>  -0.9590 
 15 C       -4.6610    -6.0760     0.4790 C.3   1 <1>   0.0000 
 16 C       -4.8350    -8.9060     0.0340 C.3   1 <1>   0.3430 
 17 C       -3.9090    -8.2090    -2.1170 C.3   1 <1>   0.2630 
 18 C       -5.3130    -6.9360     1.5990 C.3   1 <1>  -0.1600 
 19 C       -5.7300    -5.8270    -0.6260 C.3   1 <1>   0.1200 
 20 C       -5.0120    -8.4450     1.4810 C.3   1 <1>  -0.1600 
 21 O       -5.1690    -5.2760    -1.7710 O.3   1 <1>  -0.6800 
 22 H        0.9360    -4.2660     0.8010 H     1 <1>   0.0800 
 23 H        0.8000    -3.3400     2.2830 H     1 <1>   0.0800 
 24 H        1.9960    -2.9100     1.0900 H     1 <1>   0.0800 
 25 H       -3.4520    -1.1320    -1.2540 H     1 <1>   0.0800 
 26 H       -2.2280    -1.0000    -2.5080 H     1 <1>   0.0800 
 27 H       -2.5730     0.3560    -1.4720 H     1 <1>   0.0800 
 28 H       -0.4670    -4.2250    -1.4880 H     1 <1>   0.0800 
 29 H       -1.9150    -3.4040    -2.0290 H     1 <1>   0.0800 
 30 H       -1.5940    -4.6680     0.5940 H     1 <1>   0.4500 
 31 H       -2.9470    -5.7160    -1.8400 H     1 <1>   0.0800 
 32 H       -1.5410    -6.4080    -1.0800 H     1 <1>   0.0800 
 33 H       -3.1520    -2.9180     0.6750 H     1 <1>   0.0800 
 34 H       -3.9940    -3.5720    -0.7050 H     1 <1>   0.0800 
 35 H       -2.8190    -7.0100     0.8610 H     1 <1>   0.0800 
 36 H       -3.6630    -4.8730     1.9960 H     1 <1>   0.0800 
 37 H       -5.1160    -4.1660     1.3910 H     1 <1>   0.0800 
 38 H       -2.8650    -8.7850    -0.4440 H     1 <1>   0.4500 
 39 H       -5.7490    -8.7070    -0.5010 H     1 <1>   0.0800 
 40 H       -4.6680    -9.9720     0.0090 H     1 <1>   0.0800 
 41 H       -4.7600    -7.6030    -2.3810 H     1 <1>   0.0800 
 42 H       -4.0950    -9.2170    -2.4540 H     1 <1>   0.0800 
 43 H       -3.0440    -7.8360    -2.6390 H     1 <1>   0.0800 
 44 H       -4.9770    -6.6230     2.5740 H     1 <1>   0.0800 
 45 H       -6.3810    -6.7880     1.5970 H     1 <1>   0.0800 
 46 H       -6.4880    -5.1490    -0.2680 H     1 <1>   0.0800 
 47 H       -6.2200    -6.7410    -0.9140 H     1 <1>   0.0800 
 48 H       -5.8200    -9.0000     1.9290 H     1 <1>   0.0800 
 49 H       -4.1240    -8.6920     2.0380 H     1 <1>   0.0800 
 50 H       -5.8820    -4.9930    -2.3920 H     1 <1>   0.4000 
@<TRIPOS>BOND
  1   1   2  1   
  2   1   3  1   
  3   2   4  2   
  4   3   5  2   
  5   3   6  1   
  6   4   5  1   
  7   4   7  1   
  8   5   8  1   
  9   6  22  1   
 10   6  23  1   
 11   6  24  1   
 12   7  25  1   
 13   7  26  1   
 14   7  27  1   
 15   8   9  1   
 16   8  28  1   
 17   8  29  1   
 18   9  10  1   
 19   9  11  1   
 20   9  30  1   
 21  10  12  1   
 22  10  31  1   
 23  10  32  1   
 24  11  13  1   
 25  11  33  1   
 26  11  34  1   
 27  12  14  1   
 28  12  15  1   
 29  12  35  1   
 30  13  15  1   
 31  13  36  1   
 32  13  37  1   
 33  14  16  1   
 34  14  17  1   
 35  14  38  1   
 36  15  18  1   
 37  15  19  1   
 38  16  20  1   
 39  16  39  1   
 40  16  40  1   
 41  17  41  1   
 42  17  42  1   
 43  17  43  1   
 44  18  20  1   
 45  18  44  1   
 46  18  45  1   
 47  19  21  1   
 48  19  46  1   
 49  19  47  1   
 50  20  48  1   
 51  20  49  1   
 52  21  50  1   
@<TRIPOS>SUBSTRUCTURE
  1 ****   9 GROUP 4 **** **** 0

# MOE 2024.06 (io_trps.svl 2023.06)
