@<TRIPOS>MOLECULE
NONAME
43 45 1 0 0 
SMALL
USER_CHARGES


@<TRIPOS>ATOM
  1 F        0.4280     3.4970     0.4380 F     1 <1>  -0.1900 
  2 C        1.7310     3.5620     0.3630 C.ar  1 <1>   0.1900 
  3 C        2.4600     2.3890     0.3990 C.ar  1 <1>  -0.1500 
  4 C        2.3300     4.8030     0.2520 C.ar  1 <1>  -0.1500 
  5 C        3.8400     2.4680     0.3200 C.ar  1 <1>  -0.1500 
  6 C        3.7120     4.8720     0.1730 C.ar  1 <1>  -0.1500 
  7 C        4.4710     3.7000     0.2080 C.ar  1 <1>   0.0830 
  8 O        5.8260     3.6810     0.1370 O.3   1 <1>  -0.3630 
  9 C        6.5700     4.8780     0.0590 C.3   1 <1>   0.1200 
 10 C        8.0580     4.5240    -0.0060 C.3   1 <1>   0.2090 
 11 N        8.8900     5.7560    -0.0250 N.pl3 1 <1>  -0.8690 
 12 C        8.8060     6.6300    -1.0760 C.ar  1 <1>   0.4100 
 13 N        8.4910     7.8520    -0.7090 N.ar  1 <1>  -0.6200 
 14 C        9.0220     6.2550    -2.4110 C.ar  1 <1>   0.1600 
 15 C        8.3800     8.7120    -1.7390 C.ar  1 <1>   0.3960 
 16 N        8.9130     7.0660    -3.4420 N.ar  1 <1>  -0.6200 
 17 C        8.0270    10.1160    -1.5210 C.2   1 <1>   0.5440 
 18 C        8.5850     8.2940    -3.0590 C.ar  1 <1>   0.1600 
 19 O        7.3730    10.6980    -2.3710 O.2   1 <1>  -0.5700 
 20 N        8.4110    10.8450    -0.4110 N.am  1 <1>  -0.6600 
 21 C        9.3320    10.3910     0.6550 C.3   1 <1>   0.1400 
 22 C        8.0240    12.2590    -0.2090 C.3   1 <1>   0.1400 
 23 C        9.7370    11.6660     1.3860 C.3   1 <1>  -0.1600 
 24 C        8.5670    12.6210     1.1690 C.3   1 <1>  -0.1600 
 25 H        1.9580     1.4430     0.4860 H     1 <1>   0.1500 
 26 H        1.7260     5.6910     0.2270 H     1 <1>   0.1500 
 27 H        4.4370     1.5730     0.3450 H     1 <1>   0.1500 
 28 H        4.1720     5.8380     0.0860 H     1 <1>   0.1500 
 29 H        6.3620     5.4630     0.9380 H     1 <1>   0.0800 
 30 H        6.2700     5.4050    -0.8290 H     1 <1>   0.0800 
 31 H        8.2510     3.9410    -0.8910 H     1 <1>   0.0800 
 32 H        8.3240     3.9380     0.8570 H     1 <1>   0.0800 
 33 H        8.8440     6.2670     0.8610 H     1 <1>   0.4000 
 34 H        9.2970     5.2350    -2.6050 H     1 <1>   0.1500 
 35 H        8.4690     9.0250    -3.8410 H     1 <1>   0.1500 
 36 H       10.1870     9.8820     0.2430 H     1 <1>   0.0800 
 37 H        8.8000     9.7310     1.3200 H     1 <1>   0.0800 
 38 H        6.9540    12.3730    -0.2600 H     1 <1>   0.0800 
 39 H        8.4880    12.8610    -0.9720 H     1 <1>   0.0800 
 40 H       10.6250    12.0640     0.9270 H     1 <1>   0.0800 
 41 H        9.9320    11.4850     2.4280 H     1 <1>   0.0800 
 42 H        7.8030    12.4380     1.9030 H     1 <1>   0.0800 
 43 H        8.8640    13.6540     1.2220 H     1 <1>   0.0800 
@<TRIPOS>BOND
  1   1   2  1   
  2   2   3  ar  
  3   2   4  ar  
  4   3   5  ar  
  5   3  25  1   
  6   4   6  ar  
  7   4  26  1   
  8   5   7  ar  
  9   5  27  1   
 10   6   7  ar  
 11   6  28  1   
 12   7   8  1   
 13   8   9  1   
 14   9  10  1   
 15   9  29  1   
 16   9  30  1   
 17  10  11  1   
 18  10  31  1   
 19  10  32  1   
 20  11  12  1   
 21  11  33  1   
 22  12  13  ar  
 23  12  14  ar  
 24  13  15  ar  
 25  14  16  ar  
 26  14  34  1   
 27  15  17  1   
 28  15  18  ar  
 29  16  18  ar  
 30  17  19  2   
 31  17  20  am  
 32  18  35  1   
 33  20  21  1   
 34  20  22  1   
 35  21  23  1   
 36  21  36  1   
 37  21  37  1   
 38  22  24  1   
 39  22  38  1   
 40  22  39  1   
 41  23  24  1   
 42  23  40  1   
 43  23  41  1   
 44  24  42  1   
 45  24  43  1   
@<TRIPOS>SUBSTRUCTURE
  1 ****  13 GROUP 4 **** **** 0

# MOE 2024.06 (io_trps.svl 2023.06)
