@<TRIPOS>MOLECULE
NONAME
50 52 1 0 0 
SMALL
USER_CHARGES


@<TRIPOS>ATOM
  1 F        1.6810    -0.4380     2.9610 F     1 <1>  -0.1900 
  2 C        2.4510     0.2580     2.1630 C.ar  1 <1>   0.1900 
  3 C        2.8500    -0.2950     0.9500 C.ar  1 <1>   0.0860 
  4 C        2.8300     1.5340     2.5360 C.ar  1 <1>   0.1900 
  5 C        3.6360     0.5040     0.1080 C.ar  1 <1>   0.0830 
  6 C        2.4640    -1.6360     0.5910 C.2   1 <1>   0.5440 
  7 F        2.4420     2.0320     3.6830 F     1 <1>  -0.1900 
  8 C        3.6150     2.3160     1.7110 C.ar  1 <1>  -0.1500 
  9 O        4.0060    -0.0290    -1.0820 O.3   1 <1>  -0.3630 
 10 C        4.0140     1.7940     0.4910 C.ar  1 <1>  -0.1500 
 11 O        2.9650    -2.5880     1.1620 O.2   1 <1>  -0.5700 
 12 N        1.4890    -1.8920    -0.3500 N.am  1 <1>  -0.6600 
 13 C        4.8760     0.6260    -1.9790 C.3   1 <1>   0.0400 
 14 C        1.2150    -3.2840    -0.7810 C.3   1 <1>   0.1400 
 15 C        0.3340    -0.9890    -0.5710 C.3   1 <1>   0.1400 
 16 C        0.1040    -3.8450     0.1290 C.3   1 <1>   0.4230 
 17 C       -0.8170    -1.4700     0.3280 C.3   1 <1>  -0.1600 
 18 N       -0.1500    -5.3340    -0.0280 N.4   1 <1>  -0.9590 
 19 C       -1.1950    -2.9750     0.1530 C.3   1 <1>   0.0000 
 20 C       -1.4070    -5.8000     0.6390 C.3   1 <1>   0.3430 
 21 C       -0.1080    -5.8060    -1.4490 C.3   1 <1>   0.2630 
 22 C       -2.0290    -3.4210     1.3900 C.3   1 <1>  -0.1600 
 23 C       -2.1060    -3.1300    -1.1010 C.3   1 <1>   0.1200 
 24 C       -1.7910    -4.8890     1.8090 C.3   1 <1>  -0.1600 
 25 O       -1.4050    -3.0260    -2.2900 O.3   1 <1>  -0.6800 
 26 H        3.9010     3.3070     2.0180 H     1 <1>   0.1500 
 27 H        4.6200     2.4090    -0.1480 H     1 <1>   0.1500 
 28 H        5.0400    -0.0240    -2.8190 H     1 <1>   0.0800 
 29 H        5.8110     0.8200    -1.4820 H     1 <1>   0.0800 
 30 H        4.4160     1.5400    -2.3100 H     1 <1>   0.0800 
 31 H        0.9360    -3.2800    -1.8170 H     1 <1>   0.0800 
 32 H        2.1080    -3.8760    -0.6780 H     1 <1>   0.0800 
 33 H        0.5940     0.0270    -0.3280 H     1 <1>   0.0800 
 34 H        0.0500    -1.0160    -1.6090 H     1 <1>   0.0800 
 35 H        0.5150    -3.7280     1.1180 H     1 <1>   0.0800 
 36 H       -0.5040    -1.2870     1.3410 H     1 <1>   0.0800 
 37 H       -1.6780    -0.8470     0.1560 H     1 <1>   0.0800 
 38 H        0.6370    -5.7780     0.4680 H     1 <1>   0.4500 
 39 H       -2.2150    -5.7980    -0.0730 H     1 <1>   0.0800 
 40 H       -1.2800    -6.8120     0.9900 H     1 <1>   0.0800 
 41 H       -0.8840    -5.3320    -2.0260 H     1 <1>   0.0800 
 42 H       -0.2490    -6.8740    -1.4940 H     1 <1>   0.0800 
 43 H        0.8430    -5.5700    -1.8980 H     1 <1>   0.0800 
 44 H       -1.7940    -2.8120     2.2470 H     1 <1>   0.0800 
 45 H       -3.0780    -3.2680     1.1980 H     1 <1>   0.0800 
 46 H       -2.8640    -2.3640    -1.1000 H     1 <1>   0.0800 
 47 H       -2.6040    -4.0830    -1.1080 H     1 <1>   0.0800 
 48 H       -2.6810    -5.2710     2.2780 H     1 <1>   0.0800 
 49 H       -1.0080    -4.9330     2.5480 H     1 <1>   0.0800 
 50 H       -2.0110    -2.8300    -3.0370 H     1 <1>   0.4000 
@<TRIPOS>BOND
  1   1   2  1   
  2   2   3  ar  
  3   2   4  ar  
  4   3   5  ar  
  5   3   6  1   
  6   4   7  1   
  7   4   8  ar  
  8   5   9  1   
  9   5  10  ar  
 10   6  11  2   
 11   6  12  am  
 12   8  10  ar  
 13   8  26  1   
 14   9  13  1   
 15  10  27  1   
 16  12  14  1   
 17  12  15  1   
 18  13  28  1   
 19  13  29  1   
 20  13  30  1   
 21  14  16  1   
 22  14  31  1   
 23  14  32  1   
 24  15  17  1   
 25  15  33  1   
 26  15  34  1   
 27  16  18  1   
 28  16  19  1   
 29  16  35  1   
 30  17  19  1   
 31  17  36  1   
 32  17  37  1   
 33  18  20  1   
 34  18  21  1   
 35  18  38  1   
 36  19  22  1   
 37  19  23  1   
 38  20  24  1   
 39  20  39  1   
 40  20  40  1   
 41  21  41  1   
 42  21  42  1   
 43  21  43  1   
 44  22  24  1   
 45  22  44  1   
 46  22  45  1   
 47  23  25  1   
 48  23  46  1   
 49  23  47  1   
 50  24  48  1   
 51  24  49  1   
 52  25  50  1   
@<TRIPOS>SUBSTRUCTURE
  1 ****  12 GROUP 4 **** **** 0

# MOE 2024.06 (io_trps.svl 2023.06)
