@<TRIPOS>MOLECULE
NONAME
57 59 1 0 0 
SMALL
USER_CHARGES


@<TRIPOS>ATOM
  1 O       -1.3640     1.0990    -2.1270 O.2   1 <1>  -0.5700 
  2 C       -2.2170     1.3180    -1.2980 C.2   1 <1>   0.5690 
  3 N       -3.3540     0.5510    -1.2150 N.am  1 <1>  -0.6600 
  4 C       -2.0080     2.4780    -0.3280 C.3   1 <1>  -0.0990 
  5 C       -3.5600    -0.6280    -2.1030 C.3   1 <1>   0.1400 
  6 C       -4.4740     0.7560    -0.2540 C.3   1 <1>   0.1400 
  7 C       -0.6660     3.2190    -0.4860 C.3   1 <1>  -0.1600 
  8 C       -3.6880    -1.8920    -1.2480 C.3   1 <1>  -0.1600 
  9 C       -4.6000    -0.4800     0.6400 C.3   1 <1>  -0.1600 
 10 C       -0.5330     4.3640     0.5270 C.3   1 <1>  -0.1600 
 11 C       -4.7960    -1.7670    -0.1860 C.3   1 <1>   0.4240 
 12 C        0.8050     5.0970     0.3610 C.3   1 <1>  -0.1600 
 13 O       -5.9710    -1.5830    -0.9480 O.3   1 <1>  -0.5600 
 14 C       -4.8840    -3.0420     0.7040 C.ar  1 <1>  -0.1440 
 15 C        0.9430     6.2400     1.3660 C.3   1 <1>   0.1200 
 16 C       -7.1900    -1.8770    -0.3490 C.3   1 <1>   0.1200 
 17 C       -3.8170    -3.4650     1.5090 C.ar  1 <1>   0.0820 
 18 C       -6.0530    -3.8010     0.7150 C.ar  1 <1>  -0.1440 
 19 O        2.1720     6.8520     1.1550 O.3   1 <1>  -0.5600 
 20 C       -7.2480    -3.3780    -0.1130 C.3   1 <1>  -0.0160 
 21 O       -2.6750    -2.7290     1.5310 O.3   1 <1>  -0.3630 
 22 C       -3.9340    -4.6210     2.2790 C.ar  1 <1>  -0.1500 
 23 C       -6.1560    -4.9500     1.4810 C.ar  1 <1>  -0.1500 
 24 C        2.4270     7.9180     2.0100 C.3   1 <1>   0.0400 
 25 C       -1.4810    -3.1920     2.1240 C.3   1 <1>   0.0400 
 26 C       -5.0970    -5.3620     2.2630 C.ar  1 <1>  -0.1500 
 27 H       -2.0690     2.0890     0.6710 H     1 <1>   0.0800 
 28 H       -2.8080     3.1790    -0.4730 H     1 <1>   0.0800 
 29 H       -2.7380    -0.7410    -2.7880 H     1 <1>   0.0800 
 30 H       -4.4560    -0.4810    -2.6830 H     1 <1>   0.0800 
 31 H       -5.3860     0.9030    -0.8070 H     1 <1>   0.0800 
 32 H       -4.3170     1.6260     0.3570 H     1 <1>   0.0800 
 33 H       -0.5950     3.6120    -1.4860 H     1 <1>   0.0800 
 34 H        0.1420     2.5200    -0.3500 H     1 <1>   0.0800 
 35 H       -2.7360    -2.0670    -0.7900 H     1 <1>   0.0800 
 36 H       -3.8990    -2.7370    -1.8760 H     1 <1>   0.0800 
 37 H       -5.4150    -0.3580     1.3270 H     1 <1>   0.0800 
 38 H       -3.7070    -0.5480     1.2280 H     1 <1>   0.0800 
 39 H       -0.6000     3.9680     1.5260 H     1 <1>   0.0800 
 40 H       -1.3410     5.0620     0.3860 H     1 <1>   0.0800 
 41 H        0.8740     5.5000    -0.6350 H     1 <1>   0.0800 
 42 H        1.6160     4.4050     0.5080 H     1 <1>   0.0800 
 43 H        0.9120     5.8640     2.3750 H     1 <1>   0.0800 
 44 H        0.1640     6.9700     1.2200 H     1 <1>   0.0800 
 45 H       -7.9720    -1.5690    -1.0210 H     1 <1>   0.0800 
 46 H       -7.2780    -1.3320     0.5740 H     1 <1>   0.0800 
 47 H       -7.2390    -3.8920    -1.0580 H     1 <1>   0.0800 
 48 H       -8.1630    -3.6190     0.3970 H     1 <1>   0.0800 
 49 H       -3.1310    -4.9620     2.9030 H     1 <1>   0.1500 
 50 H       -7.0630    -5.5300     1.4740 H     1 <1>   0.1500 
 51 H        3.3950     8.3170     1.7660 H     1 <1>   0.0800 
 52 H        2.4260     7.5660     3.0270 H     1 <1>   0.0800 
 53 H        1.6760     8.6750     1.8680 H     1 <1>   0.0800 
 54 H       -0.7060    -2.4770     1.9130 H     1 <1>   0.0800 
 55 H       -1.2250    -4.1450     1.6960 H     1 <1>   0.0800 
 56 H       -1.6260    -3.2690     3.1870 H     1 <1>   0.0800 
 57 H       -5.1800    -6.2550     2.8570 H     1 <1>   0.1500 
@<TRIPOS>BOND
  1   1   2  2   
  2   2   3  am  
  3   2   4  1   
  4   3   5  1   
  5   3   6  1   
  6   4   7  1   
  7   4  27  1   
  8   4  28  1   
  9   5   8  1   
 10   5  29  1   
 11   5  30  1   
 12   6   9  1   
 13   6  31  1   
 14   6  32  1   
 15   7  10  1   
 16   7  33  1   
 17   7  34  1   
 18   8  11  1   
 19   8  35  1   
 20   8  36  1   
 21   9  11  1   
 22   9  37  1   
 23   9  38  1   
 24  10  12  1   
 25  10  39  1   
 26  10  40  1   
 27  11  13  1   
 28  11  14  1   
 29  12  15  1   
 30  12  41  1   
 31  12  42  1   
 32  13  16  1   
 33  14  17  ar  
 34  14  18  ar  
 35  15  19  1   
 36  15  43  1   
 37  15  44  1   
 38  16  20  1   
 39  16  45  1   
 40  16  46  1   
 41  17  21  1   
 42  17  22  ar  
 43  18  20  1   
 44  18  23  ar  
 45  19  24  1   
 46  20  47  1   
 47  20  48  1   
 48  21  25  1   
 49  22  26  ar  
 50  22  49  1   
 51  23  26  ar  
 52  23  50  1   
 53  24  51  1   
 54  24  52  1   
 55  24  53  1   
 56  25  54  1   
 57  25  55  1   
 58  25  56  1   
 59  26  57  1   
@<TRIPOS>SUBSTRUCTURE
  1 ****   9 GROUP 4 **** **** 0

# MOE 2024.06 (io_trps.svl 2023.06)
