@<TRIPOS>MOLECULE
NONAME
45 47 1 0 0 
SMALL
USER_CHARGES


@<TRIPOS>ATOM
  1 O       -0.5690     0.2750     0.6590 O.2   1 <1>  -0.5700 
  2 C       -1.4920     0.9360     0.2210 C.2   1 <1>   0.5440 
  3 N       -2.6960     0.3090    -0.0470 N.am  1 <1>  -0.6600 
  4 C       -1.3000     2.3600     0.0230 C.ar  1 <1>   0.0860 
  5 C       -3.9710     1.0770    -0.1880 C.3   1 <1>   0.2200 
  6 C       -2.7710    -1.1840    -0.0160 C.3   1 <1>   0.0600 
  7 C       -1.5690     2.9700    -1.2020 C.ar  1 <1>  -0.1500 
  8 C       -0.8430     3.1710     1.0620 C.ar  1 <1>  -0.1500 
  9 C       -5.0780     0.6390     0.7680 C.3   1 <1>  -0.1600 
 10 C       -4.6000     0.9570    -1.5730 C.3   1 <1>  -0.1600 
 11 C       -1.4240     4.3330    -1.3590 C.ar  1 <1>   0.0830 
 12 C       -0.6850     4.5390     0.9060 C.ar  1 <1>  -0.1500 
 13 C       -6.3600     1.1950     0.1350 C.3   1 <1>  -0.0800 
 14 C       -6.0610     1.3800    -1.3650 C.3   1 <1>  -0.0800 
 15 O       -1.7160     4.8960    -2.5430 O.3   1 <1>  -0.5320 
 16 C       -0.9830     5.1380    -0.3140 C.ar  1 <1>   0.0830 
 17 C       -6.7530     2.5800     0.6710 C.3   1 <1>  -0.1600 
 18 C       -6.3130     2.8630    -1.6800 C.3   1 <1>  -0.1600 
 19 O       -0.8680     6.4730    -0.5510 O.3   1 <1>  -0.3630 
 20 C       -7.2150     3.3480    -0.5560 C.3   1 <1>   0.2000 
 21 C       -0.3930     7.3550     0.4430 C.3   1 <1>   0.0400 
 22 O       -7.0470     4.7000    -0.3620 O.3   1 <1>  -0.6800 
 23 H       -3.7940     2.1210     0.0030 H     1 <1>   0.0800 
 24 H       -3.5380    -1.5460    -0.6750 H     1 <1>   0.0800 
 25 H       -2.9790    -1.5120     0.9870 H     1 <1>   0.0800 
 26 H       -1.8310    -1.6070    -0.3260 H     1 <1>   0.0800 
 27 H       -1.8920     2.3740    -2.0350 H     1 <1>   0.1500 
 28 H       -0.6080     2.7090     2.0060 H     1 <1>   0.1500 
 29 H       -5.1570    -0.4320     0.7950 H     1 <1>   0.0800 
 30 H       -4.9140     1.0080     1.7640 H     1 <1>   0.0800 
 31 H       -4.0980     1.5690    -2.2990 H     1 <1>   0.0800 
 32 H       -4.5820    -0.0640    -1.9040 H     1 <1>   0.0800 
 33 H       -0.3310     5.1140     1.7410 H     1 <1>   0.1500 
 34 H       -7.1800     0.5090     0.2690 H     1 <1>   0.0800 
 35 H       -6.7210     0.7660    -1.9550 H     1 <1>   0.0800 
 36 H       -1.5380     5.8570    -2.4970 H     1 <1>   0.4500 
 37 H       -5.8970     3.0680     1.1030 H     1 <1>   0.0800 
 38 H       -7.5360     2.5090     1.4050 H     1 <1>   0.0800 
 39 H       -6.7860     2.9850    -2.6380 H     1 <1>   0.0800 
 40 H       -5.3870     3.4100    -1.6640 H     1 <1>   0.0800 
 41 H       -8.2520     3.1480    -0.7730 H     1 <1>   0.0800 
 42 H       -0.3750     8.3480     0.0290 H     1 <1>   0.0800 
 43 H        0.6010     7.0600     0.7270 H     1 <1>   0.0800 
 44 H       -1.0600     7.3240     1.2860 H     1 <1>   0.0800 
 45 H       -6.1030     4.8990    -0.2190 H     1 <1>   0.4000 
@<TRIPOS>BOND
  1   1   2  2   
  2   2   3  am  
  3   2   4  1   
  4   3   5  1   
  5   3   6  1   
  6   4   7  ar  
  7   4   8  ar  
  8   5   9  1   
  9   5  10  1   
 10   5  23  1   
 11   6  24  1   
 12   6  25  1   
 13   6  26  1   
 14   7  11  ar  
 15   7  27  1   
 16   8  12  ar  
 17   8  28  1   
 18   9  13  1   
 19   9  29  1   
 20   9  30  1   
 21  10  14  1   
 22  10  31  1   
 23  10  32  1   
 24  11  15  1   
 25  11  16  ar  
 26  12  16  ar  
 27  12  33  1   
 28  13  14  1   
 29  13  17  1   
 30  13  34  1   
 31  14  18  1   
 32  14  35  1   
 33  15  36  1   
 34  16  19  1   
 35  17  20  1   
 36  17  37  1   
 37  17  38  1   
 38  18  20  1   
 39  18  39  1   
 40  18  40  1   
 41  19  21  1   
 42  20  22  1   
 43  20  41  1   
 44  21  42  1   
 45  21  43  1   
 46  21  44  1   
 47  22  45  1   
@<TRIPOS>SUBSTRUCTURE
  1 ****   5 GROUP 4 **** **** 0

# MOE 2024.06 (io_trps.svl 2023.06)
