@<TRIPOS>MOLECULE
NONAME
49 51 1 0 0 
SMALL
USER_CHARGES


@<TRIPOS>ATOM
  1 O        1.1650     1.5030    -0.1810 O.2   1 <1>  -0.5700 
  2 C        1.0650     0.2880    -0.1780 C.2   1 <1>   0.5440 
  3 N       -0.1830    -0.2440    -0.0420 N.am  1 <1>  -0.7300 
  4 C        2.2410    -0.5520    -0.2900 C.ar  1 <1>   0.0860 
  5 C       -1.4610     0.4890     0.1260 C.3   1 <1>   0.0600 
  6 C        2.2100    -1.9100    -0.6920 C.ar  1 <1>   0.4100 
  7 C        3.4840    -0.0100     0.0200 C.ar  1 <1>  -0.1500 
  8 N        3.3000    -2.6770    -0.7650 N.ar  1 <1>  -0.6200 
  9 N        1.0460    -2.5590    -1.0860 N.pl3 1 <1>  -0.8380 
 10 C        4.6010    -0.8070    -0.0650 C.ar  1 <1>  -0.1500 
 11 C        4.4520    -2.1220    -0.4560 C.ar  1 <1>   0.1600 
 12 C        0.8890    -3.9980    -0.6840 C.3   1 <1>   0.3040 
 13 C        0.6190    -2.3010    -2.4900 C.3   1 <1>   0.1290 
 14 C       -0.5730    -4.4710    -0.4840 C.3   1 <1>  -0.0630 
 15 C       -0.7990    -5.8020    -1.1910 C.ar  1 <1>  -0.0320 
 16 C       -1.2660    -4.1970     0.8330 C.3   1 <1>  -0.1900 
 17 C       -1.7500    -3.5140    -0.3900 C.3   1 <1>  -0.2000 
 18 C       -0.3480    -6.9800    -0.6160 C.ar  1 <1>  -0.1500 
 19 C       -1.4350    -5.8500    -2.4210 C.ar  1 <1>  -0.1500 
 20 C       -0.5930    -3.3470     1.9210 C.3   1 <1>  -0.1450 
 21 C       -2.1960    -5.2450     1.4610 C.3   1 <1>  -0.1450 
 22 C       -0.5360    -8.1920    -1.2580 C.ar  1 <1>  -0.1500 
 23 C       -1.6250    -7.0600    -3.0670 C.ar  1 <1>  -0.1500 
 24 C       -1.1750    -8.2320    -2.4840 C.ar  1 <1>  -0.1500 
 25 H       -0.2320    -1.2650    -0.1910 H     1 <1>   0.3700 
 26 H       -1.2730     1.5370     0.2860 H     1 <1>   0.0800 
 27 H       -1.9930     0.0970     0.9740 H     1 <1>   0.0800 
 28 H       -2.0630     0.3730    -0.7580 H     1 <1>   0.0800 
 29 H        3.5680     1.0200     0.3240 H     1 <1>   0.1500 
 30 H        5.5750    -0.4160     0.1700 H     1 <1>   0.1500 
 31 H        5.3280    -2.7450    -0.5190 H     1 <1>   0.1500 
 32 H        1.4310    -4.1800     0.2280 H     1 <1>   0.0800 
 33 H        1.3530    -4.6060    -1.4420 H     1 <1>   0.0800 
 34 H        0.7270    -1.2550    -2.7240 H     1 <1>   0.0800 
 35 H       -0.4110    -2.5790    -2.6270 H     1 <1>   0.0800 
 36 H        1.2310    -2.8720    -3.1660 H     1 <1>   0.0800 
 37 H       -2.6970    -3.8160    -0.8010 H     1 <1>   0.1000 
 38 H       -1.5970    -2.4580    -0.4870 H     1 <1>   0.1000 
 39 H        0.1500    -6.9500     0.3370 H     1 <1>   0.1500 
 40 H       -1.7830    -4.9420    -2.8790 H     1 <1>   0.1500 
 41 H        0.0030    -2.5590     1.4990 H     1 <1>   0.0800 
 42 H        0.0460    -3.9630     2.5280 H     1 <1>   0.0800 
 43 H       -1.3370    -2.8960     2.5530 H     1 <1>   0.0800 
 44 H       -2.7360    -5.7900     0.7060 H     1 <1>   0.0800 
 45 H       -2.9150    -4.7670     2.1030 H     1 <1>   0.0800 
 46 H       -1.6260    -5.9460     2.0430 H     1 <1>   0.0800 
 47 H       -0.1840    -9.1020    -0.8030 H     1 <1>   0.1500 
 48 H       -2.1220    -7.0900    -4.0210 H     1 <1>   0.1500 
 49 H       -1.3220    -9.1740    -2.9840 H     1 <1>   0.1500 
@<TRIPOS>BOND
  1   1   2  2   
  2   2   3  am  
  3   2   4  1   
  4   3   5  1   
  5   3  25  1   
  6   4   6  ar  
  7   4   7  ar  
  8   5  26  1   
  9   5  27  1   
 10   5  28  1   
 11   6   8  ar  
 12   6   9  1   
 13   7  10  ar  
 14   7  29  1   
 15   8  11  ar  
 16   9  12  1   
 17   9  13  1   
 18  10  11  ar  
 19  10  30  1   
 20  11  31  1   
 21  12  14  1   
 22  12  32  1   
 23  12  33  1   
 24  13  34  1   
 25  13  35  1   
 26  13  36  1   
 27  14  15  1   
 28  14  16  1   
 29  14  17  1   
 30  15  18  ar  
 31  15  19  ar  
 32  16  17  1   
 33  16  20  1   
 34  16  21  1   
 35  17  37  1   
 36  17  38  1   
 37  18  22  ar  
 38  18  39  1   
 39  19  23  ar  
 40  19  40  1   
 41  20  41  1   
 42  20  42  1   
 43  20  43  1   
 44  21  44  1   
 45  21  45  1   
 46  21  46  1   
 47  22  24  ar  
 48  22  47  1   
 49  23  24  ar  
 50  23  48  1   
 51  24  49  1   
@<TRIPOS>SUBSTRUCTURE
  1 ****  12 GROUP 4 **** **** 0

# MOE 2024.06 (io_trps.svl 2023.06)
