@<TRIPOS>MOLECULE
NONAME
45 45 1 0 0 
SMALL
USER_CHARGES


@<TRIPOS>ATOM
  1 O       -1.5960    -3.4820    -2.5290 O.3   1 <1>  -0.6800 
  2 C       -0.7690    -3.6420    -1.4210 C.3   1 <1>   0.1200 
  3 C       -1.2980    -2.8700    -0.1890 C.3   1 <1>   0.0000 
  4 C       -2.7250    -3.3780     0.1720 C.3   1 <1>   0.2090 
  5 C       -0.3240    -3.1110     1.0010 C.3   1 <1>  -0.1600 
  6 C       -1.3870    -1.3560    -0.5450 C.3   1 <1>  -0.1600 
  7 N       -2.8790    -4.8670     0.3300 N.pl3 1 <1>  -0.8380 
  8 C        1.0830    -2.5000     0.8710 C.3   1 <1>  -0.2400 
  9 C       -1.8290    -0.4200     0.5940 C.3   1 <1>  -0.2400 
 10 C       -4.0480    -5.3700    -0.2160 C.ar  1 <1>   0.4100 
 11 C       -2.5320    -5.3990     1.6810 C.3   1 <1>   0.1290 
 12 N       -5.1500    -5.0980     0.4760 N.ar  1 <1>  -0.6200 
 13 C       -4.0520    -6.1020    -1.4100 C.ar  1 <1>   0.0730 
 14 C       -6.2930    -5.5490    -0.0030 C.ar  1 <1>   0.1670 
 15 C       -2.8450    -6.3620    -2.1280 C.1   1 <1>   0.4840 
 16 C       -5.2600    -6.5710    -1.8900 C.ar  1 <1>  -0.1500 
 17 C       -6.4070    -6.2930    -1.1730 C.ar  1 <1>  -0.1430 
 18 C       -7.5130    -5.2010     0.8300 C.3   1 <1>  -0.0970 
 19 N       -1.9190    -6.5810    -2.7610 N.1   1 <1>  -0.5570 
 20 C       -7.7440    -6.8100    -1.6900 C.3   1 <1>  -0.0970 
 21 H       -1.4870    -4.2550    -3.1240 H     1 <1>   0.4000 
 22 H        0.2100    -3.2990    -1.7030 H     1 <1>   0.0800 
 23 H       -0.7110    -4.6930    -1.1970 H     1 <1>   0.0800 
 24 H       -3.3940    -3.0540    -0.6080 H     1 <1>   0.0800 
 25 H       -3.0600    -2.9020     1.0760 H     1 <1>   0.0800 
 26 H       -0.1940    -4.1690     1.1270 H     1 <1>   0.0800 
 27 H       -0.7720    -2.7410     1.9070 H     1 <1>   0.0800 
 28 H       -2.0830    -1.2310    -1.3580 H     1 <1>   0.0800 
 29 H       -0.4350    -1.0200    -0.9160 H     1 <1>   0.0800 
 30 H        1.5870    -2.8650    -0.0060 H     1 <1>   0.0800 
 31 H        1.6720    -2.7710     1.7290 H     1 <1>   0.0800 
 32 H        1.0410    -1.4270     0.8270 H     1 <1>   0.0800 
 33 H       -2.8170    -0.6670     0.9380 H     1 <1>   0.0800 
 34 H       -1.8480     0.5940     0.2360 H     1 <1>   0.0800 
 35 H       -1.1490    -0.4650     1.4240 H     1 <1>   0.0800 
 36 H       -1.5550    -5.8470     1.6530 H     1 <1>   0.0800 
 37 H       -3.2390    -6.1540     1.9820 H     1 <1>   0.0800 
 38 H       -2.5450    -4.6130     2.4150 H     1 <1>   0.0800 
 39 H       -5.2970    -7.1380    -2.8040 H     1 <1>   0.1500 
 40 H       -7.2910    -4.3800     1.4880 H     1 <1>   0.0800 
 41 H       -7.7970    -6.0490     1.4250 H     1 <1>   0.0800 
 42 H       -8.3350    -4.9110     0.2030 H     1 <1>   0.0800 
 43 H       -8.2700    -7.3310    -0.9090 H     1 <1>   0.0800 
 44 H       -7.6030    -7.4930    -2.5090 H     1 <1>   0.0800 
 45 H       -8.3470    -5.9890    -2.0330 H     1 <1>   0.0800 
@<TRIPOS>BOND
  1   1   2  1   
  2   1  21  1   
  3   2   3  1   
  4   2  22  1   
  5   2  23  1   
  6   3   4  1   
  7   3   5  1   
  8   3   6  1   
  9   4   7  1   
 10   4  24  1   
 11   4  25  1   
 12   5   8  1   
 13   5  26  1   
 14   5  27  1   
 15   6   9  1   
 16   6  28  1   
 17   6  29  1   
 18   7  10  1   
 19   7  11  1   
 20   8  30  1   
 21   8  31  1   
 22   8  32  1   
 23   9  33  1   
 24   9  34  1   
 25   9  35  1   
 26  10  12  ar  
 27  10  13  ar  
 28  11  36  1   
 29  11  37  1   
 30  11  38  1   
 31  12  14  ar  
 32  13  15  1   
 33  13  16  ar  
 34  14  17  ar  
 35  14  18  1   
 36  15  19  3   
 37  16  17  ar  
 38  16  39  1   
 39  17  20  1   
 40  18  40  1   
 41  18  41  1   
 42  18  42  1   
 43  20  43  1   
 44  20  44  1   
 45  20  45  1   
@<TRIPOS>SUBSTRUCTURE
  1 ****   7 GROUP 4 **** **** 0

# MOE 2024.06 (io_trps.svl 2023.06)
