@<TRIPOS>MOLECULE
NONAME
61 65 1 0 0 
SMALL
USER_CHARGES


@<TRIPOS>ATOM
  1 O       -0.4970     2.8180     2.7590 O.2   1 <1>  -0.5700 
  2 C       -0.0570     2.8210     1.6270 C.2   1 <1>   0.5440 
  3 N       -0.7710     2.4340     0.5240 N.am  1 <1>  -0.6600 
  4 C        1.2140     3.3550     1.2370 C.ar  1 <1>   0.0860 
  5 C       -2.1950     1.9540     0.4960 C.3   1 <1>   0.3000 
  6 C       -0.0180     2.8290    -0.7090 C.3   1 <1>   0.2840 
  7 C        1.2710     3.3950    -0.1400 C.ar  1 <1>  -0.1440 
  8 C        2.2860     3.8230     1.9860 C.ar  1 <1>  -0.1500 
  9 C       -2.6120     1.6120    -0.9560 C.3   1 <1>  -0.1600 
 10 C       -2.2670     0.6510     1.3170 C.3   1 <1>  -0.1600 
 11 C       -3.1140     3.0350     1.1160 C.3   1 <1>  -0.0990 
 12 C        2.3740     3.9030    -0.7990 C.ar  1 <1>  -0.1500 
 13 C        3.3990     4.3320     1.3370 C.ar  1 <1>  -0.1500 
 14 C       -3.9820     0.9340    -1.0500 C.3   1 <1>   0.1400 
 15 C       -3.6290    -0.0450     1.2290 C.3   1 <1>   0.1400 
 16 C       -2.9290     4.3880     0.4700 C.2   1 <1>   0.5690 
 17 C        3.4420     4.3740    -0.0500 C.ar  1 <1>  -0.1500 
 18 N       -3.9890    -0.2850    -0.1970 N.am  1 <1>  -0.6600 
 19 O       -3.5840     4.6450    -0.5120 O.2   1 <1>  -0.5700 
 20 N       -2.0080     5.2290     1.0220 N.am  1 <1>  -0.5470 
 21 C       -4.3110    -1.5470    -0.6330 C.2   1 <1>   0.5690 
 22 C       -1.4400     6.4110     0.5160 C.ar  1 <1>   0.1170 
 23 O       -4.3150    -2.5030     0.1040 O.2   1 <1>  -0.5700 
 24 C       -4.6820    -1.7950    -2.0770 C.3   1 <1>  -0.1790 
 25 C       -0.1280     6.7060     0.8260 C.ar  1 <1>  -0.1500 
 26 C       -2.1670     7.2980    -0.2980 C.ar  1 <1>  -0.1500 
 27 C        0.4730     7.8580     0.3160 C.ar  1 <1>   0.0000 
 28 C       -1.5900     8.4410    -0.8020 C.ar  1 <1>  -0.1500 
 29 C       -0.2560     8.7200    -0.4940 C.ar  1 <1>  -0.1520 
 30 C        1.7650     8.4110     0.4300 C.2   1 <1>  -0.1500 
 31 N        0.5610     9.7650    -0.8600 N.pl3 1 <1>   0.0480 
 32 C        1.7850     9.5580    -0.2890 C.2   1 <1>  -0.3020 
 33 C        0.1810    10.9000    -1.7160 C.3   1 <1>   0.0160 
 34 H       -0.5540     3.5850    -1.2580 H     1 <1>   0.0800 
 35 H        0.1830     1.9710    -1.3270 H     1 <1>   0.0800 
 36 H        2.2370     3.7870     3.0610 H     1 <1>   0.1500 
 37 H       -1.8980     0.9330    -1.3840 H     1 <1>   0.0800 
 38 H       -2.6370     2.4970    -1.5640 H     1 <1>   0.0800 
 39 H       -2.0610     0.8490     2.3530 H     1 <1>   0.0800 
 40 H       -1.5200    -0.0370     0.9640 H     1 <1>   0.0800 
 41 H       -2.9270     3.1210     2.1690 H     1 <1>   0.0800 
 42 H       -4.1460     2.7620     1.0200 H     1 <1>   0.0800 
 43 H        2.4080     3.9400    -1.8750 H     1 <1>   0.1500 
 44 H        4.2340     4.6980     1.9100 H     1 <1>   0.1500 
 45 H       -4.1780     0.6920    -2.0780 H     1 <1>   0.0800 
 46 H       -4.7610     1.6020    -0.7240 H     1 <1>   0.0800 
 47 H       -4.3930     0.5580     1.6880 H     1 <1>   0.0800 
 48 H       -3.5820    -0.9740     1.7710 H     1 <1>   0.0800 
 49 H        4.3090     4.7750    -0.5470 H     1 <1>   0.1500 
 50 H       -1.5140     4.8320     1.8260 H     1 <1>   0.3700 
 51 H       -5.5440    -1.2130    -2.3380 H     1 <1>   0.0800 
 52 H       -4.9140    -2.8350    -2.2160 H     1 <1>   0.0800 
 53 H       -3.8570    -1.5410    -2.7140 H     1 <1>   0.0800 
 54 H        0.4560     6.0600     1.4520 H     1 <1>   0.1500 
 55 H       -3.1930     7.0760    -0.5260 H     1 <1>   0.1500 
 56 H       -2.1520     9.1120    -1.4250 H     1 <1>   0.1500 
 57 H        2.5620     7.9640     0.9980 H     1 <1>   0.1500 
 58 H        2.6020    10.2420    -0.4280 H     1 <1>   0.1500 
 59 H       -0.6280    11.4350    -1.2540 H     1 <1>   0.0800 
 60 H       -0.1310    10.5290    -2.6750 H     1 <1>   0.0800 
 61 H        1.0220    11.5560    -1.8400 H     1 <1>   0.0800 
@<TRIPOS>BOND
  1   1   2  2   
  2   2   3  am  
  3   2   4  1   
  4   3   5  1   
  5   3   6  1   
  6   4   7  ar  
  7   4   8  ar  
  8   5   9  1   
  9   5  10  1   
 10   5  11  1   
 11   6   7  1   
 12   6  34  1   
 13   6  35  1   
 14   7  12  ar  
 15   8  13  ar  
 16   8  36  1   
 17   9  14  1   
 18   9  37  1   
 19   9  38  1   
 20  10  15  1   
 21  10  39  1   
 22  10  40  1   
 23  11  16  1   
 24  11  41  1   
 25  11  42  1   
 26  12  17  ar  
 27  12  43  1   
 28  13  17  ar  
 29  13  44  1   
 30  14  18  1   
 31  14  45  1   
 32  14  46  1   
 33  15  18  1   
 34  15  47  1   
 35  15  48  1   
 36  16  19  2   
 37  16  20  am  
 38  17  49  1   
 39  18  21  am  
 40  20  22  1   
 41  20  50  1   
 42  21  23  2   
 43  21  24  1   
 44  22  25  ar  
 45  22  26  ar  
 46  24  51  1   
 47  24  52  1   
 48  24  53  1   
 49  25  27  ar  
 50  25  54  1   
 51  26  28  ar  
 52  26  55  1   
 53  27  29  ar  
 54  27  30  1   
 55  28  29  ar  
 56  28  56  1   
 57  29  31  1   
 58  30  32  2   
 59  30  57  1   
 60  31  32  1   
 61  31  33  1   
 62  32  58  1   
 63  33  59  1   
 64  33  60  1   
 65  33  61  1   
@<TRIPOS>SUBSTRUCTURE
  1 ****   3 GROUP 4 **** **** 0

# MOE 2024.06 (io_trps.svl 2023.06)
