@<TRIPOS>MOLECULE
NONAME
41 43 1 0 0 
SMALL
USER_CHARGES


@<TRIPOS>ATOM
  1 S       -0.9310     1.4140     0.3270 S.3   1 <1>  -0.0800 
  2 C        0.1280     2.7090     0.7590 C.2   1 <1>   0.1980 
  3 C       -0.5330     1.7460    -1.3220 C.2   1 <1>   0.1980 
  4 N        0.6580     3.2650    -0.2590 N.2   1 <1>  -0.3380 
  5 C        0.2980     3.0160     2.2450 C.3   1 <1>   0.2900 
  6 N        0.2870     2.7110    -1.4500 N.2   1 <1>  -0.3380 
  7 C       -1.1720     0.8930    -2.3950 C.3   1 <1>  -0.0600 
  8 N        1.5070     3.8220     2.5610 N.3   1 <1>  -0.8100 
  9 C        1.4820     5.2760     2.2900 C.3   1 <1>   0.1100 
 10 C        2.7730     3.1360     2.8440 C.3   1 <1>   0.1100 
 11 C        2.6950     5.7890     1.4930 C.3   1 <1>   0.3430 
 12 C        3.5030     2.7320     1.5580 C.3   1 <1>  -0.1600 
 13 N        3.0160     4.8650     0.3630 N.4   1 <1>  -0.9590 
 14 C        4.0670     3.8860     0.7230 C.3   1 <1>   0.3430 
 15 C        3.2880     5.5430    -0.9330 C.3   1 <1>   0.5230 
 16 C        2.1770     6.5170    -1.2680 C.2   1 <1>  -0.1400 
 17 S        2.4980     8.2230    -0.9870 S.3   1 <1>  -0.0800 
 18 C        0.9380     6.3490    -1.7690 C.2   1 <1>  -0.1500 
 19 C        0.9010     8.6650    -1.5620 C.2   1 <1>  -0.1100 
 20 C        0.2120     7.5710    -1.9320 C.2   1 <1>  -0.1500 
 21 H        0.3460     2.0880     2.7860 H     1 <1>   0.0800 
 22 H       -0.5750     3.5430     2.5880 H     1 <1>   0.0800 
 23 H       -0.9040    -0.1370    -2.2510 H     1 <1>   0.0800 
 24 H       -0.8340     1.2100    -3.3640 H     1 <1>   0.0800 
 25 H       -2.2410     0.9900    -2.3500 H     1 <1>   0.0800 
 26 H        1.4350     5.8040     3.2270 H     1 <1>   0.0800 
 27 H        0.5880     5.5230     1.7420 H     1 <1>   0.0800 
 28 H        2.5660     2.2520     3.4250 H     1 <1>   0.0800 
 29 H        3.4010     3.7710     3.4470 H     1 <1>   0.0800 
 30 H        3.5430     5.8750     2.1500 H     1 <1>   0.0800 
 31 H        2.4630     6.7750     1.1310 H     1 <1>   0.0800 
 32 H        2.8670     2.1160     0.9500 H     1 <1>   0.0800 
 33 H        4.3350     2.1120     1.8420 H     1 <1>   0.0800 
 34 H        2.1470     4.3160     0.2170 H     1 <1>   0.4500 
 35 H        4.4950     3.4700    -0.1750 H     1 <1>   0.0800 
 36 H        4.8530     4.3810     1.2690 H     1 <1>   0.0800 
 37 H        3.3470     4.8040    -1.7150 H     1 <1>   0.0800 
 38 H        4.2270     6.0710    -0.8910 H     1 <1>   0.0800 
 39 H        0.4840     5.4090    -2.0400 H     1 <1>   0.1500 
 40 H        0.6440     9.7100    -1.5640 H     1 <1>   0.1500 
 41 H       -0.7920     7.5680    -2.3230 H     1 <1>   0.1500 
@<TRIPOS>BOND
  1   1   2  1   
  2   1   3  1   
  3   2   4  2   
  4   2   5  1   
  5   3   6  2   
  6   3   7  1   
  7   4   6  1   
  8   5   8  1   
  9   5  21  1   
 10   5  22  1   
 11   7  23  1   
 12   7  24  1   
 13   7  25  1   
 14   8   9  1   
 15   8  10  1   
 16   9  11  1   
 17   9  26  1   
 18   9  27  1   
 19  10  12  1   
 20  10  28  1   
 21  10  29  1   
 22  11  13  1   
 23  11  30  1   
 24  11  31  1   
 25  12  14  1   
 26  12  32  1   
 27  12  33  1   
 28  13  14  1   
 29  13  15  1   
 30  13  34  1   
 31  14  35  1   
 32  14  36  1   
 33  15  16  1   
 34  15  37  1   
 35  15  38  1   
 36  16  17  1   
 37  16  18  2   
 38  17  19  1   
 39  18  20  1   
 40  18  39  1   
 41  19  20  2   
 42  19  40  1   
 43  20  41  1   
@<TRIPOS>SUBSTRUCTURE
  1 ****   4 GROUP 4 **** **** 0

# MOE 2024.06 (io_trps.svl 2023.06)
