@<TRIPOS>MOLECULE
NONAME
49 50 1 0 0 
SMALL
USER_CHARGES


@<TRIPOS>ATOM
  1 O       -1.4550     0.0220     2.3980 O.2   1 <1>  -0.5700 
  2 C       -1.5380     0.6490     1.3670 C.2   1 <1>   0.5690 
  3 N       -1.8980     0.0460     0.1880 N.am  1 <1>  -0.6600 
  4 C       -1.2360     2.1570     1.4400 C.3   1 <1>   0.1710 
  5 C       -2.2610    -1.4060     0.1330 C.3   1 <1>   0.3640 
  6 C       -2.0420     0.8020    -1.0920 C.3   1 <1>   0.1400 
  7 N       -0.1490     2.6650     0.5490 N.3   1 <1>  -0.8100 
  8 C       -1.0580    -2.2300    -0.3670 C.ar  1 <1>  -0.1430 
  9 C       -3.5760    -1.5850    -0.6810 C.3   1 <1>   0.2000 
 10 C       -2.5240    -0.0750    -2.2590 C.3   1 <1>   0.1200 
 11 C        0.0060     4.1240     0.7240 C.3   1 <1>   0.1100 
 12 C        1.1100     1.9470     0.8190 C.3   1 <1>   0.0300 
 13 C       -1.0640    -2.9750    -1.5440 C.ar  1 <1>  -0.1500 
 14 C        0.0930    -2.2450     0.4110 C.ar  1 <1>  -0.1500 
 15 O       -3.6210    -0.8800    -1.9100 O.3   1 <1>  -0.5600 
 16 C       -4.8020    -1.1340     0.1250 C.3   1 <1>   0.1200 
 17 C        0.7790     4.7540    -0.4370 C.3   1 <1>   0.1200 
 18 C        0.0500    -3.6990    -1.9310 C.ar  1 <1>  -0.1500 
 19 C        1.2080    -2.9680     0.0270 C.ar  1 <1>  -0.1500 
 20 O       -5.0470    -2.0130     1.1760 O.3   1 <1>  -0.6800 
 21 O        0.7940     6.1350    -0.2550 O.3   1 <1>  -0.5600 
 22 C        1.1890    -3.6960    -1.1480 C.ar  1 <1>  -0.1500 
 23 C        1.4560     6.8280    -1.2620 C.3   1 <1>   0.0400 
 24 H       -0.9880     2.3900     2.4610 H     1 <1>   0.0800 
 25 H       -2.1480     2.6760     1.2070 H     1 <1>   0.0800 
 26 H       -2.4640    -1.7530     1.1320 H     1 <1>   0.0800 
 27 H       -2.7410     1.6080    -0.9510 H     1 <1>   0.0800 
 28 H       -1.0920     1.2300    -1.3600 H     1 <1>   0.0800 
 29 H       -3.7090    -2.6240    -0.9170 H     1 <1>   0.0800 
 30 H       -1.7250    -0.7070    -2.6010 H     1 <1>   0.0800 
 31 H       -2.8250     0.5460    -3.0830 H     1 <1>   0.0800 
 32 H       -0.9680     4.5820     0.7480 H     1 <1>   0.0800 
 33 H        0.5070     4.3350     1.6530 H     1 <1>   0.0800 
 34 H        1.8910     2.2970     0.1680 H     1 <1>   0.0800 
 35 H        0.9830     0.8930     0.6380 H     1 <1>   0.0800 
 36 H        1.4150     2.0900     1.8420 H     1 <1>   0.0800 
 37 H       -1.9280    -3.0050    -2.1820 H     1 <1>   0.1500 
 38 H        0.1250    -1.6880     1.3310 H     1 <1>   0.1500 
 39 H       -5.6780    -1.1130    -0.5000 H     1 <1>   0.0800 
 40 H       -4.6360    -0.1570     0.5450 H     1 <1>   0.0800 
 41 H        0.2870     4.5330    -1.3680 H     1 <1>   0.0800 
 42 H        1.7950     4.4030    -0.4560 H     1 <1>   0.0800 
 43 H        0.0310    -4.2670    -2.8450 H     1 <1>   0.1500 
 44 H        2.0890    -2.9630     0.6450 H     1 <1>   0.1500 
 45 H       -5.4150    -2.8580     0.8490 H     1 <1>   0.4000 
 46 H        2.0550    -4.2590    -1.4490 H     1 <1>   0.1500 
 47 H        1.4100     7.8780    -1.0320 H     1 <1>   0.0800 
 48 H        0.9680     6.6410    -2.2030 H     1 <1>   0.0800 
 49 H        2.4840     6.5100    -1.2970 H     1 <1>   0.0800 
@<TRIPOS>BOND
  1   1   2  2   
  2   2   3  am  
  3   2   4  1   
  4   3   5  1   
  5   3   6  1   
  6   4   7  1   
  7   4  24  1   
  8   4  25  1   
  9   5   8  1   
 10   5   9  1   
 11   5  26  1   
 12   6  10  1   
 13   6  27  1   
 14   6  28  1   
 15   7  11  1   
 16   7  12  1   
 17   8  13  ar  
 18   8  14  ar  
 19   9  15  1   
 20   9  16  1   
 21   9  29  1   
 22  10  15  1   
 23  10  30  1   
 24  10  31  1   
 25  11  17  1   
 26  11  32  1   
 27  11  33  1   
 28  12  34  1   
 29  12  35  1   
 30  12  36  1   
 31  13  18  ar  
 32  13  37  1   
 33  14  19  ar  
 34  14  38  1   
 35  16  20  1   
 36  16  39  1   
 37  16  40  1   
 38  17  21  1   
 39  17  41  1   
 40  17  42  1   
 41  18  22  ar  
 42  18  43  1   
 43  19  22  ar  
 44  19  44  1   
 45  20  45  1   
 46  21  23  1   
 47  22  46  1   
 48  23  47  1   
 49  23  48  1   
 50  23  49  1   
@<TRIPOS>SUBSTRUCTURE
  1 ****   3 GROUP 4 **** **** 0

# MOE 2024.06 (io_trps.svl 2023.06)
