@<TRIPOS>MOLECULE
NONAME
51 53 1 0 0 
SMALL
USER_CHARGES


@<TRIPOS>ATOM
  1 O       -1.7530    -2.2590    -0.6410 O.co2 1 <1>  -0.9000 
  2 C       -0.9330    -3.1830    -0.5330 C.2   1 <1>   1.0330 
  3 O       -1.2470    -4.2620    -1.0660 O.co2 1 <1>  -0.9000 
  4 C        0.1480    -3.1000     0.3820 C.2   1 <1>  -0.2330 
  5 C        0.1000    -3.6010     1.6810 C.2   1 <1>   0.3720 
  6 C        1.3940    -2.5780     0.2780 C.2   1 <1>   0.0870 
  7 N        1.2150    -3.4160     2.2890 N.2   1 <1>  -0.4100 
  8 N       -0.9970    -4.2160     2.2980 N.pl3 1 <1>  -0.8210 
  9 O        1.9870    -2.7990     1.4290 O.3   1 <1>  -0.0190 
 10 C        2.0880    -1.8920    -0.7860 C.ar  1 <1>   0.0530 
 11 C       -1.3090    -5.6010     1.8000 C.3   1 <1>   0.2090 
 12 C       -2.1620    -3.3040     2.5620 C.3   1 <1>   0.2090 
 13 C        1.4020    -1.2030    -1.7870 C.ar  1 <1>  -0.1500 
 14 C        3.4820    -1.8900    -0.8490 C.ar  1 <1>  -0.1500 
 15 C       -2.7810    -5.8170     1.3800 C.3   1 <1>   0.3430 
 16 C       -3.3420    -3.3980     1.5580 C.3   1 <1>   0.3430 
 17 C        2.0730    -0.5500    -2.8040 C.ar  1 <1>  -0.1500 
 18 C        4.1600    -1.2380    -1.8620 C.ar  1 <1>  -0.1500 
 19 N       -3.3170    -4.6120     0.6820 N.4   1 <1>  -0.9590 
 20 C        3.4560    -0.5660    -2.8450 C.ar  1 <1>  -0.1500 
 21 C       -4.5380    -4.7810    -0.1500 C.3   1 <1>   0.3430 
 22 C       -4.3230    -5.7570    -1.3180 C.3   1 <1>   0.1200 
 23 O       -4.2620    -7.0690    -0.8400 O.3   1 <1>  -0.5600 
 24 C       -3.8620    -7.9920    -1.7990 C.3   1 <1>   0.1200 
 25 C       -3.8410    -9.3710    -1.1410 C.3   1 <1>  -0.1600 
 26 C       -3.4050   -10.4550    -2.1330 C.3   1 <1>  -0.2400 
 27 H       -1.0550    -6.3100     2.5670 H     1 <1>   0.0800 
 28 H       -0.6840    -5.8210     0.9510 H     1 <1>   0.0800 
 29 H       -1.8160    -2.2840     2.5840 H     1 <1>   0.0800 
 30 H       -2.5350    -3.5220     3.5470 H     1 <1>   0.0800 
 31 H        0.3260    -1.1700    -1.7700 H     1 <1>   0.1500 
 32 H        4.0410    -2.4110    -0.0920 H     1 <1>   0.1500 
 33 H       -3.3760    -6.0270     2.2510 H     1 <1>   0.0800 
 34 H       -2.8170    -6.6760     0.7350 H     1 <1>   0.0800 
 35 H       -3.3230    -2.5190     0.9340 H     1 <1>   0.0800 
 36 H       -4.2620    -3.3710     2.1150 H     1 <1>   0.0800 
 37 H        1.5170    -0.0290    -3.5630 H     1 <1>   0.1500 
 38 H        5.2360    -1.2530    -1.8870 H     1 <1>   0.1500 
 39 H       -2.5690    -4.3950    -0.0280 H     1 <1>   0.4500 
 40 H        3.9790    -0.0580    -3.6360 H     1 <1>   0.1500 
 41 H       -4.7940    -3.8220    -0.5700 H     1 <1>   0.0800 
 42 H       -5.3640    -5.1180     0.4530 H     1 <1>   0.0800 
 43 H       -3.4080    -5.5150    -1.8350 H     1 <1>   0.0800 
 44 H       -5.1470    -5.6930    -2.0060 H     1 <1>   0.0800 
 45 H       -2.8780    -7.7250    -2.1500 H     1 <1>   0.0800 
 46 H       -4.5620    -7.9720    -2.6170 H     1 <1>   0.0800 
 47 H       -4.8260    -9.6020    -0.7740 H     1 <1>   0.0800 
 48 H       -3.1570    -9.3570    -0.3110 H     1 <1>   0.0800 
 49 H       -4.0850   -10.5000    -2.9650 H     1 <1>   0.0800 
 50 H       -3.3980   -11.4160    -1.6470 H     1 <1>   0.0800 
 51 H       -2.4150   -10.2520    -2.5030 H     1 <1>   0.0800 
@<TRIPOS>BOND
  1   1   2  ar  
  2   2   3  ar  
  3   2   4  1   
  4   4   5  1   
  5   4   6  2   
  6   5   7  2   
  7   5   8  1   
  8   6   9  1   
  9   6  10  1   
 10   7   9  1   
 11   8  11  1   
 12   8  12  1   
 13  10  13  ar  
 14  10  14  ar  
 15  11  15  1   
 16  11  27  1   
 17  11  28  1   
 18  12  16  1   
 19  12  29  1   
 20  12  30  1   
 21  13  17  ar  
 22  13  31  1   
 23  14  18  ar  
 24  14  32  1   
 25  15  19  1   
 26  15  33  1   
 27  15  34  1   
 28  16  19  1   
 29  16  35  1   
 30  16  36  1   
 31  17  20  ar  
 32  17  37  1   
 33  18  20  ar  
 34  18  38  1   
 35  19  21  1   
 36  19  39  1   
 37  20  40  1   
 38  21  22  1   
 39  21  41  1   
 40  21  42  1   
 41  22  23  1   
 42  22  43  1   
 43  22  44  1   
 44  23  24  1   
 45  24  25  1   
 46  24  45  1   
 47  24  46  1   
 48  25  26  1   
 49  25  47  1   
 50  25  48  1   
 51  26  49  1   
 52  26  50  1   
 53  26  51  1   
@<TRIPOS>SUBSTRUCTURE
  1 ****   2 GROUP 4 **** **** 0

# MOE 2024.06 (io_trps.svl 2023.06)
