@<TRIPOS>MOLECULE
NONAME
50 52 1 0 0 
SMALL
USER_CHARGES


@<TRIPOS>ATOM
  1 O        0.9700     0.4970    -2.6560 O.2   1 <1>  -0.5700 
  2 C        1.5540     0.3130    -1.6030 C.2   1 <1>   0.5440 
  3 N        0.9580     0.7590    -0.4420 N.am  1 <1>  -0.6600 
  4 C        2.8390    -0.3420    -1.6130 C.ar  1 <1>   0.0860 
  5 C       -0.3890     1.3710    -0.4280 C.3   1 <1>   0.1400 
  6 C        1.6760     1.0270     0.8260 C.3   1 <1>   0.1400 
  7 C        3.0980    -1.4850    -0.8330 C.ar  1 <1>   0.4100 
  8 C        3.8590     0.1320    -2.4250 C.ar  1 <1>  -0.1500 
  9 C       -0.5810     1.8570     1.0050 C.3   1 <1>  -0.1600 
 10 C        0.8340     2.0850     1.5280 C.3   1 <1>  -0.1600 
 11 N        4.2680    -2.1220    -0.8170 N.ar  1 <1>  -0.6200 
 12 N        2.1260    -2.0150    -0.0180 N.pl3 1 <1>  -0.8690 
 13 C        5.0660    -0.5280    -2.4100 C.ar  1 <1>  -0.1500 
 14 C        5.2140    -1.6360    -1.5950 C.ar  1 <1>   0.1600 
 15 C        2.0200    -3.4390     0.3180 C.3   1 <1>   0.4330 
 16 C        0.5350    -3.7960     0.2750 C.ar  1 <1>  -0.1430 
 17 C        2.6470    -3.6750     1.7000 C.3   1 <1>  -0.1600 
 18 C       -0.3820    -3.1500     1.0960 C.ar  1 <1>  -0.1500 
 19 C        0.0810    -4.7730    -0.5990 C.ar  1 <1>  -0.1500 
 20 C        2.5690    -5.1410     2.1560 C.3   1 <1>  -0.2400 
 21 C       -1.7240    -3.4790     1.0440 C.ar  1 <1>  -0.1500 
 22 C       -1.2620    -5.1040    -0.6540 C.ar  1 <1>  -0.1500 
 23 C       -2.1750    -4.4550     0.1720 C.ar  1 <1>   0.0830 
 24 O       -3.5060    -4.7170     0.1820 O.3   1 <1>  -0.3630 
 25 C       -4.0720    -5.6660    -0.6940 C.3   1 <1>   0.0400 
 26 H       -1.1370     0.6500    -0.7120 H     1 <1>   0.0800 
 27 H       -0.4070     2.1980    -1.1170 H     1 <1>   0.0800 
 28 H        2.6790     1.3740     0.6430 H     1 <1>   0.0800 
 29 H        1.7060     0.1280     1.4180 H     1 <1>   0.0800 
 30 H        3.6960     0.9930    -3.0510 H     1 <1>   0.1500 
 31 H       -1.0630     1.0810     1.5740 H     1 <1>   0.0800 
 32 H       -1.1840     2.7470     1.0450 H     1 <1>   0.0800 
 33 H        1.1810     3.0600     1.2320 H     1 <1>   0.0800 
 34 H        0.8960     2.0000     2.5980 H     1 <1>   0.0800 
 35 H        1.1960    -1.5920    -0.1110 H     1 <1>   0.4000 
 36 H        5.8840    -0.1940    -3.0230 H     1 <1>   0.1500 
 37 H        6.1620    -2.1480    -1.5870 H     1 <1>   0.1500 
 38 H        2.5530    -4.0200    -0.4160 H     1 <1>   0.0800 
 39 H        2.1600    -3.0520     2.4270 H     1 <1>   0.0800 
 40 H        3.6810    -3.3840     1.6530 H     1 <1>   0.0800 
 41 H       -0.0530    -2.3860     1.7790 H     1 <1>   0.1500 
 42 H        0.7750    -5.2810    -1.2470 H     1 <1>   0.1500 
 43 H        1.5440    -5.4520     2.2600 H     1 <1>   0.0800 
 44 H        3.0560    -5.2540     3.1080 H     1 <1>   0.0800 
 45 H        3.0560    -5.7820     1.4430 H     1 <1>   0.0800 
 46 H       -2.4320    -2.9800     1.6790 H     1 <1>   0.1500 
 47 H       -1.5770    -5.8640    -1.3430 H     1 <1>   0.1500 
 48 H       -5.1320    -5.6910    -0.5190 H     1 <1>   0.0800 
 49 H       -3.6440    -6.6300    -0.4880 H     1 <1>   0.0800 
 50 H       -3.8760    -5.3640    -1.7080 H     1 <1>   0.0800 
@<TRIPOS>BOND
  1   1   2  2   
  2   2   3  am  
  3   2   4  1   
  4   3   5  1   
  5   3   6  1   
  6   4   7  ar  
  7   4   8  ar  
  8   5   9  1   
  9   5  26  1   
 10   5  27  1   
 11   6  10  1   
 12   6  28  1   
 13   6  29  1   
 14   7  11  ar  
 15   7  12  1   
 16   8  13  ar  
 17   8  30  1   
 18   9  10  1   
 19   9  31  1   
 20   9  32  1   
 21  10  33  1   
 22  10  34  1   
 23  11  14  ar  
 24  12  15  1   
 25  12  35  1   
 26  13  14  ar  
 27  13  36  1   
 28  14  37  1   
 29  15  16  1   
 30  15  17  1   
 31  15  38  1   
 32  16  18  ar  
 33  16  19  ar  
 34  17  20  1   
 35  17  39  1   
 36  17  40  1   
 37  18  21  ar  
 38  18  41  1   
 39  19  22  ar  
 40  19  42  1   
 41  20  43  1   
 42  20  44  1   
 43  20  45  1   
 44  21  23  ar  
 45  21  46  1   
 46  22  23  ar  
 47  22  47  1   
 48  23  24  1   
 49  24  25  1   
 50  25  48  1   
 51  25  49  1   
 52  25  50  1   
@<TRIPOS>SUBSTRUCTURE
  1 ****  12 GROUP 4 **** **** 0

# MOE 2024.06 (io_trps.svl 2023.06)
