@<TRIPOS>MOLECULE
NONAME
43 46 1 0 0 
SMALL
USER_CHARGES


@<TRIPOS>ATOM
  1 O        1.9240    -1.3470     2.2140 O.2   1 <1>  -0.5700 
  2 C        1.9790    -1.4460     1.0090 C.2   1 <1>   0.4230 
  3 C        2.2570    -0.3130     0.1370 C.ar  1 <1>   0.3960 
  4 C        1.7500    -2.8360     0.4040 C.3   1 <1>  -0.0190 
  5 N        2.3980    -0.5020    -1.1860 N.ar  1 <1>  -0.6200 
  6 C        2.3790     0.9640     0.6940 C.ar  1 <1>  -0.1500 
  7 C        0.7970    -3.6730     1.2730 C.3   1 <1>   0.1100 
  8 C        3.0830    -3.5800     0.2110 C.3   1 <1>  -0.1600 
  9 C        2.6510     0.5590    -1.9290 C.ar  1 <1>   0.1600 
 10 C        2.6430     2.0650    -0.0900 C.ar  1 <1>  -0.1500 
 11 N        0.5680    -5.0050     0.6810 N.3   1 <1>  -0.8100 
 12 C        2.8230    -4.9950    -0.3200 C.3   1 <1>  -0.1600 
 13 C        2.7810     1.8460    -1.4410 C.ar  1 <1>  -0.1500 
 14 C        1.8300    -5.7570     0.5630 C.3   1 <1>   0.1100 
 15 C       -0.4600    -5.7360     1.4650 C.3   1 <1>   0.2900 
 16 C       -0.9910    -7.0090     0.8050 C.2   1 <1>   0.2980 
 17 O       -0.2600    -8.0940     0.8530 O.3   1 <1>  -0.0190 
 18 N       -2.1150    -7.1390     0.2280 N.2   1 <1>  -0.5650 
 19 N       -0.9730    -8.9870     0.2390 N.2   1 <1>  -0.4100 
 20 C       -2.0680    -8.4250    -0.1360 C.2   1 <1>   0.5150 
 21 C       -3.1310    -9.0890    -0.8600 C.2   1 <1>   0.1410 
 22 O       -4.2530    -8.4520    -1.1900 O.3   1 <1>  -0.2800 
 23 C       -3.2150   -10.3700    -1.3130 C.2   1 <1>  -0.1500 
 24 C       -5.0390    -9.2880    -1.8360 C.2   1 <1>  -0.0100 
 25 C       -4.4530   -10.4980    -1.9470 C.2   1 <1>  -0.1500 
 26 H        1.2730    -2.7230    -0.5530 H     1 <1>   0.0800 
 27 H        2.2640     1.0860     1.7560 H     1 <1>   0.1500 
 28 H       -0.1400    -3.1490     1.3550 H     1 <1>   0.0800 
 29 H        1.2100    -3.7830     2.2630 H     1 <1>   0.0800 
 30 H        3.5990    -3.6400     1.1540 H     1 <1>   0.0800 
 31 H        3.7070    -3.0430    -0.4820 H     1 <1>   0.0800 
 32 H        2.7620     0.3980    -2.9890 H     1 <1>   0.1500 
 33 H        2.7370     3.0500     0.3350 H     1 <1>   0.1500 
 34 H        3.7490    -5.5400    -0.3670 H     1 <1>   0.0800 
 35 H        2.4230    -4.9410    -1.3180 H     1 <1>   0.0800 
 36 H        2.9880     2.6610    -2.1110 H     1 <1>   0.1500 
 37 H        1.6470    -6.7140     0.1070 H     1 <1>   0.0800 
 38 H        2.2560    -5.9170     1.5390 H     1 <1>   0.0800 
 39 H       -1.3060    -5.0860     1.6080 H     1 <1>   0.0800 
 40 H       -0.0700    -5.9820     2.4360 H     1 <1>   0.0800 
 41 H       -2.4780   -11.1460    -1.2110 H     1 <1>   0.1500 
 42 H       -5.9960    -8.9380    -2.1810 H     1 <1>   0.1500 
 43 H       -4.8320   -11.3890    -2.4160 H     1 <1>   0.1500 
@<TRIPOS>BOND
  1   1   2  2   
  2   2   3  1   
  3   2   4  1   
  4   3   5  ar  
  5   3   6  ar  
  6   4   7  1   
  7   4   8  1   
  8   4  26  1   
  9   5   9  ar  
 10   6  10  ar  
 11   6  27  1   
 12   7  11  1   
 13   7  28  1   
 14   7  29  1   
 15   8  12  1   
 16   8  30  1   
 17   8  31  1   
 18   9  13  ar  
 19   9  32  1   
 20  10  13  ar  
 21  10  33  1   
 22  11  14  1   
 23  11  15  1   
 24  12  14  1   
 25  12  34  1   
 26  12  35  1   
 27  13  36  1   
 28  14  37  1   
 29  14  38  1   
 30  15  16  1   
 31  15  39  1   
 32  15  40  1   
 33  16  17  1   
 34  16  18  2   
 35  17  19  1   
 36  18  20  1   
 37  19  20  2   
 38  20  21  1   
 39  21  22  1   
 40  21  23  2   
 41  22  24  1   
 42  23  25  1   
 43  23  41  1   
 44  24  25  2   
 45  24  42  1   
 46  25  43  1   
@<TRIPOS>SUBSTRUCTURE
  1 ****  11 GROUP 4 **** **** 0

# MOE 2024.06 (io_trps.svl 2023.06)
