@<TRIPOS>MOLECULE
NONAME
39 41 1 0 0 
SMALL
USER_CHARGES


@<TRIPOS>ATOM
  1 CL       1.4330     1.5320     3.2630 Cl    1 <1>  -0.1770 
  2 C        2.4790     1.9100     1.9210 C.ar  1 <1>   0.1770 
  3 C        3.7440     1.3570     1.8680 C.ar  1 <1>  -0.1500 
  4 C        2.0320     2.7590     0.9270 C.ar  1 <1>  -0.1500 
  5 C        4.5710     1.6650     0.8000 C.ar  1 <1>  -0.1500 
  6 C        2.8700     3.0580    -0.1350 C.ar  1 <1>  -0.1500 
  7 C        4.1520     2.5200    -0.2160 C.ar  1 <1>  -0.0090 
  8 S        5.2570     2.9220    -1.6000 S.o2  1 <1>   1.4470 
  9 O        4.7060     4.0070    -2.3820 O.2   1 <1>  -0.6500 
 10 O        5.6550     1.6930    -2.2490 O.2   1 <1>  -0.6500 
 11 N        6.6280     3.5430    -0.8130 N.am  1 <1>  -0.8490 
 12 C        6.3650     4.8820    -0.2440 C.3   1 <1>   0.1960 
 13 C        7.8030     3.5400    -1.7000 C.3   1 <1>   0.1960 
 14 C        7.4440     5.4050     0.7300 C.3   1 <1>   0.2200 
 15 C        9.1330     3.7750    -0.9710 C.3   1 <1>  -0.0190 
 16 N        8.5840     6.0180    -0.0180 N.am  1 <1>  -0.6600 
 17 C        7.8930     4.3280     1.7510 C.3   1 <1>   0.1200 
 18 C        9.4000     5.2590    -0.8130 C.2   1 <1>   0.5690 
 19 C        9.2710     2.9750     0.3400 C.3   1 <1>   0.1200 
 20 C        8.8530     7.4590     0.2440 C.3   1 <1>   0.0600 
 21 O        9.1490     3.7680     1.4830 O.3   1 <1>  -0.5600 
 22 O       10.3160     5.7380    -1.4410 O.2   1 <1>  -0.5700 
 23 H        4.0710     0.6950     2.6500 H     1 <1>   0.1500 
 24 H        1.0420     3.1750     0.9870 H     1 <1>   0.1500 
 25 H        5.5580     1.2330     0.7500 H     1 <1>   0.1500 
 26 H        2.5210     3.7180    -0.9130 H     1 <1>   0.1500 
 27 H        6.2240     5.6020    -1.0350 H     1 <1>   0.0800 
 28 H        5.4440     4.8380     0.3100 H     1 <1>   0.0800 
 29 H        7.8800     2.5750    -2.1720 H     1 <1>   0.0800 
 30 H        7.6770     4.2690    -2.4850 H     1 <1>   0.0800 
 31 H        6.9680     6.1880     1.2940 H     1 <1>   0.0800 
 32 H        9.8910     3.4030    -1.6360 H     1 <1>   0.0800 
 33 H        7.1700     3.5350     1.8270 H     1 <1>   0.0800 
 34 H        7.9700     4.7900     2.7190 H     1 <1>   0.0800 
 35 H       10.2560     2.5450     0.3810 H     1 <1>   0.0800 
 36 H        8.5550     2.1720     0.3950 H     1 <1>   0.0800 
 37 H        7.9980     8.0480    -0.0360 H     1 <1>   0.0800 
 38 H        9.7030     7.7970    -0.3240 H     1 <1>   0.0800 
 39 H        9.0640     7.6030     1.2890 H     1 <1>   0.0800 
@<TRIPOS>BOND
  1   1   2  1   
  2   2   3  ar  
  3   2   4  ar  
  4   3   5  ar  
  5   3  23  1   
  6   4   6  ar  
  7   4  24  1   
  8   5   7  ar  
  9   5  25  1   
 10   6   7  ar  
 11   6  26  1   
 12   7   8  1   
 13   8   9  2   
 14   8  10  2   
 15   8  11  am  
 16  11  12  1   
 17  11  13  1   
 18  12  14  1   
 19  12  27  1   
 20  12  28  1   
 21  13  15  1   
 22  13  29  1   
 23  13  30  1   
 24  14  16  1   
 25  14  17  1   
 26  14  31  1   
 27  15  18  1   
 28  15  19  1   
 29  15  32  1   
 30  16  18  am  
 31  16  20  1   
 32  17  21  1   
 33  17  33  1   
 34  17  34  1   
 35  18  22  2   
 36  19  21  1   
 37  19  35  1   
 38  19  36  1   
 39  20  37  1   
 40  20  38  1   
 41  20  39  1   
@<TRIPOS>SUBSTRUCTURE
  1 ****  11 GROUP 4 **** **** 0

# MOE 2024.06 (io_trps.svl 2023.06)
