@<TRIPOS>MOLECULE
NONAME
38 37 1 0 0 
SMALL
USER_CHARGES


@<TRIPOS>ATOM
  1 SI      -0.4800     1.0690    -0.4840 Si    1 <1>   0.5390 
  2 O       -1.3120     0.5580     0.8420 O.3   1 <1>  -0.5770 
  3 C        1.3020     0.6670    -0.2590 C.3   1 <1>  -0.0810 
  4 C       -1.1440     0.2550    -1.9530 C.3   1 <1>  -0.3200 
  5 C       -0.7290     2.8510    -0.6400 C.3   1 <1>  -0.3200 
  6 C       -2.6990     0.5660     0.9620 C.3   1 <1>   0.1200 
  7 C        1.8880     1.3450     0.9940 C.3   1 <1>  -0.2400 
  8 C        1.5280    -0.8460    -0.0840 C.3   1 <1>  -0.2400 
  9 C        2.1680     1.1130    -1.4520 C.3   1 <1>  -0.2400 
 10 C       -3.2490    -0.8170     0.6150 C.3   1 <1>   0.1200 
 11 O       -4.6390    -0.7770     0.7090 O.3   1 <1>  -0.5600 
 12 C       -5.2550    -1.9950     0.4350 C.3   1 <1>   0.1200 
 13 C       -6.7610    -1.8280     0.6270 C.3   1 <1>   0.1200 
 14 O       -7.4070    -3.0020     0.2600 O.3   1 <1>  -0.6800 
 15 H       -1.0620    -0.8140    -1.8950 H     1 <1>   0.0800 
 16 H       -0.6320     0.5550    -2.8470 H     1 <1>   0.0800 
 17 H       -2.1830     0.4800    -2.1070 H     1 <1>   0.0800 
 18 H       -0.4000     3.3780     0.2350 H     1 <1>   0.0800 
 19 H       -1.7630     3.1040    -0.7800 H     1 <1>   0.0800 
 20 H       -0.1940     3.2650    -1.4740 H     1 <1>   0.0800 
 21 H       -3.1110     1.3230     0.3190 H     1 <1>   0.0800 
 22 H       -2.9310     0.7970     1.9860 H     1 <1>   0.0800 
 23 H        1.3410     1.0440     1.8710 H     1 <1>   0.0800 
 24 H        1.8250     2.4160     0.9130 H     1 <1>   0.0800 
 25 H        2.9210     1.0800     1.1340 H     1 <1>   0.0800 
 26 H        0.9710    -1.2110     0.7620 H     1 <1>   0.0800 
 27 H        2.5680    -1.0680     0.0770 H     1 <1>   0.0800 
 28 H        1.2020    -1.3830    -0.9570 H     1 <1>   0.0800 
 29 H        2.0980     2.1770    -1.5950 H     1 <1>   0.0800 
 30 H        1.8480     0.6280    -2.3560 H     1 <1>   0.0800 
 31 H        3.2030     0.8660    -1.2890 H     1 <1>   0.0800 
 32 H       -2.8750    -1.5450     1.3150 H     1 <1>   0.0800 
 33 H       -2.9830    -1.0920    -0.3890 H     1 <1>   0.0800 
 34 H       -4.8760    -2.7370     1.1170 H     1 <1>   0.0800 
 35 H       -5.0310    -2.2670    -0.5820 H     1 <1>   0.0800 
 36 H       -7.1410    -1.0270     0.0180 H     1 <1>   0.0800 
 37 H       -6.9840    -1.6370     1.6630 H     1 <1>   0.0800 
 38 H       -7.3760    -3.1260    -0.7080 H     1 <1>   0.4000 
@<TRIPOS>BOND
  1   1   2  1   
  2   1   3  1   
  3   1   4  1   
  4   1   5  1   
  5   2   6  1   
  6   3   7  1   
  7   3   8  1   
  8   3   9  1   
  9   4  15  1   
 10   4  16  1   
 11   4  17  1   
 12   5  18  1   
 13   5  19  1   
 14   5  20  1   
 15   6  10  1   
 16   6  21  1   
 17   6  22  1   
 18   7  23  1   
 19   7  24  1   
 20   7  25  1   
 21   8  26  1   
 22   8  27  1   
 23   8  28  1   
 24   9  29  1   
 25   9  30  1   
 26   9  31  1   
 27  10  11  1   
 28  10  32  1   
 29  10  33  1   
 30  11  12  1   
 31  12  13  1   
 32  12  34  1   
 33  12  35  1   
 34  13  14  1   
 35  13  36  1   
 36  13  37  1   
 37  14  38  1   
@<TRIPOS>SUBSTRUCTURE
  1 ****   2 GROUP 4 **** **** 0

# MOE 2024.06 (io_trps.svl 2023.06)
