@<TRIPOS>MOLECULE
NONAME
65 68 1 0 0 
SMALL
USER_CHARGES


@<TRIPOS>ATOM
  1 F       -0.9660     0.0870    -0.1370 F     1 <1>  -0.1900 
  2 C       -2.2220     0.4550    -0.1510 C.ar  1 <1>   0.1900 
  3 C       -2.8370     0.9490    -1.3060 C.ar  1 <1>   0.0830 
  4 C       -2.9130     0.3280     1.0380 C.ar  1 <1>  -0.1500 
  5 O       -2.2660     1.1200    -2.5330 O.3   1 <1>  -0.3630 
  6 C       -4.1720     1.3090    -1.2200 C.ar  1 <1>  -0.1500 
  7 C       -4.2450     0.6930     1.0900 C.ar  1 <1>  -0.1500 
  8 C       -0.9020     0.8670    -2.7880 C.3   1 <1>   0.0400 
  9 C       -4.9050     1.1860    -0.0380 C.ar  1 <1>   0.0530 
 10 C       -6.2970     1.5540     0.0070 C.2   1 <1>   0.0870 
 11 O       -6.7690     2.5100    -0.7500 O.3   1 <1>  -0.0190 
 12 C       -7.3470     1.0630     0.7140 C.2   1 <1>  -0.0860 
 13 N       -8.0520     2.7020    -0.5860 N.2   1 <1>  -0.4100 
 14 C       -8.4280     1.8580     0.3130 C.2   1 <1>   0.3720 
 15 C       -7.4090    -0.0550     1.5940 C.2   1 <1>   0.7160 
 16 N       -9.7540     1.7680     0.7990 N.pl3 1 <1>  -0.8210 
 17 O       -7.2750     0.1070     2.7930 O.2   1 <1>  -0.5700 
 18 N       -7.6640    -1.3230     1.1110 N.am  1 <1>  -0.6600 
 19 C      -10.7050     2.7220     0.1450 C.3   1 <1>   0.1290 
 20 C       -9.8320     1.8930     2.2890 C.3   1 <1>   0.1290 
 21 C       -7.6820    -1.6440    -0.3350 C.3   1 <1>   0.1400 
 22 C       -8.3680    -2.3170     1.9480 C.3   1 <1>   0.1400 
 23 C       -9.1320    -1.5600    -0.8100 C.3   1 <1>  -0.1600 
 24 C       -9.8480    -2.2640     1.5570 C.3   1 <1>  -0.1600 
 25 C      -10.0810    -2.4430     0.0370 C.3   1 <1>   0.5030 
 26 N      -11.5190    -2.0700    -0.2400 N.4   1 <1>  -0.9590 
 27 C       -9.8570    -3.9540    -0.3250 C.3   1 <1>   0.1100 
 28 C      -12.0090    -2.6230    -1.5440 C.3   1 <1>   0.3430 
 29 C      -11.8910    -0.6260    -0.0670 C.3   1 <1>   0.2630 
 30 N      -11.1330    -4.7020    -0.4250 N.3   1 <1>  -0.8100 
 31 C      -11.9430    -4.1700    -1.5450 C.3   1 <1>   0.1100 
 32 C      -10.9090    -6.1460    -0.5700 C.3   1 <1>   0.0300 
 33 H       -2.4110    -0.0510     1.9110 H     1 <1>   0.1500 
 34 H       -4.6520     1.6940    -2.1020 H     1 <1>   0.1500 
 35 H       -4.7740     0.6020     2.0240 H     1 <1>   0.1500 
 36 H       -0.7030     1.1140    -3.8150 H     1 <1>   0.0800 
 37 H       -0.7020    -0.1760    -2.6190 H     1 <1>   0.0800 
 38 H       -0.3040     1.4850    -2.1430 H     1 <1>   0.0800 
 39 H      -10.6840     2.5900    -0.9240 H     1 <1>   0.0800 
 40 H      -10.4220     3.7370     0.3700 H     1 <1>   0.0800 
 41 H      -11.7080     2.5530     0.4950 H     1 <1>   0.0800 
 42 H       -9.7580     0.9220     2.7450 H     1 <1>   0.0800 
 43 H      -10.7640     2.3390     2.5940 H     1 <1>   0.0800 
 44 H       -9.0260     2.5070     2.6570 H     1 <1>   0.0800 
 45 H       -7.2820    -2.6320    -0.4860 H     1 <1>   0.0800 
 46 H       -7.0660    -0.9550    -0.8890 H     1 <1>   0.0800 
 47 H       -8.2550    -2.0840     2.9950 H     1 <1>   0.0800 
 48 H       -7.9450    -3.2930     1.7840 H     1 <1>   0.0800 
 49 H       -9.1740    -1.8450    -1.8450 H     1 <1>   0.0800 
 50 H       -9.4120    -0.5270    -0.7520 H     1 <1>   0.0800 
 51 H      -10.2150    -1.3130     1.8920 H     1 <1>   0.0800 
 52 H      -10.3760    -3.0280     2.1000 H     1 <1>   0.0800 
 53 H      -12.0190    -2.6450     0.4560 H     1 <1>   0.4500 
 54 H       -9.2320    -4.4210     0.4150 H     1 <1>   0.0800 
 55 H       -9.3340    -4.0360    -1.2620 H     1 <1>   0.0800 
 56 H      -11.4060    -2.2400    -2.3510 H     1 <1>   0.0800 
 57 H      -13.0270    -2.3170    -1.7220 H     1 <1>   0.0800 
 58 H      -11.4210    -0.0230    -0.8260 H     1 <1>   0.0800 
 59 H      -11.5740    -0.2580     0.8940 H     1 <1>   0.0800 
 60 H      -12.9590    -0.5040    -0.1440 H     1 <1>   0.0800 
 61 H      -11.5390    -4.5000    -2.4880 H     1 <1>   0.0800 
 62 H      -12.9430    -4.5630    -1.4670 H     1 <1>   0.0800 
 63 H      -10.3660    -6.5230     0.2810 H     1 <1>   0.0800 
 64 H      -10.3480    -6.3600    -1.4650 H     1 <1>   0.0800 
 65 H      -11.8530    -6.6620    -0.6180 H     1 <1>   0.0800 
@<TRIPOS>BOND
  1   1   2  1   
  2   2   3  ar  
  3   2   4  ar  
  4   3   5  1   
  5   3   6  ar  
  6   4   7  ar  
  7   4  33  1   
  8   5   8  1   
  9   6   9  ar  
 10   6  34  1   
 11   7   9  ar  
 12   7  35  1   
 13   8  36  1   
 14   8  37  1   
 15   8  38  1   
 16   9  10  1   
 17  10  11  1   
 18  10  12  2   
 19  11  13  1   
 20  12  14  1   
 21  12  15  1   
 22  13  14  2   
 23  14  16  1   
 24  15  17  2   
 25  15  18  am  
 26  16  19  1   
 27  16  20  1   
 28  18  21  1   
 29  18  22  1   
 30  19  39  1   
 31  19  40  1   
 32  19  41  1   
 33  20  42  1   
 34  20  43  1   
 35  20  44  1   
 36  21  23  1   
 37  21  45  1   
 38  21  46  1   
 39  22  24  1   
 40  22  47  1   
 41  22  48  1   
 42  23  25  1   
 43  23  49  1   
 44  23  50  1   
 45  24  25  1   
 46  24  51  1   
 47  24  52  1   
 48  25  26  1   
 49  25  27  1   
 50  26  28  1   
 51  26  29  1   
 52  26  53  1   
 53  27  30  1   
 54  27  54  1   
 55  27  55  1   
 56  28  31  1   
 57  28  56  1   
 58  28  57  1   
 59  29  58  1   
 60  29  59  1   
 61  29  60  1   
 62  30  31  1   
 63  30  32  1   
 64  31  61  1   
 65  31  62  1   
 66  32  63  1   
 67  32  64  1   
 68  32  65  1   
@<TRIPOS>SUBSTRUCTURE
  1 ****  21 GROUP 4 **** **** 0

# MOE 2024.06 (io_trps.svl 2023.06)
