@<TRIPOS>MOLECULE
NONAME
41 43 1 0 0 
SMALL
USER_CHARGES


@<TRIPOS>ATOM
  1 O       -0.5680     0.2340     2.4090 O.3   1 <1>  -0.5600 
  2 C        0.5920     0.4350     1.6550 C.3   1 <1>   0.1200 
  3 C       -1.7040     0.4340     1.6170 C.3   1 <1>   0.1200 
  4 C        0.1980     1.3920     0.5370 C.3   1 <1>   0.2890 
  5 C       -1.2150     0.9080     0.2450 C.3   1 <1>  -0.0800 
  6 N        0.1940     2.7770     1.0680 N.pl3 1 <1>  -0.8690 
  7 C       -2.1470     1.9230    -0.4430 C.3   1 <1>  -0.0170 
  8 C        0.4830     3.9110     0.3540 C.ar  1 <1>   0.4100 
  9 C       -3.5010     1.3010    -0.7480 C.ar  1 <1>  -0.1430 
 10 N        0.7170     3.7700    -0.9340 N.ar  1 <1>  -0.6200 
 11 C        0.5110     5.1580     0.9630 C.ar  1 <1>  -0.1430 
 12 C       -4.6010     1.5110     0.0580 C.ar  1 <1>  -0.1500 
 13 C       -3.6970     0.4940    -1.8490 C.ar  1 <1>  -0.1500 
 14 C        0.9750     4.8780    -1.5980 C.ar  1 <1>   0.4770 
 15 C        0.7920     6.2320     0.1590 C.ar  1 <1>   0.1600 
 16 C        0.2460     5.3380     2.4530 C.3   1 <1>  -0.0970 
 17 C       -5.8090     0.9150    -0.2650 C.ar  1 <1>   0.1600 
 18 C       -4.9470    -0.0550    -2.0820 C.ar  1 <1>   0.1600 
 19 N        1.0250     6.1110    -1.1320 N.ar  1 <1>  -0.6200 
 20 C        1.2410     4.7250    -3.0760 C.3   1 <1>  -0.0970 
 21 N       -6.0080     0.1350    -1.3150 N.ar  1 <1>  -0.6200 
 22 H        1.3710     0.8310     2.2820 H     1 <1>   0.0800 
 23 H        0.8920    -0.5160     1.2520 H     1 <1>   0.0800 
 24 H       -2.2550    -0.4880     1.5500 H     1 <1>   0.0800 
 25 H       -2.3060     1.1840     2.1000 H     1 <1>   0.0800 
 26 H        0.8530     1.3070    -0.3140 H     1 <1>   0.0800 
 27 H       -1.1400     0.0400    -0.3870 H     1 <1>   0.0800 
 28 H       -0.0760     2.8480     2.0500 H     1 <1>   0.4000 
 29 H       -1.6930     2.2570    -1.3600 H     1 <1>   0.0800 
 30 H       -2.2820     2.7900     0.1790 H     1 <1>   0.0800 
 31 H       -4.5320     2.1320     0.9320 H     1 <1>   0.1500 
 32 H       -2.8890     0.2870    -2.5280 H     1 <1>   0.1500 
 33 H        0.8280     7.2250     0.5730 H     1 <1>   0.1500 
 34 H        0.3320     6.3710     2.7380 H     1 <1>   0.0800 
 35 H        0.9570     4.7670     3.0230 H     1 <1>   0.0800 
 36 H       -0.7470     5.0000     2.6920 H     1 <1>   0.0800 
 37 H       -6.6570     1.0890     0.3750 H     1 <1>   0.1500 
 38 H       -5.0810    -0.6820    -2.9470 H     1 <1>   0.1500 
 39 H        0.4040     5.1070    -3.6270 H     1 <1>   0.0800 
 40 H        1.3890     3.6920    -3.3280 H     1 <1>   0.0800 
 41 H        2.1220     5.2790    -3.3420 H     1 <1>   0.0800 
@<TRIPOS>BOND
  1   1   2  1   
  2   1   3  1   
  3   2   4  1   
  4   2  22  1   
  5   2  23  1   
  6   3   5  1   
  7   3  24  1   
  8   3  25  1   
  9   4   5  1   
 10   4   6  1   
 11   4  26  1   
 12   5   7  1   
 13   5  27  1   
 14   6   8  1   
 15   6  28  1   
 16   7   9  1   
 17   7  29  1   
 18   7  30  1   
 19   8  10  ar  
 20   8  11  ar  
 21   9  12  ar  
 22   9  13  ar  
 23  10  14  ar  
 24  11  15  ar  
 25  11  16  1   
 26  12  17  ar  
 27  12  31  1   
 28  13  18  ar  
 29  13  32  1   
 30  14  19  ar  
 31  14  20  1   
 32  15  19  ar  
 33  15  33  1   
 34  16  34  1   
 35  16  35  1   
 36  16  36  1   
 37  17  21  ar  
 38  17  37  1   
 39  18  21  ar  
 40  18  38  1   
 41  20  39  1   
 42  20  40  1   
 43  20  41  1   
@<TRIPOS>SUBSTRUCTURE
  1 ****   7 GROUP 4 **** **** 0

# MOE 2024.06 (io_trps.svl 2023.06)
