@<TRIPOS>MOLECULE
NONAME
35 37 1 0 0 
SMALL
USER_CHARGES


@<TRIPOS>ATOM
  1 CL      -0.1790     0.0540    -0.7240 Cl    1 <1>  -0.1230 
  2 C       -1.7180     0.5440    -0.0350 C.2   1 <1>   0.1230 
  3 C       -2.8080    -0.2770     0.2860 C.2   1 <1>   0.2030 
  4 C       -2.0570     1.8090     0.2620 C.2   1 <1>  -0.3020 
  5 N       -3.7880     0.4880     0.7600 N.2   1 <1>  -0.7070 
  6 C       -2.8220    -1.7280     0.1190 C.2   1 <1>   0.7160 
  7 N       -3.3110     1.7470     0.7440 N.pl3 1 <1>   0.3000 
  8 O       -1.7810    -2.3620     0.1570 O.2   1 <1>  -0.5700 
  9 N       -3.9860    -2.4490    -0.0840 N.am  1 <1>  -0.6600 
 10 C       -5.3550    -1.8850    -0.1690 C.3   1 <1>   0.1400 
 11 C       -4.0160    -3.9250    -0.2250 C.3   1 <1>   0.1400 
 12 C       -6.2590    -3.0830    -0.4630 C.3   1 <1>   0.2000 
 13 C       -5.4790    -4.3090     0.0050 C.3   1 <1>  -0.0800 
 14 O       -7.4610    -2.9990     0.2210 O.3   1 <1>  -0.6800 
 15 C       -5.9130    -5.5980    -0.7130 C.3   1 <1>  -0.0170 
 16 C       -5.1360    -6.8040    -0.2130 C.ar  1 <1>   0.1670 
 17 N       -3.9730    -7.0440    -0.7980 N.ar  1 <1>  -0.6200 
 18 C       -5.6560    -7.5880     0.8160 C.ar  1 <1>   0.1600 
 19 C       -3.3700    -8.1050    -0.2890 C.ar  1 <1>   0.1600 
 20 N       -5.0540    -8.6500     1.3260 N.ar  1 <1>  -0.6200 
 21 C       -3.8930    -8.8810     0.7380 C.ar  1 <1>   0.1600 
 22 H       -1.4930     2.7170     0.1590 H     1 <1>   0.1500 
 23 H       -3.8670     2.5500     1.0680 H     1 <1>   0.2700 
 24 H       -5.6110    -1.4330     0.7740 H     1 <1>   0.0800 
 25 H       -5.4120    -1.1540    -0.9570 H     1 <1>   0.0800 
 26 H       -3.6980    -4.1900    -1.2190 H     1 <1>   0.0800 
 27 H       -3.3650    -4.3980     0.4920 H     1 <1>   0.0800 
 28 H       -6.4690    -3.1310    -1.5180 H     1 <1>   0.0800 
 29 H       -5.6090    -4.4300     1.0670 H     1 <1>   0.0800 
 30 H       -7.2990    -2.8780     1.1770 H     1 <1>   0.4000 
 31 H       -5.7620    -5.4980    -1.7740 H     1 <1>   0.0800 
 32 H       -6.9640    -5.7560    -0.5500 H     1 <1>   0.0800 
 33 H       -6.6090    -7.3240     1.2360 H     1 <1>   0.1500 
 34 H       -2.4150    -8.3740    -0.7050 H     1 <1>   0.1500 
 35 H       -3.3260    -9.7270     1.0850 H     1 <1>   0.1500 
@<TRIPOS>BOND
  1   1   2  1   
  2   2   3  1   
  3   2   4  2   
  4   3   5  2   
  5   3   6  1   
  6   4   7  1   
  7   4  22  1   
  8   5   7  1   
  9   6   8  2   
 10   6   9  am  
 11   7  23  1   
 12   9  10  1   
 13   9  11  1   
 14  10  12  1   
 15  10  24  1   
 16  10  25  1   
 17  11  13  1   
 18  11  26  1   
 19  11  27  1   
 20  12  13  1   
 21  12  14  1   
 22  12  28  1   
 23  13  15  1   
 24  13  29  1   
 25  14  30  1   
 26  15  16  1   
 27  15  31  1   
 28  15  32  1   
 29  16  17  ar  
 30  16  18  ar  
 31  17  19  ar  
 32  18  20  ar  
 33  18  33  1   
 34  19  21  ar  
 35  19  34  1   
 36  20  21  ar  
 37  21  35  1   
@<TRIPOS>SUBSTRUCTURE
  1 ****  11 GROUP 4 **** **** 0

# MOE 2024.06 (io_trps.svl 2023.06)
