@<TRIPOS>MOLECULE
NONAME
47 48 1 0 0 
SMALL
USER_CHARGES


@<TRIPOS>ATOM
  1 O       -1.0860    -0.0790    -0.4550 O.2   1 <1>  -0.5700 
  2 C       -1.8550     0.6780     0.1110 C.2   1 <1>   0.5440 
  3 N       -2.9360     0.1380     0.7740 N.am  1 <1>  -0.6600 
  4 C       -1.6020     2.1030     0.0590 C.ar  1 <1>   0.0860 
  5 C       -3.1120    -1.3440     0.8560 C.3   1 <1>   0.3200 
  6 C       -4.0150     0.9450     1.4230 C.3   1 <1>   0.1400 
  7 C       -0.4920     2.6430     0.7060 C.ar  1 <1>  -0.1500 
  8 C       -2.4440     2.9730    -0.6340 C.ar  1 <1>  -0.1500 
  9 C       -3.7530    -1.8690    -0.4160 C.2   1 <1>   0.0070 
 10 C       -5.2970     0.9250     0.5800 C.3   1 <1>   0.1200 
 11 C       -0.2280     4.0070     0.6810 C.ar  1 <1>   0.0830 
 12 C       -2.1990     4.3330    -0.6660 C.ar  1 <1>  -0.1500 
 13 N       -4.9180    -2.4330    -0.4910 N.2   1 <1>  -0.5650 
 14 N       -3.1210    -1.7730    -1.6040 N.pl3 1 <1>   0.0330 
 15 O       -6.2270     1.7860     1.1460 O.3   1 <1>  -0.6800 
 16 O        0.8510     4.5620     1.3030 O.3   1 <1>  -0.3630 
 17 C       -1.0920     4.8540    -0.0150 C.ar  1 <1>   0.0830 
 18 C       -5.0500    -2.7200    -1.8010 C.2   1 <1>   0.0770 
 19 C       -3.9620    -2.3230    -2.4970 C.2   1 <1>  -0.3020 
 20 C        1.8100     3.7730     1.9720 C.3   1 <1>   0.0400 
 21 O       -0.8680     6.1880    -0.0430 O.3   1 <1>  -0.3630 
 22 C       -0.5010     6.7790    -1.2680 C.3   1 <1>   0.2000 
 23 C        0.9810     6.4990    -1.5260 C.3   1 <1>  -0.2400 
 24 C       -0.7730     8.2760    -1.1490 C.3   1 <1>  -0.2400 
 25 H       -3.7310    -1.5990     1.6980 H     1 <1>   0.0800 
 26 H       -2.1560    -1.8180     0.9950 H     1 <1>   0.0800 
 27 H       -3.6930     1.9630     1.5490 H     1 <1>   0.0800 
 28 H       -4.2200     0.5400     2.3980 H     1 <1>   0.0800 
 29 H        0.1550     1.9610     1.2250 H     1 <1>   0.1500 
 30 H       -3.3010     2.5780    -1.1500 H     1 <1>   0.1500 
 31 H       -5.7300    -0.0590     0.5380 H     1 <1>   0.0800 
 32 H       -5.0970     1.2710    -0.4180 H     1 <1>   0.0800 
 33 H       -2.8670     4.9930    -1.1890 H     1 <1>   0.1500 
 34 H       -2.1980    -1.3370    -1.7410 H     1 <1>   0.2700 
 35 H       -6.6650     1.3680     1.9130 H     1 <1>   0.4000 
 36 H       -5.9340    -3.2040    -2.1800 H     1 <1>   0.1500 
 37 H       -3.7460    -2.3980    -3.5470 H     1 <1>   0.1500 
 38 H        2.5710     4.4290     2.3540 H     1 <1>   0.0800 
 39 H        2.2420     3.0800     1.2730 H     1 <1>   0.0800 
 40 H        1.3320     3.2580     2.7860 H     1 <1>   0.0800 
 41 H       -1.1060     6.3590    -2.0540 H     1 <1>   0.0800 
 42 H        1.5750     6.8660    -0.7080 H     1 <1>   0.0800 
 43 H        1.2970     6.9860    -2.4300 H     1 <1>   0.0800 
 44 H        1.1450     5.4430    -1.6360 H     1 <1>   0.0800 
 45 H       -0.1910     8.6980    -0.3490 H     1 <1>   0.0800 
 46 H       -1.8170     8.4430    -0.9540 H     1 <1>   0.0800 
 47 H       -0.5130     8.7740    -2.0650 H     1 <1>   0.0800 
@<TRIPOS>BOND
  1   1   2  2   
  2   2   3  am  
  3   2   4  1   
  4   3   5  1   
  5   3   6  1   
  6   4   7  ar  
  7   4   8  ar  
  8   5   9  1   
  9   5  25  1   
 10   5  26  1   
 11   6  10  1   
 12   6  27  1   
 13   6  28  1   
 14   7  11  ar  
 15   7  29  1   
 16   8  12  ar  
 17   8  30  1   
 18   9  13  2   
 19   9  14  1   
 20  10  15  1   
 21  10  31  1   
 22  10  32  1   
 23  11  16  1   
 24  11  17  ar  
 25  12  17  ar  
 26  12  33  1   
 27  13  18  1   
 28  14  19  1   
 29  14  34  1   
 30  15  35  1   
 31  16  20  1   
 32  17  21  1   
 33  18  19  2   
 34  18  36  1   
 35  19  37  1   
 36  20  38  1   
 37  20  39  1   
 38  20  40  1   
 39  21  22  1   
 40  22  23  1   
 41  22  24  1   
 42  22  41  1   
 43  23  42  1   
 44  23  43  1   
 45  23  44  1   
 46  24  45  1   
 47  24  46  1   
 48  24  47  1   
@<TRIPOS>SUBSTRUCTURE
  1 ****   4 GROUP 4 **** **** 0

# MOE 2024.06 (io_trps.svl 2023.06)
