@<TRIPOS>MOLECULE
NONAME
47 49 1 0 0 
SMALL
USER_CHARGES


@<TRIPOS>ATOM
  1 O        1.0800     1.2940     0.7930 O.3   1 <1>  -0.0190 
  2 N        2.0170     0.4000     0.8890 N.2   1 <1>  -0.4100 
  3 C        1.0770     1.8700    -0.3790 C.2   1 <1>  -0.0400 
  4 C        2.6150     0.3830    -0.2480 C.2   1 <1>   0.1080 
  5 C        2.0540     1.3180    -1.1130 C.2   1 <1>  -0.1500 
  6 C        0.0810     2.9760    -0.6720 C.3   1 <1>   0.0200 
  7 C        3.7690    -0.5360    -0.5870 C.3   1 <1>  -0.0590 
  8 C       -0.0130     3.9700     0.5030 C.3   1 <1>  -0.0800 
  9 C       -0.7550     5.2470     0.1110 C.3   1 <1>   0.2000 
 10 C        1.3770     4.4460     0.9630 C.3   1 <1>   0.3430 
 11 O       -1.3450     5.7670     1.2570 O.3   1 <1>  -0.6800 
 12 C        0.3720     6.1930    -0.3020 C.3   1 <1>   0.3430 
 13 N        1.4470     5.9120     0.6900 N.4   1 <1>  -0.9590 
 14 C        2.8080     6.3940     0.3400 C.3   1 <1>   0.3430 
 15 C        2.8290     7.9200     0.2750 C.3   1 <1>  -0.1600 
 16 C        4.2500     8.4430     0.0320 C.3   1 <1>  -0.0170 
 17 C        4.2300     9.9580    -0.0550 C.ar  1 <1>  -0.1440 
 18 C        4.1050    10.5880    -1.2840 C.ar  1 <1>  -0.1500 
 19 C        4.3320    10.7260     1.0950 C.ar  1 <1>  -0.1500 
 20 C        4.0800    11.9700    -1.3620 C.ar  1 <1>  -0.1500 
 21 C        4.3060    12.1070     1.0180 C.ar  1 <1>  -0.1500 
 22 C        4.1800    12.7300    -0.2100 C.ar  1 <1>  -0.1500 
 23 H        2.3660     1.5130    -2.1230 H     1 <1>   0.1500 
 24 H        0.3790     3.4740    -1.5780 H     1 <1>   0.0800 
 25 H       -0.8850     2.5310    -0.8410 H     1 <1>   0.0800 
 26 H        4.6220     0.0410    -0.8940 H     1 <1>   0.0800 
 27 H        3.4850    -1.2000    -1.3820 H     1 <1>   0.0800 
 28 H        4.0380    -1.1210     0.2740 H     1 <1>   0.0800 
 29 H       -0.5080     3.4690     1.3190 H     1 <1>   0.0800 
 30 H       -1.5090     5.1210    -0.6480 H     1 <1>   0.0800 
 31 H        2.1490     3.9240     0.4200 H     1 <1>   0.0800 
 32 H        1.5100     4.2540     2.0160 H     1 <1>   0.0800 
 33 H       -2.1550     5.2700     1.5020 H     1 <1>   0.4000 
 34 H        0.0490     7.2220    -0.2700 H     1 <1>   0.0800 
 35 H        0.7100     5.9480    -1.2950 H     1 <1>   0.0800 
 36 H        1.1280     6.3770     1.5550 H     1 <1>   0.4500 
 37 H        3.5090     6.0660     1.0910 H     1 <1>   0.0800 
 38 H        3.1140     5.9840    -0.6090 H     1 <1>   0.0800 
 39 H        2.1990     8.2680    -0.5240 H     1 <1>   0.0800 
 40 H        2.4680     8.3300     1.2030 H     1 <1>   0.0800 
 41 H        4.6470     8.0390    -0.8840 H     1 <1>   0.0800 
 42 H        4.9030     8.1420     0.8340 H     1 <1>   0.0800 
 43 H        4.0290    10.0130    -2.1890 H     1 <1>   0.1500 
 44 H        4.4340    10.2570     2.0580 H     1 <1>   0.1500 
 45 H        3.9840    12.4550    -2.3180 H     1 <1>   0.1500 
 46 H        4.3860    12.6990     1.9140 H     1 <1>   0.1500 
 47 H        4.1600    13.8050    -0.2710 H     1 <1>   0.1500 
@<TRIPOS>BOND
  1   1   2  1   
  2   1   3  1   
  3   2   4  2   
  4   3   5  2   
  5   3   6  1   
  6   4   5  1   
  7   4   7  1   
  8   5  23  1   
  9   6   8  1   
 10   6  24  1   
 11   6  25  1   
 12   7  26  1   
 13   7  27  1   
 14   7  28  1   
 15   8   9  1   
 16   8  10  1   
 17   8  29  1   
 18   9  11  1   
 19   9  12  1   
 20   9  30  1   
 21  10  13  1   
 22  10  31  1   
 23  10  32  1   
 24  11  33  1   
 25  12  13  1   
 26  12  34  1   
 27  12  35  1   
 28  13  14  1   
 29  13  36  1   
 30  14  15  1   
 31  14  37  1   
 32  14  38  1   
 33  15  16  1   
 34  15  39  1   
 35  15  40  1   
 36  16  17  1   
 37  16  41  1   
 38  16  42  1   
 39  17  18  ar  
 40  17  19  ar  
 41  18  20  ar  
 42  18  43  1   
 43  19  21  ar  
 44  19  44  1   
 45  20  22  ar  
 46  20  45  1   
 47  21  22  ar  
 48  21  46  1   
 49  22  47  1   
@<TRIPOS>SUBSTRUCTURE
  1 ****  14 GROUP 4 **** **** 0

# MOE 2024.06 (io_trps.svl 2023.06)
