@<TRIPOS>MOLECULE
NONAME
30 30 1 0 0 
SMALL
USER_CHARGES


@<TRIPOS>ATOM
  1 O        0.3610    -0.5400    -2.0630 O.2   1 <1>  -0.5700 
  2 C        1.0080    -1.2190    -1.3110 C.2   1 <1>   0.6590 
  3 O        2.2930    -1.4750    -1.4770 O.3   1 <1>  -0.4300 
  4 C        0.4650    -1.9360    -0.0830 C.3   1 <1>   0.2810 
  5 C        2.8110    -2.3400    -0.4920 C.3   1 <1>   0.1200 
  6 N       -0.8290    -2.6440    -0.2990 N.am  1 <1>  -0.7300 
  7 C        1.5870    -2.9250     0.2210 C.3   1 <1>  -0.1600 
  8 C       -1.5730    -3.1700     0.7000 C.2   1 <1>   0.5690 
  9 O       -1.1820    -3.1900     1.8390 O.2   1 <1>  -0.5700 
 10 C       -2.9390    -3.7370     0.3710 C.3   1 <1>  -0.0990 
 11 C       -4.0100    -2.6370     0.2890 C.3   1 <1>  -0.1600 
 12 C       -5.3960    -3.2270    -0.0060 C.3   1 <1>  -0.1600 
 13 C       -6.4640    -2.1260    -0.0870 C.3   1 <1>  -0.0990 
 14 C       -7.8390    -2.6970    -0.3700 C.2   1 <1>   0.4490 
 15 O       -8.4440    -2.4580    -1.3700 O.2   1 <1>  -0.5700 
 16 H        0.3660    -1.2240     0.7170 H     1 <1>   0.0800 
 17 H        3.4100    -3.0970    -0.9680 H     1 <1>   0.0800 
 18 H        3.4150    -1.7530     0.1780 H     1 <1>   0.0800 
 19 H       -1.2260    -2.5290    -1.2360 H     1 <1>   0.3700 
 20 H        1.3670    -3.8910    -0.1980 H     1 <1>   0.0800 
 21 H        1.7540    -3.0280     1.2780 H     1 <1>   0.0800 
 22 H       -2.8820    -4.2700    -0.5610 H     1 <1>   0.0800 
 23 H       -3.2030    -4.4420     1.1390 H     1 <1>   0.0800 
 24 H       -4.0350    -2.1050     1.2250 H     1 <1>   0.0800 
 25 H       -3.7430    -1.9360    -0.4840 H     1 <1>   0.0800 
 26 H       -5.6600    -3.9260     0.7700 H     1 <1>   0.0800 
 27 H       -5.3700    -3.7610    -0.9420 H     1 <1>   0.0800 
 28 H       -6.2130    -1.4340    -0.8720 H     1 <1>   0.0800 
 29 H       -6.5040    -1.5810     0.8390 H     1 <1>   0.0800 
 30 H       -8.2450    -3.3390     0.3920 H     1 <1>   0.0600 
@<TRIPOS>BOND
  1   1   2  2   
  2   2   3  1   
  3   2   4  1   
  4   3   5  1   
  5   4   6  1   
  6   4   7  1   
  7   4  16  1   
  8   5   7  1   
  9   5  17  1   
 10   5  18  1   
 11   6   8  am  
 12   6  19  1   
 13   7  20  1   
 14   7  21  1   
 15   8   9  2   
 16   8  10  1   
 17  10  11  1   
 18  10  22  1   
 19  10  23  1   
 20  11  12  1   
 21  11  24  1   
 22  11  25  1   
 23  12  13  1   
 24  12  26  1   
 25  12  27  1   
 26  13  14  1   
 27  13  28  1   
 28  13  29  1   
 29  14  15  2   
 30  14  30  1   
@<TRIPOS>SUBSTRUCTURE
  1 ****   6 GROUP 4 **** **** 0

# MOE 2024.06 (io_trps.svl 2023.06)
