@<TRIPOS>MOLECULE
NONAME
48 50 1 0 0 
SMALL
USER_CHARGES


@<TRIPOS>ATOM
  1 S       -0.5340     0.4610    -1.5410 S.o2  1 <1>   1.4470 
  2 O        0.0740     0.9350    -2.7650 O.2   1 <1>  -0.6500 
  3 O       -1.8280    -0.1920    -1.6150 O.2   1 <1>  -0.6500 
  4 N       -0.7510     1.8170    -0.5420 N.am  1 <1>  -0.8490 
  5 C        0.6490    -0.5550    -0.6160 C.ar  1 <1>  -0.0090 
  6 C       -1.4020     2.9500    -1.2110 C.3   1 <1>   0.1960 
  7 C       -1.2790     1.4880     0.7950 C.3   1 <1>   0.1960 
  8 C        1.9140    -0.0740    -0.3060 C.ar  1 <1>  -0.1500 
  9 C        0.3210    -1.8320    -0.1760 C.ar  1 <1>  -0.1500 
 10 C       -2.9180     2.7560    -1.2320 C.3   1 <1>  -0.1600 
 11 C       -2.4070     2.4240     1.2460 C.3   1 <1>  -0.1600 
 12 C        2.8130    -0.8350     0.4180 C.ar  1 <1>  -0.1500 
 13 C        1.2210    -2.5940     0.5470 C.ar  1 <1>  -0.1500 
 14 C       -3.5170     2.5820     0.1840 C.3   1 <1>   0.2800 
 15 C        2.4910    -2.1160     0.8670 C.ar  1 <1>  -0.1790 
 16 O       -4.1240     3.8200     0.4880 O.3   1 <1>  -0.5600 
 17 C       -4.5550     1.4170     0.2800 C.3   1 <1>   0.2000 
 18 C        3.4390    -2.9160     1.6350 C.2   1 <1>   0.9790 
 19 C       -5.5230     3.9230     0.5610 C.3   1 <1>   0.1200 
 20 O       -4.0140     0.1430     0.0410 O.3   1 <1>  -0.6800 
 21 C       -5.8520     1.6740    -0.5450 C.3   1 <1>   0.2800 
 22 O        4.5460    -2.4470     1.9560 O.co2 1 <1>  -0.9000 
 23 O        3.1550    -4.0750     1.9860 O.co2 1 <1>  -0.9000 
 24 C       -6.1730     3.1750    -0.6070 C.3   1 <1>  -0.1600 
 25 O       -6.8810     1.0660     0.1450 O.3   1 <1>  -0.6800 
 26 C       -5.9000     1.0550    -1.9500 C.3   1 <1>  -0.2400 
 27 H       -1.1650     3.8580    -0.6810 H     1 <1>   0.0800 
 28 H       -1.0270     3.0630    -2.2150 H     1 <1>   0.0800 
 29 H       -1.6420     0.4740     0.8190 H     1 <1>   0.0800 
 30 H       -0.4700     1.5430     1.5050 H     1 <1>   0.0800 
 31 H        2.2000     0.9100    -0.6350 H     1 <1>   0.1500 
 32 H       -0.6490    -2.2410    -0.3990 H     1 <1>   0.1500 
 33 H       -3.1300     1.9050    -1.8450 H     1 <1>   0.0800 
 34 H       -3.3640     3.6030    -1.7210 H     1 <1>   0.0800 
 35 H       -1.9740     3.3850     1.4620 H     1 <1>   0.0800 
 36 H       -2.8250     2.0510     2.1630 H     1 <1>   0.0800 
 37 H        3.7910    -0.4430     0.6500 H     1 <1>   0.1500 
 38 H        0.9500    -3.5830     0.8800 H     1 <1>   0.1500 
 39 H       -4.8550     1.3920     1.3130 H     1 <1>   0.0800 
 40 H       -5.8490     3.5210     1.5050 H     1 <1>   0.0800 
 41 H       -5.7740     4.9690     0.5270 H     1 <1>   0.0800 
 42 H       -3.3990     0.1350    -0.7360 H     1 <1>   0.4000 
 43 H       -5.7970     3.6030    -1.5180 H     1 <1>   0.0800 
 44 H       -7.2370     3.3290    -0.5980 H     1 <1>   0.0800 
 45 H       -6.6540     0.1210     0.2510 H     1 <1>   0.4000 
 46 H       -5.1690     1.5020    -2.5940 H     1 <1>   0.0800 
 47 H       -6.8680     1.2200    -2.3900 H     1 <1>   0.0800 
 48 H       -5.7140    -0.0040    -1.9130 H     1 <1>   0.0800 
@<TRIPOS>BOND
  1   1   2  2   
  2   1   3  2   
  3   1   4  am  
  4   1   5  1   
  5   4   6  1   
  6   4   7  1   
  7   5   8  ar  
  8   5   9  ar  
  9   6  10  1   
 10   6  27  1   
 11   6  28  1   
 12   7  11  1   
 13   7  29  1   
 14   7  30  1   
 15   8  12  ar  
 16   8  31  1   
 17   9  13  ar  
 18   9  32  1   
 19  10  14  1   
 20  10  33  1   
 21  10  34  1   
 22  11  14  1   
 23  11  35  1   
 24  11  36  1   
 25  12  15  ar  
 26  12  37  1   
 27  13  15  ar  
 28  13  38  1   
 29  14  16  1   
 30  14  17  1   
 31  15  18  1   
 32  16  19  1   
 33  17  20  1   
 34  17  21  1   
 35  17  39  1   
 36  18  22  ar  
 37  18  23  ar  
 38  19  24  1   
 39  19  40  1   
 40  19  41  1   
 41  20  42  1   
 42  21  24  1   
 43  21  25  1   
 44  21  26  1   
 45  24  43  1   
 46  24  44  1   
 47  25  45  1   
 48  26  46  1   
 49  26  47  1   
 50  26  48  1   
@<TRIPOS>SUBSTRUCTURE
  1 ****   7 GROUP 4 **** **** 0

# MOE 2024.06 (io_trps.svl 2023.06)
