@<TRIPOS>MOLECULE
NONAME
59 61 1 0 0 
SMALL
USER_CHARGES


@<TRIPOS>ATOM
  1 O       -3.4090     1.4770    -2.6890 O.2   1 <1>  -0.5700 
  2 C       -3.0060     1.1910    -1.5770 C.2   1 <1>   0.5440 
  3 N       -3.5800     0.1030    -0.9400 N.am  1 <1>  -0.6600 
  4 C       -1.9580     2.0060    -0.9900 C.ar  1 <1>   0.0860 
  5 C       -2.9090    -0.7590     0.1100 C.3   1 <1>   0.3640 
  6 C       -4.9830    -0.2830    -1.2790 C.3   1 <1>   0.1400 
  7 C       -2.0200     2.4660     0.3270 C.ar  1 <1>  -0.1500 
  8 C       -0.8330     2.3570    -1.7380 C.ar  1 <1>  -0.1500 
  9 C       -1.3840    -0.7190    -0.0490 C.ar  1 <1>  -0.1430 
 10 C       -3.3780    -2.2520     0.0950 C.3   1 <1>   0.2000 
 11 C       -5.1050    -1.7960    -1.4390 C.3   1 <1>   0.1200 
 12 C       -0.9900     3.2010     0.8860 C.ar  1 <1>  -0.1500 
 13 C        0.1970     3.0950    -1.1880 C.ar  1 <1>  -0.1500 
 14 C       -0.5890    -0.3390     1.0240 C.ar  1 <1>  -0.1500 
 15 C       -0.7740    -1.0410    -1.2560 C.ar  1 <1>  -0.1500 
 16 O       -4.7310    -2.4040    -0.2460 O.3   1 <1>  -0.5600 
 17 C       -3.2290    -2.9660     1.4520 C.3   1 <1>   0.1200 
 18 C        0.1380     3.5120     0.1300 C.ar  1 <1>   0.0830 
 19 C        0.7870    -0.2640     0.9010 C.ar  1 <1>   0.0830 
 20 C        0.6010    -0.9510    -1.3960 C.ar  1 <1>  -0.1500 
 21 O       -1.9480    -2.8660     1.9810 O.3   1 <1>  -0.6800 
 22 O        1.2050     4.2060     0.5930 O.3   1 <1>  -0.3630 
 23 O        1.4930     0.0770     2.0070 O.3   1 <1>  -0.3620 
 24 C        1.3850    -0.5380    -0.3330 C.ar  1 <1>   0.0830 
 25 C        1.3530     4.6070     1.9370 C.3   1 <1>   0.2000 
 26 C        2.3660    -0.9030     2.5210 C.3   1 <1>   0.0400 
 27 O        2.7150    -0.4010    -0.5460 O.3   1 <1>  -0.3630 
 28 C        2.4140     5.7040     1.9600 C.3   1 <1>  -0.2400 
 29 C        1.7910     3.4020     2.7730 C.3   1 <1>  -0.2400 
 30 C        3.2060     0.9220    -0.5010 C.3   1 <1>   0.0400 
 31 H       -3.1660    -0.3510     1.0720 H     1 <1>   0.0800 
 32 H       -5.6410     0.0440    -0.4930 H     1 <1>   0.0800 
 33 H       -5.3050     0.1880    -2.1910 H     1 <1>   0.0800 
 34 H       -2.8870     2.2320     0.9170 H     1 <1>   0.1500 
 35 H       -0.7730     2.0340    -2.7620 H     1 <1>   0.1500 
 36 H       -2.8120    -2.7940    -0.6410 H     1 <1>   0.0800 
 37 H       -4.4800    -2.1540    -2.2390 H     1 <1>   0.0800 
 38 H       -6.1260    -2.0670    -1.6410 H     1 <1>   0.0800 
 39 H       -1.0790     3.5190     1.9060 H     1 <1>   0.1500 
 40 H        1.0570     3.3500    -1.7790 H     1 <1>   0.1500 
 41 H       -1.0280    -0.1010     1.9760 H     1 <1>   0.1500 
 42 H       -1.3720    -1.3420    -2.1010 H     1 <1>   0.1500 
 43 H       -3.4580    -4.0120     1.3410 H     1 <1>   0.0800 
 44 H       -3.9050    -2.5330     2.1690 H     1 <1>   0.0800 
 45 H        1.0700    -1.1840    -2.3340 H     1 <1>   0.1500 
 46 H       -1.2720    -3.1740     1.3440 H     1 <1>   0.4000 
 47 H        0.4190     5.0120     2.2850 H     1 <1>   0.0800 
 48 H        2.7680    -0.5410     3.4490 H     1 <1>   0.0800 
 49 H        3.1610    -1.0760     1.8190 H     1 <1>   0.0800 
 50 H        1.8090    -1.8090     2.6880 H     1 <1>   0.0800 
 51 H        3.3490     5.3290     1.5840 H     1 <1>   0.0800 
 52 H        2.5620     6.0540     2.9660 H     1 <1>   0.0800 
 53 H        2.0940     6.5330     1.3550 H     1 <1>   0.0800 
 54 H        2.7090     2.9950     2.3900 H     1 <1>   0.0800 
 55 H        1.0370     2.6370     2.7590 H     1 <1>   0.0800 
 56 H        1.9470     3.7000     3.7930 H     1 <1>   0.0800 
 57 H        4.2580     0.9010    -0.7180 H     1 <1>   0.0800 
 58 H        3.0400     1.3350     0.4780 H     1 <1>   0.0800 
 59 H        2.6880     1.5080    -1.2400 H     1 <1>   0.0800 
@<TRIPOS>BOND
  1   1   2  2   
  2   2   3  am  
  3   2   4  1   
  4   3   5  1   
  5   3   6  1   
  6   4   7  ar  
  7   4   8  ar  
  8   5   9  1   
  9   5  10  1   
 10   5  31  1   
 11   6  11  1   
 12   6  32  1   
 13   6  33  1   
 14   7  12  ar  
 15   7  34  1   
 16   8  13  ar  
 17   8  35  1   
 18   9  14  ar  
 19   9  15  ar  
 20  10  16  1   
 21  10  17  1   
 22  10  36  1   
 23  11  16  1   
 24  11  37  1   
 25  11  38  1   
 26  12  18  ar  
 27  12  39  1   
 28  13  18  ar  
 29  13  40  1   
 30  14  19  ar  
 31  14  41  1   
 32  15  20  ar  
 33  15  42  1   
 34  17  21  1   
 35  17  43  1   
 36  17  44  1   
 37  18  22  1   
 38  19  23  1   
 39  19  24  ar  
 40  20  24  ar  
 41  20  45  1   
 42  21  46  1   
 43  22  25  1   
 44  23  26  1   
 45  24  27  1   
 46  25  28  1   
 47  25  29  1   
 48  25  47  1   
 49  26  48  1   
 50  26  49  1   
 51  26  50  1   
 52  27  30  1   
 53  28  51  1   
 54  28  52  1   
 55  28  53  1   
 56  29  54  1   
 57  29  55  1   
 58  29  56  1   
 59  30  57  1   
 60  30  58  1   
 61  30  59  1   
@<TRIPOS>SUBSTRUCTURE
  1 ****  14 GROUP 4 **** **** 0

# MOE 2024.06 (io_trps.svl 2023.06)
