@<TRIPOS>MOLECULE
NONAME
52 55 1 0 0 
SMALL
USER_CHARGES


@<TRIPOS>ATOM
  1 S        0.1800    -0.2410     2.7770 S.o2  1 <1>   1.4470 
  2 O        1.0650    -1.1360     3.4900 O.2   1 <1>  -0.6500 
  3 O       -0.4570     0.8390     3.4900 O.2   1 <1>  -0.6500 
  4 N       -1.0830    -1.1920     2.2220 N.am  1 <1>  -0.9140 
  5 C        0.9680     0.3300     1.2360 C.ar  1 <1>  -0.0090 
  6 C       -0.7030    -2.5420     1.8250 C.3   1 <1>   0.2760 
  7 C        0.3600     1.2150     0.3420 C.ar  1 <1>  -0.1440 
  8 C        2.2280    -0.1580     0.9090 C.ar  1 <1>  -0.1500 
  9 C       -1.7570    -3.1230     0.8920 C.3   1 <1>  -0.0800 
 10 C       -0.8410    -3.4950     3.0100 C.3   1 <1>   0.1200 
 11 C        1.0130     1.5750    -0.8260 C.ar  1 <1>  -0.1500 
 12 C       -1.0160     1.8150     0.6090 C.3   1 <1>  -0.0970 
 13 C        2.9000     0.1860    -0.2590 C.ar  1 <1>   0.0530 
 14 C       -2.8150    -3.6660     1.8610 C.3   1 <1>   0.1200 
 15 C       -2.3120    -2.1600    -0.1750 C.3   1 <1>  -0.0160 
 16 O       -2.2100    -3.7310     3.1210 O.3   1 <1>  -0.5600 
 17 C        2.2610     1.0680    -1.1220 C.ar  1 <1>  -0.1500 
 18 C        4.2050    -0.3590    -0.5590 C.2   1 <1>   0.0870 
 19 C       -3.2790    -2.8780    -1.1000 C.ar  1 <1>  -0.1440 
 20 O        4.7850    -0.1460    -1.7160 O.3   1 <1>  -0.2800 
 21 C        5.0660    -1.1260     0.1450 C.2   1 <1>   0.0770 
 22 C       -4.6470    -2.8000    -0.9310 C.ar  1 <1>  -0.1500 
 23 C       -2.8380    -3.6500    -2.1560 C.ar  1 <1>  -0.1500 
 24 C        5.9340    -0.7700    -1.6780 C.2   1 <1>   0.2980 
 25 N        6.1690    -1.3880    -0.5790 N.2   1 <1>  -0.5650 
 26 C       -5.4830    -3.4820    -1.7990 C.ar  1 <1>   0.1600 
 27 C       -3.7590    -4.2920    -2.9660 C.ar  1 <1>   0.1600 
 28 C        6.8420    -0.7090    -2.8820 C.3   1 <1>  -0.0600 
 29 N       -5.0710    -4.2280    -2.8100 N.ar  1 <1>  -0.6200 
 30 H       -1.6980    -1.3040     3.0300 H     1 <1>   0.4200 
 31 H        0.2790    -2.5630     1.3810 H     1 <1>   0.0800 
 32 H        2.7080    -0.8370     1.5920 H     1 <1>   0.1500 
 33 H       -1.3220    -3.9680     0.3880 H     1 <1>   0.0800 
 34 H       -0.4670    -3.0930     3.9350 H     1 <1>   0.0800 
 35 H       -0.3590    -4.4350     2.8030 H     1 <1>   0.0800 
 36 H        0.5510     2.2590    -1.5190 H     1 <1>   0.1500 
 37 H       -1.3550     2.3980    -0.2280 H     1 <1>   0.0800 
 38 H       -0.9770     2.4600     1.4690 H     1 <1>   0.0800 
 39 H       -1.7410     1.0420     0.7870 H     1 <1>   0.0800 
 40 H       -3.1480    -4.6500     1.5790 H     1 <1>   0.0800 
 41 H       -3.6600    -3.0040     1.9410 H     1 <1>   0.0800 
 42 H       -1.4990    -1.7560    -0.7530 H     1 <1>   0.0800 
 43 H       -2.8180    -1.3320     0.2900 H     1 <1>   0.0800 
 44 H        2.7490     1.3610    -2.0360 H     1 <1>   0.1500 
 45 H        4.9550    -1.5100     1.1430 H     1 <1>   0.1500 
 46 H       -5.0720    -2.2160    -0.1360 H     1 <1>   0.1500 
 47 H       -1.7880    -3.7570    -2.3580 H     1 <1>   0.1500 
 48 H       -6.5480    -3.4110    -1.6530 H     1 <1>   0.1500 
 49 H       -3.3990    -4.8900    -3.7860 H     1 <1>   0.1500 
 50 H        7.7390    -1.2690    -2.6900 H     1 <1>   0.0800 
 51 H        7.1010     0.3130    -3.0870 H     1 <1>   0.0800 
 52 H        6.3410    -1.1270    -3.7340 H     1 <1>   0.0800 
@<TRIPOS>BOND
  1   1   2  2   
  2   1   3  2   
  3   1   4  am  
  4   1   5  1   
  5   4   6  1   
  6   4  30  1   
  7   5   7  ar  
  8   5   8  ar  
  9   6   9  1   
 10   6  10  1   
 11   6  31  1   
 12   7  11  ar  
 13   7  12  1   
 14   8  13  ar  
 15   8  32  1   
 16   9  14  1   
 17   9  15  1   
 18   9  33  1   
 19  10  16  1   
 20  10  34  1   
 21  10  35  1   
 22  11  17  ar  
 23  11  36  1   
 24  12  37  1   
 25  12  38  1   
 26  12  39  1   
 27  13  17  ar  
 28  13  18  1   
 29  14  16  1   
 30  14  40  1   
 31  14  41  1   
 32  15  19  1   
 33  15  42  1   
 34  15  43  1   
 35  17  44  1   
 36  18  20  1   
 37  18  21  2   
 38  19  22  ar  
 39  19  23  ar  
 40  20  24  1   
 41  21  25  1   
 42  21  45  1   
 43  22  26  ar  
 44  22  46  1   
 45  23  27  ar  
 46  23  47  1   
 47  24  25  2   
 48  24  28  1   
 49  26  29  ar  
 50  26  48  1   
 51  27  29  ar  
 52  27  49  1   
 53  28  50  1   
 54  28  51  1   
 55  28  52  1   
@<TRIPOS>SUBSTRUCTURE
  1 ****   5 GROUP 4 **** **** 0

# MOE 2024.06 (io_trps.svl 2023.06)
