@<TRIPOS>MOLECULE
NONAME
49 50 1 0 0 
SMALL
USER_CHARGES


@<TRIPOS>ATOM
  1 S        0.3920    -0.2860     0.6610 S.o2  1 <1>   1.3330 
  2 O        0.9620    -1.2060     1.6190 O.2   1 <1>  -0.6500 
  3 O       -0.3700     0.8500     1.1280 O.2   1 <1>  -0.6500 
  4 N       -0.5810    -1.1820    -0.4040 N.am  1 <1>  -0.8490 
  5 C        1.6830     0.3340    -0.4200 C.3   1 <1>  -0.0550 
  6 C       -0.1130    -2.5570    -0.6050 C.3   1 <1>   0.1160 
  7 C       -1.9900    -1.1880     0.0010 C.3   1 <1>   0.1160 
  8 C        2.6730     1.2850     0.2820 C.3   1 <1>  -0.0800 
  9 C        3.6090     1.9390    -0.7210 C.3   1 <1>   0.2200 
 10 C        3.6420     0.5340     1.2080 C.3   1 <1>   0.1200 
 11 N        4.0820     3.2280    -0.1730 N.am  1 <1>  -0.7300 
 12 C        4.7650     0.9490    -0.7550 C.3   1 <1>   0.1200 
 13 O        4.8720     0.4620     0.5460 O.3   1 <1>  -0.5600 
 14 C        3.8250     4.4420    -0.7150 C.2   1 <1>   0.5690 
 15 O        3.1760     4.5660    -1.7230 O.2   1 <1>  -0.5700 
 16 C        4.3750     5.6770    -0.0390 C.3   1 <1>  -0.0990 
 17 C        5.4310     6.3590    -0.9150 C.3   1 <1>   0.0210 
 18 C        5.9750     7.5940    -0.2190 C.2   1 <1>  -0.1810 
 19 C        5.5750     8.8720    -0.3160 C.2   1 <1>  -0.0400 
 20 C        7.0280     7.6600     0.6950 C.2   1 <1>   0.1080 
 21 O        6.3290     9.5920     0.4700 O.3   1 <1>  -0.0190 
 22 C        4.4800     9.5470    -1.1170 C.3   1 <1>  -0.0600 
 23 N        7.2150     8.8680     1.0900 N.2   1 <1>  -0.4100 
 24 C        7.8620     6.4910     1.1740 C.3   1 <1>  -0.0590 
 25 H        2.2160    -0.4910    -0.8500 H     1 <1>   0.0800 
 26 H        1.2090     0.8690    -1.2210 H     1 <1>   0.0800 
 27 H       -0.7090    -3.0450    -1.3570 H     1 <1>   0.0800 
 28 H       -0.1830    -3.1170     0.3140 H     1 <1>   0.0800 
 29 H        0.9130    -2.5580    -0.9310 H     1 <1>   0.0800 
 30 H       -2.5790    -1.7500    -0.7040 H     1 <1>   0.0800 
 31 H       -2.3710    -0.1800     0.0260 H     1 <1>   0.0800 
 32 H       -2.0970    -1.6220     0.9810 H     1 <1>   0.0800 
 33 H        2.1100     2.0260     0.8250 H     1 <1>   0.0800 
 34 H        3.1650     2.0810    -1.6930 H     1 <1>   0.0800 
 35 H        3.3230    -0.4680     1.4380 H     1 <1>   0.0800 
 36 H        3.7970     1.0750     2.1260 H     1 <1>   0.0800 
 37 H        4.6520     3.1360     0.6710 H     1 <1>   0.3700 
 38 H        5.6940     1.4040    -1.0520 H     1 <1>   0.0800 
 39 H        4.5410     0.1190    -1.4010 H     1 <1>   0.0800 
 40 H        3.5620     6.3580     0.1340 H     1 <1>   0.0800 
 41 H        4.8000     5.4170     0.9120 H     1 <1>   0.0800 
 42 H        4.9870     6.6430    -1.8540 H     1 <1>   0.0800 
 43 H        6.2350     5.6770    -1.1290 H     1 <1>   0.0800 
 44 H        3.9330     8.8260    -1.6940 H     1 <1>   0.0800 
 45 H        4.9130    10.2720    -1.7820 H     1 <1>   0.0800 
 46 H        3.8010    10.0470    -0.4510 H     1 <1>   0.0800 
 47 H        7.2390     5.7780     1.6790 H     1 <1>   0.0800 
 48 H        8.6170     6.8370     1.8570 H     1 <1>   0.0800 
 49 H        8.3440     6.0190     0.3380 H     1 <1>   0.0800 
@<TRIPOS>BOND
  1   1   2  2   
  2   1   3  2   
  3   1   4  am  
  4   1   5  1   
  5   4   6  1   
  6   4   7  1   
  7   5   8  1   
  8   5  25  1   
  9   5  26  1   
 10   6  27  1   
 11   6  28  1   
 12   6  29  1   
 13   7  30  1   
 14   7  31  1   
 15   7  32  1   
 16   8   9  1   
 17   8  10  1   
 18   8  33  1   
 19   9  11  1   
 20   9  12  1   
 21   9  34  1   
 22  10  13  1   
 23  10  35  1   
 24  10  36  1   
 25  11  14  am  
 26  11  37  1   
 27  12  13  1   
 28  12  38  1   
 29  12  39  1   
 30  14  15  2   
 31  14  16  1   
 32  16  17  1   
 33  16  40  1   
 34  16  41  1   
 35  17  18  1   
 36  17  42  1   
 37  17  43  1   
 38  18  19  2   
 39  18  20  1   
 40  19  21  1   
 41  19  22  1   
 42  20  23  2   
 43  20  24  1   
 44  21  23  1   
 45  22  44  1   
 46  22  45  1   
 47  22  46  1   
 48  24  47  1   
 49  24  48  1   
 50  24  49  1   
@<TRIPOS>SUBSTRUCTURE
  1 ****  11 GROUP 4 **** **** 0

# MOE 2024.06 (io_trps.svl 2023.06)
