@<TRIPOS>MOLECULE
Untitled Document
54 57 1 0 0 
SMALL
USER_CHARGES


@<TRIPOS>ATOM
  1 O        0.0690     0.3320    -0.7290 O.3   1 <1>  -0.5600 
  2 C        0.5060    -0.7600     0.0380 C.3   1 <1>   0.7040 
  3 C        1.0750     1.2170    -1.1610 C.3   1 <1>   0.2000 
  4 O        1.3540    -1.5130    -0.7970 O.3   1 <1>  -0.5600 
  5 C       -0.6800    -1.6620     0.2840 C.ar  1 <1>  -0.1440 
  6 C        1.2560    -0.3010     1.3220 C.3   1 <1>   0.2000 
  7 C        1.7550     1.8480     0.0670 C.3   1 <1>   0.2000 
  8 C        0.4490     2.2580    -2.1020 C.3   1 <1>   0.1200 
  9 C        0.6390    -2.5520    -1.4170 C.3   1 <1>   0.2640 
 10 C       -0.5980    -2.7170    -0.5770 C.ar  1 <1>  -0.1440 
 11 C       -1.7320    -1.5580     1.1790 C.ar  1 <1>  -0.1500 
 12 O        1.8200    -1.3790     2.0270 O.3   1 <1>  -0.6800 
 13 C        2.3410     0.7340     0.9520 C.3   1 <1>   0.2000 
 14 O        0.8160     2.5870     0.7960 O.3   1 <1>  -0.6800 
 15 O       -0.2840     1.6040    -3.0800 O.3   1 <1>  -0.6800 
 16 C       -1.5600    -3.7090    -0.5840 C.ar  1 <1>  -0.1500 
 17 C       -2.7100    -2.5450     1.1910 C.ar  1 <1>  -0.1430 
 18 O        2.8990     1.3110     2.0900 O.3   1 <1>  -0.6800 
 19 C       -2.6180    -3.6140     0.3070 C.ar  1 <1>  -0.1500 
 20 C       -3.8800    -2.4630     2.1620 C.3   1 <1>   0.1270 
 21 C       -5.2160    -2.3970     1.4330 C.ar  1 <1>  -0.1430 
 22 C       -5.4280    -1.4480     0.4450 C.ar  1 <1>  -0.1500 
 23 C       -6.2380    -3.2780     1.7500 C.ar  1 <1>  -0.1500 
 24 C       -6.6410    -1.3810    -0.2170 C.ar  1 <1>  -0.1500 
 25 C       -7.4520    -3.2110     1.0870 C.ar  1 <1>  -0.1500 
 26 C       -7.6610    -2.2630     0.0990 C.ar  1 <1>  -0.1430 
 27 C       -8.9930    -2.1910    -0.6290 C.3   1 <1>  -0.0170 
 28 C       -9.9570    -1.2560     0.1050 C.3   1 <1>  -0.2400 
 29 H        1.8050     0.6630    -1.7280 H     1 <1>   0.0800 
 30 H        0.5400     0.1560     1.9780 H     1 <1>   0.0800 
 31 H        2.5410     2.5170    -0.2420 H     1 <1>   0.0800 
 32 H        1.2060     2.8500    -2.5850 H     1 <1>   0.0800 
 33 H       -0.2180     2.9120    -1.5670 H     1 <1>   0.0800 
 34 H        0.3910    -2.2500    -2.4190 H     1 <1>   0.0800 
 35 H        1.2470    -3.4400    -1.4230 H     1 <1>   0.0800 
 36 H       -1.7880    -0.7230     1.8540 H     1 <1>   0.1500 
 37 H        2.4260    -1.8790     1.4440 H     1 <1>   0.4000 
 38 H        3.1340     0.2380     0.4180 H     1 <1>   0.0800 
 39 H       -0.0670     2.1680     0.7110 H     1 <1>   0.4000 
 40 H       -0.8200     0.9040    -2.6480 H     1 <1>   0.4000 
 41 H       -1.4960    -4.5390    -1.2670 H     1 <1>   0.1500 
 42 H        2.2740     1.9800     2.4410 H     1 <1>   0.4000 
 43 H       -3.3790    -4.3750     0.3090 H     1 <1>   0.1500 
 44 H       -3.8520    -3.3250     2.8050 H     1 <1>   0.0800 
 45 H       -3.7860    -1.5930     2.7860 H     1 <1>   0.0800 
 46 H       -4.6430    -0.7590     0.1840 H     1 <1>   0.1500 
 47 H       -6.0980    -4.0230     2.5130 H     1 <1>   0.1500 
 48 H       -6.7860    -0.6380    -0.9810 H     1 <1>   0.1500 
 49 H       -8.2350    -3.9010     1.3450 H     1 <1>   0.1500 
 50 H       -8.8390    -1.8350    -1.6320 H     1 <1>   0.0800 
 51 H       -9.4240    -3.1750    -0.6950 H     1 <1>   0.0800 
 52 H       -9.5400    -0.2660     0.1620 H     1 <1>   0.0800 
 53 H      -10.1300    -1.6140     1.1050 H     1 <1>   0.0800 
 54 H      -10.8970    -1.2080    -0.4150 H     1 <1>   0.0800 
@<TRIPOS>BOND
  1   1   2  1   
  2   1   3  1   
  3   2   4  1   
  4   2   5  1   
  5   2   6  1   
  6   3   7  1   
  7   3   8  1   
  8   3  29  1   
  9   4   9  1   
 10   5  10  ar  
 11   5  11  ar  
 12   6  12  1   
 13   6  13  1   
 14   6  30  1   
 15   7  13  1   
 16   7  14  1   
 17   7  31  1   
 18   8  15  1   
 19   8  32  1   
 20   8  33  1   
 21   9  10  1   
 22   9  34  1   
 23   9  35  1   
 24  10  16  ar  
 25  11  17  ar  
 26  11  36  1   
 27  12  37  1   
 28  13  18  1   
 29  13  38  1   
 30  14  39  1   
 31  15  40  1   
 32  16  19  ar  
 33  16  41  1   
 34  17  19  ar  
 35  17  20  1   
 36  18  42  1   
 37  19  43  1   
 38  20  21  1   
 39  20  44  1   
 40  20  45  1   
 41  21  22  ar  
 42  21  23  ar  
 43  22  24  ar  
 44  22  46  1   
 45  23  25  ar  
 46  23  47  1   
 47  24  26  ar  
 48  24  48  1   
 49  25  26  ar  
 50  25  49  1   
 51  26  27  1   
 52  27  28  1   
 53  27  50  1   
 54  27  51  1   
 55  28  52  1   
 56  28  53  1   
 57  28  54  1   
@<TRIPOS>SUBSTRUCTURE
  1 ****  11 GROUP 4 **** **** 0

# MOE 2024.06 (io_trps.svl 2023.06)
