@<TRIPOS>MOLECULE
NONAME
61 64 1 0 0 
SMALL
USER_CHARGES


@<TRIPOS>ATOM
  1 CL      -4.8220     1.3510     1.7060 Cl    1 <1>  -0.1770 
  2 C       -5.0010     0.8310     0.0450 C.ar  1 <1>   0.1770 
  3 C       -4.4010     1.5430    -0.9830 C.ar  1 <1>  -0.1440 
  4 C       -5.7670    -0.2980    -0.1980 C.ar  1 <1>  -0.1500 
  5 C       -4.6080     1.0730    -2.2710 C.ar  1 <1>   0.1900 
  6 C       -3.5620     2.7830    -0.7160 C.3   1 <1>   0.2640 
  7 C       -5.9530    -0.7410    -1.4990 C.ar  1 <1>  -0.1500 
  8 F       -4.0710     1.7050    -3.2800 F     1 <1>  -0.1900 
  9 C       -5.3700    -0.0490    -2.5470 C.ar  1 <1>  -0.1500 
 10 O       -4.4250     3.7720    -0.1950 O.3   1 <1>  -0.3630 
 11 C       -3.9280     4.9310     0.2990 C.ar  1 <1>   0.0820 
 12 C       -4.5220     5.4720     1.4380 C.ar  1 <1>  -0.1430 
 13 C       -2.8720     5.5920    -0.3160 C.ar  1 <1>  -0.1500 
 14 C       -4.0500     6.6730     1.9470 C.ar  1 <1>  -0.1500 
 15 C       -5.6640     4.7590     2.1450 C.3   1 <1>   0.4860 
 16 C       -2.4080     6.7870     0.2030 C.ar  1 <1>  -0.1500 
 17 C       -2.9970     7.3270     1.3320 C.ar  1 <1>  -0.1500 
 18 N       -6.7280     4.4320     1.1640 N.4   1 <1>  -0.9590 
 19 C       -7.3620     5.6430     0.5770 C.3   1 <1>   0.3430 
 20 C       -7.6990     3.4340     1.6790 C.3   1 <1>   0.3430 
 21 C       -8.2870     5.2160    -0.5520 C.3   1 <1>  -0.1600 
 22 C       -8.6480     3.0220     0.5560 C.3   1 <1>  -0.1600 
 23 C       -9.3670     4.2340    -0.0510 C.3   1 <1>   0.2800 
 24 O      -10.0670     3.7290    -1.1440 O.3   1 <1>  -0.5600 
 25 C      -10.3840     4.8100     0.9670 C.3   1 <1>  -0.1600 
 26 C      -10.8930     4.6120    -1.8540 C.3   1 <1>   0.1200 
 27 C      -11.4180     5.7600     0.3530 C.3   1 <1>   0.2800 
 28 C      -11.9880     5.1530    -0.9340 C.3   1 <1>  -0.1600 
 29 O      -10.7780     6.9380     0.0370 O.3   1 <1>  -0.6800 
 30 C      -12.5430     6.1260     1.3480 C.3   1 <1>   0.1200 
 31 O      -13.2820     7.2150     0.8750 O.3   1 <1>  -0.6800 
 32 H       -6.2120    -0.8310     0.6240 H     1 <1>   0.1500 
 33 H       -3.1110     3.1590    -1.6170 H     1 <1>   0.0800 
 34 H       -2.7960     2.5770     0.0120 H     1 <1>   0.0800 
 35 H       -6.5470    -1.6190    -1.6950 H     1 <1>   0.1500 
 36 H       -5.5010    -0.3730    -3.5650 H     1 <1>   0.1500 
 37 H       -2.4090     5.2000    -1.2030 H     1 <1>   0.1500 
 38 H       -4.4880     7.1130     2.8270 H     1 <1>   0.1500 
 39 H       -6.0610     5.3790     2.9300 H     1 <1>   0.0800 
 40 H       -5.2820     3.8520     2.5840 H     1 <1>   0.0800 
 41 H       -1.5890     7.3000    -0.2730 H     1 <1>   0.1500 
 42 H       -2.6320     8.2590     1.7310 H     1 <1>   0.1500 
 43 H       -6.2010     3.9860     0.3920 H     1 <1>   0.4500 
 44 H       -6.6040     6.3040     0.1850 H     1 <1>   0.0800 
 45 H       -7.9230     6.1760     1.3270 H     1 <1>   0.0800 
 46 H       -8.2630     3.8580     2.4940 H     1 <1>   0.0800 
 47 H       -7.1770     2.5630     2.0420 H     1 <1>   0.0800 
 48 H       -7.7030     4.7470    -1.3240 H     1 <1>   0.0800 
 49 H       -8.7150     6.1020    -0.9750 H     1 <1>   0.0800 
 50 H       -9.3680     2.3230     0.9410 H     1 <1>   0.0800 
 51 H       -8.0830     2.5160    -0.2070 H     1 <1>   0.0800 
 52 H       -9.8880     5.3050     1.7800 H     1 <1>   0.0800 
 53 H      -10.9270     3.9830     1.3900 H     1 <1>   0.0800 
 54 H      -11.3320     4.0620    -2.6680 H     1 <1>   0.0800 
 55 H      -10.3010     5.4090    -2.2680 H     1 <1>   0.0800 
 56 H      -12.6400     4.3350    -0.6850 H     1 <1>   0.0800 
 57 H      -12.5790     5.8830    -1.4590 H     1 <1>   0.0800 
 58 H      -11.4920     7.6120    -0.0390 H     1 <1>   0.4000 
 59 H      -12.1230     6.3960     2.3010 H     1 <1>   0.0800 
 60 H      -13.2120     5.2930     1.4840 H     1 <1>   0.0800 
 61 H      -14.0200     7.4280     1.4820 H     1 <1>   0.4000 
@<TRIPOS>BOND
  1   1   2  1   
  2   2   3  ar  
  3   2   4  ar  
  4   3   5  ar  
  5   3   6  1   
  6   4   7  ar  
  7   4  32  1   
  8   5   8  1   
  9   5   9  ar  
 10   6  10  1   
 11   6  33  1   
 12   6  34  1   
 13   7   9  ar  
 14   7  35  1   
 15   9  36  1   
 16  10  11  1   
 17  11  12  ar  
 18  11  13  ar  
 19  12  14  ar  
 20  12  15  1   
 21  13  16  ar  
 22  13  37  1   
 23  14  17  ar  
 24  14  38  1   
 25  15  18  1   
 26  15  39  1   
 27  15  40  1   
 28  16  17  ar  
 29  16  41  1   
 30  17  42  1   
 31  18  19  1   
 32  18  20  1   
 33  18  43  1   
 34  19  21  1   
 35  19  44  1   
 36  19  45  1   
 37  20  22  1   
 38  20  46  1   
 39  20  47  1   
 40  21  23  1   
 41  21  48  1   
 42  21  49  1   
 43  22  23  1   
 44  22  50  1   
 45  22  51  1   
 46  23  24  1   
 47  23  25  1   
 48  24  26  1   
 49  25  27  1   
 50  25  52  1   
 51  25  53  1   
 52  26  28  1   
 53  26  54  1   
 54  26  55  1   
 55  27  28  1   
 56  27  29  1   
 57  27  30  1   
 58  28  56  1   
 59  28  57  1   
 60  29  58  1   
 61  30  31  1   
 62  30  59  1   
 63  30  60  1   
 64  31  61  1   
@<TRIPOS>SUBSTRUCTURE
  1 ****  18 GROUP 4 **** **** 0

# MOE 2024.06 (io_trps.svl 2023.06)
