@<TRIPOS>MOLECULE
NONAME
44 46 1 0 0 
SMALL
USER_CHARGES


@<TRIPOS>ATOM
  1 O        0.4300    -1.9430     1.0550 O.3   1 <1>  -0.6800 
  2 C        1.1190    -1.7900    -0.1270 C.3   1 <1>   0.2000 
  3 C        1.7820    -3.1070    -0.5020 C.3   1 <1>  -0.1600 
  4 C        2.2650    -0.8160     0.0870 C.3   1 <1>  -0.1600 
  5 C        3.0580    -2.7160    -1.2620 C.3   1 <1>  -0.0800 
  6 C        3.3650    -1.2590    -0.8880 C.3   1 <1>  -0.0800 
  7 C        4.2850    -3.5310    -0.8400 C.3   1 <1>  -0.1600 
  8 C        4.7590    -1.2620    -0.2510 C.3   1 <1>  -0.1600 
  9 C        4.9650    -2.6910     0.2420 C.3   1 <1>   0.4230 
 10 N        6.4050    -3.0510     0.3990 N.4   1 <1>  -0.9590 
 11 C        7.1120    -2.2400     1.4370 C.3   1 <1>   0.4860 
 12 C        6.5840    -4.5100     0.6850 C.3   1 <1>   0.2630 
 13 C        7.8040    -1.0590     0.7830 C.ar  1 <1>  -0.1430 
 14 C        8.8560    -1.2100    -0.1200 C.ar  1 <1>   0.1670 
 15 C        7.3760     0.2190     1.0960 C.ar  1 <1>  -0.1500 
 16 N        9.4370    -0.2030    -0.7440 N.ar  1 <1>  -0.6200 
 17 C        9.4550    -2.5610    -0.4790 C.3   1 <1>  -0.0970 
 18 C        7.9940     1.2710     0.4590 C.ar  1 <1>  -0.1500 
 19 C        9.0030     1.0090    -0.4470 C.ar  1 <1>   0.1600 
 20 H       -0.3600    -2.5020     0.9190 H     1 <1>   0.4000 
 21 H        0.4500    -1.4430    -0.8990 H     1 <1>   0.0800 
 22 H        2.0290    -3.6480     0.3960 H     1 <1>   0.0800 
 23 H        1.1330    -3.7080    -1.1150 H     1 <1>   0.0800 
 24 H        1.9510     0.1940    -0.1080 H     1 <1>   0.0800 
 25 H        2.6040    -0.8900     1.1060 H     1 <1>   0.0800 
 26 H        2.8870    -2.8000    -2.3240 H     1 <1>   0.0800 
 27 H        3.3440    -0.6330    -1.7660 H     1 <1>   0.0800 
 28 H        4.9350    -3.6250    -1.6930 H     1 <1>   0.0800 
 29 H        4.0070    -4.5090    -0.4900 H     1 <1>   0.0800 
 30 H        4.8190    -0.5430     0.5430 H     1 <1>   0.0800 
 31 H        5.4820    -1.0230    -1.0120 H     1 <1>   0.0800 
 32 H        4.4330    -2.8230     1.1710 H     1 <1>   0.0800 
 33 H        6.8600    -2.8180    -0.4950 H     1 <1>   0.4500 
 34 H        6.4130    -1.8970     2.1820 H     1 <1>   0.0800 
 35 H        7.8590    -2.8390     1.9320 H     1 <1>   0.0800 
 36 H        6.0760    -4.7790     1.5980 H     1 <1>   0.0800 
 37 H        7.6300    -4.7490     0.7890 H     1 <1>   0.0800 
 38 H        6.1810    -5.1050    -0.1190 H     1 <1>   0.0800 
 39 H        6.5900     0.4100     1.8070 H     1 <1>   0.1500 
 40 H        9.3460    -3.2760     0.3120 H     1 <1>   0.0800 
 41 H       10.5100    -2.4450    -0.6610 H     1 <1>   0.0800 
 42 H        9.0050    -2.9340    -1.3800 H     1 <1>   0.0800 
 43 H        7.7010     2.2870     0.6580 H     1 <1>   0.1500 
 44 H        9.4800     1.8350    -0.9490 H     1 <1>   0.1500 
@<TRIPOS>BOND
  1   1   2  1   
  2   1  20  1   
  3   2   3  1   
  4   2   4  1   
  5   2  21  1   
  6   3   5  1   
  7   3  22  1   
  8   3  23  1   
  9   4   6  1   
 10   4  24  1   
 11   4  25  1   
 12   5   6  1   
 13   5   7  1   
 14   5  26  1   
 15   6   8  1   
 16   6  27  1   
 17   7   9  1   
 18   7  28  1   
 19   7  29  1   
 20   8   9  1   
 21   8  30  1   
 22   8  31  1   
 23   9  10  1   
 24   9  32  1   
 25  10  11  1   
 26  10  12  1   
 27  10  33  1   
 28  11  13  1   
 29  11  34  1   
 30  11  35  1   
 31  12  36  1   
 32  12  37  1   
 33  12  38  1   
 34  13  14  ar  
 35  13  15  ar  
 36  14  16  ar  
 37  14  17  1   
 38  15  18  ar  
 39  15  39  1   
 40  16  19  ar  
 41  17  40  1   
 42  17  41  1   
 43  17  42  1   
 44  18  19  ar  
 45  18  43  1   
 46  19  44  1   
@<TRIPOS>SUBSTRUCTURE
  1 ****   8 GROUP 4 **** **** 0

# MOE 2024.06 (io_trps.svl 2023.06)
