@<TRIPOS>MOLECULE
NONAME
44 45 1 0 0 
SMALL
USER_CHARGES


@<TRIPOS>ATOM
  1 S        0.5720    -0.0550    -0.0820 S.o2  1 <1>   1.3330 
  2 O        0.5620    -0.3530     1.3340 O.2   1 <1>  -0.6500 
  3 O        0.5810    -1.1430    -1.0340 O.2   1 <1>  -0.6500 
  4 N       -0.7730     0.9270    -0.4120 N.am  1 <1>  -0.8490 
  5 C        1.9670     1.0060    -0.4470 C.3   1 <1>  -0.0550 
  6 C       -1.9610     0.1400    -0.7530 C.3   1 <1>   0.1160 
  7 C       -1.0880     1.8680     0.6670 C.3   1 <1>   0.1160 
  8 C        3.3180     0.2680    -0.3720 C.3   1 <1>  -0.0800 
  9 C        4.5320     1.1010    -0.7550 C.3   1 <1>   0.2200 
 10 C        3.6920    -0.2600     1.0210 C.3   1 <1>   0.1200 
 11 N        4.4580     2.4510    -0.1470 N.am  1 <1>  -0.7300 
 12 C        5.6300     0.3180    -0.0510 C.3   1 <1>   0.1200 
 13 O        5.0680    -0.0530     1.1710 O.3   1 <1>  -0.5600 
 14 C        4.0940     3.5960    -0.7920 C.2   1 <1>   0.5440 
 15 O        3.7120     3.5020    -1.9410 O.2   1 <1>  -0.5700 
 16 C        4.1530     4.8870    -0.1240 C.ar  1 <1>   0.0860 
 17 C        4.1750     5.0080     1.2670 C.ar  1 <1>  -0.1500 
 18 C        4.1910     6.0710    -0.8590 C.ar  1 <1>  -0.1500 
 19 C        4.2410     6.2430     1.8860 C.ar  1 <1>  -0.1500 
 20 C        4.2560     7.3090    -0.2470 C.ar  1 <1>  -0.1500 
 21 C        4.2820     7.4150     1.1400 C.ar  1 <1>  -0.1440 
 22 C        4.3600     8.7810     1.8420 C.3   1 <1>   1.1630 
 23 F        4.0080     9.7940     1.0590 F     1 <1>  -0.3400 
 24 F        5.5870     9.0470     2.2700 F     1 <1>  -0.3400 
 25 F        3.5710     8.8460     2.9080 F     1 <1>  -0.3400 
 26 H        1.8510     1.4010    -1.4380 H     1 <1>   0.0800 
 27 H        1.9660     1.8330     0.2350 H     1 <1>   0.0800 
 28 H       -2.7880     0.7910    -0.9770 H     1 <1>   0.0800 
 29 H       -2.2290    -0.5080     0.0650 H     1 <1>   0.0800 
 30 H       -1.7650    -0.4640    -1.6240 H     1 <1>   0.0800 
 31 H       -1.8960     2.5140     0.3680 H     1 <1>   0.0800 
 32 H       -0.2310     2.4800     0.8890 H     1 <1>   0.0800 
 33 H       -1.3760     1.3370     1.5600 H     1 <1>   0.0800 
 34 H        3.2750    -0.5780    -1.0370 H     1 <1>   0.0800 
 35 H        4.6820     1.1630    -1.8200 H     1 <1>   0.0800 
 36 H        3.4820    -1.3120     1.1190 H     1 <1>   0.0800 
 37 H        3.1920     0.2830     1.8060 H     1 <1>   0.0800 
 38 H        4.7960     2.4760     0.8170 H     1 <1>   0.3700 
 39 H        6.5200     0.8990     0.1160 H     1 <1>   0.0800 
 40 H        5.8720    -0.5790    -0.5930 H     1 <1>   0.0800 
 41 H        4.1360     4.1260     1.8810 H     1 <1>   0.1500 
 42 H        4.1700     6.0140    -1.9350 H     1 <1>   0.1500 
 43 H        4.2590     6.2890     2.9640 H     1 <1>   0.1500 
 44 H        4.2880     8.1920    -0.8650 H     1 <1>   0.1500 
@<TRIPOS>BOND
  1   1   2  2   
  2   1   3  2   
  3   1   4  am  
  4   1   5  1   
  5   4   6  1   
  6   4   7  1   
  7   5   8  1   
  8   5  26  1   
  9   5  27  1   
 10   6  28  1   
 11   6  29  1   
 12   6  30  1   
 13   7  31  1   
 14   7  32  1   
 15   7  33  1   
 16   8   9  1   
 17   8  10  1   
 18   8  34  1   
 19   9  11  1   
 20   9  12  1   
 21   9  35  1   
 22  10  13  1   
 23  10  36  1   
 24  10  37  1   
 25  11  14  am  
 26  11  38  1   
 27  12  13  1   
 28  12  39  1   
 29  12  40  1   
 30  14  15  2   
 31  14  16  1   
 32  16  17  ar  
 33  16  18  ar  
 34  17  19  ar  
 35  17  41  1   
 36  18  20  ar  
 37  18  42  1   
 38  19  21  ar  
 39  19  43  1   
 40  20  21  ar  
 41  20  44  1   
 42  21  22  1   
 43  22  23  1   
 44  22  24  1   
 45  22  25  1   
@<TRIPOS>SUBSTRUCTURE
  1 ****  14 GROUP 4 **** **** 0

# MOE 2024.06 (io_trps.svl 2023.06)
