@<TRIPOS>MOLECULE
NONAME
48 50 1 0 0 
SMALL
USER_CHARGES


@<TRIPOS>ATOM
  1 O        1.8250    -1.4280    -1.8750 O.2   1 <1>  -0.5700 
  2 C        1.4050    -2.4420    -1.3560 C.2   1 <1>   0.5440 
  3 N        0.9550    -3.3900    -2.2070 N.am  1 <1>  -0.8000 
  4 C        1.4140    -2.6180     0.0820 C.ar  1 <1>   0.0860 
  5 C        0.5460    -3.4990     0.7680 C.ar  1 <1>   0.4100 
  6 C        2.3270    -1.9010     0.8470 C.ar  1 <1>  -0.1500 
  7 N        0.5870    -3.6990     2.0860 N.ar  1 <1>  -0.6200 
  8 N       -0.4520    -4.2110     0.1240 N.pl3 1 <1>  -0.8380 
  9 C        2.3540    -2.1010     2.2070 C.ar  1 <1>  -0.1500 
 10 C        1.4750    -3.0060     2.7680 C.ar  1 <1>   0.1600 
 11 C       -1.7050    -3.4600    -0.2380 C.3   1 <1>   0.2090 
 12 C       -0.6760    -5.6450     0.5090 C.3   1 <1>   0.2090 
 13 C       -2.9960    -4.2870    -0.0640 C.3   1 <1>   0.2090 
 14 C       -1.6180    -6.3660    -0.4770 C.3   1 <1>   0.2090 
 15 N       -2.9000    -5.6240    -0.7390 N.pl3 1 <1>  -0.8380 
 16 C       -4.0600    -6.3610    -0.9130 C.ar  1 <1>   0.4100 
 17 N       -4.9250    -6.3060     0.0960 N.ar  1 <1>  -0.6200 
 18 C       -4.2820    -7.1090    -2.0780 C.ar  1 <1>   0.0730 
 19 C       -6.0420    -7.0030    -0.0230 C.ar  1 <1>   0.1670 
 20 C       -3.3230    -7.1250    -3.1380 C.1   1 <1>   0.4840 
 21 C       -5.4550    -7.8310    -2.1860 C.ar  1 <1>  -0.1500 
 22 C       -6.3450    -7.7730    -1.1350 C.ar  1 <1>  -0.1500 
 23 C       -7.0190    -6.9250     1.1530 C.3   1 <1>   0.0630 
 24 N       -2.5620    -7.1790    -3.9880 N.1   1 <1>  -0.5570 
 25 C       -7.2240    -8.2980     1.8060 C.3   1 <1>  -0.2400 
 26 C       -8.3650    -6.3200     0.7300 C.3   1 <1>  -0.2400 
 27 H        0.8990    -3.1980    -3.2060 H     1 <1>   0.3700 
 28 H        0.3840    -4.1580    -1.8340 H     1 <1>   0.3700 
 29 H        3.0020    -1.2060     0.3770 H     1 <1>   0.1500 
 30 H        3.0500    -1.5650     2.8280 H     1 <1>   0.1500 
 31 H        1.5040    -3.1640     3.8330 H     1 <1>   0.1500 
 32 H       -1.6420    -3.1490    -1.2650 H     1 <1>   0.0800 
 33 H       -1.7790    -2.5740     0.3680 H     1 <1>   0.0800 
 34 H       -1.1050    -5.6860     1.4960 H     1 <1>   0.0800 
 35 H        0.2700    -6.1570     0.5430 H     1 <1>   0.0800 
 36 H       -3.8290    -3.7420    -0.4710 H     1 <1>   0.0800 
 37 H       -3.1820    -4.4320     0.9870 H     1 <1>   0.0800 
 38 H       -1.8440    -7.3440    -0.0890 H     1 <1>   0.0800 
 39 H       -1.0960    -6.4930    -1.4090 H     1 <1>   0.0800 
 40 H       -5.6700    -8.4210    -3.0610 H     1 <1>   0.1500 
 41 H       -7.2680    -8.3210    -1.1830 H     1 <1>   0.1500 
 42 H       -6.5900    -6.2730     1.8960 H     1 <1>   0.0800 
 43 H       -7.6930    -8.9850     1.1250 H     1 <1>   0.0800 
 44 H       -7.8420    -8.2050     2.6810 H     1 <1>   0.0800 
 45 H       -6.2730    -8.7040     2.1040 H     1 <1>   0.0800 
 46 H       -8.8680    -6.9530     0.0220 H     1 <1>   0.0800 
 47 H       -8.2040    -5.3570     0.2790 H     1 <1>   0.0800 
 48 H       -9.0000    -6.1910     1.5880 H     1 <1>   0.0800 
@<TRIPOS>BOND
  1   1   2  2   
  2   2   3  am  
  3   2   4  1   
  4   3  27  1   
  5   3  28  1   
  6   4   5  ar  
  7   4   6  ar  
  8   5   7  ar  
  9   5   8  1   
 10   6   9  ar  
 11   6  29  1   
 12   7  10  ar  
 13   8  11  1   
 14   8  12  1   
 15   9  10  ar  
 16   9  30  1   
 17  10  31  1   
 18  11  13  1   
 19  11  32  1   
 20  11  33  1   
 21  12  14  1   
 22  12  34  1   
 23  12  35  1   
 24  13  15  1   
 25  13  36  1   
 26  13  37  1   
 27  14  15  1   
 28  14  38  1   
 29  14  39  1   
 30  15  16  1   
 31  16  17  ar  
 32  16  18  ar  
 33  17  19  ar  
 34  18  20  1   
 35  18  21  ar  
 36  19  22  ar  
 37  19  23  1   
 38  20  24  3   
 39  21  22  ar  
 40  21  40  1   
 41  22  41  1   
 42  23  25  1   
 43  23  26  1   
 44  23  42  1   
 45  25  43  1   
 46  25  44  1   
 47  25  45  1   
 48  26  46  1   
 49  26  47  1   
 50  26  48  1   
@<TRIPOS>SUBSTRUCTURE
  1 ****  15 GROUP 4 **** **** 0

# MOE 2024.06 (io_trps.svl 2023.06)
