@<TRIPOS>MOLECULE
NONAME
50 53 1 0 0 
SMALL
USER_CHARGES


@<TRIPOS>ATOM
  1 S       -0.8310     0.0600     1.4000 S.3   1 <1>  -0.0800 
  2 C       -0.7280     1.5660     0.5040 C.2   1 <1>   0.3250 
  3 C       -0.3330     0.8910     2.8400 C.2   1 <1>  -0.1100 
  4 N       -0.3360     2.5560     1.2300 N.2   1 <1>  -0.5650 
  5 C       -1.0670     1.5790    -0.8950 C.ar  1 <1>   0.0530 
  6 C       -0.1250     2.1830     2.5440 C.2   1 <1>   0.0460 
  7 C       -0.6700     0.5600    -1.7610 C.ar  1 <1>   0.1600 
  8 C       -1.7890     2.6310    -1.4450 C.ar  1 <1>  -0.1500 
  9 C        0.3130     3.2500     3.5370 C.3   1 <1>   0.0210 
 10 N       -0.9030     0.5210    -3.0610 N.ar  1 <1>  -0.6200 
 11 C       -2.0550     2.6000    -2.7960 C.ar  1 <1>  -0.1500 
 12 C        1.7080     3.8060     3.2160 C.3   1 <1>   0.2090 
 13 C       -1.5950     1.5360    -3.5530 C.ar  1 <1>   0.1600 
 14 N        1.6600     5.1680     2.6080 N.pl3 1 <1>  -0.8690 
 15 C        1.5750     5.5750     1.3370 C.ar  1 <1>   0.7710 
 16 N        1.8810     6.8340     1.1040 N.ar  1 <1>  -0.6200 
 17 N        1.1930     4.7280     0.3720 N.ar  1 <1>  -0.1790 
 18 C        1.8470     7.2590    -0.1480 C.ar  1 <1>   0.4100 
 19 C        1.1200     5.1210    -0.9190 C.ar  1 <1>   0.2110 
 20 N        2.2000     8.5490    -0.3880 N.pl3 1 <1>  -0.8380 
 21 C        1.4510     6.4030    -1.1980 C.ar  1 <1>  -0.1500 
 22 C        2.8220     9.0410    -1.6620 C.3   1 <1>   0.2090 
 23 C        2.0720     9.6260     0.6420 C.3   1 <1>   0.2090 
 24 C        1.9780    10.1800    -2.2560 C.3   1 <1>   0.2000 
 25 C        1.2260    10.7770     0.0770 C.3   1 <1>  -0.1600 
 26 O        2.6050    10.6880    -3.3800 O.3   1 <1>  -0.6800 
 27 C        1.7840    11.3210    -1.2510 C.3   1 <1>  -0.1600 
 28 H       -0.2570     0.3190     3.7490 H     1 <1>   0.1500 
 29 H       -0.1170    -0.2710    -1.3550 H     1 <1>   0.1500 
 30 H       -2.1440     3.4390    -0.8280 H     1 <1>   0.1500 
 31 H        0.3480     2.7990     4.5130 H     1 <1>   0.0800 
 32 H       -0.4140     4.0420     3.5760 H     1 <1>   0.0800 
 33 H       -2.6190     3.3860    -3.2670 H     1 <1>   0.1500 
 34 H        2.2400     3.1270     2.5690 H     1 <1>   0.0800 
 35 H        2.2710     3.8710     4.1330 H     1 <1>   0.0800 
 36 H       -1.8060     1.5160    -4.6090 H     1 <1>   0.1500 
 37 H        1.9070     5.9260     3.2570 H     1 <1>   0.4000 
 38 H        0.8640     3.8130     0.6930 H     1 <1>   0.4570 
 39 H        0.7970     4.4140    -1.6680 H     1 <1>   0.1500 
 40 H        1.3980     6.7840    -2.2000 H     1 <1>   0.1500 
 41 H        2.9210     8.2500    -2.3820 H     1 <1>   0.0800 
 42 H        3.8070     9.4090    -1.4370 H     1 <1>   0.0800 
 43 H        3.0530     9.9830     0.9060 H     1 <1>   0.0800 
 44 H        1.6020     9.2540     1.5360 H     1 <1>   0.0800 
 45 H        1.0250     9.7900    -2.5680 H     1 <1>   0.0800 
 46 H        1.1840    11.5710     0.8010 H     1 <1>   0.0800 
 47 H        0.2220    10.4210    -0.0730 H     1 <1>   0.0800 
 48 H        3.3570    11.2560    -3.1260 H     1 <1>   0.4000 
 49 H        1.1010    12.0480    -1.6560 H     1 <1>   0.0800 
 50 H        2.7280    11.8000    -1.0570 H     1 <1>   0.0800 
@<TRIPOS>BOND
  1   1   2  1   
  2   1   3  1   
  3   2   4  2   
  4   2   5  1   
  5   3   6  2   
  6   3  28  1   
  7   4   6  1   
  8   5   7  ar  
  9   5   8  ar  
 10   6   9  1   
 11   7  10  ar  
 12   7  29  1   
 13   8  11  ar  
 14   8  30  1   
 15   9  12  1   
 16   9  31  1   
 17   9  32  1   
 18  10  13  ar  
 19  11  13  ar  
 20  11  33  1   
 21  12  14  1   
 22  12  34  1   
 23  12  35  1   
 24  13  36  1   
 25  14  15  1   
 26  14  37  1   
 27  15  16  ar  
 28  15  17  ar  
 29  16  18  ar  
 30  17  19  ar  
 31  17  38  1   
 32  18  20  1   
 33  18  21  ar  
 34  19  21  ar  
 35  19  39  1   
 36  20  22  1   
 37  20  23  1   
 38  21  40  1   
 39  22  24  1   
 40  22  41  1   
 41  22  42  1   
 42  23  25  1   
 43  23  43  1   
 44  23  44  1   
 45  24  26  1   
 46  24  27  1   
 47  24  45  1   
 48  25  27  1   
 49  25  46  1   
 50  25  47  1   
 51  26  48  1   
 52  27  49  1   
 53  27  50  1   
@<TRIPOS>SUBSTRUCTURE
  1 ****  17 GROUP 4 **** **** 0

# MOE 2024.06 (io_trps.svl 2023.06)
