@<TRIPOS>MOLECULE
NONAME
61 63 1 0 0 
SMALL
USER_CHARGES


@<TRIPOS>ATOM
  1 O       -0.6610     0.1770     0.5470 O.2   1 <1>  -0.5700 
  2 C        0.1350     1.0730     0.3150 C.2   1 <1>   0.5440 
  3 N       -0.1950     2.2930    -0.2300 N.am  1 <1>  -0.6600 
  4 C        1.5480     0.9920     0.5430 C.ar  1 <1>   0.0860 
  5 C       -1.5720     2.7730    -0.6270 C.3   1 <1>   0.3000 
  6 C        1.0540     3.1020    -0.3920 C.3   1 <1>   0.2840 
  7 C        2.1310     2.1710     0.1290 C.ar  1 <1>  -0.1440 
  8 C        2.3430    -0.0190     1.0710 C.ar  1 <1>  -0.1500 
  9 C       -2.4480     2.7740     0.6620 C.3   1 <1>  -0.1600 
 10 C       -1.5400     4.2200    -1.2310 C.3   1 <1>  -0.1600 
 11 C       -2.0760     1.7860    -1.7120 C.3   1 <1>  -0.0990 
 12 C        3.4950     2.3740     0.2210 C.ar  1 <1>  -0.1500 
 13 C        3.7120     0.1710     1.1700 C.ar  1 <1>  -0.1500 
 14 C       -2.2490     4.0480     1.4950 C.3   1 <1>  -0.1600 
 15 C       -2.7230     5.1010    -0.7980 C.3   1 <1>  -0.1600 
 16 C       -3.5500     1.8770    -2.0490 C.2   1 <1>   0.5690 
 17 C        4.2860     1.3620     0.7460 C.ar  1 <1>  -0.1500 
 18 C       -2.7400     5.2890     0.7290 C.3   1 <1>  -0.1600 
 19 O       -3.9200     2.6840    -2.8580 O.2   1 <1>  -0.5700 
 20 N       -4.4580     1.0320    -1.4980 N.am  1 <1>  -0.7300 
 21 C       -4.2540    -0.0070    -0.4540 C.3   1 <1>   0.1400 
 22 C       -4.0080    -1.3810    -1.1020 C.3   1 <1>   0.3430 
 23 N       -3.7960    -2.4810    -0.1010 N.4   1 <1>  -0.9590 
 24 C       -2.5030    -2.3200     0.6250 C.3   1 <1>   0.3430 
 25 C       -3.8700    -3.8010    -0.7810 C.3   1 <1>   0.3430 
 26 C       -2.7960    -1.9250     2.0660 C.3   1 <1>  -0.2400 
 27 C       -4.1040    -4.8970     0.2520 C.3   1 <1>  -0.2400 
 28 H        1.0120     3.9920     0.2110 H     1 <1>   0.0800 
 29 H        1.2190     3.3450    -1.4280 H     1 <1>   0.0800 
 30 H        1.8890    -0.9370     1.3970 H     1 <1>   0.1500 
 31 H       -2.2470     1.9190     1.2770 H     1 <1>   0.0800 
 32 H       -3.4910     2.7360     0.4090 H     1 <1>   0.0800 
 33 H       -1.5220     4.1820    -2.3060 H     1 <1>   0.0800 
 34 H       -0.6740     4.7690    -0.9260 H     1 <1>   0.0800 
 35 H       -1.8710     0.7750    -1.4430 H     1 <1>   0.0800 
 36 H       -1.5280     1.9610    -2.6190 H     1 <1>   0.0800 
 37 H        3.9410     3.2980    -0.1050 H     1 <1>   0.1500 
 38 H        4.3350    -0.6070     1.5770 H     1 <1>   0.1500 
 39 H       -1.2030     4.1550     1.7260 H     1 <1>   0.0800 
 40 H       -2.7810     3.9680     2.4280 H     1 <1>   0.0800 
 41 H       -3.6460     4.6460    -1.1150 H     1 <1>   0.0800 
 42 H       -2.6630     6.0620    -1.2780 H     1 <1>   0.0800 
 43 H        5.3510     1.5010     0.8270 H     1 <1>   0.1500 
 44 H       -2.1190     6.1270     0.9970 H     1 <1>   0.0800 
 45 H       -3.7460     5.5260     1.0320 H     1 <1>   0.0800 
 46 H       -5.4240     1.2180    -1.7900 H     1 <1>   0.3700 
 47 H       -5.1280    -0.0440     0.1720 H     1 <1>   0.0800 
 48 H       -3.4090     0.2610     0.1530 H     1 <1>   0.0800 
 49 H       -3.1440    -1.3110    -1.7430 H     1 <1>   0.0800 
 50 H       -4.8620    -1.6180    -1.7140 H     1 <1>   0.0800 
 51 H       -4.5500    -2.4530     0.5980 H     1 <1>   0.4500 
 52 H       -1.8960    -1.5720     0.1440 H     1 <1>   0.0800 
 53 H       -1.9490    -3.2450     0.6190 H     1 <1>   0.0800 
 54 H       -2.9600    -3.9910    -1.3290 H     1 <1>   0.0800 
 55 H       -4.6910    -3.8050    -1.4810 H     1 <1>   0.0800 
 56 H       -3.3230    -0.9900     2.1190 H     1 <1>   0.0800 
 57 H       -1.8620    -1.7990     2.5860 H     1 <1>   0.0800 
 58 H       -3.3560    -2.6920     2.5690 H     1 <1>   0.0800 
 59 H       -3.2780    -4.9800     0.9350 H     1 <1>   0.0800 
 60 H       -4.2060    -5.8410    -0.2530 H     1 <1>   0.0800 
 61 H       -5.0110    -4.7180     0.8020 H     1 <1>   0.0800 
@<TRIPOS>BOND
  1   1   2  2   
  2   2   3  am  
  3   2   4  1   
  4   3   5  1   
  5   3   6  1   
  6   4   7  ar  
  7   4   8  ar  
  8   5   9  1   
  9   5  10  1   
 10   5  11  1   
 11   6   7  1   
 12   6  28  1   
 13   6  29  1   
 14   7  12  ar  
 15   8  13  ar  
 16   8  30  1   
 17   9  14  1   
 18   9  31  1   
 19   9  32  1   
 20  10  15  1   
 21  10  33  1   
 22  10  34  1   
 23  11  16  1   
 24  11  35  1   
 25  11  36  1   
 26  12  17  ar  
 27  12  37  1   
 28  13  17  ar  
 29  13  38  1   
 30  14  18  1   
 31  14  39  1   
 32  14  40  1   
 33  15  18  1   
 34  15  41  1   
 35  15  42  1   
 36  16  19  2   
 37  16  20  am  
 38  17  43  1   
 39  18  44  1   
 40  18  45  1   
 41  20  21  1   
 42  20  46  1   
 43  21  22  1   
 44  21  47  1   
 45  21  48  1   
 46  22  23  1   
 47  22  49  1   
 48  22  50  1   
 49  23  24  1   
 50  23  25  1   
 51  23  51  1   
 52  24  26  1   
 53  24  52  1   
 54  24  53  1   
 55  25  27  1   
 56  25  54  1   
 57  25  55  1   
 58  26  56  1   
 59  26  57  1   
 60  26  58  1   
 61  27  59  1   
 62  27  60  1   
 63  27  61  1   
@<TRIPOS>SUBSTRUCTURE
  1 ****   1 GROUP 4 **** **** 0

# MOE 2024.06 (io_trps.svl 2023.06)
