@<TRIPOS>MOLECULE
NONAME
51 54 1 0 0 
SMALL
USER_CHARGES


@<TRIPOS>ATOM
  1 O       -0.5530    -0.5740    -0.2430 O.2   1 <1>  -0.5700 
  2 C       -1.0730    -1.6700    -0.3540 C.2   1 <1>   0.5440 
  3 N       -2.3900    -1.7350    -0.7160 N.am  1 <1>  -0.3680 
  4 C       -0.3960    -2.9100    -0.1190 C.ar  1 <1>   0.0860 
  5 N       -3.1190    -2.8700    -0.8970 N.2   1 <1>  -0.5120 
  6 C       -1.1260    -4.1010    -0.2920 C.ar  1 <1>   0.0860 
  7 C        0.9420    -2.9610     0.2830 C.ar  1 <1>  -0.1500 
  8 C       -2.5140    -4.0200    -0.7120 C.2   1 <1>   0.3640 
  9 C       -0.4590    -5.3090    -0.0270 C.ar  1 <1>  -0.1500 
 10 C        1.5680    -4.1620     0.5260 C.ar  1 <1>  -0.1500 
 11 C       -3.2440    -5.2590    -0.9300 C.2   1 <1>   0.6300 
 12 C        0.8600    -5.3430     0.3710 C.ar  1 <1>  -0.1500 
 13 O       -2.8320    -6.0540    -1.7630 O.2   1 <1>  -0.5700 
 14 N       -4.3910    -5.6040    -0.2220 N.am  1 <1>  -0.6600 
 15 C       -5.1650    -6.8470    -0.5350 C.3   1 <1>   0.1400 
 16 C       -4.9730    -4.7430     0.8460 C.3   1 <1>   0.1400 
 17 C       -6.5820    -6.5410    -1.0400 C.3   1 <1>   0.1400 
 18 C       -6.1250    -3.9150     0.2680 C.3   1 <1>  -0.1600 
 19 N       -7.4760    -6.0650     0.0630 N.am  1 <1>  -0.6600 
 20 C       -7.4970    -4.5990     0.3450 C.3   1 <1>   0.1400 
 21 C       -8.4440    -6.8840     0.6140 C.2   1 <1>   0.7160 
 22 O       -9.3600    -6.3820     1.2380 O.2   1 <1>  -0.5700 
 23 C       -8.4030    -8.3160     0.4450 C.2   1 <1>  -0.0860 
 24 C       -9.2900    -9.1320    -0.1860 C.2   1 <1>  -0.0400 
 25 C       -7.4010    -9.1930     0.9120 C.2   1 <1>  -0.1500 
 26 O       -8.8920   -10.3800    -0.1510 O.3   1 <1>  -0.2800 
 27 C      -10.5960    -8.8100    -0.8810 C.3   1 <1>  -0.0600 
 28 C       -7.7570   -10.4290     0.5110 C.2   1 <1>  -0.0400 
 29 C       -7.0920   -11.7720     0.7080 C.3   1 <1>  -0.0600 
 30 H       -2.8230    -0.8190    -0.8800 H     1 <1>   0.3700 
 31 H        1.4850    -2.0390     0.4040 H     1 <1>   0.1500 
 32 H       -0.9700    -6.2500    -0.1350 H     1 <1>   0.1500 
 33 H        2.5990    -4.1890     0.8350 H     1 <1>   0.1500 
 34 H        1.3470    -6.2850     0.5620 H     1 <1>   0.1500 
 35 H       -5.2160    -7.4630     0.3430 H     1 <1>   0.0800 
 36 H       -4.6610    -7.4190    -1.2940 H     1 <1>   0.0800 
 37 H       -4.2200    -4.0810     1.2350 H     1 <1>   0.0800 
 38 H       -5.3200    -5.3520     1.6640 H     1 <1>   0.0800 
 39 H       -6.9900    -7.4370    -1.4750 H     1 <1>   0.0800 
 40 H       -6.5350    -5.8040    -1.8230 H     1 <1>   0.0800 
 41 H       -5.9070    -3.6390    -0.7480 H     1 <1>   0.0800 
 42 H       -6.1940    -2.9980     0.8240 H     1 <1>   0.0800 
 43 H       -8.1760    -4.1200    -0.3400 H     1 <1>   0.0800 
 44 H       -7.8860    -4.4480     1.3390 H     1 <1>   0.0800 
 45 H       -6.5420    -8.8970     1.4840 H     1 <1>   0.1500 
 46 H      -10.8030    -7.7560    -0.8250 H     1 <1>   0.0800 
 47 H      -11.3970    -9.3450    -0.4060 H     1 <1>   0.0800 
 48 H      -10.5420    -9.1040    -1.9120 H     1 <1>   0.0800 
 49 H       -6.1820   -11.6600     1.2680 H     1 <1>   0.0800 
 50 H       -6.8660   -12.2090    -0.2470 H     1 <1>   0.0800 
 51 H       -7.7550   -12.4280     1.2430 H     1 <1>   0.0800 
@<TRIPOS>BOND
  1   1   2  2   
  2   2   3  am  
  3   2   4  1   
  4   3   5  1   
  5   3  30  1   
  6   4   6  ar  
  7   4   7  ar  
  8   5   8  2   
  9   6   8  1   
 10   6   9  ar  
 11   7  10  ar  
 12   7  31  1   
 13   8  11  1   
 14   9  12  ar  
 15   9  32  1   
 16  10  12  ar  
 17  10  33  1   
 18  11  13  2   
 19  11  14  am  
 20  12  34  1   
 21  14  15  1   
 22  14  16  1   
 23  15  17  1   
 24  15  35  1   
 25  15  36  1   
 26  16  18  1   
 27  16  37  1   
 28  16  38  1   
 29  17  19  1   
 30  17  39  1   
 31  17  40  1   
 32  18  20  1   
 33  18  41  1   
 34  18  42  1   
 35  19  20  1   
 36  19  21  am  
 37  20  43  1   
 38  20  44  1   
 39  21  22  2   
 40  21  23  1   
 41  23  24  2   
 42  23  25  1   
 43  24  26  1   
 44  24  27  1   
 45  25  28  2   
 46  25  45  1   
 47  26  28  1   
 48  27  46  1   
 49  27  47  1   
 50  27  48  1   
 51  28  29  1   
 52  29  49  1   
 53  29  50  1   
 54  29  51  1   
@<TRIPOS>SUBSTRUCTURE
  1 ****  14 GROUP 4 **** **** 0

# MOE 2024.06 (io_trps.svl 2023.06)
