@<TRIPOS>MOLECULE
NONAME
55 58 1 0 0 
SMALL
USER_CHARGES


@<TRIPOS>ATOM
  1 O       -1.0040    -0.6460    -1.4540 O.3   1 <1>  -0.3630 
  2 C       -1.1770    -1.7160    -0.6350 C.ar  1 <1>   0.0820 
  3 C       -1.8260     0.4980    -1.3750 C.3   1 <1>   0.0400 
  4 C       -0.2860    -2.7770    -0.7600 C.ar  1 <1>  -0.1440 
  5 C       -2.2010    -1.7840     0.3060 C.ar  1 <1>  -0.1500 
  6 C       -0.4380    -3.8920     0.0520 C.ar  1 <1>  -0.1500 
  7 C        0.8450    -2.7260    -1.7910 C.3   1 <1>   0.2390 
  8 C       -2.3410    -2.9010     1.1090 C.ar  1 <1>  -0.1500 
  9 C       -1.4620    -3.9650     0.9830 C.ar  1 <1>  -0.1440 
 10 N        2.1230    -3.2100    -1.2260 N.pl3 1 <1>   0.3140 
 11 C       -1.6210    -5.2040     1.8440 C.3   1 <1>   0.4870 
 12 N        2.5590    -4.4790    -1.3920 N.2   1 <1>  -0.7070 
 13 C        2.9990    -2.4890    -0.4970 C.2   1 <1>  -0.3020 
 14 N       -2.0060    -6.3480     0.9780 N.4   1 <1>  -0.9590 
 15 C        3.7010    -4.5200    -0.7740 C.2   1 <1>   0.1390 
 16 C        4.0300    -3.3030    -0.1910 C.2   1 <1>  -0.1500 
 17 C       -3.1480    -6.0900     0.0510 C.3   1 <1>   0.3430 
 18 C       -2.2720    -7.6330     1.6630 C.3   1 <1>   0.3430 
 19 C       -3.8280    -7.4460    -0.1750 C.3   1 <1>   0.2000 
 20 C       -3.0290    -8.4770     0.6340 C.3   1 <1>  -0.0800 
 21 O       -5.1280    -7.3980     0.3180 O.3   1 <1>  -0.6800 
 22 C       -2.0990    -9.3450    -0.2510 C.3   1 <1>  -0.0170 
 23 C       -0.7450    -8.7390    -0.6150 C.ar  1 <1>   0.1670 
 24 N       -0.7510    -7.5870    -1.2740 N.ar  1 <1>  -0.6200 
 25 C        0.4130    -9.4140    -0.2540 C.ar  1 <1>  -0.1500 
 26 C        0.4420    -7.1110    -1.6130 C.ar  1 <1>   0.1600 
 27 C        1.6440    -8.8950    -0.5930 C.ar  1 <1>  -0.1500 
 28 C        1.6450    -7.7130    -1.2970 C.ar  1 <1>  -0.1500 
 29 H       -1.4820     1.2080    -2.1060 H     1 <1>   0.0800 
 30 H       -1.7450     0.9210    -0.3900 H     1 <1>   0.0800 
 31 H       -2.8420     0.2170    -1.5930 H     1 <1>   0.0800 
 32 H       -2.8990    -0.9770     0.4270 H     1 <1>   0.1500 
 33 H        0.2550    -4.7120    -0.0410 H     1 <1>   0.1500 
 34 H        1.0060    -1.7270    -2.1480 H     1 <1>   0.0800 
 35 H        0.5920    -3.3440    -2.6320 H     1 <1>   0.0800 
 36 H       -3.1420    -2.9270     1.8290 H     1 <1>   0.1500 
 37 H       -2.3800    -5.0310     2.5880 H     1 <1>   0.0800 
 38 H       -0.6900    -5.4160     2.3450 H     1 <1>   0.0800 
 39 H        2.8420    -1.4560    -0.2440 H     1 <1>   0.1500 
 40 H       -1.2170    -6.5370     0.3250 H     1 <1>   0.4500 
 41 H        4.3220    -5.4000    -0.7230 H     1 <1>   0.1500 
 42 H        4.9190    -3.0870     0.3740 H     1 <1>   0.1500 
 43 H       -3.8480    -5.3930     0.4780 H     1 <1>   0.0800 
 44 H       -2.7770    -5.6980    -0.8830 H     1 <1>   0.0800 
 45 H       -1.3570    -8.1120     1.9740 H     1 <1>   0.0800 
 46 H       -2.9000    -7.4650     2.5220 H     1 <1>   0.0800 
 47 H       -3.8860    -7.6830    -1.2250 H     1 <1>   0.0800 
 48 H       -3.7000    -9.1520     1.1380 H     1 <1>   0.0800 
 49 H       -5.1690    -7.3020     1.2880 H     1 <1>   0.4000 
 50 H       -2.6080    -9.6070    -1.1630 H     1 <1>   0.0800 
 51 H       -1.9250   -10.2720     0.2670 H     1 <1>   0.0800 
 52 H        0.3680   -10.3470     0.2790 H     1 <1>   0.1500 
 53 H        0.4730    -6.1900    -2.1740 H     1 <1>   0.1500 
 54 H        2.5620    -9.3940    -0.3310 H     1 <1>   0.1500 
 55 H        2.5680    -7.2550    -1.6060 H     1 <1>   0.1500 
@<TRIPOS>BOND
  1   1   2  1   
  2   1   3  1   
  3   2   4  ar  
  4   2   5  ar  
  5   3  29  1   
  6   3  30  1   
  7   3  31  1   
  8   4   6  ar  
  9   4   7  1   
 10   5   8  ar  
 11   5  32  1   
 12   6   9  ar  
 13   6  33  1   
 14   7  10  1   
 15   7  34  1   
 16   7  35  1   
 17   8   9  ar  
 18   8  36  1   
 19   9  11  1   
 20  10  12  1   
 21  10  13  1   
 22  11  14  1   
 23  11  37  1   
 24  11  38  1   
 25  12  15  2   
 26  13  16  2   
 27  13  39  1   
 28  14  17  1   
 29  14  18  1   
 30  14  40  1   
 31  15  16  1   
 32  15  41  1   
 33  16  42  1   
 34  17  19  1   
 35  17  43  1   
 36  17  44  1   
 37  18  20  1   
 38  18  45  1   
 39  18  46  1   
 40  19  20  1   
 41  19  21  1   
 42  19  47  1   
 43  20  22  1   
 44  20  48  1   
 45  21  49  1   
 46  22  23  1   
 47  22  50  1   
 48  22  51  1   
 49  23  24  ar  
 50  23  25  ar  
 51  24  26  ar  
 52  25  27  ar  
 53  25  52  1   
 54  26  28  ar  
 55  26  53  1   
 56  27  28  ar  
 57  27  54  1   
 58  28  55  1   
@<TRIPOS>SUBSTRUCTURE
  1 ****   6 GROUP 4 **** **** 0

# MOE 2024.06 (io_trps.svl 2023.06)
