@<TRIPOS>MOLECULE
NONAME
46 49 1 0 0 
SMALL
USER_CHARGES


@<TRIPOS>ATOM
  1 O       -2.6000     1.2110    -1.9910 O.2   1 <1>  -0.5700 
  2 C       -2.2240     1.0780    -0.8500 C.2   1 <1>   0.6300 
  3 N       -1.9830    -0.1460    -0.3210 N.am  1 <1>  -0.7300 
  4 C       -2.0250     2.3030     0.0420 C.3   1 <1>   0.0320 
  5 C       -2.0550    -1.4250    -1.0600 C.3   1 <1>   0.2200 
  6 C       -0.5540     2.6420     0.2380 C.ar  1 <1>  -0.0320 
  7 C       -2.9950     2.5550     1.1650 C.3   1 <1>  -0.2000 
  8 C       -3.0000     3.4450    -0.0350 C.3   1 <1>  -0.2000 
  9 C       -3.3000    -2.2150    -0.6800 C.3   1 <1>  -0.0800 
 10 C       -0.9660    -2.3520    -0.5390 C.3   1 <1>   0.1200 
 11 C        0.1150     2.2860     1.3990 C.ar  1 <1>  -0.1500 
 12 C        0.1340     3.3050    -0.7660 C.ar  1 <1>  -0.1500 
 13 C       -2.8660    -2.9540     0.5910 C.3   1 <1>   0.1200 
 14 C       -4.5950    -1.3960    -0.5290 C.3   1 <1>  -0.0170 
 15 O       -1.4710    -2.8670     0.6550 O.3   1 <1>  -0.5600 
 16 C        1.4550     2.5940     1.5570 C.ar  1 <1>  -0.1500 
 17 C        1.4740     3.6150    -0.6110 C.ar  1 <1>  -0.1500 
 18 C       -5.7830    -2.3050    -0.2520 C.ar  1 <1>  -0.1440 
 19 C        2.1350     3.2590     0.5520 C.ar  1 <1>  -0.1500 
 20 C       -6.2660    -2.5140     1.0240 C.ar  1 <1>  -0.1500 
 21 C       -6.4370    -2.9700    -1.2690 C.ar  1 <1>  -0.1500 
 22 C       -7.3470    -3.3600     1.2150 C.ar  1 <1>   0.1600 
 23 C       -7.5100    -3.7930    -0.9690 C.ar  1 <1>   0.1600 
 24 N       -7.9790    -4.0060     0.2490 N.ar  1 <1>  -0.6200 
 25 H       -1.6490    -0.2320     0.6400 H     1 <1>   0.3700 
 26 H       -1.9760    -1.2560    -2.1220 H     1 <1>   0.0800 
 27 H       -3.8220     1.8810     1.3010 H     1 <1>   0.1000 
 28 H       -2.6370     2.9640     2.0930 H     1 <1>   0.1000 
 29 H       -2.6210     4.4480     0.0580 H     1 <1>   0.1000 
 30 H       -3.8100     3.3740    -0.7410 H     1 <1>   0.1000 
 31 H       -3.4610    -2.9570    -1.4420 H     1 <1>   0.0800 
 32 H       -0.0360    -1.8430    -0.3530 H     1 <1>   0.0800 
 33 H       -0.8070    -3.1740    -1.2140 H     1 <1>   0.0800 
 34 H       -0.4040     1.7680     2.1860 H     1 <1>   0.1500 
 35 H       -0.3780     3.5790    -1.6720 H     1 <1>   0.1500 
 36 H       -3.1530    -3.9910     0.5670 H     1 <1>   0.0800 
 37 H       -3.2600    -2.4880     1.4780 H     1 <1>   0.0800 
 38 H       -4.7740    -0.8410    -1.4340 H     1 <1>   0.0800 
 39 H       -4.4990    -0.6830     0.2710 H     1 <1>   0.0800 
 40 H        1.9700     2.3170     2.4610 H     1 <1>   0.1500 
 41 H        2.0010     4.1310    -1.3940 H     1 <1>   0.1500 
 42 H        3.1770     3.4990     0.6730 H     1 <1>   0.1500 
 43 H       -5.8160    -2.0300     1.8700 H     1 <1>   0.1500 
 44 H       -6.1250    -2.8550    -2.2900 H     1 <1>   0.1500 
 45 H       -7.7110    -3.5120     2.2170 H     1 <1>   0.1500 
 46 H       -8.0090    -4.3030    -1.7750 H     1 <1>   0.1500 
@<TRIPOS>BOND
  1   1   2  2   
  2   2   3  am  
  3   2   4  1   
  4   3   5  1   
  5   3  25  1   
  6   4   6  1   
  7   4   7  1   
  8   4   8  1   
  9   5   9  1   
 10   5  10  1   
 11   5  26  1   
 12   6  11  ar  
 13   6  12  ar  
 14   7   8  1   
 15   7  27  1   
 16   7  28  1   
 17   8  29  1   
 18   8  30  1   
 19   9  13  1   
 20   9  14  1   
 21   9  31  1   
 22  10  15  1   
 23  10  32  1   
 24  10  33  1   
 25  11  16  ar  
 26  11  34  1   
 27  12  17  ar  
 28  12  35  1   
 29  13  15  1   
 30  13  36  1   
 31  13  37  1   
 32  14  18  1   
 33  14  38  1   
 34  14  39  1   
 35  16  19  ar  
 36  16  40  1   
 37  17  19  ar  
 38  17  41  1   
 39  18  20  ar  
 40  18  21  ar  
 41  19  42  1   
 42  20  22  ar  
 43  20  43  1   
 44  21  23  ar  
 45  21  44  1   
 46  22  24  ar  
 47  22  45  1   
 48  23  24  ar  
 49  23  46  1   
@<TRIPOS>SUBSTRUCTURE
  1 ****   3 GROUP 4 **** **** 0

# MOE 2024.06 (io_trps.svl 2023.06)
