@<TRIPOS>MOLECULE
NONAME
43 45 1 0 0 
SMALL
USER_CHARGES


@<TRIPOS>ATOM
  1 S        1.6340    -1.2830    -0.2060 S.3   1 <1>  -0.0800 
  2 C       -0.0230    -1.3780     0.2730 C.2   1 <1>   0.1980 
  3 C        1.4340     0.4350    -0.2340 C.2   1 <1>   0.1980 
  4 N       -0.5790    -0.2380     0.3770 N.2   1 <1>  -0.3380 
  5 C       -0.6370    -2.7480     0.5180 C.3   1 <1>   0.5230 
  6 N        0.2580     0.8000     0.0830 N.2   1 <1>  -0.3380 
  7 C        2.6230     1.2890    -0.6160 C.3   1 <1>  -0.0600 
  8 N       -2.1260    -2.6390     0.6670 N.4   1 <1>  -0.9590 
  9 C       -2.7070    -3.8500     1.3510 C.3   1 <1>   0.3430 
 10 C       -2.7700    -2.3730    -0.6560 C.3   1 <1>   0.3430 
 11 C       -4.1600    -3.6550     1.8300 C.3   1 <1>   0.1400 
 12 C       -3.9140    -1.3590    -0.5310 C.3   1 <1>  -0.1600 
 13 N       -5.0440    -3.1580     0.7350 N.am  1 <1>  -0.6600 
 14 C       -4.9870    -1.6910     0.5130 C.3   1 <1>   0.1400 
 15 C       -5.7940    -3.9890    -0.0880 C.2   1 <1>   0.7160 
 16 O       -6.6030    -3.4590    -0.8290 O.2   1 <1>  -0.5700 
 17 C       -5.6200    -5.4410    -0.1410 C.2   1 <1>   0.2030 
 18 N       -4.5460    -6.1430     0.2000 N.2   1 <1>  -0.7070 
 19 C       -6.6180    -6.3040    -0.6130 C.2   1 <1>  -0.1500 
 20 N       -4.8660    -7.4280    -0.0450 N.pl3 1 <1>   0.3000 
 21 C       -6.1090    -7.5490    -0.5360 C.2   1 <1>  -0.3320 
 22 C       -6.6870    -8.9020    -0.8930 C.3   1 <1>   0.7800 
 23 F       -6.6740    -9.6710     0.1860 F     1 <1>  -0.3400 
 24 F       -5.8670    -9.5060    -1.7420 F     1 <1>  -0.3400 
 25 H       -0.2070    -3.1520     1.4190 H     1 <1>   0.0800 
 26 H       -0.3940    -3.4050    -0.3000 H     1 <1>   0.0800 
 27 H        3.4300     1.1250     0.0740 H     1 <1>   0.0800 
 28 H        2.3490     2.3280    -0.5900 H     1 <1>   0.0800 
 29 H        2.9500     1.0410    -1.6090 H     1 <1>   0.0800 
 30 H       -2.2870    -1.7970     1.2400 H     1 <1>   0.4500 
 31 H       -2.1070    -4.1050     2.2090 H     1 <1>   0.0800 
 32 H       -2.6800    -4.6920     0.6770 H     1 <1>   0.0800 
 33 H       -3.1520    -3.2940    -1.0680 H     1 <1>   0.0800 
 34 H       -2.0470    -1.9740    -1.3490 H     1 <1>   0.0800 
 35 H       -4.1780    -2.9600     2.6510 H     1 <1>   0.0800 
 36 H       -4.5390    -4.5880     2.2110 H     1 <1>   0.0800 
 37 H       -4.4000    -1.3040    -1.4900 H     1 <1>   0.0800 
 38 H       -3.5160    -0.3790    -0.3380 H     1 <1>   0.0800 
 39 H       -5.9460    -1.3250     0.1800 H     1 <1>   0.0800 
 40 H       -4.7650    -1.1920     1.4410 H     1 <1>   0.0800 
 41 H       -7.5870    -5.9820    -0.9610 H     1 <1>   0.1500 
 42 H       -4.2260    -8.2180     0.1240 H     1 <1>   0.2700 
 43 H       -7.6790    -8.8910    -1.3080 H     1 <1>   0.0800 
@<TRIPOS>BOND
  1   1   2  1   
  2   1   3  1   
  3   2   4  2   
  4   2   5  1   
  5   3   6  2   
  6   3   7  1   
  7   4   6  1   
  8   5   8  1   
  9   5  25  1   
 10   5  26  1   
 11   7  27  1   
 12   7  28  1   
 13   7  29  1   
 14   8   9  1   
 15   8  10  1   
 16   8  30  1   
 17   9  11  1   
 18   9  31  1   
 19   9  32  1   
 20  10  12  1   
 21  10  33  1   
 22  10  34  1   
 23  11  13  1   
 24  11  35  1   
 25  11  36  1   
 26  12  14  1   
 27  12  37  1   
 28  12  38  1   
 29  13  14  1   
 30  13  15  am  
 31  14  39  1   
 32  14  40  1   
 33  15  16  2   
 34  15  17  1   
 35  17  18  2   
 36  17  19  1   
 37  18  20  1   
 38  19  21  2   
 39  19  41  1   
 40  20  21  1   
 41  20  42  1   
 42  21  22  1   
 43  22  23  1   
 44  22  24  1   
 45  22  43  1   
@<TRIPOS>SUBSTRUCTURE
  1 ****   9 GROUP 4 **** **** 0

# MOE 2024.06 (io_trps.svl 2023.06)
