@<TRIPOS>MOLECULE
NONAME
49 51 1 0 0 
SMALL
USER_CHARGES


@<TRIPOS>ATOM
  1 O       -0.6050     1.5830     2.1410 O.2   1 <1>  -0.5700 
  2 C       -0.3020     2.4620     1.3550 C.2   1 <1>   0.5440 
  3 N       -1.2970     3.1910     0.7340 N.am  1 <1>  -0.6600 
  4 C        1.1000     2.7270     1.0890 C.ar  1 <1>   0.0860 
  5 C       -2.7490     2.9570     1.0110 C.3   1 <1>   0.1400 
  6 C       -1.0430     4.2370    -0.2920 C.3   1 <1>   0.1400 
  7 C        1.8320     2.0470     0.1050 C.ar  1 <1>  -0.1440 
  8 C        1.7410     3.7180     1.8290 C.ar  1 <1>  -0.1500 
  9 C       -3.4950     2.5380    -0.2810 C.3   1 <1>   0.0000 
 10 C       -1.7510     3.8600    -1.5990 C.3   1 <1>  -0.1600 
 11 C        3.1600     2.3880    -0.1400 C.ar  1 <1>  -0.1440 
 12 C        1.1390     0.9370    -0.6890 C.3   1 <1>  -0.0970 
 13 C        3.0600     4.0470     1.5960 C.ar  1 <1>  -0.1500 
 14 C       -4.9970     2.3340    -0.0190 C.3   1 <1>   0.2000 
 15 C       -3.2500     3.5920    -1.3820 C.3   1 <1>  -0.1600 
 16 C       -3.0620     1.1260    -0.7130 C.3   1 <1>  -0.1600 
 17 C        3.7640     3.3850     0.6100 C.ar  1 <1>  -0.1500 
 18 C        3.9940     1.7030    -1.2160 C.3   1 <1>  -0.0970 
 19 O       -5.5100     3.3180     0.8290 O.3   1 <1>  -0.5600 
 20 C       -5.1250     0.9380     0.6000 C.3   1 <1>  -0.1600 
 21 C       -3.8770     0.1620     0.1560 C.3   1 <1>  -0.1600 
 22 C       -6.9000     3.3860     0.8790 C.3   1 <1>   0.0400 
 23 H       -2.8750     2.2090     1.7720 H     1 <1>   0.0800 
 24 H       -3.1690     3.8720     1.3910 H     1 <1>   0.0800 
 25 H       -1.4250     5.1760     0.0700 H     1 <1>   0.0800 
 26 H        0.0100     4.3550    -0.4770 H     1 <1>   0.0800 
 27 H        1.1870     4.2310     2.5950 H     1 <1>   0.1500 
 28 H       -1.6290     4.6600    -2.3080 H     1 <1>   0.0800 
 29 H       -1.2780     2.9870    -2.0110 H     1 <1>   0.0800 
 30 H        1.8390     0.2340    -1.0960 H     1 <1>   0.0800 
 31 H        0.5710     1.3660    -1.4940 H     1 <1>   0.0800 
 32 H        0.4720     0.3780    -0.0570 H     1 <1>   0.0800 
 33 H        3.5380     4.8150     2.1790 H     1 <1>   0.1500 
 34 H       -5.5260     2.3680    -0.9570 H     1 <1>   0.0800 
 35 H       -3.6980     3.2760    -2.3080 H     1 <1>   0.0800 
 36 H       -3.7270     4.5120    -1.0870 H     1 <1>   0.0800 
 37 H       -3.3220     0.9660    -1.7450 H     1 <1>   0.0800 
 38 H       -2.0060     0.9600    -0.5970 H     1 <1>   0.0800 
 39 H        4.7910     3.6530     0.4350 H     1 <1>   0.1500 
 40 H        4.9330     2.2060    -1.3570 H     1 <1>   0.0800 
 41 H        3.4690     1.7100    -2.1540 H     1 <1>   0.0800 
 42 H        4.1950     0.6860    -0.9300 H     1 <1>   0.0800 
 43 H       -5.1380     1.0070     1.6740 H     1 <1>   0.0800 
 44 H       -6.0200     0.4520     0.2560 H     1 <1>   0.0800 
 45 H       -3.2990    -0.1160     1.0220 H     1 <1>   0.0800 
 46 H       -4.1340    -0.7290    -0.3900 H     1 <1>   0.0800 
 47 H       -7.1710     4.1890     1.5410 H     1 <1>   0.0800 
 48 H       -7.2920     2.4580     1.2590 H     1 <1>   0.0800 
 49 H       -7.2830     3.5850    -0.1070 H     1 <1>   0.0800 
@<TRIPOS>BOND
  1   1   2  2   
  2   2   3  am  
  3   2   4  1   
  4   3   5  1   
  5   3   6  1   
  6   4   7  ar  
  7   4   8  ar  
  8   5   9  1   
  9   5  23  1   
 10   5  24  1   
 11   6  10  1   
 12   6  25  1   
 13   6  26  1   
 14   7  11  ar  
 15   7  12  1   
 16   8  13  ar  
 17   8  27  1   
 18   9  14  1   
 19   9  15  1   
 20   9  16  1   
 21  10  15  1   
 22  10  28  1   
 23  10  29  1   
 24  11  17  ar  
 25  11  18  1   
 26  12  30  1   
 27  12  31  1   
 28  12  32  1   
 29  13  17  ar  
 30  13  33  1   
 31  14  19  1   
 32  14  20  1   
 33  14  34  1   
 34  15  35  1   
 35  15  36  1   
 36  16  21  1   
 37  16  37  1   
 38  16  38  1   
 39  17  39  1   
 40  18  40  1   
 41  18  41  1   
 42  18  42  1   
 43  19  22  1   
 44  20  21  1   
 45  20  43  1   
 46  20  44  1   
 47  21  45  1   
 48  21  46  1   
 49  22  47  1   
 50  22  48  1   
 51  22  49  1   
@<TRIPOS>SUBSTRUCTURE
  1 ****   3 GROUP 4 **** **** 0

# MOE 2024.06 (io_trps.svl 2023.06)
