@<TRIPOS>MOLECULE
NONAME
52 54 1 0 0 
SMALL
USER_CHARGES


@<TRIPOS>ATOM
  1 O        0.1910     0.0990    -0.4580 O.3   1 <1>  -0.5600 
  2 C        1.4640    -0.4430    -0.7360 C.3   1 <1>   0.2000 
  3 C        0.0970     1.4930    -0.5350 C.3   1 <1>   0.1200 
  4 C        2.5480     0.1740     0.1870 C.3   1 <1>   0.5660 
  5 C        1.3950    -1.9670    -0.5490 C.3   1 <1>   0.1200 
  6 C        1.0620     2.1480     0.4690 C.3   1 <1>   0.3430 
  7 N        2.4560     1.6620     0.2520 N.4   1 <1>  -0.9590 
  8 C        3.9510    -0.2170    -0.2640 C.ar  1 <1>  -0.1430 
  9 O        1.3630    -2.2870     0.8080 O.3   1 <1>  -0.6800 
 10 C        3.4450     2.2960     1.1600 C.3   1 <1>   0.5240 
 11 C        4.6540    -1.1600     0.4740 C.ar  1 <1>  -0.1500 
 12 C        4.5460     0.3450    -1.3890 C.ar  1 <1>  -0.1500 
 13 C        3.8190     3.6320     0.5250 C.2   1 <1>   0.1080 
 14 C        5.9330    -1.5300     0.1010 C.ar  1 <1>  -0.1500 
 15 C        5.8260    -0.0260    -1.7590 C.ar  1 <1>  -0.1500 
 16 N        3.5960     3.9000    -0.7330 N.2   1 <1>  -0.7070 
 17 C        4.4220     4.6940     1.1880 C.2   1 <1>  -0.1500 
 18 C        6.5210    -0.9620    -1.0150 C.ar  1 <1>  -0.1500 
 19 N        4.0710     5.1550    -0.8970 N.pl3 1 <1>   0.3000 
 20 C        4.5710     5.6580     0.2510 C.2   1 <1>  -0.3320 
 21 C        5.1680     7.0590     0.3500 C.3   1 <1>   0.1800 
 22 C        4.1030     8.0940    -0.0300 C.3   1 <1>  -0.2400 
 23 C        5.6440     7.3390     1.7800 C.3   1 <1>  -0.2400 
 24 C        6.3630     7.1710    -0.6020 C.3   1 <1>  -0.2400 
 25 H        1.6890    -0.2300    -1.7660 H     1 <1>   0.0800 
 26 H        0.3150     1.8030    -1.5420 H     1 <1>   0.0800 
 27 H       -0.9180     1.7650    -0.3030 H     1 <1>   0.0800 
 28 H        2.3880    -0.2240     1.1760 H     1 <1>   0.0800 
 29 H        2.2610    -2.4410    -0.9790 H     1 <1>   0.0800 
 30 H        0.5080    -2.3570    -1.0200 H     1 <1>   0.0800 
 31 H        0.7370     1.9070     1.4670 H     1 <1>   0.0800 
 32 H        1.0270     3.2190     0.3500 H     1 <1>   0.0800 
 33 H        2.7630     2.0460    -0.6580 H     1 <1>   0.4500 
 34 H        1.0660    -3.2130     0.9350 H     1 <1>   0.4000 
 35 H        3.0330     2.4400     2.1440 H     1 <1>   0.0800 
 36 H        4.3350     1.6930     1.2320 H     1 <1>   0.0800 
 37 H        4.2120    -1.6200     1.3430 H     1 <1>   0.1500 
 38 H        4.0350     1.0750    -1.9920 H     1 <1>   0.1500 
 39 H        6.4750    -2.2620     0.6770 H     1 <1>   0.1500 
 40 H        6.2870     0.4120    -2.6280 H     1 <1>   0.1500 
 41 H        4.7060     4.7230     2.2260 H     1 <1>   0.1500 
 42 H        7.5170    -1.2500    -1.3050 H     1 <1>   0.1500 
 43 H        4.0480     5.6500    -1.7990 H     1 <1>   0.2700 
 44 H        4.4960     9.0900     0.0710 H     1 <1>   0.0800 
 45 H        3.2480     8.0000     0.6150 H     1 <1>   0.0800 
 46 H        3.7800     7.9620    -1.0460 H     1 <1>   0.0800 
 47 H        6.0630     8.3260     1.8520 H     1 <1>   0.0800 
 48 H        6.3990     6.6300     2.0700 H     1 <1>   0.0800 
 49 H        4.8220     7.2700     2.4700 H     1 <1>   0.0800 
 50 H        6.8210     8.1400    -0.5190 H     1 <1>   0.0800 
 51 H        6.0600     7.0290    -1.6230 H     1 <1>   0.0800 
 52 H        7.1000     6.4260    -0.3600 H     1 <1>   0.0800 
@<TRIPOS>BOND
  1   1   2  1   
  2   1   3  1   
  3   2   4  1   
  4   2   5  1   
  5   2  25  1   
  6   3   6  1   
  7   3  26  1   
  8   3  27  1   
  9   4   7  1   
 10   4   8  1   
 11   4  28  1   
 12   5   9  1   
 13   5  29  1   
 14   5  30  1   
 15   6   7  1   
 16   6  31  1   
 17   6  32  1   
 18   7  10  1   
 19   7  33  1   
 20   8  11  ar  
 21   8  12  ar  
 22   9  34  1   
 23  10  13  1   
 24  10  35  1   
 25  10  36  1   
 26  11  14  ar  
 27  11  37  1   
 28  12  15  ar  
 29  12  38  1   
 30  13  16  2   
 31  13  17  1   
 32  14  18  ar  
 33  14  39  1   
 34  15  18  ar  
 35  15  40  1   
 36  16  19  1   
 37  17  20  2   
 38  17  41  1   
 39  18  42  1   
 40  19  20  1   
 41  19  43  1   
 42  20  21  1   
 43  21  22  1   
 44  21  23  1   
 45  21  24  1   
 46  22  44  1   
 47  22  45  1   
 48  22  46  1   
 49  23  47  1   
 50  23  48  1   
 51  23  49  1   
 52  24  50  1   
 53  24  51  1   
 54  24  52  1   
@<TRIPOS>SUBSTRUCTURE
  1 ****  10 GROUP 4 **** **** 0

# MOE 2024.06 (io_trps.svl 2023.06)
