@<TRIPOS>MOLECULE
NONAME
43 45 1 0 0 
SMALL
USER_CHARGES


@<TRIPOS>ATOM
  1 F        1.6410     0.9570     2.0430 F     1 <1>  -0.1900 
  2 C        2.1920     1.4100     0.9500 C.ar  1 <1>   0.1900 
  3 C        2.6650     0.5180     0.0030 C.ar  1 <1>   0.1600 
  4 C        2.2920     2.7690     0.7660 C.ar  1 <1>  -0.1500 
  5 N        3.2350     0.8990    -1.1330 N.ar  1 <1>  -0.6200 
  6 C        2.8950     3.1950    -0.4110 C.ar  1 <1>   0.0860 
  7 C        3.3220     2.2140    -1.3090 C.ar  1 <1>   0.1600 
  8 C        3.0800     4.5940    -0.7280 C.2   1 <1>   0.5440 
  9 O        2.7570     4.9900    -1.8300 O.2   1 <1>  -0.5700 
 10 N        3.6400     5.4820     0.1680 N.am  1 <1>  -0.6600 
 11 C        4.6380     5.0550     1.1960 C.3   1 <1>   0.1400 
 12 C        3.5280     6.9540    -0.0450 C.3   1 <1>   0.1400 
 13 C        5.9980     4.7530     0.5510 C.3   1 <1>   0.1400 
 14 C        4.8660     7.6280    -0.3890 C.3   1 <1>  -0.1600 
 15 N        6.6720     5.9870     0.0340 N.am  1 <1>  -0.6600 
 16 C        5.9200     6.7160    -1.0320 C.3   1 <1>   0.1400 
 17 C        7.8810     6.3880     0.5580 C.2   1 <1>   0.5690 
 18 O        8.3660     5.8170     1.5080 O.2   1 <1>  -0.5700 
 19 C        8.6520     7.5700    -0.0350 C.3   1 <1>  -0.0190 
 20 C       10.1050     7.6580     0.4120 C.3   1 <1>   0.1200 
 21 C        8.1220     8.9430     0.3680 C.3   1 <1>  -0.1600 
 22 O       10.4540     8.9840     0.1900 O.3   1 <1>  -0.5600 
 23 C        9.3740     9.8130     0.4770 C.3   1 <1>   0.1200 
 24 H        2.5690    -0.5370     0.1890 H     1 <1>   0.1500 
 25 H        1.9180     3.4640     1.4960 H     1 <1>   0.1500 
 26 H        3.7650     2.5480    -2.2340 H     1 <1>   0.1500 
 27 H        4.2900     4.1720     1.7000 H     1 <1>   0.0800 
 28 H        4.7580     5.8230     1.9410 H     1 <1>   0.0800 
 29 H        3.1180     7.4060     0.8420 H     1 <1>   0.0800 
 30 H        2.8310     7.1480    -0.8430 H     1 <1>   0.0800 
 31 H        5.8720     4.0530    -0.2560 H     1 <1>   0.0800 
 32 H        6.6180     4.2730     1.2880 H     1 <1>   0.0800 
 33 H        5.2740     8.0790     0.4970 H     1 <1>   0.0800 
 34 H        4.6510     8.4300    -1.0720 H     1 <1>   0.0800 
 35 H        6.5910     7.3140    -1.6200 H     1 <1>   0.0800 
 36 H        5.4540     6.0150    -1.7050 H     1 <1>   0.0800 
 37 H        8.6700     7.4800    -1.1050 H     1 <1>   0.0800 
 38 H       10.7550     7.0150    -0.1560 H     1 <1>   0.0800 
 39 H       10.2150     7.4600     1.4650 H     1 <1>   0.0800 
 40 H        7.6380     8.9010     1.3280 H     1 <1>   0.0800 
 41 H        7.4360     9.3400    -0.3570 H     1 <1>   0.0800 
 42 H        9.5010    10.1970     1.4750 H     1 <1>   0.0800 
 43 H        9.3720    10.6220    -0.2330 H     1 <1>   0.0800 
@<TRIPOS>BOND
  1   1   2  1   
  2   2   3  ar  
  3   2   4  ar  
  4   3   5  ar  
  5   3  24  1   
  6   4   6  ar  
  7   4  25  1   
  8   5   7  ar  
  9   6   7  ar  
 10   6   8  1   
 11   7  26  1   
 12   8   9  2   
 13   8  10  am  
 14  10  11  1   
 15  10  12  1   
 16  11  13  1   
 17  11  27  1   
 18  11  28  1   
 19  12  14  1   
 20  12  29  1   
 21  12  30  1   
 22  13  15  1   
 23  13  31  1   
 24  13  32  1   
 25  14  16  1   
 26  14  33  1   
 27  14  34  1   
 28  15  16  1   
 29  15  17  am  
 30  16  35  1   
 31  16  36  1   
 32  17  18  2   
 33  17  19  1   
 34  19  20  1   
 35  19  21  1   
 36  19  37  1   
 37  20  22  1   
 38  20  38  1   
 39  20  39  1   
 40  21  23  1   
 41  21  40  1   
 42  21  41  1   
 43  22  23  1   
 44  23  42  1   
 45  23  43  1   
@<TRIPOS>SUBSTRUCTURE
  1 ****  13 GROUP 4 **** **** 0

# MOE 2024.06 (io_trps.svl 2023.06)
