@<TRIPOS>MOLECULE
NONAME
50 52 1 0 0 
SMALL
USER_CHARGES


@<TRIPOS>ATOM
  1 O       -0.1930     0.8800    -2.3150 O.2   1 <1>  -0.5700 
  2 C        0.2820     1.4730    -1.3720 C.2   1 <1>   0.5690 
  3 N       -0.4560     1.7310    -0.2390 N.am  1 <1>  -0.6600 
  4 C        1.7300     1.9570    -1.5270 C.3   1 <1>   0.1810 
  5 C       -1.8700     1.2730    -0.1100 C.3   1 <1>   0.1400 
  6 C        0.0940     2.4430     0.9540 C.3   1 <1>   0.1400 
  7 O        2.5410     1.6340    -0.4250 O.3   1 <1>  -0.5600 
  8 C       -2.8400     2.4640     0.1240 C.3   1 <1>   0.0000 
  9 C       -1.0200     2.9910     1.8590 C.3   1 <1>  -0.1600 
 10 C        3.8830     1.9710    -0.5770 C.3   1 <1>   0.2640 
 11 C       -4.1700     1.8940     0.6700 C.3   1 <1>   0.2000 
 12 C       -2.1770     3.5530     1.0210 C.3   1 <1>  -0.1600 
 13 C       -3.2690     3.0500    -1.2320 C.3   1 <1>  -0.1600 
 14 C        4.5920     1.7800     0.7560 C.ar  1 <1>  -0.1440 
 15 O       -4.9710     2.9240     1.1780 O.3   1 <1>  -0.5600 
 16 C       -4.8760     1.3170    -0.5620 C.3   1 <1>  -0.1600 
 17 C       -4.3950     2.1510    -1.7580 C.3   1 <1>  -0.1600 
 18 C        4.4370     0.6020     1.4710 C.ar  1 <1>  -0.1500 
 19 C        5.4060     2.7800     1.2680 C.ar  1 <1>  -0.1500 
 20 C       -5.9030     2.5320     2.1350 C.3   1 <1>   0.0400 
 21 C        5.0870     0.4230     2.6800 C.ar  1 <1>  -0.1500 
 22 C        6.0570     2.6030     2.4770 C.ar  1 <1>  -0.1500 
 23 C        5.8990     1.4240     3.1840 C.ar  1 <1>  -0.1500 
 24 H        1.7270     3.0240    -1.6490 H     1 <1>   0.0800 
 25 H        2.1520     1.4990    -2.4030 H     1 <1>   0.0800 
 26 H       -2.1650     0.7140    -0.9800 H     1 <1>   0.0800 
 27 H       -1.9170     0.5980     0.7270 H     1 <1>   0.0800 
 28 H        0.7250     1.7730     1.5130 H     1 <1>   0.0800 
 29 H        0.6990     3.2670     0.6180 H     1 <1>   0.0800 
 30 H       -1.3810     2.2090     2.5030 H     1 <1>   0.0800 
 31 H       -0.6130     3.7630     2.4880 H     1 <1>   0.0800 
 32 H        4.3160     1.3290    -1.3240 H     1 <1>   0.0800 
 33 H        3.9500     2.9970    -0.8930 H     1 <1>   0.0800 
 34 H       -4.0030     1.1610     1.4420 H     1 <1>   0.0800 
 35 H       -1.7720     4.3250     0.3900 H     1 <1>   0.0800 
 36 H       -2.8930     4.0270     1.6670 H     1 <1>   0.0800 
 37 H       -3.6680     4.0390    -1.0800 H     1 <1>   0.0800 
 38 H       -2.4470     3.1120    -1.9250 H     1 <1>   0.0800 
 39 H       -4.5650     0.2960    -0.7000 H     1 <1>   0.0800 
 40 H       -5.9460     1.3370    -0.4670 H     1 <1>   0.0800 
 41 H       -4.0300     1.5060    -2.5390 H     1 <1>   0.0800 
 42 H       -5.1960     2.7540    -2.1490 H     1 <1>   0.0800 
 43 H        3.8020    -0.1770     1.0850 H     1 <1>   0.1500 
 44 H        5.5390     3.7020     0.7310 H     1 <1>   0.1500 
 45 H       -6.4720     3.3990     2.4200 H     1 <1>   0.0800 
 46 H       -5.3840     2.1410     2.9930 H     1 <1>   0.0800 
 47 H       -6.5590     1.7890     1.7170 H     1 <1>   0.0800 
 48 H        4.9590    -0.4950     3.2270 H     1 <1>   0.1500 
 49 H        6.6870     3.3820     2.8690 H     1 <1>   0.1500 
 50 H        6.4040     1.2850     4.1230 H     1 <1>   0.1500 
@<TRIPOS>BOND
  1   1   2  2   
  2   2   3  am  
  3   2   4  1   
  4   3   5  1   
  5   3   6  1   
  6   4   7  1   
  7   4  24  1   
  8   4  25  1   
  9   5   8  1   
 10   5  26  1   
 11   5  27  1   
 12   6   9  1   
 13   6  28  1   
 14   6  29  1   
 15   7  10  1   
 16   8  11  1   
 17   8  12  1   
 18   8  13  1   
 19   9  12  1   
 20   9  30  1   
 21   9  31  1   
 22  10  14  1   
 23  10  32  1   
 24  10  33  1   
 25  11  15  1   
 26  11  16  1   
 27  11  34  1   
 28  12  35  1   
 29  12  36  1   
 30  13  17  1   
 31  13  37  1   
 32  13  38  1   
 33  14  18  ar  
 34  14  19  ar  
 35  15  20  1   
 36  16  17  1   
 37  16  39  1   
 38  16  40  1   
 39  17  41  1   
 40  17  42  1   
 41  18  21  ar  
 42  18  43  1   
 43  19  22  ar  
 44  19  44  1   
 45  20  45  1   
 46  20  46  1   
 47  20  47  1   
 48  21  23  ar  
 49  21  48  1   
 50  22  23  ar  
 51  22  49  1   
 52  23  50  1   
@<TRIPOS>SUBSTRUCTURE
  1 ****   6 GROUP 4 **** **** 0

# MOE 2024.06 (io_trps.svl 2023.06)
