@<TRIPOS>MOLECULE
NONAME
47 49 1 0 0 
SMALL
USER_CHARGES


@<TRIPOS>ATOM
  1 S       -0.4200    -0.0230    -0.2420 S.3   1 <1>  -0.3320 
  2 C       -0.4780    -1.7900    -0.0260 C.ar  1 <1>   0.7720 
  3 C        1.3490     0.5200    -0.3520 C.3   1 <1>  -0.0100 
  4 N       -1.6370    -2.3430     0.0730 N.ar  1 <1>  -0.6200 
  5 N        0.6960    -2.4470     0.0170 N.ar  1 <1>  -0.1790 
  6 C       -1.6860    -3.6790     0.2420 C.ar  1 <1>   0.4100 
  7 C        0.7130    -3.7780     0.1660 C.ar  1 <1>   0.4610 
  8 N       -2.9290    -4.2360     0.3640 N.pl3 1 <1>  -0.8380 
  9 C       -0.5100    -4.4110     0.2790 C.ar  1 <1>  -0.1500 
 10 N        1.8940    -4.4340     0.1950 N.pl3 1 <1>  -0.9000 
 11 C       -3.2400    -5.5390     1.0520 C.3   1 <1>   0.2090 
 12 C       -4.1890    -3.4780     0.0340 C.3   1 <1>   0.2090 
 13 C       -4.1400    -6.4340     0.1540 C.3   1 <1>   0.4230 
 14 C       -5.0840    -4.3460    -0.8580 C.3   1 <1>  -0.1600 
 15 N       -4.4500    -7.7970     0.7180 N.4   1 <1>  -0.9590 
 16 C       -5.4520    -5.6960    -0.1850 C.3   1 <1>  -0.1060 
 17 C       -5.1970    -8.6470    -0.2460 C.3   1 <1>   0.3430 
 18 C       -3.3350    -8.5290     1.3720 C.3   1 <1>   0.2630 
 19 C       -6.2430    -5.4570     1.1150 C.2   1 <1>   0.9060 
 20 C       -6.2810    -6.5400    -1.1820 C.3   1 <1>  -0.1600 
 21 C       -6.5040    -7.9660    -0.6580 C.3   1 <1>  -0.1600 
 22 O       -6.1080    -6.2600     2.0540 O.co2 1 <1>  -0.9000 
 23 O       -6.9840    -4.4820     1.2030 O.co2 1 <1>  -0.9000 
 24 H        1.3430     1.5900    -0.4790 H     1 <1>   0.0800 
 25 H        1.8030     0.0530    -1.2080 H     1 <1>   0.0800 
 26 H        1.8480     0.2630     0.5660 H     1 <1>   0.0800 
 27 H        1.5540    -1.9230    -0.0710 H     1 <1>   0.4570 
 28 H       -0.5320    -5.4740     0.3840 H     1 <1>   0.1500 
 29 H        2.8340    -4.0270     0.1110 H     1 <1>   0.4000 
 30 H        1.9450    -5.4560     0.3060 H     1 <1>   0.4000 
 31 H       -2.3340    -6.0580     1.2890 H     1 <1>   0.0800 
 32 H       -3.7470    -5.3240     1.9780 H     1 <1>   0.0800 
 33 H       -4.7060    -3.2200     0.9450 H     1 <1>   0.0800 
 34 H       -3.9780    -2.5610    -0.4880 H     1 <1>   0.0800 
 35 H       -3.6020    -6.5770    -0.7670 H     1 <1>   0.0800 
 36 H       -5.9860    -3.7950    -1.0680 H     1 <1>   0.0800 
 37 H       -4.5820    -4.5090    -1.7950 H     1 <1>   0.0800 
 38 H       -5.1530    -7.5360     1.4650 H     1 <1>   0.4500 
 39 H       -4.5910    -8.8220    -1.1200 H     1 <1>   0.0800 
 40 H       -5.4260    -9.5980     0.2070 H     1 <1>   0.0800 
 41 H       -2.5570    -8.7420     0.6580 H     1 <1>   0.0800 
 42 H       -3.6960    -9.4580     1.7820 H     1 <1>   0.0800 
 43 H       -2.9280    -7.9420     2.1790 H     1 <1>   0.0800 
 44 H       -7.2360    -6.0650    -1.3420 H     1 <1>   0.0800 
 45 H       -5.7750    -6.5880    -2.1310 H     1 <1>   0.0800 
 46 H       -6.9850    -8.5550    -1.4190 H     1 <1>   0.0800 
 47 H       -7.1680    -7.9420     0.1900 H     1 <1>   0.0800 
@<TRIPOS>BOND
  1   1   2  1   
  2   1   3  1   
  3   2   4  ar  
  4   2   5  ar  
  5   3  24  1   
  6   3  25  1   
  7   3  26  1   
  8   4   6  ar  
  9   5   7  ar  
 10   5  27  1   
 11   6   8  1   
 12   6   9  ar  
 13   7   9  ar  
 14   7  10  1   
 15   8  11  1   
 16   8  12  1   
 17   9  28  1   
 18  10  29  1   
 19  10  30  1   
 20  11  13  1   
 21  11  31  1   
 22  11  32  1   
 23  12  14  1   
 24  12  33  1   
 25  12  34  1   
 26  13  15  1   
 27  13  16  1   
 28  13  35  1   
 29  14  16  1   
 30  14  36  1   
 31  14  37  1   
 32  15  17  1   
 33  15  18  1   
 34  15  38  1   
 35  16  19  1   
 36  16  20  1   
 37  17  21  1   
 38  17  39  1   
 39  17  40  1   
 40  18  41  1   
 41  18  42  1   
 42  18  43  1   
 43  19  22  ar  
 44  19  23  ar  
 45  20  21  1   
 46  20  44  1   
 47  20  45  1   
 48  21  46  1   
 49  21  47  1   
@<TRIPOS>SUBSTRUCTURE
  1 ****   8 GROUP 4 **** **** 0

# MOE 2024.06 (io_trps.svl 2023.06)
