@<TRIPOS>MOLECULE
NONAME
48 51 1 0 0 
SMALL
USER_CHARGES


@<TRIPOS>ATOM
  1 O       -0.2530     0.1890    -0.5190 O.2   1 <1>  -0.5700 
  2 C        0.7900     0.8180    -0.5820 C.2   1 <1>   0.7160 
  3 N        0.7190     2.2030    -0.5090 N.am  1 <1>  -0.6600 
  4 C        2.0300     0.0620    -0.7310 C.2   1 <1>   0.2030 
  5 C       -0.3320     2.8580     0.3550 C.3   1 <1>   0.2200 
  6 C        1.8690     3.0780    -0.8950 C.3   1 <1>   0.1400 
  7 N        3.2300     0.3820    -0.3360 N.2   1 <1>  -0.4100 
  8 C        2.1000    -1.1930    -1.3200 C.2   1 <1>  -0.1500 
  9 C        0.0000     4.3200     0.8000 C.3   1 <1>   0.1380 
 10 C       -1.7780     2.7000    -0.1510 C.3   1 <1>  -0.1600 
 11 C        2.4680     3.7900     0.3320 C.3   1 <1>  -0.1600 
 12 O        4.0820    -0.5670    -0.6360 O.3   1 <1>  -0.0190 
 13 C        3.3910    -1.5160    -1.2270 C.2   1 <1>  -0.0400 
 14 C       -0.0440     5.4410    -0.2890 C.2   1 <1>  -0.2760 
 15 C       -1.0330     4.6710     1.9140 C.3   1 <1>   0.1200 
 16 C        1.4300     4.2350     1.3870 C.3   1 <1>  -0.1600 
 17 C       -2.6950     3.7480     0.4910 C.3   1 <1>   0.1200 
 18 C        4.1160    -2.7640    -1.6850 C.3   1 <1>  -0.0600 
 19 C       -0.4600     5.3220    -1.5580 C.2   1 <1>  -0.2880 
 20 C        0.4720     6.8200     0.1450 C.3   1 <1>  -0.0220 
 21 O       -2.2560     3.9830     1.7940 O.3   1 <1>  -0.5600 
 22 C       -0.4580     6.4490    -2.5840 C.3   1 <1>   0.2580 
 23 C        0.0200     7.9210    -0.8240 C.3   1 <1>   0.1200 
 24 O        0.3020     7.5280    -2.1300 O.3   1 <1>  -0.5600 
 25 H       -0.3190     2.2920     1.2720 H     1 <1>   0.0800 
 26 H        2.6340     2.5240    -1.4080 H     1 <1>   0.0800 
 27 H        1.5240     3.8090    -1.6000 H     1 <1>   0.0800 
 28 H        1.2700    -1.7350    -1.7350 H     1 <1>   0.1500 
 29 H       -2.1410     1.7320     0.1410 H     1 <1>   0.0800 
 30 H       -1.8420     2.7500    -1.2190 H     1 <1>   0.0800 
 31 H        3.1870     3.1370     0.7960 H     1 <1>   0.0800 
 32 H        3.0080     4.6500    -0.0230 H     1 <1>   0.0800 
 33 H       -1.2650     5.7180     1.9240 H     1 <1>   0.0800 
 34 H       -0.6380     4.4110     2.8800 H     1 <1>   0.0800 
 35 H        1.7320     5.1630     1.8350 H     1 <1>   0.0800 
 36 H        1.4310     3.5010     2.1750 H     1 <1>   0.0800 
 37 H       -3.7080     3.3880     0.5380 H     1 <1>   0.0800 
 38 H       -2.6810     4.6790    -0.0490 H     1 <1>   0.0800 
 39 H        3.4270    -3.4480    -2.1460 H     1 <1>   0.0800 
 40 H        4.5770    -3.2470    -0.8420 H     1 <1>   0.0800 
 41 H        4.8780    -2.5020    -2.3970 H     1 <1>   0.0800 
 42 H       -0.8250     4.4150    -1.9940 H     1 <1>   0.1500 
 43 H        1.5460     6.8130     0.1650 H     1 <1>   0.0800 
 44 H        0.1300     7.0880     1.1270 H     1 <1>   0.0800 
 45 H       -1.4590     6.7920    -2.7770 H     1 <1>   0.0800 
 46 H       -0.0160     6.1160    -3.5060 H     1 <1>   0.0800 
 47 H        0.5500     8.8370    -0.6300 H     1 <1>   0.0800 
 48 H       -1.0390     8.1000    -0.7400 H     1 <1>   0.0800 
@<TRIPOS>BOND
  1   1   2  2   
  2   2   3  am  
  3   2   4  1   
  4   3   5  1   
  5   3   6  1   
  6   4   7  2   
  7   4   8  1   
  8   5   9  1   
  9   5  10  1   
 10   5  25  1   
 11   6  11  1   
 12   6  26  1   
 13   6  27  1   
 14   7  12  1   
 15   8  13  2   
 16   8  28  1   
 17   9  14  1   
 18   9  15  1   
 19   9  16  1   
 20  10  17  1   
 21  10  29  1   
 22  10  30  1   
 23  11  16  1   
 24  11  31  1   
 25  11  32  1   
 26  12  13  1   
 27  13  18  1   
 28  14  19  2   
 29  14  20  1   
 30  15  21  1   
 31  15  33  1   
 32  15  34  1   
 33  16  35  1   
 34  16  36  1   
 35  17  21  1   
 36  17  37  1   
 37  17  38  1   
 38  18  39  1   
 39  18  40  1   
 40  18  41  1   
 41  19  22  1   
 42  19  42  1   
 43  20  23  1   
 44  20  43  1   
 45  20  44  1   
 46  22  24  1   
 47  22  45  1   
 48  22  46  1   
 49  23  24  1   
 50  23  47  1   
 51  23  48  1   
@<TRIPOS>SUBSTRUCTURE
  1 ****   3 GROUP 4 **** **** 0

# MOE 2024.06 (io_trps.svl 2023.06)
