@<TRIPOS>MOLECULE
NONAME
45 46 1 0 0 
SMALL
USER_CHARGES


@<TRIPOS>ATOM
  1 O       -2.3240     1.3490     2.6140 O.2   1 <1>  -0.5700 
  2 C       -2.5310     1.4120     1.4150 C.2   1 <1>   0.7160 
  3 N       -3.2630     0.4050     0.8260 N.am  1 <1>  -0.6600 
  4 C       -2.0560     2.5480     0.6510 C.2   1 <1>  -0.0860 
  5 C       -3.4540    -0.8840     1.5470 C.3   1 <1>   0.3200 
  6 C       -4.0020     0.6130    -0.4680 C.3   1 <1>   0.1400 
  7 C       -2.3590     3.8770     0.8190 C.2   1 <1>  -0.3320 
  8 C       -1.1830     2.5070    -0.4510 C.2   1 <1>  -0.1810 
  9 C       -3.4340    -2.0520     0.5800 C.2   1 <1>  -0.3320 
 10 C       -5.5220     0.5480    -0.2740 C.3   1 <1>   0.1200 
 11 N       -1.7270     4.6110    -0.1130 N.pl3 1 <1>   0.0330 
 12 C       -3.2630     4.5010     1.8700 C.3   1 <1>  -0.0600 
 13 C       -0.9950     3.7830    -0.9230 C.2   1 <1>  -0.2370 
 14 C       -0.5550     1.2310    -0.9930 C.3   1 <1>  -0.0590 
 15 N       -4.4110    -2.9740     0.4890 N.pl3 1 <1>   0.0330 
 16 C       -2.5000    -2.4030    -0.3310 C.2   1 <1>   0.0770 
 17 O       -5.8900     1.3450     0.7980 O.3   1 <1>  -0.6800 
 18 C       -0.2180     4.2660    -2.0330 C.2   1 <1>   0.5940 
 19 C       -4.0110    -3.8210    -0.4830 C.2   1 <1>   0.0070 
 20 N       -2.8700    -3.5100    -1.0010 N.2   1 <1>  -0.5650 
 21 O        0.3300     3.5540    -2.8350 O.2   1 <1>  -0.5700 
 22 C       -0.0730     5.7590    -2.2380 C.3   1 <1>  -0.1790 
 23 C       -4.8280    -5.0200    -0.9150 C.3   1 <1>  -0.0600 
 24 H       -4.3900    -0.8520     2.0770 H     1 <1>   0.0800 
 25 H       -2.6680    -1.0240     2.2710 H     1 <1>   0.0800 
 26 H       -3.6990    -0.1270    -1.1880 H     1 <1>   0.0800 
 27 H       -3.7640     1.5730    -0.8900 H     1 <1>   0.0800 
 28 H       -5.8330    -0.4610    -0.0680 H     1 <1>   0.0800 
 29 H       -6.0380     0.8980    -1.1510 H     1 <1>   0.0800 
 30 H       -1.7870     5.6310    -0.2050 H     1 <1>   0.2700 
 31 H       -3.6540     3.7470     2.5300 H     1 <1>   0.0800 
 32 H       -4.0900     5.0010     1.3990 H     1 <1>   0.0800 
 33 H       -2.7110     5.2100     2.4600 H     1 <1>   0.0800 
 34 H       -0.4170     0.5150    -0.2040 H     1 <1>   0.0800 
 35 H        0.4070     1.4360    -1.4250 H     1 <1>   0.0800 
 36 H       -1.1880     0.8030    -1.7490 H     1 <1>   0.0800 
 37 H       -5.2760    -3.0370     1.0350 H     1 <1>   0.2700 
 38 H       -1.5680    -1.9070    -0.5440 H     1 <1>   0.1500 
 39 H       -5.1620     1.3430     1.4550 H     1 <1>   0.4000 
 40 H        0.3070     6.2170    -1.3440 H     1 <1>   0.0800 
 41 H       -1.0230     6.1860    -2.4950 H     1 <1>   0.0800 
 42 H        0.6180     5.9490    -3.0390 H     1 <1>   0.0800 
 43 H       -4.9650    -5.6920    -0.0870 H     1 <1>   0.0800 
 44 H       -4.3130    -5.5450    -1.7000 H     1 <1>   0.0800 
 45 H       -5.7860    -4.7040    -1.2830 H     1 <1>   0.0800 
@<TRIPOS>BOND
  1   1   2  2   
  2   2   3  am  
  3   2   4  1   
  4   3   5  1   
  5   3   6  1   
  6   4   7  2   
  7   4   8  1   
  8   5   9  1   
  9   5  24  1   
 10   5  25  1   
 11   6  10  1   
 12   6  26  1   
 13   6  27  1   
 14   7  11  1   
 15   7  12  1   
 16   8  13  2   
 17   8  14  1   
 18   9  15  1   
 19   9  16  2   
 20  10  17  1   
 21  10  28  1   
 22  10  29  1   
 23  11  13  1   
 24  11  30  1   
 25  12  31  1   
 26  12  32  1   
 27  12  33  1   
 28  13  18  1   
 29  14  34  1   
 30  14  35  1   
 31  14  36  1   
 32  15  19  1   
 33  15  37  1   
 34  16  20  1   
 35  16  38  1   
 36  17  39  1   
 37  18  21  2   
 38  18  22  1   
 39  19  20  2   
 40  19  23  1   
 41  22  40  1   
 42  22  41  1   
 43  22  42  1   
 44  23  43  1   
 45  23  44  1   
 46  23  45  1   
@<TRIPOS>SUBSTRUCTURE
  1 ****   3 GROUP 4 **** **** 0

# MOE 2024.06 (io_trps.svl 2023.06)
