@<TRIPOS>MOLECULE
NONAME
42 44 1 0 0 
SMALL
USER_CHARGES


@<TRIPOS>ATOM
  1 O       -1.8570     0.2530    -1.7660 O.2   1 <1>  -0.5700 
  2 C       -1.9910     0.5030    -0.5840 C.2   1 <1>   0.7150 
  3 N       -2.1120    -0.5330     0.2850 N.am  1 <1>  -0.7300 
  4 C       -2.0440     1.8450    -0.0790 C.2   1 <1>  -0.2370 
  5 C       -2.0320    -1.9720    -0.0530 C.3   1 <1>   0.2200 
  6 N       -1.9330     2.9740    -0.8300 N.pl3 1 <1>   0.3140 
  7 C       -2.2070     2.2870     1.2000 C.2   1 <1>  -0.1500 
  8 C       -3.4070    -2.6270    -0.0110 C.3   1 <1>  -0.0800 
  9 C       -1.3430    -2.7020     1.0910 C.3   1 <1>   0.1200 
 10 N       -2.0220     4.0870    -0.0870 N.2   1 <1>  -0.7070 
 11 C       -1.7370     3.0840    -2.2850 C.3   1 <1>   0.0160 
 12 C       -2.1850     3.6670     1.1260 C.2   1 <1>   0.1080 
 13 C       -3.5860    -2.9610     1.4750 C.3   1 <1>   0.1200 
 14 C       -4.5630    -1.8120    -0.6210 C.3   1 <1>  -0.0160 
 15 O       -2.3260    -2.8410     2.0710 O.3   1 <1>  -0.5600 
 16 C       -2.3290     4.6170     2.2910 C.3   1 <1>  -0.0590 
 17 C       -5.8570    -2.6100    -0.5980 C.ar  1 <1>  -0.1430 
 18 C       -6.1320    -3.5730    -1.5480 C.ar  1 <1>  -0.1500 
 19 C       -6.8220    -2.4160     0.3700 C.ar  1 <1>  -0.1500 
 20 C       -7.3210    -4.2800    -1.4810 C.ar  1 <1>   0.1600 
 21 C       -7.9790    -3.1780     0.3460 C.ar  1 <1>   0.1600 
 22 N       -8.2500    -4.1080    -0.5550 N.ar  1 <1>  -0.6200 
 23 H       -2.2450    -0.3390     1.2780 H     1 <1>   0.3700 
 24 H       -1.5280    -2.1180    -0.9940 H     1 <1>   0.0800 
 25 H       -2.3300     1.7130     2.1000 H     1 <1>   0.1500 
 26 H       -3.3400    -3.5600    -0.5420 H     1 <1>   0.0800 
 27 H       -0.5030    -2.1610     1.4890 H     1 <1>   0.0800 
 28 H       -1.0360    -3.6880     0.7870 H     1 <1>   0.0800 
 29 H       -0.8230     2.5900    -2.5570 H     1 <1>   0.0800 
 30 H       -1.6800     4.1220    -2.5590 H     1 <1>   0.0800 
 31 H       -2.5650     2.6230    -2.7900 H     1 <1>   0.0800 
 32 H       -3.9480    -3.9650     1.6170 H     1 <1>   0.0800 
 33 H       -4.2440    -2.2650     1.9650 H     1 <1>   0.0800 
 34 H       -4.3200    -1.5550    -1.6380 H     1 <1>   0.0800 
 35 H       -4.7020    -0.8920    -0.0810 H     1 <1>   0.0800 
 36 H       -2.4500     4.0750     3.2100 H     1 <1>   0.0800 
 37 H       -3.1860     5.2460     2.1360 H     1 <1>   0.0800 
 38 H       -1.4530     5.2350     2.3580 H     1 <1>   0.0800 
 39 H       -5.4340    -3.7800    -2.3380 H     1 <1>   0.1500 
 40 H       -6.6880    -1.6810     1.1420 H     1 <1>   0.1500 
 41 H       -7.5180    -5.0280    -2.2310 H     1 <1>   0.1500 
 42 H       -8.7200    -3.0140     1.1090 H     1 <1>   0.1500 
@<TRIPOS>BOND
  1   1   2  2   
  2   2   3  am  
  3   2   4  1   
  4   3   5  1   
  5   3  23  1   
  6   4   6  1   
  7   4   7  2   
  8   5   8  1   
  9   5   9  1   
 10   5  24  1   
 11   6  10  1   
 12   6  11  1   
 13   7  12  1   
 14   7  25  1   
 15   8  13  1   
 16   8  14  1   
 17   8  26  1   
 18   9  15  1   
 19   9  27  1   
 20   9  28  1   
 21  10  12  2   
 22  11  29  1   
 23  11  30  1   
 24  11  31  1   
 25  12  16  1   
 26  13  15  1   
 27  13  32  1   
 28  13  33  1   
 29  14  17  1   
 30  14  34  1   
 31  14  35  1   
 32  16  36  1   
 33  16  37  1   
 34  16  38  1   
 35  17  18  ar  
 36  17  19  ar  
 37  18  20  ar  
 38  18  39  1   
 39  19  21  ar  
 40  19  40  1   
 41  20  22  ar  
 42  20  41  1   
 43  21  22  ar  
 44  21  42  1   
@<TRIPOS>SUBSTRUCTURE
  1 ****   3 GROUP 4 **** **** 0

# MOE 2024.06 (io_trps.svl 2023.06)
