@<TRIPOS>MOLECULE
NONAME
45 47 1 0 0 
SMALL
USER_CHARGES


@<TRIPOS>ATOM
  1 F       -1.5720    -0.5750    -1.4580 F     1 <1>  -0.1900 
  2 C       -2.2830     0.3670    -0.8950 C.ar  1 <1>   0.1900 
  3 C       -3.2160     0.0140     0.0650 C.ar  1 <1>  -0.1440 
  4 C       -2.0820     1.6750    -1.2930 C.ar  1 <1>  -0.1500 
  5 C       -3.9740     1.0240     0.6390 C.ar  1 <1>  -0.1500 
  6 C       -3.4030    -1.4320     0.4720 C.3   1 <1>   0.4870 
  7 C       -2.8480     2.6730    -0.7130 C.ar  1 <1>  -0.1500 
  8 C       -3.7980     2.3460     0.2550 C.ar  1 <1>   0.0820 
  9 N       -4.0220    -2.1790    -0.6580 N.4   1 <1>  -0.9590 
 10 O       -4.5920     3.2560     0.8670 O.3   1 <1>  -0.3630 
 11 C       -5.4190    -1.6950    -0.9130 C.3   1 <1>   0.3430 
 12 C       -4.1200    -3.6370    -0.3400 C.3   1 <1>   0.3430 
 13 C       -4.4630     4.6380     0.6100 C.3   1 <1>   0.0400 
 14 C       -6.3330    -2.6810    -0.1840 C.3   1 <1>   0.2000 
 15 C       -5.6060    -4.0080    -0.4010 C.3   1 <1>  -0.0800 
 16 O       -6.3330    -2.3590     1.1720 O.3   1 <1>  -0.6800 
 17 C       -5.9800    -5.1570     0.5560 C.3   1 <1>  -0.0170 
 18 C       -5.0920    -6.3630     0.2970 C.ar  1 <1>  -0.1430 
 19 C       -5.2370    -7.1450    -0.8320 C.ar  1 <1>  -0.1500 
 20 C       -4.0920    -6.7370     1.1730 C.ar  1 <1>  -0.1500 
 21 C       -4.3870    -8.2190    -1.0350 C.ar  1 <1>   0.1600 
 22 C       -3.2960    -7.8310     0.8770 C.ar  1 <1>   0.1600 
 23 N       -3.4140    -8.5720    -0.2110 N.ar  1 <1>  -0.6200 
 24 H       -1.3440     1.9080    -2.0410 H     1 <1>   0.1500 
 25 H       -4.7110     0.8090     1.3950 H     1 <1>   0.1500 
 26 H       -4.0340    -1.4900     1.3440 H     1 <1>   0.0800 
 27 H       -2.4430    -1.8580     0.7140 H     1 <1>   0.0800 
 28 H       -2.6940     3.6900    -1.0230 H     1 <1>   0.1500 
 29 H       -3.4290    -2.0130    -1.4840 H     1 <1>   0.4500 
 30 H       -5.5780    -0.6860    -0.5690 H     1 <1>   0.0800 
 31 H       -5.6250    -1.7400    -1.9700 H     1 <1>   0.0800 
 32 H       -3.5520    -4.2320    -1.0370 H     1 <1>   0.0800 
 33 H       -3.7490    -3.8220     0.6550 H     1 <1>   0.0800 
 34 H       -5.1740     5.1600     1.2250 H     1 <1>   0.0800 
 35 H       -4.6750     4.8230    -0.4280 H     1 <1>   0.0800 
 36 H       -3.4650     4.9500     0.8630 H     1 <1>   0.0800 
 37 H       -7.3450    -2.6630    -0.5540 H     1 <1>   0.0800 
 38 H       -5.8090    -4.3350    -1.4060 H     1 <1>   0.0800 
 39 H       -7.1050    -2.7550     1.6300 H     1 <1>   0.4000 
 40 H       -7.0100    -5.4360     0.4110 H     1 <1>   0.0800 
 41 H       -5.8660    -4.8530     1.5820 H     1 <1>   0.0800 
 42 H       -6.0030    -6.9390    -1.5580 H     1 <1>   0.1500 
 43 H       -3.9210    -6.1980     2.0880 H     1 <1>   0.1500 
 44 H       -4.5120    -8.8210    -1.9200 H     1 <1>   0.1500 
 45 H       -2.5210    -8.1130     1.5710 H     1 <1>   0.1500 
@<TRIPOS>BOND
  1   1   2  1   
  2   2   3  ar  
  3   2   4  ar  
  4   3   5  ar  
  5   3   6  1   
  6   4   7  ar  
  7   4  24  1   
  8   5   8  ar  
  9   5  25  1   
 10   6   9  1   
 11   6  26  1   
 12   6  27  1   
 13   7   8  ar  
 14   7  28  1   
 15   8  10  1   
 16   9  11  1   
 17   9  12  1   
 18   9  29  1   
 19  10  13  1   
 20  11  14  1   
 21  11  30  1   
 22  11  31  1   
 23  12  15  1   
 24  12  32  1   
 25  12  33  1   
 26  13  34  1   
 27  13  35  1   
 28  13  36  1   
 29  14  15  1   
 30  14  16  1   
 31  14  37  1   
 32  15  17  1   
 33  15  38  1   
 34  16  39  1   
 35  17  18  1   
 36  17  40  1   
 37  17  41  1   
 38  18  19  ar  
 39  18  20  ar  
 40  19  21  ar  
 41  19  42  1   
 42  20  22  ar  
 43  20  43  1   
 44  21  23  ar  
 45  21  44  1   
 46  22  23  ar  
 47  22  45  1   
@<TRIPOS>SUBSTRUCTURE
  1 ****   9 GROUP 4 **** **** 0

# MOE 2024.06 (io_trps.svl 2023.06)
