@<TRIPOS>MOLECULE
NONAME
55 57 1 0 0 
SMALL
USER_CHARGES


@<TRIPOS>ATOM
  1 O        0.1330     0.3720    -0.6930 O.2   1 <1>  -0.5700 
  2 C       -0.9310     0.9400    -0.7370 C.2   1 <1>   0.5690 
  3 N       -2.1120     0.2790    -0.5520 N.am  1 <1>  -0.6600 
  4 C       -0.9270     2.4340    -0.9880 C.3   1 <1>  -0.0990 
  5 C       -3.4760     0.8680    -0.5420 C.3   1 <1>   0.1400 
  6 C       -2.1700    -1.1390    -0.1340 C.3   1 <1>   0.1400 
  7 C       -0.9150     3.2120     0.3380 C.3   1 <1>  -0.0990 
  8 C       -4.3730    -0.1830     0.1240 C.3   1 <1>   0.2000 
  9 C       -3.6560    -1.5050    -0.1720 C.3   1 <1>  -0.0800 
 10 C       -1.1940     4.6770     0.1060 C.2   1 <1>   0.5690 
 11 O       -4.3970     0.0160     1.5100 O.3   1 <1>  -0.5600 
 12 C       -4.0300    -2.6590     0.7760 C.3   1 <1>   0.0200 
 13 O       -2.3400     5.0300    -0.0250 O.2   1 <1>  -0.5700 
 14 N       -0.1490     5.5360     0.0370 N.am  1 <1>  -0.7300 
 15 C       -5.3160     0.9620     1.9610 C.3   1 <1>   0.0400 
 16 C       -3.4450    -3.9970     0.3540 C.2   1 <1>  -0.0400 
 17 C       -0.2530     6.9850    -0.1950 C.3   1 <1>   0.2200 
 18 O       -3.6330    -5.0350     1.1250 O.3   1 <1>  -0.0190 
 19 C       -2.7280    -4.4040    -0.7070 C.2   1 <1>  -0.1500 
 20 C        0.5690     7.3440    -1.4260 C.3   1 <1>  -0.1600 
 21 C        0.4670     7.7150     0.9320 C.3   1 <1>  -0.1600 
 22 N       -3.0810    -6.1100     0.6420 N.2   1 <1>  -0.4100 
 23 C       -2.5260    -5.7590    -0.4620 C.2   1 <1>   0.1080 
 24 C        2.0220     7.4430    -0.9460 C.3   1 <1>  -0.1600 
 25 C        1.9560     7.6840     0.5680 C.3   1 <1>  -0.1600 
 26 C       -1.7600    -6.6980    -1.3660 C.3   1 <1>  -0.0590 
 27 H       -0.0550     2.6890    -1.5620 H     1 <1>   0.0800 
 28 H       -1.7870     2.7050    -1.5700 H     1 <1>   0.0800 
 29 H       -3.5020     1.8050    -0.0160 H     1 <1>   0.0800 
 30 H       -3.7910     1.0190    -1.5600 H     1 <1>   0.0800 
 31 H       -1.5790    -1.7530    -0.7910 H     1 <1>   0.0800 
 32 H       -1.7850    -1.2170     0.8700 H     1 <1>   0.0800 
 33 H        0.0350     3.0860     0.8260 H     1 <1>   0.0800 
 34 H       -1.6730     2.8290     0.9960 H     1 <1>   0.0800 
 35 H       -5.3810    -0.1750    -0.2550 H     1 <1>   0.0800 
 36 H       -3.9000    -1.7910    -1.1800 H     1 <1>   0.0800 
 37 H       -5.1000    -2.7560     0.8130 H     1 <1>   0.0800 
 38 H       -3.6900    -2.4370     1.7730 H     1 <1>   0.0800 
 39 H        0.8060     5.1960     0.1410 H     1 <1>   0.3700 
 40 H       -5.2380     1.0150     3.0330 H     1 <1>   0.0800 
 41 H       -6.3090     0.6540     1.6870 H     1 <1>   0.0800 
 42 H       -5.0860     1.9250     1.5380 H     1 <1>   0.0800 
 43 H       -1.2840     7.2860    -0.2870 H     1 <1>   0.0800 
 44 H       -2.3730    -3.8590    -1.5610 H     1 <1>   0.1500 
 45 H        0.4400     6.6330    -2.2230 H     1 <1>   0.0800 
 46 H        0.2500     8.3100    -1.7760 H     1 <1>   0.0800 
 47 H        0.1310     8.7370     0.9410 H     1 <1>   0.0800 
 48 H        0.2620     7.2800     1.8950 H     1 <1>   0.0800 
 49 H        2.5380     6.5200    -1.1440 H     1 <1>   0.0800 
 50 H        2.5380     8.2430    -1.4490 H     1 <1>   0.0800 
 51 H        2.4350     8.6090     0.8410 H     1 <1>   0.0800 
 52 H        2.4440     6.8760     1.0860 H     1 <1>   0.0800 
 53 H       -0.7530    -6.3430    -1.4900 H     1 <1>   0.0800 
 54 H       -2.2390    -6.7530    -2.3250 H     1 <1>   0.0800 
 55 H       -1.7310    -7.6820    -0.9330 H     1 <1>   0.0800 
@<TRIPOS>BOND
  1   1   2  2   
  2   2   3  am  
  3   2   4  1   
  4   3   5  1   
  5   3   6  1   
  6   4   7  1   
  7   4  27  1   
  8   4  28  1   
  9   5   8  1   
 10   5  29  1   
 11   5  30  1   
 12   6   9  1   
 13   6  31  1   
 14   6  32  1   
 15   7  10  1   
 16   7  33  1   
 17   7  34  1   
 18   8   9  1   
 19   8  11  1   
 20   8  35  1   
 21   9  12  1   
 22   9  36  1   
 23  10  13  2   
 24  10  14  am  
 25  11  15  1   
 26  12  16  1   
 27  12  37  1   
 28  12  38  1   
 29  14  17  1   
 30  14  39  1   
 31  15  40  1   
 32  15  41  1   
 33  15  42  1   
 34  16  18  1   
 35  16  19  2   
 36  17  20  1   
 37  17  21  1   
 38  17  43  1   
 39  18  22  1   
 40  19  23  1   
 41  19  44  1   
 42  20  24  1   
 43  20  45  1   
 44  20  46  1   
 45  21  25  1   
 46  21  47  1   
 47  21  48  1   
 48  22  23  2   
 49  23  26  1   
 50  24  25  1   
 51  24  49  1   
 52  24  50  1   
 53  25  51  1   
 54  25  52  1   
 55  26  53  1   
 56  26  54  1   
 57  26  55  1   
@<TRIPOS>SUBSTRUCTURE
  1 ****   3 GROUP 4 **** **** 0

# MOE 2024.06 (io_trps.svl 2023.06)
