@<TRIPOS>MOLECULE
NONAME
55 58 1 0 0 
SMALL
USER_CHARGES


@<TRIPOS>ATOM
  1 O        0.0320    -1.4780    -1.3100 O.3   1 <1>  -0.3630 
  2 C       -0.4140    -2.5220    -0.5730 C.ar  1 <1>   0.0830 
  3 C        0.4120    -0.3000    -0.6410 C.3   1 <1>   0.1200 
  4 C       -1.5330    -2.4420     0.2570 C.ar  1 <1>   0.0820 
  5 C        0.2640    -3.7210    -0.7010 C.ar  1 <1>  -0.1500 
  6 C       -0.8180     0.5110    -0.2340 C.3   1 <1>  -0.1600 
  7 O       -2.2710    -1.3150     0.4000 O.3   1 <1>  -0.3630 
  8 C       -1.9600    -3.5640     0.9440 C.ar  1 <1>  -0.1500 
  9 C       -0.1650    -4.8480    -0.0070 C.ar  1 <1>   0.0830 
 10 C       -1.6280    -0.1570     0.8780 C.3   1 <1>   0.1200 
 11 C       -1.2840    -4.7670     0.8150 C.ar  1 <1>  -0.1430 
 12 O        0.4510    -6.0570    -0.1040 O.3   1 <1>  -0.3630 
 13 C       -1.7820    -5.9940     1.5530 C.3   1 <1>   0.4860 
 14 C        1.4450    -6.2820    -1.0830 C.3   1 <1>   0.0400 
 15 N       -2.3080    -6.9800     0.5760 N.4   1 <1>  -0.9590 
 16 C       -3.2150    -6.4400    -0.4860 C.3   1 <1>   0.3430 
 17 C       -2.9590    -8.1780     1.1520 C.3   1 <1>   0.3430 
 18 C       -4.3250    -7.4890    -0.6670 C.3   1 <1>   0.2000 
 19 C       -3.7690    -8.7550    -0.0130 C.3   1 <1>  -0.0800 
 20 O       -5.4660    -7.0960     0.0240 O.3   1 <1>  -0.6800 
 21 C       -2.9150    -9.5620    -1.0290 C.3   1 <1>   0.0210 
 22 C       -1.5490    -9.9680    -0.5060 C.2   1 <1>   0.1080 
 23 N       -0.5660    -9.1270    -0.3940 N.2   1 <1>  -0.7070 
 24 C       -1.2000   -11.2470    -0.0900 C.2   1 <1>  -0.1500 
 25 N        0.4580    -9.8660     0.0890 N.pl3 1 <1>   0.3000 
 26 C        0.0910   -11.1480     0.2880 C.2   1 <1>  -0.3320 
 27 C        1.0160   -12.2250     0.8260 C.3   1 <1>  -0.0600 
 28 H        1.0120    -0.5670     0.2130 H     1 <1>   0.0800 
 29 H        1.0160     0.2690    -1.3250 H     1 <1>   0.0800 
 30 H        1.1180    -3.7420    -1.3500 H     1 <1>   0.1500 
 31 H       -0.4790     1.4640     0.1310 H     1 <1>   0.0800 
 32 H       -1.4420     0.6970    -1.0900 H     1 <1>   0.0800 
 33 H       -2.8310    -3.4730     1.5700 H     1 <1>   0.1500 
 34 H       -2.3980     0.5120     1.2200 H     1 <1>   0.0800 
 35 H       -1.0060    -0.4280     1.7130 H     1 <1>   0.0800 
 36 H       -2.5590    -5.7080     2.2420 H     1 <1>   0.0800 
 37 H       -0.9690    -6.4300     2.1100 H     1 <1>   0.0800 
 38 H        1.7180    -7.3210    -1.0540 H     1 <1>   0.0800 
 39 H        2.3030    -5.6730    -0.8600 H     1 <1>   0.0800 
 40 H        1.0450    -6.0420    -2.0530 H     1 <1>   0.0800 
 41 H       -1.4630    -7.3550     0.0830 H     1 <1>   0.4500 
 42 H       -3.6400    -5.4890    -0.2080 H     1 <1>   0.0800 
 43 H       -2.6590    -6.3230    -1.4020 H     1 <1>   0.0800 
 44 H       -2.2350    -8.8800     1.5340 H     1 <1>   0.0800 
 45 H       -3.6260    -7.8880     1.9470 H     1 <1>   0.0800 
 46 H       -4.6010    -7.6210    -1.7000 H     1 <1>   0.0800 
 47 H       -4.5560    -9.3900     0.3560 H     1 <1>   0.0800 
 48 H       -5.2970    -6.8930     0.9630 H     1 <1>   0.4000 
 49 H       -2.7470    -8.9940    -1.9270 H     1 <1>   0.0800 
 50 H       -3.4550   -10.4460    -1.3200 H     1 <1>   0.0800 
 51 H       -1.8360   -12.1160    -0.0850 H     1 <1>   0.1500 
 52 H        1.3930    -9.4780     0.2690 H     1 <1>   0.2700 
 53 H        0.4950   -13.1640     0.8910 H     1 <1>   0.0800 
 54 H        1.3680   -11.9620     1.8080 H     1 <1>   0.0800 
 55 H        1.8620   -12.3520     0.1730 H     1 <1>   0.0800 
@<TRIPOS>BOND
  1   1   2  1   
  2   1   3  1   
  3   2   4  ar  
  4   2   5  ar  
  5   3   6  1   
  6   3  28  1   
  7   3  29  1   
  8   4   7  1   
  9   4   8  ar  
 10   5   9  ar  
 11   5  30  1   
 12   6  10  1   
 13   6  31  1   
 14   6  32  1   
 15   7  10  1   
 16   8  11  ar  
 17   8  33  1   
 18   9  11  ar  
 19   9  12  1   
 20  10  34  1   
 21  10  35  1   
 22  11  13  1   
 23  12  14  1   
 24  13  15  1   
 25  13  36  1   
 26  13  37  1   
 27  14  38  1   
 28  14  39  1   
 29  14  40  1   
 30  15  16  1   
 31  15  17  1   
 32  15  41  1   
 33  16  18  1   
 34  16  42  1   
 35  16  43  1   
 36  17  19  1   
 37  17  44  1   
 38  17  45  1   
 39  18  19  1   
 40  18  20  1   
 41  18  46  1   
 42  19  21  1   
 43  19  47  1   
 44  20  48  1   
 45  21  22  1   
 46  21  49  1   
 47  21  50  1   
 48  22  23  2   
 49  22  24  1   
 50  23  25  1   
 51  24  26  2   
 52  24  51  1   
 53  25  26  1   
 54  25  52  1   
 55  26  27  1   
 56  27  53  1   
 57  27  54  1   
 58  27  55  1   
@<TRIPOS>SUBSTRUCTURE
  1 ****  11 GROUP 4 **** **** 0

# MOE 2024.06 (io_trps.svl 2023.06)
