@<TRIPOS>MOLECULE
NONAME
49 51 1 0 0 
SMALL
USER_CHARGES


@<TRIPOS>ATOM
  1 O        0.6580     2.1210     3.0000 O.2   1 <1>  -0.5700 
  2 C        0.4410     3.1510     2.4160 C.2   1 <1>   0.5690 
  3 N       -0.8080     3.6620     2.3580 N.am  1 <1>  -0.7300 
  4 C        1.5820     3.8790     1.6970 C.3   1 <1>   0.1810 
  5 C       -1.1480     4.9250     1.6600 C.3   1 <1>   0.3640 
  6 O        1.2720     5.2190     1.3760 O.3   1 <1>  -0.5600 
  7 C       -2.4180     4.7090     0.8410 C.ar  1 <1>  -0.1440 
  8 C        0.0120     5.4040     0.7480 C.3   1 <1>   0.2610 
  9 C       -3.4140     5.6760     0.8500 C.ar  1 <1>  -0.1500 
 10 C       -2.5990     3.5660     0.0710 C.ar  1 <1>  -0.1500 
 11 C       -0.1650     6.8730     0.3240 C.2   1 <1>   0.5690 
 12 C       -4.5680     5.5060     0.1070 C.ar  1 <1>  -0.1500 
 13 C       -3.7530     3.3940    -0.6730 C.ar  1 <1>  -0.1500 
 14 O       -0.8230     7.6070     1.0300 O.2   1 <1>  -0.5700 
 15 N        0.4190     7.3520    -0.8260 N.am  1 <1>  -0.6600 
 16 C       -4.7390     4.3640    -0.6560 C.ar  1 <1>  -0.1500 
 17 C        0.1800     8.7570    -1.2830 C.3   1 <1>   0.3200 
 18 C        1.3200     6.5560    -1.7150 C.3   1 <1>   0.0600 
 19 C        1.4740     9.5570    -1.3060 C.2   1 <1>   0.0060 
 20 N        2.0330     9.9690    -2.3930 N.2   1 <1>  -0.3380 
 21 N        2.1810     9.9090    -0.2230 N.pl3 1 <1>   0.0480 
 22 N        3.1480    10.6090    -2.0440 N.2   1 <1>  -0.3380 
 23 C        3.2170    10.5590    -0.7600 C.2   1 <1>   0.0360 
 24 C        1.9160     9.6400     1.2140 C.3   1 <1>   0.1760 
 25 C        2.1020    10.9100     2.0540 C.3   1 <1>  -0.2400 
 26 C        2.8280     8.5150     1.7140 C.3   1 <1>  -0.2400 
 27 H       -1.5680     3.1730     2.8350 H     1 <1>   0.3700 
 28 H        1.8190     3.3580     0.7880 H     1 <1>   0.0800 
 29 H        2.4510     3.8860     2.3290 H     1 <1>   0.0800 
 30 H       -1.3350     5.6700     2.4140 H     1 <1>   0.0800 
 31 H        0.0030     4.8000    -0.1400 H     1 <1>   0.0800 
 32 H       -3.2950     6.5740     1.4350 H     1 <1>   0.1500 
 33 H       -1.8450     2.7980     0.0460 H     1 <1>   0.1500 
 34 H       -5.3330     6.2620     0.1210 H     1 <1>   0.1500 
 35 H       -3.8860     2.5050    -1.2640 H     1 <1>   0.1500 
 36 H       -5.6370     4.2310    -1.2330 H     1 <1>   0.1500 
 37 H       -0.2320     8.7320    -2.2770 H     1 <1>   0.0800 
 38 H       -0.5340     9.2570    -0.6520 H     1 <1>   0.0800 
 39 H        2.1230     7.1720    -2.0860 H     1 <1>   0.0800 
 40 H        0.7620     6.1800    -2.5540 H     1 <1>   0.0800 
 41 H        1.7630     5.7330    -1.1840 H     1 <1>   0.0800 
 42 H        4.0110    10.9860    -0.1750 H     1 <1>   0.1500 
 43 H        0.8940     9.3290     1.3140 H     1 <1>   0.0800 
 44 H        3.1260    11.2390     2.0410 H     1 <1>   0.0800 
 45 H        1.8260    10.7130     3.0750 H     1 <1>   0.0800 
 46 H        1.4700    11.6970     1.6820 H     1 <1>   0.0800 
 47 H        3.8620     8.8070     1.6640 H     1 <1>   0.0800 
 48 H        2.6830     7.6290     1.1210 H     1 <1>   0.0800 
 49 H        2.5880     8.2730     2.7340 H     1 <1>   0.0800 
@<TRIPOS>BOND
  1   1   2  2   
  2   2   3  am  
  3   2   4  1   
  4   3   5  1   
  5   3  27  1   
  6   4   6  1   
  7   4  28  1   
  8   4  29  1   
  9   5   7  1   
 10   5   8  1   
 11   5  30  1   
 12   6   8  1   
 13   7   9  ar  
 14   7  10  ar  
 15   8  11  1   
 16   8  31  1   
 17   9  12  ar  
 18   9  32  1   
 19  10  13  ar  
 20  10  33  1   
 21  11  14  2   
 22  11  15  am  
 23  12  16  ar  
 24  12  34  1   
 25  13  16  ar  
 26  13  35  1   
 27  15  17  1   
 28  15  18  1   
 29  16  36  1   
 30  17  19  1   
 31  17  37  1   
 32  17  38  1   
 33  18  39  1   
 34  18  40  1   
 35  18  41  1   
 36  19  20  2   
 37  19  21  1   
 38  20  22  1   
 39  21  23  1   
 40  21  24  1   
 41  22  23  2   
 42  23  42  1   
 43  24  25  1   
 44  24  26  1   
 45  24  43  1   
 46  25  44  1   
 47  25  45  1   
 48  25  46  1   
 49  26  47  1   
 50  26  48  1   
 51  26  49  1   
@<TRIPOS>SUBSTRUCTURE
  1 ****  11 GROUP 4 **** **** 0

# MOE 2024.06 (io_trps.svl 2023.06)
