@<TRIPOS>MOLECULE
NONAME
42 44 1 0 0 
SMALL
USER_CHARGES


@<TRIPOS>ATOM
  1 O       -0.3740    -1.4010    -1.4910 O.3   1 <1>  -0.6800 
  2 C        0.8120    -2.1100    -1.3910 C.3   1 <1>   0.1200 
  3 C        1.6210    -1.6560    -0.1410 C.3   1 <1>   0.0000 
  4 C        2.9940    -2.3860    -0.0850 C.3   1 <1>   0.4230 
  5 C        1.8980    -0.1270    -0.2140 C.3   1 <1>  -0.1600 
  6 C        0.8300    -1.9470     1.1710 C.3   1 <1>  -0.1600 
  7 N        2.8920    -3.8950     0.1290 N.4   1 <1>  -0.9590 
  8 C        3.9210    -1.9670    -1.2540 C.3   1 <1>   0.2090 
  9 C        2.8240     0.2840    -1.3650 C.3   1 <1>   0.2090 
 10 C        1.2740    -3.2270     1.9000 C.3   1 <1>  -0.1600 
 11 C        1.6910    -4.3190     0.9190 C.3   1 <1>   0.3430 
 12 C        3.0180    -4.7350    -1.1050 C.3   1 <1>   0.2630 
 13 N        4.0940    -0.4880    -1.2710 N.pl3 1 <1>  -0.8380 
 14 C        5.1200     0.0650    -0.5120 C.ar  1 <1>   0.4100 
 15 N        5.4480    -0.5860     0.6020 N.ar  1 <1>  -0.6200 
 16 C        5.7560     1.2560    -0.9040 C.ar  1 <1>   0.1600 
 17 C        6.4150     0.0230     1.2720 C.ar  1 <1>   0.1600 
 18 N        6.7160     1.8620    -0.2330 N.ar  1 <1>  -0.6200 
 19 C        7.0280     1.2040     0.8730 C.ar  1 <1>   0.1600 
 20 H       -0.8810    -1.6440    -2.2930 H     1 <1>   0.4000 
 21 H        0.5560    -3.1520    -1.3300 H     1 <1>   0.0800 
 22 H        1.3610    -1.9400    -2.3000 H     1 <1>   0.0800 
 23 H        3.4750    -1.9950     0.7960 H     1 <1>   0.0800 
 24 H        2.3630     0.2030     0.6990 H     1 <1>   0.0800 
 25 H        0.9730     0.4160    -0.3020 H     1 <1>   0.0800 
 26 H        0.9340    -1.1300     1.8660 H     1 <1>   0.0800 
 27 H       -0.2240    -2.0140     0.9560 H     1 <1>   0.0800 
 28 H        3.7070    -4.1100     0.7220 H     1 <1>   0.4500 
 29 H        3.5170    -2.2730    -2.2010 H     1 <1>   0.0800 
 30 H        4.8860    -2.4280    -1.1320 H     1 <1>   0.0800 
 31 H        3.0260     1.3400    -1.3000 H     1 <1>   0.0800 
 32 H        2.3560     0.0980    -2.3170 H     1 <1>   0.0800 
 33 H        0.4600    -3.5850     2.5070 H     1 <1>   0.0800 
 34 H        2.0940    -3.0130     2.5640 H     1 <1>   0.0800 
 35 H        0.8640    -4.5120     0.2550 H     1 <1>   0.0800 
 36 H        1.9070    -5.2290     1.4560 H     1 <1>   0.0800 
 37 H        2.2150    -4.5220    -1.7900 H     1 <1>   0.0800 
 38 H        2.9810    -5.7820    -0.8470 H     1 <1>   0.0800 
 39 H        3.9570    -4.5440    -1.5990 H     1 <1>   0.0800 
 40 H        5.4350     1.7060    -1.8240 H     1 <1>   0.1500 
 41 H        6.7440    -0.4350     2.1880 H     1 <1>   0.1500 
 42 H        7.8050     1.6220     1.4890 H     1 <1>   0.1500 
@<TRIPOS>BOND
  1   1   2  1   
  2   1  20  1   
  3   2   3  1   
  4   2  21  1   
  5   2  22  1   
  6   3   4  1   
  7   3   5  1   
  8   3   6  1   
  9   4   7  1   
 10   4   8  1   
 11   4  23  1   
 12   5   9  1   
 13   5  24  1   
 14   5  25  1   
 15   6  10  1   
 16   6  26  1   
 17   6  27  1   
 18   7  11  1   
 19   7  12  1   
 20   7  28  1   
 21   8  13  1   
 22   8  29  1   
 23   8  30  1   
 24   9  13  1   
 25   9  31  1   
 26   9  32  1   
 27  10  11  1   
 28  10  33  1   
 29  10  34  1   
 30  11  35  1   
 31  11  36  1   
 32  12  37  1   
 33  12  38  1   
 34  12  39  1   
 35  13  14  1   
 36  14  15  ar  
 37  14  16  ar  
 38  15  17  ar  
 39  16  18  ar  
 40  16  40  1   
 41  17  19  ar  
 42  17  41  1   
 43  18  19  ar  
 44  19  42  1   
@<TRIPOS>SUBSTRUCTURE
  1 ****   4 GROUP 4 **** **** 0

# MOE 2024.06 (io_trps.svl 2023.06)
