@<TRIPOS>MOLECULE
NONAME
42 44 1 0 0 
SMALL
USER_CHARGES


@<TRIPOS>ATOM
  1 F        0.2460    -0.5900    -0.2910 F     1 <1>  -0.1900 
  2 C       -0.4520    -1.6910    -0.1620 C.ar  1 <1>   0.1900 
  3 C        0.0200    -2.9260    -0.6210 C.ar  1 <1>   0.0820 
  4 C       -1.6810    -1.5710     0.4560 C.ar  1 <1>  -0.1500 
  5 O        1.2100    -3.1720    -1.2420 O.3   1 <1>  -0.3630 
  6 C       -0.7940    -4.0330    -0.4330 C.ar  1 <1>  -0.1500 
  7 C       -2.4640    -2.6970     0.6280 C.ar  1 <1>  -0.1500 
  8 C        2.1270    -2.1540    -1.5740 C.3   1 <1>   0.0400 
  9 C       -2.0440    -3.9530     0.1860 C.ar  1 <1>   0.0530 
 10 C       -2.8540    -5.1370     0.3570 C.2   1 <1>   0.0870 
 11 O       -2.2760    -6.3090     0.4640 O.3   1 <1>  -0.0190 
 12 C       -4.1920    -5.3540     0.4350 C.2   1 <1>  -0.2330 
 13 N       -3.1310    -7.2840     0.6090 N.2   1 <1>  -0.4100 
 14 C       -4.3030    -6.7410     0.5890 C.2   1 <1>   0.3720 
 15 C       -5.2510    -4.4000     0.3640 C.2   1 <1>   1.0330 
 16 N       -5.4850    -7.4970     0.7330 N.pl3 1 <1>  -0.8210 
 17 O       -5.5540    -3.7080     1.3510 O.co2 1 <1>  -0.9000 
 18 O       -5.8650    -4.2150    -0.7020 O.co2 1 <1>  -0.9000 
 19 C       -5.4090    -8.9800     0.6470 C.3   1 <1>   0.2090 
 20 C       -6.6940    -7.0310     0.0100 C.3   1 <1>   0.2090 
 21 C       -6.5660    -9.4150    -0.2550 C.3   1 <1>  -0.0800 
 22 C       -7.5650    -8.2670    -0.1510 C.3   1 <1>  -0.1600 
 23 C       -7.1460   -10.7860     0.1330 C.3   1 <1>  -0.1600 
 24 C       -8.2660   -11.2370    -0.8130 C.3   1 <1>  -0.2400 
 25 H       -2.0240    -0.6120     0.7990 H     1 <1>   0.1500 
 26 H       -0.4460    -4.9870    -0.7840 H     1 <1>   0.1500 
 27 H       -3.4170    -2.5960     1.1170 H     1 <1>   0.1500 
 28 H        2.9580    -2.6060    -2.0850 H     1 <1>   0.0800 
 29 H        2.4680    -1.6820    -0.6700 H     1 <1>   0.0800 
 30 H        1.6430    -1.4440    -2.2220 H     1 <1>   0.0800 
 31 H       -5.5270    -9.3800     1.6390 H     1 <1>   0.0800 
 32 H       -4.4720    -9.3190     0.2410 H     1 <1>   0.0800 
 33 H       -6.4120    -6.6480    -0.9570 H     1 <1>   0.0800 
 34 H       -7.2020    -6.2600     0.5670 H     1 <1>   0.0800 
 35 H       -6.1890    -9.4560    -1.2630 H     1 <1>   0.0800 
 36 H       -8.1980    -8.1870    -1.0160 H     1 <1>   0.0800 
 37 H       -8.1740    -8.3720     0.7290 H     1 <1>   0.0800 
 38 H       -7.5260   -10.7470     1.1400 H     1 <1>   0.0800 
 39 H       -6.3570   -11.5180     0.1090 H     1 <1>   0.0800 
 40 H       -9.1020   -10.5620    -0.7620 H     1 <1>   0.0800 
 41 H       -8.6060   -12.2190    -0.5380 H     1 <1>   0.0800 
 42 H       -7.9090   -11.2700    -1.8280 H     1 <1>   0.0800 
@<TRIPOS>BOND
  1   1   2  1   
  2   2   3  ar  
  3   2   4  ar  
  4   3   5  1   
  5   3   6  ar  
  6   4   7  ar  
  7   4  25  1   
  8   5   8  1   
  9   6   9  ar  
 10   6  26  1   
 11   7   9  ar  
 12   7  27  1   
 13   8  28  1   
 14   8  29  1   
 15   8  30  1   
 16   9  10  1   
 17  10  11  1   
 18  10  12  2   
 19  11  13  1   
 20  12  14  1   
 21  12  15  1   
 22  13  14  2   
 23  14  16  1   
 24  15  17  ar  
 25  15  18  ar  
 26  16  19  1   
 27  16  20  1   
 28  19  21  1   
 29  19  31  1   
 30  19  32  1   
 31  20  22  1   
 32  20  33  1   
 33  20  34  1   
 34  21  22  1   
 35  21  23  1   
 36  21  35  1   
 37  22  36  1   
 38  22  37  1   
 39  23  24  1   
 40  23  38  1   
 41  23  39  1   
 42  24  40  1   
 43  24  41  1   
 44  24  42  1   
@<TRIPOS>SUBSTRUCTURE
  1 ****  10 GROUP 4 **** **** 0

# MOE 2024.06 (io_trps.svl 2023.06)
