@<TRIPOS>MOLECULE
NONAME
53 55 1 0 0 
SMALL
USER_CHARGES


@<TRIPOS>ATOM
  1 O        2.8170     2.1740     1.9860 O.2   1 <1>  -0.5700 
  2 C        1.9470     2.1920     1.1480 C.2   1 <1>   0.5690 
  3 N        0.6580     2.1640     1.5540 N.am  1 <1>  -0.8000 
  4 C        2.2970     2.2510    -0.3630 C.3   1 <1>   0.3500 
  5 N        2.7400     3.6020    -0.8610 N.pl3 1 <1>  -0.8690 
  6 C        3.3050     1.1720    -0.7840 C.3   1 <1>  -0.0170 
  7 C        3.5640     4.5030    -0.3020 C.ar  1 <1>   0.4100 
  8 C        2.6790    -0.2110    -0.6850 C.ar  1 <1>  -0.1430 
  9 N        3.3590     5.7380    -0.6920 N.ar  1 <1>  -0.6200 
 10 C        4.5700     4.1730     0.6230 C.ar  1 <1>  -0.1500 
 11 C        2.7310    -0.9180     0.5080 C.ar  1 <1>  -0.1500 
 12 C        2.0450    -0.7710    -1.7850 C.ar  1 <1>  -0.1500 
 13 C        4.0910     6.7010    -0.1440 C.ar  1 <1>   0.7710 
 14 C        5.3080     5.1630     1.1760 C.ar  1 <1>   0.2180 
 15 C        2.1480    -2.1690     0.6030 C.ar  1 <1>  -0.1500 
 16 C        1.4610    -2.0230    -1.6950 C.ar  1 <1>  -0.1500 
 17 N        5.0370     6.4270     0.7740 N.ar  1 <1>  -0.1790 
 18 N        3.8870     7.9930    -0.5210 N.pl3 1 <1>  -0.8380 
 19 C        6.4060     4.9210     2.2030 C.3   1 <1>  -0.0170 
 20 C        1.5150    -2.7170    -0.4980 C.ar  1 <1>   0.0830 
 21 C        2.9470     8.3550    -1.6480 C.3   1 <1>   0.2090 
 22 C        4.5070     9.2320     0.0710 C.3   1 <1>   0.2090 
 23 C        7.7880     5.3340     1.6810 C.3   1 <1>  -0.2400 
 24 O        0.9530    -3.9300    -0.3930 O.3   1 <1>  -0.5330 
 25 C        1.9670     9.4650    -1.2270 C.3   1 <1>   0.1200 
 26 C        3.4360    10.2880     0.4040 C.3   1 <1>   0.1200 
 27 O        2.6620    10.5690    -0.7230 O.3   1 <1>  -0.5600 
 28 H        0.4530     2.0860     2.5520 H     1 <1>   0.3700 
 29 H       -0.1510     2.1320     0.9320 H     1 <1>   0.3700 
 30 H        1.3840     2.0260    -0.8850 H     1 <1>   0.0800 
 31 H        2.1290     3.9830    -1.5890 H     1 <1>   0.4000 
 32 H        3.6110     1.3460    -1.8000 H     1 <1>   0.0800 
 33 H        4.1800     1.2110    -0.1630 H     1 <1>   0.0800 
 34 H        4.7410     3.1460     0.8760 H     1 <1>   0.1500 
 35 H        3.2220    -0.5010     1.3720 H     1 <1>   0.1500 
 36 H        2.0020    -0.2370    -2.7190 H     1 <1>   0.1500 
 37 H        2.1820    -2.7230     1.5240 H     1 <1>   0.1500 
 38 H        0.9730    -2.4490    -2.5520 H     1 <1>   0.1500 
 39 H        5.5630     7.2140     1.1230 H     1 <1>   0.4570 
 40 H        6.1820     5.4600     3.1080 H     1 <1>   0.0800 
 41 H        6.4310     3.8740     2.4560 H     1 <1>   0.0800 
 42 H        3.5210     8.7060    -2.4880 H     1 <1>   0.0800 
 43 H        2.3730     7.5100    -1.9850 H     1 <1>   0.0800 
 44 H        5.0520     9.0140     0.9700 H     1 <1>   0.0800 
 45 H        5.1950     9.6590    -0.6410 H     1 <1>   0.0800 
 46 H        7.8390     6.3900     1.4840 H     1 <1>   0.0800 
 47 H        8.0250     4.7980     0.7770 H     1 <1>   0.0800 
 48 H        8.5390     5.0950     2.4150 H     1 <1>   0.0800 
 49 H        0.5550    -4.2420    -1.2240 H     1 <1>   0.4500 
 50 H        1.2870     9.1070    -0.4730 H     1 <1>   0.0800 
 51 H        1.3970     9.7970    -2.0760 H     1 <1>   0.0800 
 52 H        3.9010    11.2070     0.7150 H     1 <1>   0.0800 
 53 H        2.7860     9.9460     1.1910 H     1 <1>   0.0800 
@<TRIPOS>BOND
  1   1   2  2   
  2   2   3  am  
  3   2   4  1   
  4   3  28  1   
  5   3  29  1   
  6   4   5  1   
  7   4   6  1   
  8   4  30  1   
  9   5   7  1   
 10   5  31  1   
 11   6   8  1   
 12   6  32  1   
 13   6  33  1   
 14   7   9  ar  
 15   7  10  ar  
 16   8  11  ar  
 17   8  12  ar  
 18   9  13  ar  
 19  10  14  ar  
 20  10  34  1   
 21  11  15  ar  
 22  11  35  1   
 23  12  16  ar  
 24  12  36  1   
 25  13  17  ar  
 26  13  18  1   
 27  14  17  ar  
 28  14  19  1   
 29  15  20  ar  
 30  15  37  1   
 31  16  20  ar  
 32  16  38  1   
 33  17  39  1   
 34  18  21  1   
 35  18  22  1   
 36  19  23  1   
 37  19  40  1   
 38  19  41  1   
 39  20  24  1   
 40  21  25  1   
 41  21  42  1   
 42  21  43  1   
 43  22  26  1   
 44  22  44  1   
 45  22  45  1   
 46  23  46  1   
 47  23  47  1   
 48  23  48  1   
 49  24  49  1   
 50  25  27  1   
 51  25  50  1   
 52  25  51  1   
 53  26  27  1   
 54  26  52  1   
 55  26  53  1   
@<TRIPOS>SUBSTRUCTURE
  1 ****   7 GROUP 4 **** **** 0

# MOE 2024.06 (io_trps.svl 2023.06)
