@<TRIPOS>MOLECULE
NONAME
43 45 1 0 0 
SMALL
USER_CHARGES


@<TRIPOS>ATOM
  1 O       -1.8610    -2.1640    -0.4490 O.2   1 <1>  -0.5700 
  2 C       -0.7880    -2.6950    -0.2890 C.2   1 <1>   0.5690 
  3 N       -0.5930    -4.0450    -0.3890 N.am  1 <1>  -0.6600 
  4 C        0.4130    -1.8360     0.0500 C.3   1 <1>  -0.0990 
  5 C        0.7530    -4.6280    -0.1660 C.3   1 <1>   0.1400 
  6 C       -1.6980    -4.9960    -0.6830 C.3   1 <1>   0.0600 
  7 C        1.6350    -2.2560    -0.7870 C.3   1 <1>  -0.0800 
  8 C        1.8210    -3.7890    -0.8930 C.3   1 <1>  -0.0800 
  9 C        2.9570    -1.6890    -0.2520 C.3   1 <1>  -0.1600 
 10 C        3.2430    -4.0840    -0.3970 C.3   1 <1>  -0.1600 
 11 C        3.9910    -2.7670    -0.5720 C.3   1 <1>   0.2200 
 12 N        5.2290    -2.7010     0.2580 N.am  1 <1>  -0.6600 
 13 C        6.4750    -2.8340    -0.3420 C.2   1 <1>   0.7160 
 14 C        5.0880    -2.5420     1.7370 C.3   1 <1>   0.0600 
 15 O        6.5150    -3.3310    -1.4590 O.2   1 <1>  -0.5700 
 16 C        7.7350    -2.4310     0.2850 C.2   1 <1>   0.1410 
 17 N        7.8720    -1.5910     1.3600 N.2   1 <1>  -0.5650 
 18 C        8.9860    -2.8080    -0.1140 C.2   1 <1>  -0.3020 
 19 C        9.1440    -1.5010     1.5560 C.2   1 <1>   0.0360 
 20 N        9.8810    -2.2240     0.6890 N.pl3 1 <1>   0.0480 
 21 C       11.3470    -2.3350     0.6280 C.3   1 <1>   0.0160 
 22 H        0.1800    -0.8030    -0.1300 H     1 <1>   0.0800 
 23 H        0.6120    -1.9590     1.0990 H     1 <1>   0.0800 
 24 H        0.9450    -4.6360     0.8930 H     1 <1>   0.0800 
 25 H        0.7860    -5.6430    -0.5240 H     1 <1>   0.0800 
 26 H       -1.7970    -5.7000     0.1240 H     1 <1>   0.0800 
 27 H       -1.4880    -5.5260    -1.5960 H     1 <1>   0.0800 
 28 H       -2.6300    -4.4690    -0.7980 H     1 <1>   0.0800 
 29 H        1.4890    -1.8850    -1.7880 H     1 <1>   0.0800 
 30 H        1.7770    -4.0470    -1.9380 H     1 <1>   0.0800 
 31 H        2.8780    -1.5340     0.8070 H     1 <1>   0.0800 
 32 H        3.2090    -0.7580    -0.7290 H     1 <1>   0.0800 
 33 H        3.7080    -4.8670    -0.9690 H     1 <1>   0.0800 
 34 H        3.2230    -4.3610     0.6400 H     1 <1>   0.0800 
 35 H        4.2440    -2.6650    -1.6150 H     1 <1>   0.0800 
 36 H        4.1580    -2.9550     2.0830 H     1 <1>   0.0800 
 37 H        5.1280    -1.4970     1.9910 H     1 <1>   0.0800 
 38 H        5.8890    -3.0530     2.2430 H     1 <1>   0.0800 
 39 H        9.2450    -3.4550    -0.9320 H     1 <1>   0.1500 
 40 H        9.5970    -0.9100     2.3330 H     1 <1>   0.1500 
 41 H       11.6220    -3.0790    -0.0970 H     1 <1>   0.0800 
 42 H       11.7240    -2.6190     1.5930 H     1 <1>   0.0800 
 43 H       11.7630    -1.3860     0.3410 H     1 <1>   0.0800 
@<TRIPOS>BOND
  1   1   2  2   
  2   2   3  am  
  3   2   4  1   
  4   3   5  1   
  5   3   6  1   
  6   4   7  1   
  7   4  22  1   
  8   4  23  1   
  9   5   8  1   
 10   5  24  1   
 11   5  25  1   
 12   6  26  1   
 13   6  27  1   
 14   6  28  1   
 15   7   8  1   
 16   7   9  1   
 17   7  29  1   
 18   8  10  1   
 19   8  30  1   
 20   9  11  1   
 21   9  31  1   
 22   9  32  1   
 23  10  11  1   
 24  10  33  1   
 25  10  34  1   
 26  11  12  1   
 27  11  35  1   
 28  12  13  am  
 29  12  14  1   
 30  13  15  2   
 31  13  16  1   
 32  14  36  1   
 33  14  37  1   
 34  14  38  1   
 35  16  17  1   
 36  16  18  2   
 37  17  19  2   
 38  18  20  1   
 39  18  39  1   
 40  19  20  1   
 41  19  40  1   
 42  20  21  1   
 43  21  41  1   
 44  21  42  1   
 45  21  43  1   
@<TRIPOS>SUBSTRUCTURE
  1 ****  11 GROUP 4 **** **** 0

# MOE 2024.06 (io_trps.svl 2023.06)
