@<TRIPOS>MOLECULE
NONAME
49 52 1 0 0 
SMALL
USER_CHARGES


@<TRIPOS>ATOM
  1 S       -1.4070     0.1110     0.4700 S.3   1 <1>  -0.0800 
  2 C       -2.4020    -1.1610     1.1670 C.2   1 <1>  -0.1400 
  3 C       -2.4320     0.1970    -0.9510 C.2   1 <1>  -0.1100 
  4 C       -3.4350    -1.4480     0.3510 C.2   1 <1>  -0.1500 
  5 C       -2.0020    -1.7090     2.5250 C.3   1 <1>   0.0200 
  6 C       -3.4460    -0.6810    -0.8570 C.2   1 <1>  -0.1500 
  7 C       -0.5650    -2.2740     2.5720 C.3   1 <1>  -0.1600 
  8 C        0.0700    -2.7950     1.2610 C.3   1 <1>   0.4230 
  9 N       -0.3900    -4.1670     0.8670 N.4   1 <1>  -0.9590 
 10 C        1.5980    -2.8160     1.4470 C.3   1 <1>  -0.1600 
 11 C        0.2900    -4.6570    -0.3750 C.3   1 <1>   0.3430 
 12 C       -1.8770    -4.2980     0.6750 C.3   1 <1>   0.5230 
 13 C        2.3480    -3.3400     0.2190 C.3   1 <1>  -0.1600 
 14 C        1.8010    -4.7120    -0.1740 C.3   1 <1>  -0.1600 
 15 C       -2.3400    -5.7500     0.5750 C.2   1 <1>   0.2980 
 16 O       -3.5140    -6.0110     0.0810 O.3   1 <1>  -0.2800 
 17 N       -1.6660    -6.7670     0.9410 N.2   1 <1>  -0.3380 
 18 C       -3.5190    -7.3240     0.1680 C.2   1 <1>   0.4250 
 19 N       -2.4300    -7.7970     0.6750 N.2   1 <1>  -0.3380 
 20 C       -4.6700    -8.0800    -0.2840 C.ar  1 <1>   0.0530 
 21 C       -5.7940    -7.4550    -0.8300 C.ar  1 <1>  -0.1500 
 22 C       -4.6990    -9.4730    -0.1900 C.ar  1 <1>  -0.1500 
 23 C       -6.8890    -8.1820    -1.2610 C.ar  1 <1>  -0.1500 
 24 C       -5.7900   -10.2060    -0.6180 C.ar  1 <1>  -0.1500 
 25 C       -6.8890    -9.5610    -1.1560 C.ar  1 <1>  -0.1500 
 26 H       -2.1670     0.9110    -1.7120 H     1 <1>   0.1500 
 27 H       -4.2180    -2.1620     0.5420 H     1 <1>   0.1500 
 28 H       -2.7080    -2.4610     2.8290 H     1 <1>   0.0800 
 29 H       -2.0860    -0.9140     3.2480 H     1 <1>   0.0800 
 30 H       -4.2200    -0.8160    -1.5950 H     1 <1>   0.1500 
 31 H       -0.4890    -3.0180     3.3450 H     1 <1>   0.0800 
 32 H        0.0420    -1.4470     2.8990 H     1 <1>   0.0800 
 33 H       -0.1520    -2.1090     0.4600 H     1 <1>   0.0800 
 34 H       -0.1280    -4.8220     1.6170 H     1 <1>   0.4500 
 35 H        1.8510    -3.4180     2.3030 H     1 <1>   0.0800 
 36 H        1.9450    -1.8160     1.6470 H     1 <1>   0.0800 
 37 H        0.0660    -3.9970    -1.1980 H     1 <1>   0.0800 
 38 H       -0.0600    -5.6450    -0.6300 H     1 <1>   0.0800 
 39 H       -2.1750    -3.7690    -0.2140 H     1 <1>   0.0800 
 40 H       -2.3950    -3.8670     1.5080 H     1 <1>   0.0800 
 41 H        3.4010    -3.4140     0.4350 H     1 <1>   0.0800 
 42 H        2.2280    -2.6510    -0.6010 H     1 <1>   0.0800 
 43 H        2.2670    -5.0340    -1.0900 H     1 <1>   0.0800 
 44 H        2.0380    -5.4410     0.5820 H     1 <1>   0.0800 
 45 H       -5.8210    -6.3840    -0.9240 H     1 <1>   0.1500 
 46 H       -3.8540    -9.9950     0.2260 H     1 <1>   0.1500 
 47 H       -7.7430    -7.6790    -1.6790 H     1 <1>   0.1500 
 48 H       -5.7860   -11.2790    -0.5340 H     1 <1>   0.1500 
 49 H       -7.7400   -10.1300    -1.4900 H     1 <1>   0.1500 
@<TRIPOS>BOND
  1   1   2  1   
  2   1   3  1   
  3   2   4  2   
  4   2   5  1   
  5   3   6  2   
  6   3  26  1   
  7   4   6  1   
  8   4  27  1   
  9   5   7  1   
 10   5  28  1   
 11   5  29  1   
 12   6  30  1   
 13   7   8  1   
 14   7  31  1   
 15   7  32  1   
 16   8   9  1   
 17   8  10  1   
 18   8  33  1   
 19   9  11  1   
 20   9  12  1   
 21   9  34  1   
 22  10  13  1   
 23  10  35  1   
 24  10  36  1   
 25  11  14  1   
 26  11  37  1   
 27  11  38  1   
 28  12  15  1   
 29  12  39  1   
 30  12  40  1   
 31  13  14  1   
 32  13  41  1   
 33  13  42  1   
 34  14  43  1   
 35  14  44  1   
 36  15  16  1   
 37  15  17  2   
 38  16  18  1   
 39  17  19  1   
 40  18  19  2   
 41  18  20  1   
 42  20  21  ar  
 43  20  22  ar  
 44  21  23  ar  
 45  21  45  1   
 46  22  24  ar  
 47  22  46  1   
 48  23  25  ar  
 49  23  47  1   
 50  24  25  ar  
 51  24  48  1   
 52  25  49  1   
@<TRIPOS>SUBSTRUCTURE
  1 ****  12 GROUP 4 **** **** 0

# MOE 2024.06 (io_trps.svl 2023.06)
