@<TRIPOS>MOLECULE
NONAME
45 47 1 0 0 
SMALL
USER_CHARGES


@<TRIPOS>ATOM
  1 S       -0.4440    -1.1840    -0.3360 S.3   1 <1>  -0.1970 
  2 C       -2.1740    -1.0920    -0.0880 C.2   1 <1>   0.2420 
  3 C       -0.2520     0.0640     0.9150 C.2   1 <1>   0.5310 
  4 N       -3.1960    -1.6890    -0.6030 N.2   1 <1>  -0.5650 
  5 N       -2.4130    -0.1770     0.8630 N.pl3 1 <1>   0.5050 
  6 N       -1.3340     0.4830     1.4370 N.2   1 <1>  -0.6520 
  7 C       -4.2170    -1.1000     0.0860 C.2   1 <1>   0.0460 
  8 C       -3.7530    -0.1830     0.9800 C.2   1 <1>  -0.3020 
  9 C       -5.6750    -1.4880    -0.1670 C.3   1 <1>   0.4010 
 10 N       -5.7670    -2.9500    -0.1600 N.am  1 <1>  -0.7300 
 11 C       -6.1490    -0.9850    -1.5270 C.3   1 <1>  -0.2400 
 12 C       -6.7680    -3.6650     0.3950 C.2   1 <1>   0.5690 
 13 O       -7.7310    -3.1400     0.8950 O.2   1 <1>  -0.5700 
 14 C       -6.6920    -5.1700     0.3780 C.3   1 <1>  -0.0990 
 15 C       -7.8220    -5.7310    -0.4890 C.3   1 <1>   0.0960 
 16 N       -7.8080    -7.2060    -0.4560 N.pl3 1 <1>   0.3140 
 17 N       -6.9660    -7.8830    -1.2460 N.2   1 <1>  -0.7070 
 18 C       -8.5360    -8.0360     0.3160 C.2   1 <1>  -0.3320 
 19 C       -7.1750    -9.1270    -0.9720 C.2   1 <1>   0.1080 
 20 C       -8.1680    -9.3190     0.0000 C.2   1 <1>  -0.0860 
 21 C       -9.5380    -7.5290     1.3480 C.3   1 <1>  -0.0600 
 22 C       -6.3970   -10.2210    -1.6740 C.3   1 <1>  -0.0590 
 23 C       -8.6240   -10.6040     0.4700 C.2   1 <1>   0.5950 
 24 O       -7.9410   -11.5970     0.4820 O.2   1 <1>  -0.5700 
 25 C      -10.0470   -10.7670     0.9570 C.3   1 <1>  -0.1790 
 26 H        0.7570     0.3660     1.1320 H     1 <1>   0.0600 
 27 H       -4.2670     0.4520     1.6760 H     1 <1>   0.1500 
 28 H       -6.2990    -1.0770     0.6100 H     1 <1>   0.0800 
 29 H       -4.9200    -3.3880    -0.5330 H     1 <1>   0.3700 
 30 H       -5.5370    -1.3940    -2.3110 H     1 <1>   0.0800 
 31 H       -6.0770     0.0870    -1.5600 H     1 <1>   0.0800 
 32 H       -7.1740    -1.2660    -1.6840 H     1 <1>   0.0800 
 33 H       -6.7910    -5.5260     1.3860 H     1 <1>   0.0800 
 34 H       -5.7430    -5.4890    -0.0130 H     1 <1>   0.0800 
 35 H       -7.6950    -5.4160    -1.5080 H     1 <1>   0.0800 
 36 H       -8.7760    -5.3790    -0.1400 H     1 <1>   0.0800 
 37 H       -9.1230    -6.7060     1.9010 H     1 <1>   0.0800 
 38 H       -9.7890    -8.2950     2.0570 H     1 <1>   0.0800 
 39 H      -10.4380    -7.1980     0.8600 H     1 <1>   0.0800 
 40 H       -5.7790    -9.7980    -2.4450 H     1 <1>   0.0800 
 41 H       -7.0740   -10.9270    -2.1170 H     1 <1>   0.0800 
 42 H       -5.7700   -10.7300    -0.9660 H     1 <1>   0.0800 
 43 H      -10.6850   -10.0330     0.5040 H     1 <1>   0.0800 
 44 H      -10.0750   -10.6700     2.0260 H     1 <1>   0.0800 
 45 H      -10.4050   -11.7440     0.6900 H     1 <1>   0.0800 
@<TRIPOS>BOND
  1   1   2  1   
  2   1   3  1   
  3   2   4  2   
  4   2   5  1   
  5   3   6  2   
  6   3  26  1   
  7   4   7  1   
  8   5   6  1   
  9   5   8  1   
 10   7   8  2   
 11   7   9  1   
 12   8  27  1   
 13   9  10  1   
 14   9  11  1   
 15   9  28  1   
 16  10  12  am  
 17  10  29  1   
 18  11  30  1   
 19  11  31  1   
 20  11  32  1   
 21  12  13  2   
 22  12  14  1   
 23  14  15  1   
 24  14  33  1   
 25  14  34  1   
 26  15  16  1   
 27  15  35  1   
 28  15  36  1   
 29  16  17  1   
 30  16  18  1   
 31  17  19  2   
 32  18  20  2   
 33  18  21  1   
 34  19  20  1   
 35  19  22  1   
 36  20  23  1   
 37  21  37  1   
 38  21  38  1   
 39  21  39  1   
 40  22  40  1   
 41  22  41  1   
 42  22  42  1   
 43  23  24  2   
 44  23  25  1   
 45  25  43  1   
 46  25  44  1   
 47  25  45  1   
@<TRIPOS>SUBSTRUCTURE
  1 ****  14 GROUP 4 **** **** 0

# MOE 2024.06 (io_trps.svl 2023.06)
