@<TRIPOS>MOLECULE
NONAME
41 43 1 0 0 
SMALL
USER_CHARGES


@<TRIPOS>ATOM
  1 O       -0.3630     1.5750     0.6550 O.3   1 <1>  -0.0190 
  2 N       -1.4900     1.0900     0.2220 N.2   1 <1>  -0.4100 
  3 C        0.3440     2.1020    -0.3090 C.2   1 <1>  -0.0400 
  4 C       -1.5110     1.3150    -1.0430 C.2   1 <1>   0.1080 
  5 C       -0.3510     1.9680    -1.4490 C.2   1 <1>  -0.1500 
  6 C        1.7000     2.7210    -0.0240 C.3   1 <1>   0.0200 
  7 C       -2.6480     0.9190    -1.9580 C.3   1 <1>  -0.0590 
  8 C        2.7180     1.6630     0.4410 C.3   1 <1>  -0.0800 
  9 C        4.1520     2.1540     0.5510 C.3   1 <1>   0.2890 
 10 C        2.4520     1.0960     1.8380 C.3   1 <1>   0.1200 
 11 N        4.1970     3.5060     1.1510 N.pl3 1 <1>  -0.8690 
 12 C        4.7320     1.1370     1.5270 C.3   1 <1>   0.1200 
 13 O        3.6970     0.8010     2.4040 O.3   1 <1>  -0.5600 
 14 C        4.6810     4.6110     0.5440 C.ar  1 <1>   0.7200 
 15 N        5.0570     5.5680     1.3750 N.ar  1 <1>  -0.6200 
 16 N        4.7220     4.6260    -0.7830 N.ar  1 <1>  -0.6200 
 17 C        5.5230     6.6560     0.8150 C.ar  1 <1>   0.1670 
 18 C        5.1910     5.7230    -1.3210 C.ar  1 <1>   0.1670 
 19 C        5.6120     6.7840    -0.5520 C.ar  1 <1>  -0.1500 
 20 C        5.9610     7.7710     1.7400 C.3   1 <1>  -0.0970 
 21 C        5.2520     5.7760    -2.8330 C.3   1 <1>  -0.0970 
 22 H       -0.1030     2.2780    -2.4470 H     1 <1>   0.1500 
 23 H        2.0650     3.1900    -0.9210 H     1 <1>   0.0800 
 24 H        1.5840     3.4890     0.7210 H     1 <1>   0.0800 
 25 H       -2.2910     0.2370    -2.7080 H     1 <1>   0.0800 
 26 H       -3.0540     1.7920    -2.4340 H     1 <1>   0.0800 
 27 H       -3.4240     0.4380    -1.3910 H     1 <1>   0.0800 
 28 H        2.6990     0.8430    -0.2550 H     1 <1>   0.0800 
 29 H        4.6670     2.1330    -0.3950 H     1 <1>   0.0800 
 30 H        1.8560     0.1990     1.8040 H     1 <1>   0.0800 
 31 H        1.9740     1.8250     2.4700 H     1 <1>   0.0800 
 32 H        4.2500     3.5360     2.1690 H     1 <1>   0.4000 
 33 H        5.5670     1.5270     2.0820 H     1 <1>   0.0800 
 34 H        5.0220     0.2410     1.0080 H     1 <1>   0.0800 
 35 H        5.9950     7.6790    -1.0020 H     1 <1>   0.1500 
 36 H        6.3260     8.6150     1.1840 H     1 <1>   0.0800 
 37 H        6.7430     7.4140     2.3860 H     1 <1>   0.0800 
 38 H        5.1290     8.0830     2.3440 H     1 <1>   0.0800 
 39 H        5.6520     6.7130    -3.1720 H     1 <1>   0.0800 
 40 H        4.2640     5.6510    -3.2360 H     1 <1>   0.0800 
 41 H        5.8770     4.9800    -3.1950 H     1 <1>   0.0800 
@<TRIPOS>BOND
  1   1   2  1   
  2   1   3  1   
  3   2   4  2   
  4   3   5  2   
  5   3   6  1   
  6   4   5  1   
  7   4   7  1   
  8   5  22  1   
  9   6   8  1   
 10   6  23  1   
 11   6  24  1   
 12   7  25  1   
 13   7  26  1   
 14   7  27  1   
 15   8   9  1   
 16   8  10  1   
 17   8  28  1   
 18   9  11  1   
 19   9  12  1   
 20   9  29  1   
 21  10  13  1   
 22  10  30  1   
 23  10  31  1   
 24  11  14  1   
 25  11  32  1   
 26  12  13  1   
 27  12  33  1   
 28  12  34  1   
 29  14  15  ar  
 30  14  16  ar  
 31  15  17  ar  
 32  16  18  ar  
 33  17  19  ar  
 34  17  20  1   
 35  18  19  ar  
 36  18  21  1   
 37  19  35  1   
 38  20  36  1   
 39  20  37  1   
 40  20  38  1   
 41  21  39  1   
 42  21  40  1   
 43  21  41  1   
@<TRIPOS>SUBSTRUCTURE
  1 ****   6 GROUP 4 **** **** 0

# MOE 2024.06 (io_trps.svl 2023.06)
