@<TRIPOS>MOLECULE
NONAME
49 51 1 0 0 
SMALL
USER_CHARGES


@<TRIPOS>ATOM
  1 O        0.7320     0.1430    -1.6150 O.2   1 <1>  -0.5700 
  2 C        1.5110    -0.4810    -0.9390 C.2   1 <1>   0.5690 
  3 N        2.3900     0.1620    -0.0880 N.am  1 <1>  -0.6600 
  4 C        1.4550    -1.9850    -1.0990 C.3   1 <1>   0.1570 
  5 C        3.4270    -0.5180     0.7550 C.3   1 <1>   0.1400 
  6 C        2.1880     1.6160     0.2030 C.3   1 <1>   0.1400 
  7 N        0.8400    -2.5740     0.0910 N.pl3 1 <1>   0.3140 
  8 C        4.8160    -0.4870     0.0860 C.3   1 <1>   0.3430 
  9 C        3.5010     2.4030     0.2640 C.3   1 <1>  -0.1600 
 10 N        1.4880    -3.3950     0.8890 N.2   1 <1>  -0.4180 
 11 C       -0.3600    -2.3840     0.6030 C.2   1 <1>   0.0360 
 12 N        5.4350     0.8800    -0.0350 N.4   1 <1>  -0.9590 
 13 C        4.5640     1.8970    -0.7100 C.3   1 <1>   0.3430 
 14 N        0.6800    -3.6790     1.8460 N.2   1 <1>   0.0000 
 15 N       -0.4810    -3.0520     1.6840 N.2   1 <1>  -0.3380 
 16 C        6.7670     0.7870    -0.7040 C.3   1 <1>   0.4860 
 17 C        7.5100     2.0950    -0.5310 C.ar  1 <1>  -0.1430 
 18 C        8.0950     2.4090     0.6870 C.ar  1 <1>   0.1600 
 19 C        7.6190     2.9960    -1.5750 C.ar  1 <1>  -0.1500 
 20 N        8.7340     3.5320     0.9510 N.ar  1 <1>  -0.6200 
 21 C        8.2940     4.1680    -1.3170 C.ar  1 <1>  -0.1500 
 22 C        8.8260     4.3940    -0.0570 C.ar  1 <1>   0.3930 
 23 O        9.4690     5.5630     0.1330 O.3   1 <1>  -0.3630 
 24 C       10.0750     5.8680     1.3710 C.3   1 <1>   0.1200 
 25 C       10.7210     7.2460     1.2580 C.3   1 <1>  -0.2400 
 26 H        2.4390    -2.3880    -1.2330 H     1 <1>   0.0800 
 27 H        0.8560    -2.2380    -1.9540 H     1 <1>   0.0800 
 28 H        3.1620    -1.5430     0.9200 H     1 <1>   0.0800 
 29 H        3.4730    -0.0560     1.7270 H     1 <1>   0.0800 
 30 H        1.6570     1.7220     1.1350 H     1 <1>   0.0800 
 31 H        1.5700     2.0600    -0.5610 H     1 <1>   0.0800 
 32 H        4.7260    -0.9290    -0.8930 H     1 <1>   0.0800 
 33 H        5.4750    -1.1160     0.6630 H     1 <1>   0.0800 
 34 H        3.8790     2.4280     1.2700 H     1 <1>   0.0800 
 35 H        3.2680     3.4210     0.0040 H     1 <1>   0.0800 
 36 H       -1.1120    -1.7520     0.1650 H     1 <1>   0.1500 
 37 H        5.6100     1.2440     0.9100 H     1 <1>   0.4500 
 38 H        5.1630     2.7420    -1.0080 H     1 <1>   0.0800 
 39 H        4.1000     1.4860    -1.5930 H     1 <1>   0.0800 
 40 H        6.6430     0.5720    -1.7540 H     1 <1>   0.0800 
 41 H        7.3490    -0.0070    -0.2630 H     1 <1>   0.0800 
 42 H        8.0390     1.7060     1.5010 H     1 <1>   0.1500 
 43 H        7.2060     2.8110    -2.5530 H     1 <1>   0.1500 
 44 H        8.4230     4.9180    -2.0760 H     1 <1>   0.1500 
 45 H       10.8140     5.1130     1.5840 H     1 <1>   0.0800 
 46 H        9.3160     5.8600     2.1340 H     1 <1>   0.0800 
 47 H       11.4690     7.2420     0.4850 H     1 <1>   0.0800 
 48 H       11.1920     7.5030     2.1890 H     1 <1>   0.0800 
 49 H        9.9750     7.9870     1.0340 H     1 <1>   0.0800 
@<TRIPOS>BOND
  1   1   2  2   
  2   2   3  am  
  3   2   4  1   
  4   3   5  1   
  5   3   6  1   
  6   4   7  1   
  7   4  26  1   
  8   4  27  1   
  9   5   8  1   
 10   5  28  1   
 11   5  29  1   
 12   6   9  1   
 13   6  30  1   
 14   6  31  1   
 15   7  10  1   
 16   7  11  1   
 17   8  12  1   
 18   8  32  1   
 19   8  33  1   
 20   9  13  1   
 21   9  34  1   
 22   9  35  1   
 23  10  14  2   
 24  11  15  2   
 25  11  36  1   
 26  12  13  1   
 27  12  16  1   
 28  12  37  1   
 29  13  38  1   
 30  13  39  1   
 31  14  15  1   
 32  16  17  1   
 33  16  40  1   
 34  16  41  1   
 35  17  18  ar  
 36  17  19  ar  
 37  18  20  ar  
 38  18  42  1   
 39  19  21  ar  
 40  19  43  1   
 41  20  22  ar  
 42  21  22  ar  
 43  21  44  1   
 44  22  23  1   
 45  23  24  1   
 46  24  25  1   
 47  24  45  1   
 48  24  46  1   
 49  25  47  1   
 50  25  48  1   
 51  25  49  1   
@<TRIPOS>SUBSTRUCTURE
  1 ****  12 GROUP 4 **** **** 0

# MOE 2024.06 (io_trps.svl 2023.06)
