@<TRIPOS>MOLECULE
NONAME
41 42 1 0 0 
SMALL
USER_CHARGES


@<TRIPOS>ATOM
  1 CL       1.2160     0.4630    -1.4770 Cl    1 <1>  -0.1770 
  2 C        0.6270     1.7630    -0.4640 C.ar  1 <1>   0.1770 
  3 C        1.4600     2.4220     0.4370 C.ar  1 <1>  -0.1440 
  4 C       -0.7050     2.1070    -0.6010 C.ar  1 <1>  -0.1500 
  5 C        0.9130     3.4480     1.1990 C.ar  1 <1>  -0.1500 
  6 C        2.9350     2.0740     0.6250 C.3   1 <1>   0.3640 
  7 C       -1.2320     3.1290     0.1680 C.ar  1 <1>  -0.1500 
  8 C       -0.4200     3.7980     1.0660 C.ar  1 <1>  -0.1500 
  9 N        3.0570     0.6660     1.0710 N.am  1 <1>  -0.7300 
 10 C        3.7950     2.3910    -0.6270 C.3   1 <1>   0.2610 
 11 C        3.9230    -0.2150     0.5240 C.2   1 <1>   0.5690 
 12 O        4.9970     1.6340    -0.6570 O.3   1 <1>  -0.5600 
 13 C        4.0450     3.9050    -0.6900 C.2   1 <1>   0.5690 
 14 O        4.0000    -1.3420     0.9430 O.2   1 <1>  -0.5700 
 15 C        4.8010     0.2370    -0.6450 C.3   1 <1>   0.1810 
 16 O        3.3340     4.5310    -1.4440 O.2   1 <1>  -0.5700 
 17 N        4.9900     4.5600     0.0790 N.am  1 <1>  -0.6600 
 18 C        5.1360     6.0440    -0.0400 C.3   1 <1>   0.1400 
 19 C        5.9110     3.9100     1.0560 C.3   1 <1>   0.1400 
 20 C        5.8430     6.4270    -1.3460 C.3   1 <1>   0.1200 
 21 C        7.3060     3.7700     0.4540 C.3   1 <1>  -0.2400 
 22 O        5.9420     7.8090    -1.4230 O.3   1 <1>  -0.6800 
 23 H       -1.3220     1.5790    -1.3050 H     1 <1>   0.1500 
 24 H        1.5200     3.9900     1.9050 H     1 <1>   0.1500 
 25 H        3.3110     2.6810     1.4290 H     1 <1>   0.0800 
 26 H       -2.2690     3.4030     0.0660 H     1 <1>   0.1500 
 27 H       -0.8280     4.5960     1.6630 H     1 <1>   0.1500 
 28 H        2.4270     0.3390     1.8050 H     1 <1>   0.3700 
 29 H        3.2480     2.1310    -1.5130 H     1 <1>   0.0800 
 30 H        4.3420    -0.0530    -1.5740 H     1 <1>   0.0800 
 31 H        5.7650    -0.2310    -0.5710 H     1 <1>   0.0800 
 32 H        4.1570     6.4910    -0.0230 H     1 <1>   0.0800 
 33 H        5.6990     6.4260     0.7940 H     1 <1>   0.0800 
 34 H        5.9590     4.5020     1.9540 H     1 <1>   0.0800 
 35 H        5.5490     2.9370     1.3340 H     1 <1>   0.0800 
 36 H        5.2910     6.0800    -2.2030 H     1 <1>   0.0800 
 37 H        6.8390     6.0250    -1.3710 H     1 <1>   0.0800 
 38 H        7.7530     4.7350     0.2970 H     1 <1>   0.0800 
 39 H        7.2570     3.2380    -0.4800 H     1 <1>   0.0800 
 40 H        7.9340     3.2160     1.1270 H     1 <1>   0.0800 
 41 H        5.0680     8.2000    -1.6230 H     1 <1>   0.4000 
@<TRIPOS>BOND
  1   1   2  1   
  2   2   3  ar  
  3   2   4  ar  
  4   3   5  ar  
  5   3   6  1   
  6   4   7  ar  
  7   4  23  1   
  8   5   8  ar  
  9   5  24  1   
 10   6   9  1   
 11   6  10  1   
 12   6  25  1   
 13   7   8  ar  
 14   7  26  1   
 15   8  27  1   
 16   9  11  am  
 17   9  28  1   
 18  10  12  1   
 19  10  13  1   
 20  10  29  1   
 21  11  14  2   
 22  11  15  1   
 23  12  15  1   
 24  13  16  2   
 25  13  17  am  
 26  15  30  1   
 27  15  31  1   
 28  17  18  1   
 29  17  19  1   
 30  18  20  1   
 31  18  32  1   
 32  18  33  1   
 33  19  21  1   
 34  19  34  1   
 35  19  35  1   
 36  20  22  1   
 37  20  36  1   
 38  20  37  1   
 39  21  38  1   
 40  21  39  1   
 41  21  40  1   
 42  22  41  1   
@<TRIPOS>SUBSTRUCTURE
  1 ****  10 GROUP 4 **** **** 0

# MOE 2024.06 (io_trps.svl 2023.06)
