@<TRIPOS>MOLECULE
NONAME
45 47 1 0 0 
SMALL
USER_CHARGES


@<TRIPOS>ATOM
  1 O       -0.2890     0.2530    -1.5520 O.2   1 <1>  -0.5700 
  2 C       -1.2550     0.8980    -1.2250 C.2   1 <1>   0.5690 
  3 N       -2.4350     0.2950    -0.8860 N.am  1 <1>  -0.6600 
  4 C       -1.1170     2.4070    -1.1840 C.3   1 <1>  -0.0990 
  5 C       -3.6620     0.9530    -0.3740 C.3   1 <1>   0.1400 
  6 C       -2.6040    -1.1760    -0.9010 C.3   1 <1>   0.1400 
  7 C       -0.5780     2.8700     0.1720 C.3   1 <1>   0.0200 
  8 C       -4.6070    -0.1910     0.0000 C.3   1 <1>   0.2000 
  9 C       -3.7390    -1.4480     0.0860 C.3   1 <1>  -0.0800 
 10 C       -0.4700     4.3860     0.2190 C.2   1 <1>  -0.3320 
 11 O       -5.2230     0.0450     1.2170 O.3   1 <1>  -0.6800 
 12 C       -4.5290    -2.7320    -0.2140 C.3   1 <1>   0.0200 
 13 N       -1.4900     5.2480     0.4430 N.pl3 1 <1>   0.3140 
 14 C        0.6390     5.1370     0.0500 C.2   1 <1>  -0.1500 
 15 C       -3.6950    -3.9960    -0.0950 C.2   1 <1>  -0.0400 
 16 N       -1.0680     6.5220     0.4170 N.2   1 <1>  -0.7070 
 17 C       -2.9010     4.9330     0.7040 C.3   1 <1>   0.0160 
 18 C        0.2050     6.4490     0.1830 C.2   1 <1>   0.1390 
 19 O       -4.2120    -5.1260    -0.4980 O.3   1 <1>  -0.0190 
 20 C       -2.4590    -4.2550     0.3630 C.2   1 <1>  -0.1500 
 21 N       -3.3910    -6.1230    -0.3400 N.2   1 <1>  -0.4100 
 22 C       -2.3250    -5.6280     0.1770 C.2   1 <1>   0.1080 
 23 C       -1.0970    -6.4360     0.5310 C.3   1 <1>  -0.0590 
 24 H       -0.4280     2.7060    -1.9530 H     1 <1>   0.0800 
 25 H       -2.0580     2.8740    -1.3980 H     1 <1>   0.0800 
 26 H       -3.4210     1.5510     0.4870 H     1 <1>   0.0800 
 27 H       -4.1020     1.5640    -1.1430 H     1 <1>   0.0800 
 28 H       -2.8740    -1.4840    -1.8970 H     1 <1>   0.0800 
 29 H       -1.6920    -1.6710    -0.6130 H     1 <1>   0.0800 
 30 H        0.4000     2.4430     0.3190 H     1 <1>   0.0800 
 31 H       -1.2060     2.5200     0.9710 H     1 <1>   0.0800 
 32 H       -5.3710    -0.2890    -0.7530 H     1 <1>   0.0800 
 33 H       -3.3030    -1.5160     1.0680 H     1 <1>   0.0800 
 34 H       -4.5750     0.0000     1.9470 H     1 <1>   0.4000 
 35 H       -4.9330    -2.6820    -1.2110 H     1 <1>   0.0800 
 36 H       -5.3580    -2.8090     0.4690 H     1 <1>   0.0800 
 37 H        1.6480     4.8220    -0.1470 H     1 <1>   0.1500 
 38 H       -2.9630     4.1780     1.4630 H     1 <1>   0.0800 
 39 H       -3.3590     4.5910    -0.2030 H     1 <1>   0.0800 
 40 H       -3.3990     5.8230     1.0430 H     1 <1>   0.0800 
 41 H        0.8430     7.3120     0.1020 H     1 <1>   0.1500 
 42 H       -1.7160    -3.6020     0.7810 H     1 <1>   0.1500 
 43 H       -0.8860    -6.3390     1.5800 H     1 <1>   0.0800 
 44 H       -0.2540    -6.0840    -0.0350 H     1 <1>   0.0800 
 45 H       -1.2620    -7.4730     0.3020 H     1 <1>   0.0800 
@<TRIPOS>BOND
  1   1   2  2   
  2   2   3  am  
  3   2   4  1   
  4   3   5  1   
  5   3   6  1   
  6   4   7  1   
  7   4  24  1   
  8   4  25  1   
  9   5   8  1   
 10   5  26  1   
 11   5  27  1   
 12   6   9  1   
 13   6  28  1   
 14   6  29  1   
 15   7  10  1   
 16   7  30  1   
 17   7  31  1   
 18   8   9  1   
 19   8  11  1   
 20   8  32  1   
 21   9  12  1   
 22   9  33  1   
 23  10  13  1   
 24  10  14  2   
 25  11  34  1   
 26  12  15  1   
 27  12  35  1   
 28  12  36  1   
 29  13  16  1   
 30  13  17  1   
 31  14  18  1   
 32  14  37  1   
 33  15  19  1   
 34  15  20  2   
 35  16  18  2   
 36  17  38  1   
 37  17  39  1   
 38  17  40  1   
 39  18  41  1   
 40  19  21  1   
 41  20  22  1   
 42  20  42  1   
 43  21  22  2   
 44  22  23  1   
 45  23  43  1   
 46  23  44  1   
 47  23  45  1   
@<TRIPOS>SUBSTRUCTURE
  1 ****   3 GROUP 4 **** **** 0

# MOE 2024.06 (io_trps.svl 2023.06)
