@<TRIPOS>MOLECULE
NONAME
42 44 1 0 0 
SMALL
USER_CHARGES


@<TRIPOS>ATOM
  1 F       -0.1350    -0.4190     1.3410 F     1 <1>  -0.1900 
  2 C       -0.1560    -1.7140     1.1790 C.ar  1 <1>   0.1900 
  3 C        0.6460    -2.2950     0.2080 C.ar  1 <1>  -0.1440 
  4 C       -0.9840    -2.4600     1.9950 C.ar  1 <1>  -0.1500 
  5 C        0.5930    -3.6720     0.0650 C.ar  1 <1>  -0.1500 
  6 C        1.5590    -1.4540    -0.6720 C.3   1 <1>  -0.0960 
  7 C       -1.0170    -3.8330     1.8320 C.ar  1 <1>  -0.1500 
  8 C       -0.2390    -4.4670     0.8580 C.ar  1 <1>   0.0860 
  9 C       -0.2810    -5.9050     0.6710 C.2   1 <1>   0.5440 
 10 O        0.7560    -6.5340     0.5810 O.2   1 <1>  -0.5700 
 11 N       -1.4730    -6.5870     0.5720 N.am  1 <1>  -0.6600 
 12 C       -2.7610    -5.9720     0.1630 C.3   1 <1>   0.1400 
 13 C       -1.5200    -8.0610     0.3990 C.3   1 <1>   0.1400 
 14 C       -3.5240    -7.0980    -0.5320 C.3   1 <1>   0.2000 
 15 C       -2.9790    -8.3880     0.0760 C.3   1 <1>  -0.0800 
 16 O       -4.8890    -7.0030    -0.3160 O.3   1 <1>  -0.6800 
 17 C       -3.1450    -9.6040    -0.8470 C.3   1 <1>   0.0200 
 18 C       -2.5280   -10.8430    -0.2270 C.2   1 <1>  -0.0400 
 19 O       -3.0050   -11.3200     0.8920 O.3   1 <1>  -0.0190 
 20 C       -1.5030   -11.6210    -0.6040 C.2   1 <1>  -0.1500 
 21 N       -2.3520   -12.3750     1.2850 N.2   1 <1>  -0.4100 
 22 C       -1.4410   -12.5800     0.4030 C.2   1 <1>   0.1080 
 23 C       -0.4400   -13.7120     0.4610 C.3   1 <1>  -0.0590 
 24 H       -1.5830    -1.9710     2.7410 H     1 <1>   0.1500 
 25 H        1.2070    -4.1610    -0.6720 H     1 <1>   0.1500 
 26 H        2.1120    -2.0710    -1.3560 H     1 <1>   0.0800 
 27 H        2.2570    -0.9100    -0.0610 H     1 <1>   0.0800 
 28 H        0.9750    -0.7510    -1.2390 H     1 <1>   0.0800 
 29 H       -1.6470    -4.4310     2.4670 H     1 <1>   0.1500 
 30 H       -3.2880    -5.6420     1.0410 H     1 <1>   0.0800 
 31 H       -2.5980    -5.1480    -0.5090 H     1 <1>   0.0800 
 32 H       -0.8710    -8.3390    -0.4150 H     1 <1>   0.0800 
 33 H       -1.1930    -8.5590     1.2970 H     1 <1>   0.0800 
 34 H       -3.3440    -7.0550    -1.5930 H     1 <1>   0.0800 
 35 H       -3.4750    -8.5800     1.0120 H     1 <1>   0.0800 
 36 H       -5.0960    -7.1350     0.6300 H     1 <1>   0.4000 
 37 H       -2.6760    -9.4130    -1.7960 H     1 <1>   0.0800 
 38 H       -4.1920    -9.7850    -1.0220 H     1 <1>   0.0800 
 39 H       -0.8620   -11.5520    -1.4630 H     1 <1>   0.1500 
 40 H       -0.5380   -14.3310    -0.4120 H     1 <1>   0.0800 
 41 H       -0.6170   -14.3130     1.3350 H     1 <1>   0.0800 
 42 H        0.5570   -13.3150     0.5070 H     1 <1>   0.0800 
@<TRIPOS>BOND
  1   1   2  1   
  2   2   3  ar  
  3   2   4  ar  
  4   3   5  ar  
  5   3   6  1   
  6   4   7  ar  
  7   4  24  1   
  8   5   8  ar  
  9   5  25  1   
 10   6  26  1   
 11   6  27  1   
 12   6  28  1   
 13   7   8  ar  
 14   7  29  1   
 15   8   9  1   
 16   9  10  2   
 17   9  11  am  
 18  11  12  1   
 19  11  13  1   
 20  12  14  1   
 21  12  30  1   
 22  12  31  1   
 23  13  15  1   
 24  13  32  1   
 25  13  33  1   
 26  14  15  1   
 27  14  16  1   
 28  14  34  1   
 29  15  17  1   
 30  15  35  1   
 31  16  36  1   
 32  17  18  1   
 33  17  37  1   
 34  17  38  1   
 35  18  19  1   
 36  18  20  2   
 37  19  21  1   
 38  20  22  1   
 39  20  39  1   
 40  21  22  2   
 41  22  23  1   
 42  23  40  1   
 43  23  41  1   
 44  23  42  1   
@<TRIPOS>SUBSTRUCTURE
  1 ****  11 GROUP 4 **** **** 0

# MOE 2024.06 (io_trps.svl 2023.06)
