@<TRIPOS>MOLECULE
NONAME
33 34 1 0 0 
SMALL
USER_CHARGES


@<TRIPOS>ATOM
  1 O       -0.8000     0.2790    -1.0450 O.2   1 <1>  -0.5700 
  2 C       -1.7610     0.9220    -0.7090 C.2   1 <1>   0.5690 
  3 N       -1.7170     1.6660     0.4180 N.am  1 <1>  -0.7300 
  4 C       -2.9970     0.9210    -1.5800 C.3   1 <1>  -0.0990 
  5 C       -2.8850     2.3120     1.0590 C.3   1 <1>   0.1400 
  6 C       -4.2460     1.4940    -0.8910 C.3   1 <1>   0.2000 
  7 C       -3.9570     2.7140     0.0200 C.3   1 <1>   0.0610 
  8 O       -4.8180     0.4710    -0.1240 O.3   1 <1>  -0.5600 
  9 C       -3.4600     3.9020    -0.8100 C.2   1 <1>   0.6590 
 10 C       -5.2710     3.1290     0.7300 C.3   1 <1>  -0.1600 
 11 C       -6.0890     0.7570     0.3750 C.3   1 <1>   0.1200 
 12 O       -3.6210     3.9670    -2.0030 O.2   1 <1>  -0.5700 
 13 O       -2.8830     4.8920    -0.1370 O.3   1 <1>  -0.4300 
 14 C       -5.9970     1.9280     1.3590 C.3   1 <1>  -0.1600 
 15 C       -2.3960     6.0420    -0.7890 C.3   1 <1>   0.1200 
 16 C       -1.7930     6.9620     0.2670 C.3   1 <1>  -0.2400 
 17 H       -0.8600     1.5850     0.9700 H     1 <1>   0.3700 
 18 H       -2.7710     1.5130    -2.4460 H     1 <1>   0.0800 
 19 H       -3.1950    -0.0790    -1.9180 H     1 <1>   0.0800 
 20 H       -3.3000     1.6070     1.7580 H     1 <1>   0.0800 
 21 H       -2.5580     3.1720     1.6170 H     1 <1>   0.0800 
 22 H       -4.9600     1.7610    -1.6530 H     1 <1>   0.0800 
 23 H       -5.0730     3.8750     1.4810 H     1 <1>   0.0800 
 24 H       -5.9290     3.5730     0.0010 H     1 <1>   0.0800 
 25 H       -6.7400     0.9870    -0.4510 H     1 <1>   0.0800 
 26 H       -6.4540    -0.1260     0.8710 H     1 <1>   0.0800 
 27 H       -6.9890     2.2190     1.6580 H     1 <1>   0.0800 
 28 H       -5.4830     1.5970     2.2440 H     1 <1>   0.0800 
 29 H       -1.6530     5.7370    -1.5070 H     1 <1>   0.0800 
 30 H       -3.2160     6.5200    -1.2980 H     1 <1>   0.0800 
 31 H       -0.9820     6.4670     0.7710 H     1 <1>   0.0800 
 32 H       -2.5430     7.2490     0.9830 H     1 <1>   0.0800 
 33 H       -1.4110     7.8510    -0.2030 H     1 <1>   0.0800 
@<TRIPOS>BOND
  1   1   2  2   
  2   2   3  am  
  3   2   4  1   
  4   3   5  1   
  5   3  17  1   
  6   4   6  1   
  7   4  18  1   
  8   4  19  1   
  9   5   7  1   
 10   5  20  1   
 11   5  21  1   
 12   6   7  1   
 13   6   8  1   
 14   6  22  1   
 15   7   9  1   
 16   7  10  1   
 17   8  11  1   
 18   9  12  2   
 19   9  13  1   
 20  10  14  1   
 21  10  23  1   
 22  10  24  1   
 23  11  14  1   
 24  11  25  1   
 25  11  26  1   
 26  13  15  1   
 27  14  27  1   
 28  14  28  1   
 29  15  16  1   
 30  15  29  1   
 31  15  30  1   
 32  16  31  1   
 33  16  32  1   
 34  16  33  1   
@<TRIPOS>SUBSTRUCTURE
  1 ****   7 GROUP 4 **** **** 0

# MOE 2024.06 (io_trps.svl 2023.06)
