@<TRIPOS>MOLECULE
NONAME
48 50 1 0 0 
SMALL
USER_CHARGES


@<TRIPOS>ATOM
  1 O       -0.2360    -0.5610     0.5110 O.3   1 <1>  -0.0190 
  2 N       -1.2150    -1.4030     0.3710 N.2   1 <1>  -0.4100 
  3 C       -0.8280     0.6050     0.6100 C.2   1 <1>   0.2980 
  4 C       -2.2940    -0.7250     0.3950 C.2   1 <1>   0.3350 
  5 N       -2.1020     0.5730     0.5540 N.2   1 <1>  -0.5650 
  6 C        0.0200     1.8520     0.7880 C.3   1 <1>   0.0200 
  7 C       -3.6990    -1.3170     0.2630 C.3   1 <1>   0.5240 
  8 C        0.4840     2.4640    -0.5490 C.3   1 <1>  -0.0800 
  9 N       -3.7430    -2.7710     0.6630 N.4   1 <1>  -0.9590 
 10 C        1.3970     1.5160    -1.3400 C.3   1 <1>  -0.2400 
 11 C        1.2180     3.7880    -0.2970 C.3   1 <1>  -0.2400 
 12 C       -4.9970    -3.4290     0.1780 C.3   1 <1>   0.3430 
 13 C       -3.5340    -2.9190     2.1410 C.3   1 <1>   0.2630 
 14 C       -4.9180    -4.9550     0.2580 C.3   1 <1>   0.0210 
 15 C       -6.1770    -5.5880    -0.2980 C.2   1 <1>  -0.1810 
 16 C       -6.3290    -6.9880    -0.4240 C.ar  1 <1>   0.0000 
 17 C       -7.3200    -5.0100    -0.7470 C.2   1 <1>  -0.3020 
 18 C       -7.5940    -7.1990    -0.9610 C.ar  1 <1>  -0.1520 
 19 C       -5.5130    -8.0870    -0.1340 C.ar  1 <1>  -0.1500 
 20 N       -8.1910    -5.9820    -1.1540 N.pl3 1 <1>   0.0330 
 21 C       -8.0620    -8.4900    -1.2150 C.ar  1 <1>  -0.1500 
 22 C       -5.9740    -9.3590    -0.3840 C.ar  1 <1>  -0.1500 
 23 C       -7.2490    -9.5610    -0.9250 C.ar  1 <1>  -0.1500 
 24 H        0.8720     1.6140     1.4000 H     1 <1>   0.0800 
 25 H       -0.5680     2.5790     1.3180 H     1 <1>   0.0800 
 26 H       -4.0060    -1.2100    -0.7630 H     1 <1>   0.0800 
 27 H       -4.3740    -0.7460     0.8770 H     1 <1>   0.0800 
 28 H       -0.3890     2.6740    -1.1460 H     1 <1>   0.0800 
 29 H       -2.9280    -3.1980     0.1900 H     1 <1>   0.4500 
 30 H        2.2590     1.2410    -0.7580 H     1 <1>   0.0800 
 31 H        1.7360     1.9950    -2.2430 H     1 <1>   0.0800 
 32 H        0.8710     0.6220    -1.6240 H     1 <1>   0.0800 
 33 H        2.1040     3.6280     0.2930 H     1 <1>   0.0800 
 34 H        0.5800     4.4810     0.2210 H     1 <1>   0.0800 
 35 H        1.5080     4.2370    -1.2310 H     1 <1>   0.0800 
 36 H       -5.1710    -3.1620    -0.8520 H     1 <1>   0.0800 
 37 H       -5.8410    -3.0900     0.7560 H     1 <1>   0.0800 
 38 H       -4.3480    -2.4680     2.6850 H     1 <1>   0.0800 
 39 H       -2.6130    -2.4410     2.4380 H     1 <1>   0.0800 
 40 H       -3.4740    -3.9610     2.4120 H     1 <1>   0.0800 
 41 H       -4.8070    -5.2760     1.2780 H     1 <1>   0.0800 
 42 H       -4.0800    -5.3070    -0.3160 H     1 <1>   0.0800 
 43 H       -7.5950    -3.9720    -0.8120 H     1 <1>   0.1500 
 44 H       -4.5350    -7.9300     0.2800 H     1 <1>   0.1500 
 45 H       -9.1330    -5.8500    -1.5380 H     1 <1>   0.2700 
 46 H       -9.0440    -8.6370    -1.6300 H     1 <1>   0.1500 
 47 H       -5.3580   -10.2150    -0.1670 H     1 <1>   0.1500 
 48 H       -7.5860   -10.5660    -1.1110 H     1 <1>   0.1500 
@<TRIPOS>BOND
  1   1   2  1   
  2   1   3  1   
  3   2   4  2   
  4   3   5  2   
  5   3   6  1   
  6   4   5  1   
  7   4   7  1   
  8   6   8  1   
  9   6  24  1   
 10   6  25  1   
 11   7   9  1   
 12   7  26  1   
 13   7  27  1   
 14   8  10  1   
 15   8  11  1   
 16   8  28  1   
 17   9  12  1   
 18   9  13  1   
 19   9  29  1   
 20  10  30  1   
 21  10  31  1   
 22  10  32  1   
 23  11  33  1   
 24  11  34  1   
 25  11  35  1   
 26  12  14  1   
 27  12  36  1   
 28  12  37  1   
 29  13  38  1   
 30  13  39  1   
 31  13  40  1   
 32  14  15  1   
 33  14  41  1   
 34  14  42  1   
 35  15  16  1   
 36  15  17  2   
 37  16  18  ar  
 38  16  19  ar  
 39  17  20  1   
 40  17  43  1   
 41  18  20  1   
 42  18  21  ar  
 43  19  22  ar  
 44  19  44  1   
 45  20  45  1   
 46  21  23  ar  
 47  21  46  1   
 48  22  23  ar  
 49  22  47  1   
 50  23  48  1   
@<TRIPOS>SUBSTRUCTURE
  1 ****   9 GROUP 4 **** **** 0

# MOE 2024.06 (io_trps.svl 2023.06)
