@<TRIPOS>MOLECULE
NONAME
41 44 1 0 0 
SMALL
USER_CHARGES


@<TRIPOS>ATOM
  1 CL      -2.5790    -1.6720     1.9310 Cl    1 <1>  -0.1770 
  2 C       -2.6380    -0.0580     1.2670 C.ar  1 <1>   0.1770 
  3 C       -2.7380     0.1300    -0.1130 C.ar  1 <1>   0.0860 
  4 C       -2.5810     1.0010     2.1520 C.ar  1 <1>  -0.1500 
  5 C       -2.8070    -0.9850    -1.0270 C.2   1 <1>   0.5440 
  6 C       -2.7660     1.4430    -0.5900 C.ar  1 <1>  -0.1500 
  7 C       -2.6220     2.2800     1.6350 C.ar  1 <1>   0.1900 
  8 O       -1.8210    -1.2610    -1.6820 O.2   1 <1>  -0.5700 
  9 N       -3.9650    -1.7150    -1.1980 N.am  1 <1>  -0.6600 
 10 C       -2.7110     2.5220     0.2760 C.ar  1 <1>  -0.1500 
 11 F       -2.5740     3.2930     2.4530 F     1 <1>  -0.1900 
 12 C       -4.0020    -2.9450    -2.0400 C.3   1 <1>   0.1400 
 13 C       -5.2840    -1.3480    -0.6120 C.3   1 <1>   0.1400 
 14 C       -4.5100    -4.1170    -1.1980 C.3   1 <1>  -0.1600 
 15 C       -5.8030    -2.5060     0.2420 C.3   1 <1>  -0.1600 
 16 C       -5.8700    -3.8110    -0.5620 C.3   1 <1>   0.4600 
 17 O       -6.7810    -3.6440    -1.6330 O.3   1 <1>  -0.5600 
 18 C       -6.3430    -4.9760     0.3000 C.2   1 <1>  -0.1400 
 19 C       -8.1550    -3.8120    -1.3710 C.3   1 <1>   0.1200 
 20 S       -5.3990    -5.6150     1.6370 S.3   1 <1>  -0.0800 
 21 C       -7.4950    -5.6480     0.1710 C.2   1 <1>  -0.1810 
 22 C       -8.4710    -5.2500    -0.9130 C.3   1 <1>   0.0210 
 23 C       -6.6330    -6.8220     1.9740 C.2   1 <1>  -0.1100 
 24 C       -7.6660    -6.7070     1.1170 C.2   1 <1>  -0.1500 
 25 H       -2.5060     0.8370     3.2110 H     1 <1>   0.1500 
 26 H       -2.8280     1.6070    -1.6530 H     1 <1>   0.1500 
 27 H       -2.7350     3.5340    -0.0900 H     1 <1>   0.1500 
 28 H       -3.0230    -3.1780    -2.4230 H     1 <1>   0.0800 
 29 H       -4.6580    -2.7800    -2.8780 H     1 <1>   0.0800 
 30 H       -5.9760    -1.1490    -1.4130 H     1 <1>   0.0800 
 31 H       -5.2090    -0.4600    -0.0100 H     1 <1>   0.0800 
 32 H       -3.7870    -4.3190    -0.4290 H     1 <1>   0.0800 
 33 H       -4.5920    -4.9980    -1.8070 H     1 <1>   0.0800 
 34 H       -6.7690    -2.2680     0.6430 H     1 <1>   0.0800 
 35 H       -5.1400    -2.6440     1.0760 H     1 <1>   0.0800 
 36 H       -8.6910    -3.5850    -2.2750 H     1 <1>   0.0800 
 37 H       -8.4460    -3.1070    -0.6130 H     1 <1>   0.0800 
 38 H       -8.3880    -5.9250    -1.7450 H     1 <1>   0.0800 
 39 H       -9.4780    -5.2910    -0.5380 H     1 <1>   0.0800 
 40 H       -6.4510    -7.4990     2.7890 H     1 <1>   0.1500 
 41 H       -8.5460    -7.3250     1.1100 H     1 <1>   0.1500 
@<TRIPOS>BOND
  1   1   2  1   
  2   2   3  ar  
  3   2   4  ar  
  4   3   5  1   
  5   3   6  ar  
  6   4   7  ar  
  7   4  25  1   
  8   5   8  2   
  9   5   9  am  
 10   6  10  ar  
 11   6  26  1   
 12   7  10  ar  
 13   7  11  1   
 14   9  12  1   
 15   9  13  1   
 16  10  27  1   
 17  12  14  1   
 18  12  28  1   
 19  12  29  1   
 20  13  15  1   
 21  13  30  1   
 22  13  31  1   
 23  14  16  1   
 24  14  32  1   
 25  14  33  1   
 26  15  16  1   
 27  15  34  1   
 28  15  35  1   
 29  16  17  1   
 30  16  18  1   
 31  17  19  1   
 32  18  20  1   
 33  18  21  2   
 34  19  22  1   
 35  19  36  1   
 36  19  37  1   
 37  20  23  1   
 38  21  22  1   
 39  21  24  1   
 40  22  38  1   
 41  22  39  1   
 42  23  24  2   
 43  23  40  1   
 44  24  41  1   
@<TRIPOS>SUBSTRUCTURE
  1 ****  15 GROUP 4 **** **** 0

# MOE 2024.06 (io_trps.svl 2023.06)
