@<TRIPOS>MOLECULE
NONAME
47 49 1 0 0 
SMALL
USER_CHARGES


@<TRIPOS>ATOM
  1 O        0.4890    -0.1020    -1.0830 O.2   1 <1>  -0.5700 
  2 C       -0.3690     0.7120    -0.8300 C.2   1 <1>   0.5690 
  3 N       -1.6740     0.3280    -0.6510 N.am  1 <1>  -0.6600 
  4 C        0.0310     2.1820    -0.7520 C.3   1 <1>   0.1810 
  5 C       -2.7950     1.2080    -0.2360 C.3   1 <1>   0.1400 
  6 C       -2.1030    -1.0880    -0.6820 C.3   1 <1>   0.1400 
  7 O       -0.2160     2.7200     0.5400 O.3   1 <1>  -0.3620 
  8 C       -3.9800     0.2640    -0.0270 C.3   1 <1>   0.2000 
  9 C       -3.3740    -1.1270     0.1660 C.3   1 <1>  -0.0800 
 10 C       -0.4260     4.0550     0.7200 C.ar  1 <1>   0.0830 
 11 O       -4.7220     0.6160     1.0890 O.3   1 <1>  -0.6800 
 12 C       -4.3440    -2.2550    -0.2200 C.3   1 <1>   0.0200 
 13 C        0.1160     5.0840    -0.0690 C.ar  1 <1>   0.0830 
 14 C       -1.2480     4.3750     1.7890 C.ar  1 <1>  -0.1500 
 15 C       -3.7650    -3.6420     0.0000 C.2   1 <1>  -0.0400 
 16 O        0.9650     4.7830    -1.0950 O.3   1 <1>  -0.3630 
 17 C       -0.2180     6.4050     0.2240 C.ar  1 <1>  -0.1500 
 18 C       -1.5640     5.6910     2.0740 C.ar  1 <1>  -0.1500 
 19 O       -4.4160    -4.6740    -0.4690 O.3   1 <1>  -0.0190 
 20 C       -2.6600    -4.1010     0.6100 C.2   1 <1>  -0.1500 
 21 C        1.7890     5.7620    -1.6900 C.3   1 <1>   0.0400 
 22 C       -1.0520     6.7050     1.2880 C.ar  1 <1>  -0.1500 
 23 N       -3.8060    -5.7940    -0.2110 N.2   1 <1>  -0.4100 
 24 C       -2.7440    -5.4800     0.4390 C.2   1 <1>   0.1080 
 25 C       -1.7360    -6.4890     0.9400 C.3   1 <1>  -0.0590 
 26 H       -0.5340     2.7400    -1.4740 H     1 <1>   0.0800 
 27 H        1.0810     2.2810    -0.9580 H     1 <1>   0.0800 
 28 H       -2.5400     1.7070     0.6820 H     1 <1>   0.0800 
 29 H       -3.0100     1.9300    -1.0050 H     1 <1>   0.0800 
 30 H       -2.3080    -1.3670    -1.7020 H     1 <1>   0.0800 
 31 H       -1.3340    -1.7300    -0.2860 H     1 <1>   0.0800 
 32 H       -4.6270     0.2960    -0.8880 H     1 <1>   0.0800 
 33 H       -3.0740    -1.2440     1.1930 H     1 <1>   0.0800 
 34 H       -4.1650     0.5900     1.8910 H     1 <1>   0.4000 
 35 H       -4.6150    -2.1570    -1.2560 H     1 <1>   0.0800 
 36 H       -5.2440    -2.1670     0.3630 H     1 <1>   0.0800 
 37 H       -1.6430     3.5850     2.4000 H     1 <1>   0.1500 
 38 H        0.1600     7.2200    -0.3620 H     1 <1>   0.1500 
 39 H       -2.2070     5.9240     2.9050 H     1 <1>   0.1500 
 40 H       -1.8760    -3.5760     1.1210 H     1 <1>   0.1500 
 41 H        2.4640     5.2660    -2.3630 H     1 <1>   0.0800 
 42 H        2.3460     6.2660    -0.9190 H     1 <1>   0.0800 
 43 H        1.1730     6.4530    -2.2370 H     1 <1>   0.0800 
 44 H       -1.3000     7.7300     1.5050 H     1 <1>   0.1500 
 45 H       -0.9310    -5.9960     1.4520 H     1 <1>   0.0800 
 46 H       -1.3380    -7.0420     0.1080 H     1 <1>   0.0800 
 47 H       -2.2160    -7.1740     1.6140 H     1 <1>   0.0800 
@<TRIPOS>BOND
  1   1   2  2   
  2   2   3  am  
  3   2   4  1   
  4   3   5  1   
  5   3   6  1   
  6   4   7  1   
  7   4  26  1   
  8   4  27  1   
  9   5   8  1   
 10   5  28  1   
 11   5  29  1   
 12   6   9  1   
 13   6  30  1   
 14   6  31  1   
 15   7  10  1   
 16   8   9  1   
 17   8  11  1   
 18   8  32  1   
 19   9  12  1   
 20   9  33  1   
 21  10  13  ar  
 22  10  14  ar  
 23  11  34  1   
 24  12  15  1   
 25  12  35  1   
 26  12  36  1   
 27  13  16  1   
 28  13  17  ar  
 29  14  18  ar  
 30  14  37  1   
 31  15  19  1   
 32  15  20  2   
 33  16  21  1   
 34  17  22  ar  
 35  17  38  1   
 36  18  22  ar  
 37  18  39  1   
 38  19  23  1   
 39  20  24  1   
 40  20  40  1   
 41  21  41  1   
 42  21  42  1   
 43  21  43  1   
 44  22  44  1   
 45  23  24  2   
 46  24  25  1   
 47  25  45  1   
 48  25  46  1   
 49  25  47  1   
@<TRIPOS>SUBSTRUCTURE
  1 ****   3 GROUP 4 **** **** 0

# MOE 2024.06 (io_trps.svl 2023.06)
