@<TRIPOS>MOLECULE
NONAME
52 56 1 0 0 
SMALL
USER_CHARGES


@<TRIPOS>ATOM
  1 O       -2.2880     1.0180    -0.9390 O.3   1 <1>  -0.0190 
  2 N       -2.5490    -0.2390    -1.1620 N.2   1 <1>  -0.4100 
  3 C       -2.0920     1.2540     0.3300 C.2   1 <1>  -0.0400 
  4 C       -2.5210    -0.8230    -0.0150 C.2   1 <1>   0.1080 
  5 C       -2.2310     0.0950     0.9920 C.2   1 <1>  -0.1500 
  6 C       -1.7720     2.6610     0.8080 C.3   1 <1>   0.2900 
  7 C       -2.7670    -2.3090     0.2170 C.3   1 <1>   0.1010 
  8 N       -0.5090     3.1790     0.2410 N.3   1 <1>  -0.8100 
  9 C       -1.6810    -3.1570    -0.4670 C.3   1 <1>  -0.1600 
 10 C       -4.1660    -2.7220    -0.2720 C.3   1 <1>  -0.1600 
 11 C       -0.2700     4.5810     0.6580 C.3   1 <1>   0.5130 
 12 C        0.6540     2.2930     0.5180 C.3   1 <1>   0.1100 
 13 C       -1.9250    -4.6600    -0.2650 C.3   1 <1>  -0.1600 
 14 C       -4.4160    -4.2240    -0.0680 C.3   1 <1>  -0.1600 
 15 C       -1.3330     5.5080     0.0900 C.ar  1 <1>  -0.1440 
 16 C        1.0970     5.0170     0.1740 C.2   1 <1>  -0.3320 
 17 C        1.8910     2.6950    -0.3060 C.3   1 <1>   0.0210 
 18 C       -3.3250    -5.0630    -0.7480 C.3   1 <1>  -0.1600 
 19 C       -1.5670     5.5330    -1.2770 C.ar  1 <1>   0.1600 
 20 C       -2.0730     6.3410     0.9080 C.ar  1 <1>  -0.1500 
 21 N        1.5860     6.2650     0.0650 N.pl3 1 <1>   0.0330 
 22 C        2.0670     4.1910    -0.2460 C.2   1 <1>   0.0460 
 23 N       -2.4550     6.3110    -1.8780 N.ar  1 <1>  -0.6200 
 24 C       -3.0060     7.1520     0.2970 C.ar  1 <1>  -0.1500 
 25 C        2.8410     6.1010    -0.4130 C.2   1 <1>   0.0360 
 26 N        3.1720     4.8640    -0.6090 N.2   1 <1>  -0.5650 
 27 C       -3.1540     7.0980    -1.0780 C.ar  1 <1>   0.1600 
 28 H       -2.1450    -0.1140     2.0410 H     1 <1>   0.1500 
 29 H       -1.7130     2.6620     1.8820 H     1 <1>   0.0800 
 30 H       -2.5900     3.2960     0.5130 H     1 <1>   0.0800 
 31 H       -2.7170    -2.4940     1.2750 H     1 <1>   0.0800 
 32 H       -0.7160    -2.8910    -0.0740 H     1 <1>   0.0800 
 33 H       -1.6760    -2.9380    -1.5220 H     1 <1>   0.0800 
 34 H       -4.2580    -2.4870    -1.3190 H     1 <1>   0.0800 
 35 H       -4.9130    -2.1560     0.2570 H     1 <1>   0.0800 
 36 H       -0.2790     4.6360     1.7340 H     1 <1>   0.0800 
 37 H        0.4190     1.2720     0.2720 H     1 <1>   0.0800 
 38 H        0.8960     2.3400     1.5660 H     1 <1>   0.0800 
 39 H       -1.8250    -4.9020     0.7800 H     1 <1>   0.0800 
 40 H       -1.1830    -5.2210    -0.8060 H     1 <1>   0.0800 
 41 H       -5.3770    -4.4880    -0.4740 H     1 <1>   0.0800 
 42 H       -4.4310    -4.4460     0.9860 H     1 <1>   0.0800 
 43 H        1.7580     2.3990    -1.3300 H     1 <1>   0.0800 
 44 H        2.7660     2.2080     0.0810 H     1 <1>   0.0800 
 45 H       -3.4910    -6.1070    -0.5430 H     1 <1>   0.0800 
 46 H       -3.3850    -4.9240    -1.8140 H     1 <1>   0.0800 
 47 H       -0.9890     4.8730    -1.9060 H     1 <1>   0.1500 
 48 H       -1.9360     6.3640     1.9760 H     1 <1>   0.1500 
 49 H        1.1060     7.1480     0.2610 H     1 <1>   0.2700 
 50 H       -3.6160     7.8200     0.8770 H     1 <1>   0.1500 
 51 H        3.4900     6.9360    -0.6110 H     1 <1>   0.1500 
 52 H       -3.8850     7.7350    -1.5450 H     1 <1>   0.1500 
@<TRIPOS>BOND
  1   1   2  1   
  2   1   3  1   
  3   2   4  2   
  4   3   5  2   
  5   3   6  1   
  6   4   5  1   
  7   4   7  1   
  8   5  28  1   
  9   6   8  1   
 10   6  29  1   
 11   6  30  1   
 12   7   9  1   
 13   7  10  1   
 14   7  31  1   
 15   8  11  1   
 16   8  12  1   
 17   9  13  1   
 18   9  32  1   
 19   9  33  1   
 20  10  14  1   
 21  10  34  1   
 22  10  35  1   
 23  11  15  1   
 24  11  16  1   
 25  11  36  1   
 26  12  17  1   
 27  12  37  1   
 28  12  38  1   
 29  13  18  1   
 30  13  39  1   
 31  13  40  1   
 32  14  18  1   
 33  14  41  1   
 34  14  42  1   
 35  15  19  ar  
 36  15  20  ar  
 37  16  21  1   
 38  16  22  2   
 39  17  22  1   
 40  17  43  1   
 41  17  44  1   
 42  18  45  1   
 43  18  46  1   
 44  19  23  ar  
 45  19  47  1   
 46  20  24  ar  
 47  20  48  1   
 48  21  25  1   
 49  21  49  1   
 50  22  26  1   
 51  23  27  ar  
 52  24  27  ar  
 53  24  50  1   
 54  25  26  2   
 55  25  51  1   
 56  27  52  1   
@<TRIPOS>SUBSTRUCTURE
  1 ****   6 GROUP 4 **** **** 0

# MOE 2024.06 (io_trps.svl 2023.06)
