@<TRIPOS>MOLECULE
NONAME
42 44 1 0 0 
SMALL
USER_CHARGES


@<TRIPOS>ATOM
  1 O       -1.8470    -0.9460    -0.8100 O.2   1 <1>  -0.5760 
  2 C       -1.1270    -1.8530    -0.4660 C.2   1 <1>   0.5630 
  3 N       -0.2310    -2.4600    -1.3140 N.am  1 <1>  -0.6650 
  4 C       -1.3130    -2.4880     0.9190 C.3   1 <1>   0.3010 
  5 C        0.3460    -3.8250    -1.0520 C.3   1 <1>   0.1310 
  6 C        0.1200    -1.8690    -2.6360 C.3   1 <1>   0.0500 
  7 N       -1.4560    -3.9590     0.7020 N.pl3 1 <1>  -0.5980 
  8 C       -2.4440    -1.9260     1.7980 C.3   1 <1>  -0.2490 
  9 C       -0.1300    -4.4940     0.2660 C.3   1 <1>   0.1580 
 10 C       -2.5850    -4.4870     0.1940 C.cat 1 <1>   1.0680 
 11 N       -3.4740    -3.8030    -0.5240 N.pl3 1 <1>  -0.7050 
 12 N       -2.9660    -5.7660     0.3140 N.pl3 1 <1>  -0.7680 
 13 C       -4.4940    -4.6610    -0.8740 C.ar  1 <1>   0.3010 
 14 C       -4.1740    -5.8930    -0.3350 C.ar  1 <1>   0.6130 
 15 C       -2.4080    -6.8390     1.1610 C.3   1 <1>   0.3460 
 16 C       -5.6630    -4.5150    -1.5860 C.ar  1 <1>  -0.1190 
 17 N       -4.9010    -6.9970    -0.4130 N.ar  1 <1>  -0.5850 
 18 C       -1.7800    -7.9230     0.2870 C.3   1 <1>  -0.2490 
 19 C       -6.4550    -5.6480    -1.7050 C.ar  1 <1>  -0.1880 
 20 C       -6.0210    -6.8400    -1.1000 C.ar  1 <1>   0.1510 
 21 C       -7.7050    -5.6220    -2.4290 C.2   1 <1>   0.9760 
 22 O       -8.0890    -4.5630    -2.9470 O.co2 1 <1>  -0.9030 
 23 O       -8.3900    -6.6490    -2.5310 O.co2 1 <1>  -0.9030 
 24 H       -0.3990    -2.3140     1.4610 H     1 <1>   0.0700 
 25 H        1.4210    -3.7600    -1.0470 H     1 <1>   0.0700 
 26 H        0.0720    -4.4650    -1.8730 H     1 <1>   0.0700 
 27 H       -0.2710    -0.8700    -2.7220 H     1 <1>   0.0700 
 28 H       -0.2930    -2.4700    -3.4280 H     1 <1>   0.0700 
 29 H        1.1900    -1.8260    -2.7450 H     1 <1>   0.0700 
 30 H       -3.3960    -1.9330     1.3010 H     1 <1>   0.0700 
 31 H       -2.2200    -0.9010     2.0380 H     1 <1>   0.0700 
 32 H       -2.5120    -2.4740     2.7200 H     1 <1>   0.0700 
 33 H        0.5970    -4.3060     1.0390 H     1 <1>   0.0700 
 34 H       -0.1680    -5.5580     0.1260 H     1 <1>   0.0700 
 35 H       -3.3910    -2.8210    -0.8030 H     1 <1>   0.4430 
 36 H       -3.1960    -7.2690     1.7580 H     1 <1>   0.0700 
 37 H       -1.6690    -6.4340     1.8310 H     1 <1>   0.0700 
 38 H       -5.9560    -3.5770    -2.0290 H     1 <1>   0.1410 
 39 H       -2.5340    -8.4070    -0.3080 H     1 <1>   0.0700 
 40 H       -1.3270    -8.6690     0.9150 H     1 <1>   0.0700 
 41 H       -1.0260    -7.5210    -0.3620 H     1 <1>   0.0700 
 42 H       -6.6600    -7.7060    -1.2050 H     1 <1>   0.1410 
@<TRIPOS>BOND
  1   1   2  2   
  2   2   3  am  
  3   2   4  1   
  4   3   5  1   
  5   3   6  1   
  6   4   7  1   
  7   4   8  1   
  8   4  24  1   
  9   5   9  1   
 10   5  25  1   
 11   5  26  1   
 12   6  27  1   
 13   6  28  1   
 14   6  29  1   
 15   7   9  1   
 16   7  10  ar  
 17   8  30  1   
 18   8  31  1   
 19   8  32  1   
 20   9  33  1   
 21   9  34  1   
 22  10  11  ar  
 23  10  12  ar  
 24  11  13  1   
 25  11  35  1   
 26  12  14  1   
 27  12  15  1   
 28  13  14  ar  
 29  13  16  ar  
 30  14  17  ar  
 31  15  18  1   
 32  15  36  1   
 33  15  37  1   
 34  16  19  ar  
 35  16  38  1   
 36  17  20  ar  
 37  18  39  1   
 38  18  40  1   
 39  18  41  1   
 40  19  20  ar  
 41  19  21  1   
 42  20  42  1   
 43  21  22  ar  
 44  21  23  ar  
@<TRIPOS>SUBSTRUCTURE
  1 ****  11 GROUP 4 **** **** 0

# MOE 2024.06 (io_trps.svl 2023.06)
