@<TRIPOS>MOLECULE
NONAME
32 34 1 0 0 
SMALL
USER_CHARGES


@<TRIPOS>ATOM
  1 F       -1.5740     0.4320    -2.7230 F     1 <1>  -0.1900 
  2 C       -2.3410     0.9420    -1.7990 C.ar  1 <1>   0.1900 
  3 C       -3.2260     0.1380    -1.1390 C.ar  1 <1>  -0.1500 
  4 C       -2.2160     2.3020    -1.5280 C.ar  1 <1>  -0.1500 
  5 C       -4.0700     0.6640    -0.1320 C.ar  1 <1>   0.0000 
  6 C       -3.0190     2.8370    -0.5590 C.ar  1 <1>  -0.1500 
  7 C       -3.9490     2.0540     0.1510 C.ar  1 <1>   0.3100 
  8 C       -5.0250    -0.0790     0.6160 C.ar  1 <1>  -0.1440 
  9 N       -4.6910     2.6900     1.0880 N.ar  1 <1>  -0.6200 
 10 C       -5.7480     0.6110     1.5480 C.ar  1 <1>  -0.1500 
 11 C       -5.3090    -1.5800     0.4630 C.3   1 <1>   0.0630 
 12 C       -5.5480     1.9800     1.7460 C.ar  1 <1>   0.1600 
 13 C       -4.1030    -2.4580     0.8570 C.3   1 <1>  -0.1600 
 14 C       -5.8960    -1.9390    -0.9170 C.3   1 <1>  -0.1600 
 15 C       -4.4320    -3.9560     0.7490 C.3   1 <1>  -0.0990 
 16 C       -6.2220    -3.4390    -1.0220 C.3   1 <1>  -0.0990 
 17 C       -5.0380    -4.2900    -0.6020 C.2   1 <1>   0.4480 
 18 O       -4.6070    -5.1620    -1.2920 O.2   1 <1>  -0.5700 
 19 H       -3.2580    -0.8960    -1.4090 H     1 <1>   0.1500 
 20 H       -1.5030     2.8910    -2.0760 H     1 <1>   0.1500 
 21 H       -2.9620     3.8820    -0.3120 H     1 <1>   0.1500 
 22 H       -6.4910     0.1320     2.1590 H     1 <1>   0.1500 
 23 H       -6.0810    -1.8260     1.1720 H     1 <1>   0.0800 
 24 H       -6.1450     2.4740     2.4940 H     1 <1>   0.1500 
 25 H       -3.8110    -2.2290     1.8680 H     1 <1>   0.0800 
 26 H       -3.2580    -2.2530     0.2290 H     1 <1>   0.0800 
 27 H       -5.2100    -1.6890    -1.7030 H     1 <1>   0.0800 
 28 H       -6.7920    -1.3670    -1.0820 H     1 <1>   0.0800 
 29 H       -5.1330    -4.2340     1.5150 H     1 <1>   0.0800 
 30 H       -3.5380    -4.5380     0.8890 H     1 <1>   0.0800 
 31 H       -6.4920    -3.6840    -2.0340 H     1 <1>   0.0800 
 32 H       -7.0560    -3.6780    -0.3880 H     1 <1>   0.0800 
@<TRIPOS>BOND
  1   1   2  1   
  2   2   3  ar  
  3   2   4  ar  
  4   3   5  ar  
  5   3  19  1   
  6   4   6  ar  
  7   4  20  1   
  8   5   7  ar  
  9   5   8  ar  
 10   6   7  ar  
 11   6  21  1   
 12   7   9  ar  
 13   8  10  ar  
 14   8  11  1   
 15   9  12  ar  
 16  10  12  ar  
 17  10  22  1   
 18  11  13  1   
 19  11  14  1   
 20  11  23  1   
 21  12  24  1   
 22  13  15  1   
 23  13  25  1   
 24  13  26  1   
 25  14  16  1   
 26  14  27  1   
 27  14  28  1   
 28  15  17  1   
 29  15  29  1   
 30  15  30  1   
 31  16  17  1   
 32  16  31  1   
 33  16  32  1   
 34  17  18  2   
@<TRIPOS>SUBSTRUCTURE
  1 ****   5 GROUP 4 **** **** 0

# MOE 2024.06 (io_trps.svl 2023.06)
