@<TRIPOS>MOLECULE
NONAME
51 53 1 0 0 
SMALL
USER_CHARGES


@<TRIPOS>ATOM
  1 O        1.6750     0.8660     3.1410 O.2   1 <1>  -0.5700 
  2 C        2.2400     0.4700     2.1460 C.2   1 <1>   0.7150 
  3 N        2.2900    -0.8810     2.0200 N.am  1 <1>  -0.7300 
  4 C        2.7910     1.4120     1.2160 C.2   1 <1>  -0.2370 
  5 C        3.1170    -1.8110     1.2020 C.3   1 <1>   0.1400 
  6 N        3.2160     1.1570    -0.0430 N.pl3 1 <1>   0.3140 
  7 C        2.9780     2.7470     1.3820 C.2   1 <1>  -0.1500 
  8 C        3.9890    -1.1550     0.1210 C.3   1 <1>   0.2000 
  9 N        3.6690     2.2490    -0.6630 N.2   1 <1>  -0.7070 
 10 C        3.2370    -0.1390    -0.7330 C.3   1 <1>   0.0960 
 11 C        3.5310     3.2410     0.2040 C.2   1 <1>   0.2030 
 12 O        4.4720    -2.1590    -0.7090 O.3   1 <1>  -0.6800 
 13 C        3.8630     4.6520     0.0080 C.2   1 <1>   0.7160 
 14 O        3.1870     5.4910     0.5840 O.2   1 <1>  -0.5700 
 15 N        4.9000     5.1020    -0.7970 N.am  1 <1>  -0.6600 
 16 C        4.8500     6.4900    -1.3500 C.3   1 <1>   0.2840 
 17 C        5.9470     4.1870    -1.3440 C.3   1 <1>   0.1400 
 18 C        5.8180     7.4380    -0.6470 C.ar  1 <1>  -0.1430 
 19 C        7.3580     4.7450    -1.1640 C.3   1 <1>  -0.2400 
 20 C        6.6890     8.2220    -1.3910 C.ar  1 <1>  -0.1500 
 21 C        5.8400     7.5390     0.7370 C.ar  1 <1>  -0.1500 
 22 C        7.5730     9.0860    -0.7670 C.ar  1 <1>  -0.1500 
 23 C        6.7220     8.4000     1.3650 C.ar  1 <1>  -0.1500 
 24 C        7.5940     9.1770     0.6220 C.ar  1 <1>   0.0830 
 25 O        8.4280     9.9930     1.3150 O.3   1 <1>  -0.3630 
 26 C        9.3450    10.8340     0.6560 C.3   1 <1>   0.1200 
 27 C       10.1170    11.6130     1.7170 C.3   1 <1>  -0.2400 
 28 H        1.7940    -1.3380     2.7900 H     1 <1>   0.3700 
 29 H        2.4460    -2.5080     0.7300 H     1 <1>   0.0800 
 30 H        3.7590    -2.3650     1.8650 H     1 <1>   0.0800 
 31 H        2.7440     3.3380     2.2520 H     1 <1>   0.1500 
 32 H        4.8510    -0.6920     0.5720 H     1 <1>   0.0800 
 33 H        3.7450    -0.0020    -1.6700 H     1 <1>   0.0800 
 34 H        2.2250    -0.4510    -0.9140 H     1 <1>   0.0800 
 35 H        3.7550    -2.6020    -1.2030 H     1 <1>   0.4000 
 36 H        3.8540     6.8880    -1.2580 H     1 <1>   0.0800 
 37 H        5.0770     6.4500    -2.4010 H     1 <1>   0.0800 
 38 H        5.7500     3.9990    -2.3850 H     1 <1>   0.0800 
 39 H        5.9170     3.2440    -0.8270 H     1 <1>   0.0800 
 40 H        7.5270     5.5810    -1.8160 H     1 <1>   0.0800 
 41 H        8.0770     3.9850    -1.4100 H     1 <1>   0.0800 
 42 H        7.5140     5.0440    -0.1420 H     1 <1>   0.0800 
 43 H        6.6840     8.1630    -2.4650 H     1 <1>   0.1500 
 44 H        5.1670     6.9460     1.3320 H     1 <1>   0.1500 
 45 H        8.2330     9.6740    -1.3740 H     1 <1>   0.1500 
 46 H        6.7360     8.4740     2.4370 H     1 <1>   0.1500 
 47 H        8.7950    11.5040     0.0180 H     1 <1>   0.0800 
 48 H       10.0110    10.2210     0.0740 H     1 <1>   0.0800 
 49 H        9.4400    12.2070     2.3040 H     1 <1>   0.0800 
 50 H       10.8280    12.2660     1.2450 H     1 <1>   0.0800 
 51 H       10.6480    10.9330     2.3590 H     1 <1>   0.0800 
@<TRIPOS>BOND
  1   1   2  2   
  2   2   3  am  
  3   2   4  1   
  4   3   5  1   
  5   3  28  1   
  6   4   6  1   
  7   4   7  2   
  8   5   8  1   
  9   5  29  1   
 10   5  30  1   
 11   6   9  1   
 12   6  10  1   
 13   7  11  1   
 14   7  31  1   
 15   8  10  1   
 16   8  12  1   
 17   8  32  1   
 18   9  11  2   
 19  10  33  1   
 20  10  34  1   
 21  11  13  1   
 22  12  35  1   
 23  13  14  2   
 24  13  15  am  
 25  15  16  1   
 26  15  17  1   
 27  16  18  1   
 28  16  36  1   
 29  16  37  1   
 30  17  19  1   
 31  17  38  1   
 32  17  39  1   
 33  18  20  ar  
 34  18  21  ar  
 35  19  40  1   
 36  19  41  1   
 37  19  42  1   
 38  20  22  ar  
 39  20  43  1   
 40  21  23  ar  
 41  21  44  1   
 42  22  24  ar  
 43  22  45  1   
 44  23  24  ar  
 45  23  46  1   
 46  24  25  1   
 47  25  26  1   
 48  26  27  1   
 49  26  47  1   
 50  26  48  1   
 51  27  49  1   
 52  27  50  1   
 53  27  51  1   
@<TRIPOS>SUBSTRUCTURE
  1 ****  13 GROUP 4 **** **** 0

# MOE 2024.06 (io_trps.svl 2023.06)
