@<TRIPOS>MOLECULE
NONAME
56 58 1 0 0 
SMALL
USER_CHARGES


@<TRIPOS>ATOM
  1 O       -5.9170    -3.5020     1.0470 O.co2 1 <1>  -0.9000 
  2 C       -4.9140    -3.6360     0.3310 C.2   1 <1>   0.9060 
  3 O       -5.0230    -4.2960    -0.7150 O.co2 1 <1>  -0.9000 
  4 C       -3.5910    -2.9510     0.6900 C.3   1 <1>   0.0140 
  5 O       -2.7120    -3.7320     1.5100 O.3   1 <1>  -0.3630 
  6 C       -2.4880    -5.0180     1.1650 C.ar  1 <1>   0.0830 
  7 C       -2.5550    -5.9810     2.1560 C.ar  1 <1>  -0.1500 
  8 C       -2.2600    -5.3930    -0.1510 C.ar  1 <1>  -0.1500 
  9 C       -2.5190    -7.3220     1.8210 C.ar  1 <1>  -0.1500 
 10 C       -2.2240    -6.7300    -0.4890 C.ar  1 <1>  -0.1500 
 11 C       -2.4210    -7.6990     0.4870 C.ar  1 <1>  -0.1440 
 12 C       -2.6490    -9.1380     0.0780 C.3   1 <1>   0.4870 
 13 N       -3.8240    -9.1250    -0.8510 N.4   1 <1>  -0.9590 
 14 C       -5.1690    -9.2800    -0.2110 C.3   1 <1>   0.4230 
 15 C       -3.6170   -10.0870    -1.9760 C.3   1 <1>   0.2630 
 16 C       -6.2800    -8.9380    -1.2070 C.3   1 <1>  -0.1600 
 17 C       -5.4170    -8.2960     0.9250 C.3   1 <1>  -0.1600 
 18 C       -7.4820    -8.4420    -0.3810 C.3   1 <1>  -0.0800 
 19 C       -6.9330    -8.1130     1.0160 C.3   1 <1>  -0.0800 
 20 C       -8.0990    -7.1330    -0.9120 C.3   1 <1>  -0.1600 
 21 C       -7.3070    -6.6520     1.2940 C.3   1 <1>  -0.1600 
 22 C       -7.4020    -6.0460    -0.1000 C.3   1 <1>   0.4230 
 23 N       -8.0400    -4.7120    -0.1290 N.4   1 <1>  -0.9590 
 24 C       -9.3570    -4.5430     0.5350 C.3   1 <1>   0.2630 
 25 C       -7.9770    -4.1090    -1.4850 C.3   1 <1>   0.2630 
 26 H       -3.8130    -2.0510     1.2290 H     1 <1>   0.0800 
 27 H       -3.0720    -2.6940    -0.2120 H     1 <1>   0.0800 
 28 H       -2.6720    -5.6660     3.1780 H     1 <1>   0.1500 
 29 H       -2.1480    -4.6410    -0.9110 H     1 <1>   0.1500 
 30 H       -2.6110    -8.0540     2.6050 H     1 <1>   0.1500 
 31 H       -2.0770    -6.9890    -1.5230 H     1 <1>   0.1500 
 32 H       -2.8460    -9.7580     0.9370 H     1 <1>   0.0800 
 33 H       -1.7680    -9.5020    -0.4260 H     1 <1>   0.0800 
 34 H       -3.8210    -8.1610    -1.2210 H     1 <1>   0.4500 
 35 H       -5.3080   -10.2850     0.1550 H     1 <1>   0.0800 
 36 H       -3.6250   -11.1000    -1.6090 H     1 <1>   0.0800 
 37 H       -2.6710    -9.9000    -2.4590 H     1 <1>   0.0800 
 38 H       -4.3980    -9.9800    -2.7110 H     1 <1>   0.0800 
 39 H       -5.9450    -8.1530    -1.8630 H     1 <1>   0.0800 
 40 H       -6.5570    -9.7970    -1.7930 H     1 <1>   0.0800 
 41 H       -5.0210    -8.6490     1.8600 H     1 <1>   0.0800 
 42 H       -4.9780    -7.3450     0.6770 H     1 <1>   0.0800 
 43 H       -8.2340    -9.2130    -0.3170 H     1 <1>   0.0800 
 44 H       -7.3490    -8.7720     1.7620 H     1 <1>   0.0800 
 45 H       -9.1520    -7.1280    -0.6970 H     1 <1>   0.0800 
 46 H       -7.9470    -7.0040    -1.9680 H     1 <1>   0.0800 
 47 H       -6.5740    -6.1390     1.8940 H     1 <1>   0.0800 
 48 H       -8.2580    -6.6320     1.7910 H     1 <1>   0.0800 
 49 H       -6.3980    -5.9500    -0.4780 H     1 <1>   0.0800 
 50 H       -7.3250    -4.1480     0.4140 H     1 <1>   0.4500 
 51 H      -10.1010    -5.1510     0.0520 H     1 <1>   0.0800 
 52 H       -9.6600    -3.5100     0.4860 H     1 <1>   0.0800 
 53 H       -9.2870    -4.8240     1.5720 H     1 <1>   0.0800 
 54 H       -8.6430    -4.6210    -2.1580 H     1 <1>   0.0800 
 55 H       -6.9710    -4.1750    -1.8670 H     1 <1>   0.0800 
 56 H       -8.2490    -3.0680    -1.4380 H     1 <1>   0.0800 
@<TRIPOS>BOND
  1   1   2  ar  
  2   2   3  ar  
  3   2   4  1   
  4   4   5  1   
  5   4  26  1   
  6   4  27  1   
  7   5   6  1   
  8   6   7  ar  
  9   6   8  ar  
 10   7   9  ar  
 11   7  28  1   
 12   8  10  ar  
 13   8  29  1   
 14   9  11  ar  
 15   9  30  1   
 16  10  11  ar  
 17  10  31  1   
 18  11  12  1   
 19  12  13  1   
 20  12  32  1   
 21  12  33  1   
 22  13  14  1   
 23  13  15  1   
 24  13  34  1   
 25  14  16  1   
 26  14  17  1   
 27  14  35  1   
 28  15  36  1   
 29  15  37  1   
 30  15  38  1   
 31  16  18  1   
 32  16  39  1   
 33  16  40  1   
 34  17  19  1   
 35  17  41  1   
 36  17  42  1   
 37  18  19  1   
 38  18  20  1   
 39  18  43  1   
 40  19  21  1   
 41  19  44  1   
 42  20  22  1   
 43  20  45  1   
 44  20  46  1   
 45  21  22  1   
 46  21  47  1   
 47  21  48  1   
 48  22  23  1   
 49  22  49  1   
 50  23  24  1   
 51  23  25  1   
 52  23  50  1   
 53  24  51  1   
 54  24  52  1   
 55  24  53  1   
 56  25  54  1   
 57  25  55  1   
 58  25  56  1   
@<TRIPOS>SUBSTRUCTURE
  1 ****  17 GROUP 4 **** **** 0

# MOE 2024.06 (io_trps.svl 2023.06)
