@<TRIPOS>MOLECULE
NONAME
44 46 1 0 0 
SMALL
USER_CHARGES


@<TRIPOS>ATOM
  1 F        0.9290     0.9010    -1.5810 F     1 <1>  -0.1900 
  2 C        1.3690     1.9660    -0.9600 C.ar  1 <1>   0.1900 
  3 C        2.7100     2.2540    -0.9990 C.ar  1 <1>  -0.1500 
  4 C        0.4360     2.7590    -0.2850 C.ar  1 <1>  -0.1500 
  5 C        3.1510     3.3990    -0.3270 C.ar  1 <1>   0.0000 
  6 C        0.8690     3.8860     0.3770 C.ar  1 <1>  -0.1500 
  7 C        2.2340     4.2000     0.3510 C.ar  1 <1>  -0.1520 
  8 C        4.4130     4.0010    -0.1460 C.2   1 <1>  -0.1500 
  9 N        2.9180     5.2460     0.9180 N.pl3 1 <1>   0.0330 
 10 C        4.2430     5.1170     0.6060 C.2   1 <1>  -0.3320 
 11 C        5.2730     6.1230     1.0960 C.3   1 <1>   0.2900 
 12 N        6.4990     6.0670     0.2790 N.3   1 <1>  -0.8100 
 13 C        7.6280     6.7160     1.0090 C.3   1 <1>   0.2510 
 14 C        6.2500     6.6330    -1.0580 C.3   1 <1>   0.0300 
 15 C        7.4720     8.2430     1.2820 C.2   1 <1>   0.5690 
 16 C        8.9610     6.2410     0.4130 C.3   1 <1>  -0.2400 
 17 O        6.8590     8.5400     2.2870 O.2   1 <1>  -0.5700 
 18 N        7.9680     9.2450     0.4760 N.am  1 <1>  -0.6600 
 19 C        7.7720    10.6720     0.8280 C.3   1 <1>   0.1400 
 20 C        8.7180     9.1280    -0.7940 C.3   1 <1>   0.1400 
 21 C        8.6340    11.4500    -0.1580 C.3   1 <1>  -0.1600 
 22 C        8.7390    10.5370    -1.3740 C.3   1 <1>  -0.1600 
 23 H        3.4080     1.6300    -1.5230 H     1 <1>   0.1500 
 24 H       -0.6000     2.4750    -0.2960 H     1 <1>   0.1500 
 25 H        0.1800     4.5190     0.9070 H     1 <1>   0.1500 
 26 H        5.3360     3.6200    -0.5460 H     1 <1>   0.1500 
 27 H        2.4950     5.9910     1.4800 H     1 <1>   0.2700 
 28 H        5.5040     5.8900     2.1220 H     1 <1>   0.0800 
 29 H        4.8640     7.1190     1.0640 H     1 <1>   0.0800 
 30 H        7.6290     6.2840     1.9950 H     1 <1>   0.0800 
 31 H        5.4200     6.1320    -1.5260 H     1 <1>   0.0800 
 32 H        7.1080     6.4930    -1.6890 H     1 <1>   0.0800 
 33 H        6.0190     7.6830    -0.9910 H     1 <1>   0.0800 
 34 H        9.0530     6.4810    -0.6270 H     1 <1>   0.0800 
 35 H        9.0340     5.1740     0.5220 H     1 <1>   0.0800 
 36 H        9.7770     6.6910     0.9490 H     1 <1>   0.0800 
 37 H        8.0660    10.8590     1.8470 H     1 <1>   0.0800 
 38 H        6.7320    10.9220     0.7040 H     1 <1>   0.0800 
 39 H        8.2450     8.4430    -1.4730 H     1 <1>   0.0800 
 40 H        9.7230     8.8040    -0.5820 H     1 <1>   0.0800 
 41 H        9.6080    11.6020     0.2740 H     1 <1>   0.0800 
 42 H        8.2030    12.4070    -0.3960 H     1 <1>   0.0800 
 43 H        7.8780    10.6690    -2.0050 H     1 <1>   0.0800 
 44 H        9.6290    10.7210    -1.9500 H     1 <1>   0.0800 
@<TRIPOS>BOND
  1   1   2  1   
  2   2   3  ar  
  3   2   4  ar  
  4   3   5  ar  
  5   3  23  1   
  6   4   6  ar  
  7   4  24  1   
  8   5   7  ar  
  9   5   8  1   
 10   6   7  ar  
 11   6  25  1   
 12   7   9  1   
 13   8  10  2   
 14   8  26  1   
 15   9  10  1   
 16   9  27  1   
 17  10  11  1   
 18  11  12  1   
 19  11  28  1   
 20  11  29  1   
 21  12  13  1   
 22  12  14  1   
 23  13  15  1   
 24  13  16  1   
 25  13  30  1   
 26  14  31  1   
 27  14  32  1   
 28  14  33  1   
 29  15  17  2   
 30  15  18  am  
 31  16  34  1   
 32  16  35  1   
 33  16  36  1   
 34  18  19  1   
 35  18  20  1   
 36  19  21  1   
 37  19  37  1   
 38  19  38  1   
 39  20  22  1   
 40  20  39  1   
 41  20  40  1   
 42  21  22  1   
 43  21  41  1   
 44  21  42  1   
 45  22  43  1   
 46  22  44  1   
@<TRIPOS>SUBSTRUCTURE
  1 ****  11 GROUP 4 **** **** 0

# MOE 2024.06 (io_trps.svl 2023.06)
