@<TRIPOS>MOLECULE
NONAME
52 53 1 0 0 
SMALL
USER_CHARGES


@<TRIPOS>ATOM
  1 O        0.9170    -0.3650     0.4640 O.2   1 <1>  -0.5700 
  2 C        1.7320    -0.8880    -0.2590 C.2   1 <1>   0.5690 
  3 N        2.7420    -0.1690    -0.8260 N.am  1 <1>  -0.7300 
  4 C        1.5730    -2.3960    -0.5270 C.3   1 <1>   0.4040 
  5 C        2.8760     1.3110    -0.6870 C.3   1 <1>   0.1400 
  6 N        0.1370    -2.8550    -0.4490 N.4   1 <1>  -0.9590 
  7 C        3.4350     1.7010     0.6880 C.3   1 <1>   0.2090 
  8 C       -0.0210    -4.3040    -0.1960 C.3   1 <1>   0.3430 
  9 C       -0.7020    -2.3760    -1.5690 C.3   1 <1>   0.3430 
 10 N        3.5590     3.1820     0.7850 N.pl3 1 <1>  -0.8690 
 11 C       -0.3320    -4.4990     1.2860 C.3   1 <1>  -0.1600 
 12 C       -1.9660    -1.7290    -1.0000 C.3   1 <1>  -0.1600 
 13 C        4.6610     3.9700     0.7020 C.ar  1 <1>   0.1000 
 14 C       -1.7950    -4.2100     1.6730 C.3   1 <1>  -0.1600 
 15 C       -2.8380    -2.6330    -0.1050 C.3   1 <1>  -0.1600 
 16 C        4.5700     5.3500     0.9670 C.ar  1 <1>  -0.1440 
 17 C        5.9220     3.4670     0.3530 C.ar  1 <1>  -0.1500 
 18 C       -2.3390    -2.8050     1.3460 C.3   1 <1>  -0.1600 
 19 C        5.6910     6.1390     0.8870 C.ar  1 <1>   0.2110 
 20 C        3.2290     5.9720     1.3480 C.3   1 <1>  -0.0970 
 21 C        7.0160     4.2890     0.2850 C.ar  1 <1>   0.2110 
 22 N        6.8940     5.6110     0.5520 N.ar  1 <1>  -0.1790 
 23 H        3.4470    -0.6060    -1.4280 H     1 <1>   0.3700 
 24 H        2.1520    -2.9170     0.2170 H     1 <1>   0.0800 
 25 H        1.9800    -2.6300    -1.4950 H     1 <1>   0.0800 
 26 H        1.9070     1.7640    -0.8110 H     1 <1>   0.0800 
 27 H        3.5280     1.6830    -1.4580 H     1 <1>   0.0800 
 28 H       -0.2560    -2.3700     0.3770 H     1 <1>   0.4500 
 29 H        4.3890     1.2330     0.8460 H     1 <1>   0.0800 
 30 H        2.7620     1.3610     1.4570 H     1 <1>   0.0800 
 31 H        0.8840    -4.8280    -0.4570 H     1 <1>   0.0800 
 32 H       -0.8310    -4.7080    -0.7820 H     1 <1>   0.0800 
 33 H       -0.9650    -3.1940    -2.2190 H     1 <1>   0.0800 
 34 H       -0.1680    -1.6390    -2.1470 H     1 <1>   0.0800 
 35 H        2.6610     3.6240     1.0230 H     1 <1>   0.4000 
 36 H        0.3360    -3.9090     1.8890 H     1 <1>   0.0800 
 37 H       -0.1370    -5.5300     1.5260 H     1 <1>   0.0800 
 38 H       -2.5660    -1.4240    -1.8410 H     1 <1>   0.0800 
 39 H       -1.7070    -0.8270    -0.4720 H     1 <1>   0.0800 
 40 H       -1.8720    -4.3460     2.7400 H     1 <1>   0.0800 
 41 H       -2.4390    -4.9520     1.2310 H     1 <1>   0.0800 
 42 H       -3.0000    -3.5870    -0.5780 H     1 <1>   0.0800 
 43 H       -3.8070    -2.1630    -0.0470 H     1 <1>   0.0800 
 44 H        6.0320     2.4220     0.1340 H     1 <1>   0.1500 
 45 H       -1.6360    -2.0390     1.6260 H     1 <1>   0.0800 
 46 H       -3.1950    -2.6580     1.9850 H     1 <1>   0.0800 
 47 H        5.6380     7.1970     1.0900 H     1 <1>   0.1500 
 48 H        2.8520     5.5160     2.2480 H     1 <1>   0.0800 
 49 H        2.5130     5.8220     0.5580 H     1 <1>   0.0800 
 50 H        3.3180     7.0290     1.5230 H     1 <1>   0.0800 
 51 H        7.9860     3.8990     0.0190 H     1 <1>   0.1500 
 52 H        7.7190     6.2200     0.5000 H     1 <1>   0.4570 
@<TRIPOS>BOND
  1   1   2  2   
  2   2   3  am  
  3   2   4  1   
  4   3   5  1   
  5   3  23  1   
  6   4   6  1   
  7   4  24  1   
  8   4  25  1   
  9   5   7  1   
 10   5  26  1   
 11   5  27  1   
 12   6   8  1   
 13   6   9  1   
 14   6  28  1   
 15   7  10  1   
 16   7  29  1   
 17   7  30  1   
 18   8  11  1   
 19   8  31  1   
 20   8  32  1   
 21   9  12  1   
 22   9  33  1   
 23   9  34  1   
 24  10  13  1   
 25  10  35  1   
 26  11  14  1   
 27  11  36  1   
 28  11  37  1   
 29  12  15  1   
 30  12  38  1   
 31  12  39  1   
 32  13  16  ar  
 33  13  17  ar  
 34  14  18  1   
 35  14  40  1   
 36  14  41  1   
 37  15  18  1   
 38  15  42  1   
 39  15  43  1   
 40  16  19  ar  
 41  16  20  1   
 42  17  21  ar  
 43  17  44  1   
 44  18  45  1   
 45  18  46  1   
 46  19  22  ar  
 47  19  47  1   
 48  20  48  1   
 49  20  49  1   
 50  20  50  1   
 51  21  22  ar  
 52  21  51  1   
 53  22  52  1   
@<TRIPOS>SUBSTRUCTURE
  1 ****   1 GROUP 4 **** **** 0

# MOE 2024.06 (io_trps.svl 2023.06)
