@<TRIPOS>MOLECULE
NONAME
54 57 1 0 0 
SMALL
USER_CHARGES


@<TRIPOS>ATOM
  1 O        1.6410     0.4610    -0.1100 O.3   1 <1>  -0.6800 
  2 C        2.4170     0.0870    -1.2060 C.3   1 <1>   0.2000 
  3 C        3.0300    -1.2910    -0.9580 C.3   1 <1>  -0.0800 
  4 C        3.6560     0.9850    -1.2530 C.3   1 <1>   0.3430 
  5 C        4.2160    -1.0110    -0.0290 C.3   1 <1>   0.3430 
  6 C        2.0840    -2.3770    -0.4120 C.3   1 <1>  -0.0170 
  7 N        4.5940     0.4170    -0.2350 N.4   1 <1>  -0.9590 
  8 C        2.8680    -3.6440    -0.1120 C.ar  1 <1>  -0.1440 
  9 C        4.5240     1.1630     1.0510 C.3   1 <1>   0.4860 
 10 C        3.1690    -4.0300     1.1790 C.ar  1 <1>  -0.1500 
 11 C        3.3270    -4.4700    -1.1190 C.ar  1 <1>  -0.1500 
 12 C        4.8200     2.6450     0.8480 C.ar  1 <1>  -0.1440 
 13 C        3.9110    -5.1800     1.3940 C.ar  1 <1>   0.1600 
 14 C        4.0620    -5.5990    -0.7960 C.ar  1 <1>   0.1600 
 15 C        6.0330     3.1330     0.3350 C.ar  1 <1>  -0.0230 
 16 C        3.8190     3.5250     1.2270 C.ar  1 <1>  -0.1500 
 17 N        4.3720    -5.9640     0.4360 N.ar  1 <1>  -0.6200 
 18 N        7.0410     2.2430    -0.1600 N.pl3 1 <1>   0.5930 
 19 C        6.2290     4.5210     0.2940 C.ar  1 <1>  -0.1440 
 20 C        4.0030     4.8900     1.1350 C.ar  1 <1>  -0.1440 
 21 N        7.3880     1.0740     0.4490 N.2   1 <1>  -0.7070 
 22 C        7.6320     2.2930    -1.3800 C.2   1 <1>  -0.3020 
 23 C        5.2110     5.3760     0.6790 C.ar  1 <1>  -0.1500 
 24 C        7.5420     5.1640    -0.1460 C.3   1 <1>  -0.0970 
 25 C        2.9000     5.8480     1.5490 C.3   1 <1>  -0.0970 
 26 C        8.2270     0.4890    -0.3480 C.2   1 <1>   0.1390 
 27 C        8.4110     1.2020    -1.5220 C.2   1 <1>  -0.1500 
 28 H        0.7260     0.1180    -0.1910 H     1 <1>   0.4000 
 29 H        1.8220     0.1530    -2.1010 H     1 <1>   0.0800 
 30 H        3.4370    -1.6440    -1.8900 H     1 <1>   0.0800 
 31 H        3.4000     2.0140    -1.0550 H     1 <1>   0.0800 
 32 H        4.1050     0.9160    -2.2290 H     1 <1>   0.0800 
 33 H        5.0400    -1.6720    -0.2510 H     1 <1>   0.0800 
 34 H        3.9130    -1.1680     0.9930 H     1 <1>   0.0800 
 35 H        1.3160    -2.5940    -1.1340 H     1 <1>   0.0800 
 36 H        1.5990    -2.0430     0.4900 H     1 <1>   0.0800 
 37 H        5.5840     0.4830    -0.5250 H     1 <1>   0.4500 
 38 H        3.5390     1.0520     1.4760 H     1 <1>   0.0800 
 39 H        5.2390     0.7550     1.7470 H     1 <1>   0.0800 
 40 H        2.8350    -3.4570     2.0250 H     1 <1>   0.1500 
 41 H        3.1220    -4.2560    -2.1520 H     1 <1>   0.1500 
 42 H        4.1360    -5.4700     2.4070 H     1 <1>   0.1500 
 43 H        4.4140    -6.2340    -1.5920 H     1 <1>   0.1500 
 44 H        2.8820     3.1540     1.6080 H     1 <1>   0.1500 
 45 H        7.4660     3.1010    -2.0680 H     1 <1>   0.1500 
 46 H        5.3600     6.4420     0.6320 H     1 <1>   0.1500 
 47 H        7.6490     6.1400     0.2950 H     1 <1>   0.0800 
 48 H        7.5640     5.2770    -1.2150 H     1 <1>   0.0800 
 49 H        8.3870     4.5780     0.1680 H     1 <1>   0.0800 
 50 H        2.9240     6.7340     0.9390 H     1 <1>   0.0800 
 51 H        3.0330     6.1330     2.5770 H     1 <1>   0.0800 
 52 H        1.9340     5.3900     1.4380 H     1 <1>   0.0800 
 53 H        8.7170    -0.4470    -0.1230 H     1 <1>   0.1500 
 54 H        9.0450     0.9190    -2.3470 H     1 <1>   0.1500 
@<TRIPOS>BOND
  1   1   2  1   
  2   1  28  1   
  3   2   3  1   
  4   2   4  1   
  5   2  29  1   
  6   3   5  1   
  7   3   6  1   
  8   3  30  1   
  9   4   7  1   
 10   4  31  1   
 11   4  32  1   
 12   5   7  1   
 13   5  33  1   
 14   5  34  1   
 15   6   8  1   
 16   6  35  1   
 17   6  36  1   
 18   7   9  1   
 19   7  37  1   
 20   8  10  ar  
 21   8  11  ar  
 22   9  12  1   
 23   9  38  1   
 24   9  39  1   
 25  10  13  ar  
 26  10  40  1   
 27  11  14  ar  
 28  11  41  1   
 29  12  15  ar  
 30  12  16  ar  
 31  13  17  ar  
 32  13  42  1   
 33  14  17  ar  
 34  14  43  1   
 35  15  18  1   
 36  15  19  ar  
 37  16  20  ar  
 38  16  44  1   
 39  18  21  1   
 40  18  22  1   
 41  19  23  ar  
 42  19  24  1   
 43  20  23  ar  
 44  20  25  1   
 45  21  26  2   
 46  22  27  2   
 47  22  45  1   
 48  23  46  1   
 49  24  47  1   
 50  24  48  1   
 51  24  49  1   
 52  25  50  1   
 53  25  51  1   
 54  25  52  1   
 55  26  27  1   
 56  26  53  1   
 57  27  54  1   
@<TRIPOS>SUBSTRUCTURE
  1 ****   7 GROUP 4 **** **** 0

# MOE 2024.06 (io_trps.svl 2023.06)
