@<TRIPOS>MOLECULE
NONAME
21 21 1 0 0 
SMALL
USER_CHARGES


@<TRIPOS>ATOM
  1 O       -1.6200     7.5010    -0.0010 O.2   1 <1>  -0.5980 
  2 C       -0.5830     6.8670    -0.0020 C.2   1 <1>   0.3880 
  3 C       -0.5520     5.4370     0.0000 C.3   1 <1>   0.0350 
  4 C        0.7540     7.6190    -0.0040 C.3   1 <1>  -0.1490 
  5 C        0.5660     4.5930     0.0000 C.2   1 <1>  -0.1980 
  6 C       -1.6560     4.5790     0.0030 C.2   1 <1>  -0.1980 
  7 C        0.6600     9.1560    -0.0050 C.3   1 <1>  -0.2080 
  8 C        0.1550     3.2840     0.0020 C.2   1 <1>  -0.1980 
  9 C       -1.2290     3.2750     0.0040 C.2   1 <1>  -0.1980 
 10 C        2.0490     9.8020    -0.0080 C.3   1 <1>  -0.2840 
 11 H        1.3080     7.3130    -0.8730 H     1 <1>   0.0290 
 12 H        1.3110     7.3140     0.8630 H     1 <1>   0.0290 
 13 H        1.5870     4.9280    -0.0020 H     1 <1>   0.1020 
 14 H       -2.6770     4.9160     0.0040 H     1 <1>   0.1020 
 15 H        0.1200     9.4820     0.8670 H     1 <1>   0.0290 
 16 H        0.1180     9.4800    -0.8760 H     1 <1>   0.0290 
 17 H        0.7870     2.4140     0.0030 H     1 <1>   0.1020 
 18 H       -1.8500     2.3980     0.0060 H     1 <1>   0.1020 
 19 H        2.6000     9.5060     0.8670 H     1 <1>   0.0290 
 20 H        1.9530    10.8730    -0.0080 H     1 <1>   0.0290 
 21 H        2.5980     9.5050    -0.8840 H     1 <1>   0.0290 
@<TRIPOS>BOND
  1   1   2  2   
  2   2   3  1   
  3   2   4  1   
  4   3   5  1   
  5   3   6  1   
  6   4   7  1   
  7   4  11  1   
  8   4  12  1   
  9   5   8  2   
 10   5  13  1   
 11   6   9  2   
 12   6  14  1   
 13   7  10  1   
 14   7  15  1   
 15   7  16  1   
 16   8   9  1   
 17   8  17  1   
 18   9  18  1   
 19  10  19  1   
 20  10  20  1   
 21  10  21  1   
@<TRIPOS>SUBSTRUCTURE
  1 ****   2 GROUP 4 **** **** 0

# MOE 2024.06 (io_trps.svl 2023.06)
