@<TRIPOS>MOLECULE
NONAME
41 42 1 0 0 
SMALL
USER_CHARGES


@<TRIPOS>ATOM
  1 S        0.5240     0.0810     0.4360 S.o2  1 <1>   1.3330 
  2 O       -0.4670     0.1870     1.4830 O.2   1 <1>  -0.6500 
  3 O        1.9290     0.1670     0.7640 O.2   1 <1>  -0.6500 
  4 N        0.2710    -1.3780    -0.3940 N.am  1 <1>  -0.8490 
  5 C        0.1370     1.3160    -0.8030 C.3   1 <1>  -0.0550 
  6 C       -0.1390    -2.4630     0.5030 C.3   1 <1>   0.1160 
  7 C        1.4270    -1.8020    -1.1920 C.3   1 <1>   0.1160 
  8 C        0.1760     2.7540    -0.2580 C.3   1 <1>  -0.0800 
  9 C       -0.2560     3.7800    -1.3020 C.3   1 <1>   0.2000 
 10 C        1.5640     3.2300     0.1760 C.3   1 <1>   0.1400 
 11 O       -1.6370     3.8700    -1.3350 O.3   1 <1>  -0.6800 
 12 C        0.3900     5.0980    -0.8790 C.3   1 <1>   0.1400 
 13 N        1.5450     4.6980    -0.0360 N.am  1 <1>  -0.6600 
 14 C        2.4190     5.5560     0.5890 C.2   1 <1>   0.5440 
 15 O        3.2450     5.0970     1.3520 O.2   1 <1>  -0.5700 
 16 C        2.3490     6.9870     0.4040 C.ar  1 <1>   0.0860 
 17 C        2.6420     7.6060    -0.8120 C.ar  1 <1>   0.1900 
 18 C        1.9900     7.8220     1.4620 C.ar  1 <1>  -0.1500 
 19 F        3.0010     6.8740    -1.8320 F     1 <1>  -0.1900 
 20 C        2.5760     8.9770    -1.0080 C.ar  1 <1>  -0.1500 
 21 C        1.9230     9.1880     1.2670 C.ar  1 <1>   0.1900 
 22 C        2.2070     9.7870     0.0520 C.ar  1 <1>  -0.1500 
 23 F        1.5760     9.9480     2.2700 F     1 <1>  -0.1900 
 24 H        0.8210     1.2260    -1.6240 H     1 <1>   0.0800 
 25 H       -0.8500     1.1230    -1.1770 H     1 <1>   0.0800 
 26 H       -0.3050    -3.3680    -0.0560 H     1 <1>   0.0800 
 27 H       -1.0580    -2.2020     1.0000 H     1 <1>   0.0800 
 28 H        0.6190    -2.6390     1.2480 H     1 <1>   0.0800 
 29 H        1.1790    -2.6810    -1.7630 H     1 <1>   0.0800 
 30 H        2.2660    -2.0240    -0.5530 H     1 <1>   0.0800 
 31 H        1.7120    -1.0220    -1.8770 H     1 <1>   0.0800 
 32 H       -0.4680     2.8280     0.6020 H     1 <1>   0.0800 
 33 H        0.0890     3.5090    -2.2860 H     1 <1>   0.0800 
 34 H        2.3370     2.8000    -0.4390 H     1 <1>   0.0800 
 35 H        1.7620     2.9910     1.2090 H     1 <1>   0.0800 
 36 H       -1.9930     4.0320    -0.4390 H     1 <1>   0.4000 
 37 H       -0.2900     5.6920    -0.2930 H     1 <1>   0.0800 
 38 H        0.7220     5.6470    -1.7420 H     1 <1>   0.0800 
 39 H        1.7700     7.4020     2.4280 H     1 <1>   0.1500 
 40 H        2.8120     9.3960    -1.9700 H     1 <1>   0.1500 
 41 H        2.1420    10.8560    -0.0530 H     1 <1>   0.1500 
@<TRIPOS>BOND
  1   1   2  2   
  2   1   3  2   
  3   1   4  am  
  4   1   5  1   
  5   4   6  1   
  6   4   7  1   
  7   5   8  1   
  8   5  24  1   
  9   5  25  1   
 10   6  26  1   
 11   6  27  1   
 12   6  28  1   
 13   7  29  1   
 14   7  30  1   
 15   7  31  1   
 16   8   9  1   
 17   8  10  1   
 18   8  32  1   
 19   9  11  1   
 20   9  12  1   
 21   9  33  1   
 22  10  13  1   
 23  10  34  1   
 24  10  35  1   
 25  11  36  1   
 26  12  13  1   
 27  12  37  1   
 28  12  38  1   
 29  13  14  am  
 30  14  15  2   
 31  14  16  1   
 32  16  17  ar  
 33  16  18  ar  
 34  17  19  1   
 35  17  20  ar  
 36  18  21  ar  
 37  18  39  1   
 38  20  22  ar  
 39  20  40  1   
 40  21  22  ar  
 41  21  23  1   
 42  22  41  1   
@<TRIPOS>SUBSTRUCTURE
  1 ****  13 GROUP 4 **** **** 0

# MOE 2024.06 (io_trps.svl 2023.06)
