@<TRIPOS>MOLECULE
NONAME
45 47 1 0 0 
SMALL
USER_CHARGES


@<TRIPOS>ATOM
  1 O       -3.1250     1.0120    -2.4960 O.2   1 <1>  -0.5700 
  2 C       -2.7050     1.0380    -1.3660 C.2   1 <1>   0.5690 
  3 N       -2.3740    -0.0920    -0.7000 N.am  1 <1>  -0.7300 
  4 C       -2.5510     2.3700    -0.6600 C.3   1 <1>  -0.0990 
  5 C       -2.4050    -1.4580    -1.2710 C.3   1 <1>   0.2200 
  6 C       -1.0760     2.7140    -0.3880 C.3   1 <1>  -0.1600 
  7 C       -3.5320    -2.2840    -0.6660 C.3   1 <1>  -0.0800 
  8 C       -1.1940    -2.2250    -0.7620 C.3   1 <1>   0.1200 
  9 C       -0.9260     4.0790     0.2950 C.3   1 <1>   0.0210 
 10 C       -2.9110    -2.8230     0.6280 C.3   1 <1>   0.1200 
 11 C       -4.8720    -1.5510    -0.4720 C.3   1 <1>  -0.0170 
 12 O       -1.5320    -2.6030     0.5370 O.3   1 <1>  -0.5600 
 13 C        0.5240     4.4050     0.6130 C.2   1 <1>  -0.1810 
 14 C       -5.9420    -2.5050     0.0360 C.ar  1 <1>  -0.1440 
 15 C        0.9590     5.5390     1.2930 C.2   1 <1>   0.1390 
 16 C        1.6570     3.7250     0.3330 C.2   1 <1>  -0.3020 
 17 C       -6.2790    -2.5870     1.3730 C.ar  1 <1>  -0.1500 
 18 C       -6.6320    -3.3410    -0.8180 C.ar  1 <1>  -0.1500 
 19 N        2.2500     5.5700     1.4310 N.2   1 <1>  -0.7070 
 20 N        2.6800     4.4430     0.8340 N.pl3 1 <1>   0.3000 
 21 C       -7.2570    -3.4810     1.7780 C.ar  1 <1>   0.1600 
 22 C       -7.5930    -4.1980    -0.3090 C.ar  1 <1>   0.1600 
 23 N       -7.9210    -4.2900     0.9690 N.ar  1 <1>  -0.6200 
 24 H       -2.0190    -0.0540     0.2590 H     1 <1>   0.3700 
 25 H       -2.9900     3.1330    -1.2780 H     1 <1>   0.0800 
 26 H       -3.1000     2.3340     0.2620 H     1 <1>   0.0800 
 27 H       -2.4460    -1.4210    -2.3480 H     1 <1>   0.0800 
 28 H       -0.6390     1.9570     0.2400 H     1 <1>   0.0800 
 29 H       -0.5390     2.7250    -1.3210 H     1 <1>   0.0800 
 30 H       -3.7030    -3.1260    -1.3140 H     1 <1>   0.0800 
 31 H       -0.2970    -1.6310    -0.7490 H     1 <1>   0.0800 
 32 H       -1.0360    -3.1200    -1.3380 H     1 <1>   0.0800 
 33 H       -1.4880     4.0870     1.2130 H     1 <1>   0.0800 
 34 H       -1.3220     4.8490    -0.3460 H     1 <1>   0.0800 
 35 H       -3.0900    -3.8780     0.7460 H     1 <1>   0.0800 
 36 H       -3.2680    -2.2950     1.4950 H     1 <1>   0.0800 
 37 H       -5.1870    -1.1290    -1.4110 H     1 <1>   0.0800 
 38 H       -4.7610    -0.7380     0.2240 H     1 <1>   0.0800 
 39 H        0.3100     6.3120     1.6680 H     1 <1>   0.1500 
 40 H        1.7960     2.7920    -0.1830 H     1 <1>   0.1500 
 41 H       -5.7930    -1.9670     2.1030 H     1 <1>   0.1500 
 42 H       -6.4320    -3.3320    -1.8740 H     1 <1>   0.1500 
 43 H        3.6760     4.1960     0.7870 H     1 <1>   0.2700 
 44 H       -7.5060    -3.5320     2.8240 H     1 <1>   0.1500 
 45 H       -8.1210    -4.8430    -0.9910 H     1 <1>   0.1500 
@<TRIPOS>BOND
  1   1   2  2   
  2   2   3  am  
  3   2   4  1   
  4   3   5  1   
  5   3  24  1   
  6   4   6  1   
  7   4  25  1   
  8   4  26  1   
  9   5   7  1   
 10   5   8  1   
 11   5  27  1   
 12   6   9  1   
 13   6  28  1   
 14   6  29  1   
 15   7  10  1   
 16   7  11  1   
 17   7  30  1   
 18   8  12  1   
 19   8  31  1   
 20   8  32  1   
 21   9  13  1   
 22   9  33  1   
 23   9  34  1   
 24  10  12  1   
 25  10  35  1   
 26  10  36  1   
 27  11  14  1   
 28  11  37  1   
 29  11  38  1   
 30  13  15  1   
 31  13  16  2   
 32  14  17  ar  
 33  14  18  ar  
 34  15  19  2   
 35  15  39  1   
 36  16  20  1   
 37  16  40  1   
 38  17  21  ar  
 39  17  41  1   
 40  18  22  ar  
 41  18  42  1   
 42  19  20  1   
 43  20  43  1   
 44  21  23  ar  
 45  21  44  1   
 46  22  23  ar  
 47  22  45  1   
@<TRIPOS>SUBSTRUCTURE
  1 ****   3 GROUP 4 **** **** 0

# MOE 2024.06 (io_trps.svl 2023.06)
