@<TRIPOS>MOLECULE
NONAME
51 52 1 0 0 
SMALL
USER_CHARGES


@<TRIPOS>ATOM
  1 S       -0.4850     2.9400    -0.9130 S.3   1 <1>  -0.0800 
  2 C        1.2710     2.7320    -0.9160 C.2   1 <1>  -0.0450 
  3 C       -0.7130     1.6830    -2.1080 C.2   1 <1>  -0.1100 
  4 C        2.0720     3.5660    -0.0550 C.2   1 <1>   0.7150 
  5 C        1.5850     1.7460    -1.7980 C.2   1 <1>  -0.1500 
  6 C        0.4720     1.1580    -2.4680 C.2   1 <1>  -0.1500 
  7 O        1.5670     4.3660     0.7100 O.2   1 <1>  -0.5700 
  8 N        3.4320     3.4660    -0.1110 N.am  1 <1>  -0.7300 
  9 C        4.4760     4.2090     0.6510 C.3   1 <1>   0.3610 
 10 C        4.5090     5.7430     0.3340 C.2   1 <1>   0.5690 
 11 C        5.7950     3.5280     0.2520 C.3   1 <1>  -0.2400 
 12 C        4.2630     3.9660     2.1530 C.3   1 <1>  -0.2400 
 13 O        5.5580     6.2880     0.0650 O.2   1 <1>  -0.5700 
 14 N        3.3600     6.4720     0.3810 N.am  1 <1>  -0.7300 
 15 C        3.2410     7.9100     0.0410 C.3   1 <1>   0.1400 
 16 C        3.7480     8.7670     1.1980 C.3   1 <1>   0.0960 
 17 N        3.8240    10.1680     0.7600 N.pl3 1 <1>   0.3140 
 18 N        2.7630    10.9850     0.8670 N.2   1 <1>  -0.7070 
 19 C        4.8770    10.7940     0.1840 C.2   1 <1>  -0.3320 
 20 C        3.1600    12.1110     0.3670 C.2   1 <1>   0.1080 
 21 C        4.4790    12.0590    -0.0780 C.2   1 <1>  -0.1810 
 22 C        6.2160    10.1220    -0.0900 C.3   1 <1>  -0.0600 
 23 C        2.2510    13.3170     0.3010 C.3   1 <1>  -0.0590 
 24 C        5.2680    13.1890    -0.7150 C.3   1 <1>   0.0210 
 25 C        5.0900    13.1740    -2.2340 C.3   1 <1>  -0.2400 
 26 H       -1.7200     1.4680    -2.4180 H     1 <1>   0.1500 
 27 H        2.5810     1.3990    -2.0100 H     1 <1>   0.1500 
 28 H        0.6070     0.3690    -3.1880 H     1 <1>   0.1500 
 29 H        3.8210     2.8670    -0.8340 H     1 <1>   0.3700 
 30 H        5.9910     3.6760    -0.7950 H     1 <1>   0.0800 
 31 H        5.7700     2.4750     0.4690 H     1 <1>   0.0800 
 32 H        6.6120     3.9630     0.8010 H     1 <1>   0.0800 
 33 H        3.3650     4.4450     2.4960 H     1 <1>   0.0800 
 34 H        5.0840     4.3820     2.7090 H     1 <1>   0.0800 
 35 H        4.2030     2.9140     2.3660 H     1 <1>   0.0800 
 36 H        2.4820     5.9720     0.6010 H     1 <1>   0.3700 
 37 H        2.2120     8.1490    -0.1680 H     1 <1>   0.0800 
 38 H        3.8290     8.1080    -0.8390 H     1 <1>   0.0800 
 39 H        4.7260     8.4480     1.5020 H     1 <1>   0.0800 
 40 H        3.0740     8.7050     2.0310 H     1 <1>   0.0800 
 41 H        6.0750     9.2350    -0.6820 H     1 <1>   0.0800 
 42 H        6.6890     9.8490     0.8360 H     1 <1>   0.0800 
 43 H        6.8710    10.7830    -0.6260 H     1 <1>   0.0800 
 44 H        1.2370    13.0180     0.4930 H     1 <1>   0.0800 
 45 H        2.3030    13.7660    -0.6720 H     1 <1>   0.0800 
 46 H        2.5490    14.0330     1.0430 H     1 <1>   0.0800 
 47 H        6.3100    13.0800    -0.4720 H     1 <1>   0.0800 
 48 H        4.9390    14.1310    -0.3160 H     1 <1>   0.0800 
 49 H        5.4350    12.2360    -2.6340 H     1 <1>   0.0800 
 50 H        5.6540    13.9720    -2.6830 H     1 <1>   0.0800 
 51 H        4.0520    13.2930    -2.4880 H     1 <1>   0.0800 
@<TRIPOS>BOND
  1   1   2  1   
  2   1   3  1   
  3   2   4  1   
  4   2   5  2   
  5   3   6  2   
  6   3  26  1   
  7   4   7  2   
  8   4   8  am  
  9   5   6  1   
 10   5  27  1   
 11   6  28  1   
 12   8   9  1   
 13   8  29  1   
 14   9  10  1   
 15   9  11  1   
 16   9  12  1   
 17  10  13  2   
 18  10  14  am  
 19  11  30  1   
 20  11  31  1   
 21  11  32  1   
 22  12  33  1   
 23  12  34  1   
 24  12  35  1   
 25  14  15  1   
 26  14  36  1   
 27  15  16  1   
 28  15  37  1   
 29  15  38  1   
 30  16  17  1   
 31  16  39  1   
 32  16  40  1   
 33  17  18  1   
 34  17  19  1   
 35  18  20  2   
 36  19  21  2   
 37  19  22  1   
 38  20  21  1   
 39  20  23  1   
 40  21  24  1   
 41  22  41  1   
 42  22  42  1   
 43  22  43  1   
 44  23  44  1   
 45  23  45  1   
 46  23  46  1   
 47  24  25  1   
 48  24  47  1   
 49  24  48  1   
 50  25  49  1   
 51  25  50  1   
 52  25  51  1   
@<TRIPOS>SUBSTRUCTURE
  1 ****  14 GROUP 4 **** **** 0

# MOE 2024.06 (io_trps.svl 2023.06)
