@<TRIPOS>MOLECULE
NONAME
42 44 1 0 0 
SMALL
USER_CHARGES


@<TRIPOS>ATOM
  1 CL       1.0590    -3.3190    -0.8910 Cl    1 <1>  -0.1770 
  2 C       -0.5790    -3.2610    -0.2920 C.ar  1 <1>   0.1770 
  3 C       -1.2550    -4.4350    -0.0490 C.ar  1 <1>  -0.1500 
  4 C       -1.1670    -2.0100    -0.0730 C.ar  1 <1>  -0.1500 
  5 C       -2.5640    -4.3420     0.4300 C.ar  1 <1>  -0.1520 
  6 C       -2.4610    -1.9340     0.3990 C.ar  1 <1>  -0.1500 
  7 N       -3.5020    -5.2610     0.7670 N.pl3 1 <1>   0.0330 
  8 C       -3.1640    -3.1140     0.6510 C.ar  1 <1>   0.2270 
  9 C       -4.5920    -4.5580     1.1600 C.2   1 <1>   0.0060 
 10 N       -4.4360    -3.2800     1.1080 N.2   1 <1>  -0.5650 
 11 C       -5.8590    -5.2650     1.6090 C.3   1 <1>   0.2900 
 12 N       -6.1320    -6.4670     0.7880 N.3   1 <1>  -0.8100 
 13 C       -7.2390    -7.2430     1.3990 C.3   1 <1>   0.2480 
 14 C       -6.4920    -6.0690    -0.5900 C.3   1 <1>   0.0300 
 15 C       -7.4240    -8.6140     0.7370 C.2   1 <1>  -0.0380 
 16 N       -6.2650    -9.2020     0.2920 N.pl3 1 <1>  -0.6000 
 17 C       -8.6140    -9.2660     0.5730 C.2   1 <1>  -0.1240 
 18 C       -6.2470   -10.4280    -0.3210 C.2   1 <1>  -0.0500 
 19 C       -8.6420   -10.5420    -0.0790 C.2   1 <1>   0.5410 
 20 C       -9.9570    -8.7130     1.0560 C.3   1 <1>  -0.1020 
 21 C       -7.4050   -11.1090    -0.5150 C.2   1 <1>  -0.1240 
 22 O       -9.7040   -11.1390    -0.2640 O.2   1 <1>  -0.5700 
 23 C       -7.4130   -12.4720    -1.1950 C.3   1 <1>  -0.1020 
 24 H       -0.7900    -5.3880    -0.2220 H     1 <1>   0.1500 
 25 H       -0.5970    -1.1220    -0.2770 H     1 <1>   0.1500 
 26 H       -2.9500    -0.9950     0.5800 H     1 <1>   0.1500 
 27 H       -3.4530    -6.2800     0.6910 H     1 <1>   0.2700 
 28 H       -6.6880    -4.5790     1.5570 H     1 <1>   0.0800 
 29 H       -5.7280    -5.5530     2.6380 H     1 <1>   0.0800 
 30 H       -8.1450    -6.6670     1.3440 H     1 <1>   0.0800 
 31 H       -7.0150    -7.4170     2.4370 H     1 <1>   0.0800 
 32 H       -5.6870    -5.5180    -1.0470 H     1 <1>   0.0800 
 33 H       -7.3740    -5.4510    -0.5900 H     1 <1>   0.0800 
 34 H       -6.6810    -6.9400    -1.1960 H     1 <1>   0.0800 
 35 H       -5.4150    -8.6270     0.3840 H     1 <1>   0.4000 
 36 H       -5.2910   -10.8120    -0.6380 H     1 <1>   0.1500 
 37 H      -10.4920    -9.4770     1.5920 H     1 <1>   0.0800 
 38 H      -10.5520    -8.4200     0.2080 H     1 <1>   0.0800 
 39 H       -9.8530    -7.8730     1.7140 H     1 <1>   0.0800 
 40 H       -7.8310   -13.2080    -0.5300 H     1 <1>   0.0800 
 41 H       -6.4190   -12.7760    -1.4670 H     1 <1>   0.0800 
 42 H       -8.0190   -12.4320    -2.0830 H     1 <1>   0.0800 
@<TRIPOS>BOND
  1   1   2  1   
  2   2   3  ar  
  3   2   4  ar  
  4   3   5  ar  
  5   3  24  1   
  6   4   6  ar  
  7   4  25  1   
  8   5   7  1   
  9   5   8  ar  
 10   6   8  ar  
 11   6  26  1   
 12   7   9  1   
 13   7  27  1   
 14   8  10  1   
 15   9  10  2   
 16   9  11  1   
 17  11  12  1   
 18  11  28  1   
 19  11  29  1   
 20  12  13  1   
 21  12  14  1   
 22  13  15  1   
 23  13  30  1   
 24  13  31  1   
 25  14  32  1   
 26  14  33  1   
 27  14  34  1   
 28  15  16  1   
 29  15  17  2   
 30  16  18  1   
 31  16  35  1   
 32  17  19  1   
 33  17  20  1   
 34  18  21  2   
 35  18  36  1   
 36  19  21  1   
 37  19  22  2   
 38  20  37  1   
 39  20  38  1   
 40  20  39  1   
 41  21  23  1   
 42  23  40  1   
 43  23  41  1   
 44  23  42  1   
@<TRIPOS>SUBSTRUCTURE
  1 ****  12 GROUP 4 **** **** 0

# MOE 2024.06 (io_trps.svl 2023.06)
