@<TRIPOS>MOLECULE
NONAME
53 56 1 0 0 
SMALL
USER_CHARGES


@<TRIPOS>ATOM
  1 O        1.5020     0.6450    -3.6580 O.2   1 <1>  -0.5700 
  2 C        1.5220     0.1280    -2.5690 C.2   1 <1>   0.5690 
  3 N        1.8310     0.8480    -1.4390 N.am  1 <1>  -0.6600 
  4 C        1.2790    -1.3700    -2.4990 C.3   1 <1>  -0.0990 
  5 C        1.9160     0.2890    -0.0560 C.3   1 <1>   0.1400 
  6 C        2.2510     2.2690    -1.5480 C.3   1 <1>   0.1400 
  7 C       -0.1320    -1.7410    -1.9990 C.3   1 <1>  -0.1600 
  8 C        3.3370    -0.1960     0.2890 C.3   1 <1>   0.3430 
  9 C        3.7560     2.3580    -1.8330 C.3   1 <1>  -0.1600 
 10 C       -0.1680    -3.1210    -1.3170 C.3   1 <1>   0.0960 
 11 N        4.4010     0.8420     0.0510 N.4   1 <1>  -0.9590 
 12 C        4.5880     1.1460    -1.4020 C.3   1 <1>   0.3430 
 13 N        0.4200    -3.0800     0.0450 N.pl3 1 <1>   0.3140 
 14 C        5.6960     0.4420     0.6700 C.3   1 <1>   0.5230 
 15 N        1.7280    -3.1250     0.3080 N.2   1 <1>  -0.7070 
 16 C       -0.2370    -3.0000     1.2060 C.2   1 <1>   0.0360 
 17 C        6.4830     1.6940     1.0190 C.2   1 <1>  -0.0400 
 18 C        1.7500    -3.1220     1.6010 C.2   1 <1>   0.3660 
 19 N        0.5660    -3.0090     2.2070 N.2   1 <1>  -0.5650 
 20 O        6.8300     2.5230     0.0380 O.3   1 <1>  -0.2800 
 21 C        6.9130     2.1490     2.2130 C.2   1 <1>  -0.1500 
 22 C        7.4980     3.5370     0.5910 C.ar  1 <1>   0.1400 
 23 C        7.5840     3.3630     1.9600 C.ar  1 <1>   0.0000 
 24 C        8.0530     4.6390    -0.0470 C.ar  1 <1>  -0.1500 
 25 C        8.2440     4.3170     2.7330 C.ar  1 <1>  -0.1500 
 26 C        8.7040     5.5800     0.7250 C.ar  1 <1>  -0.1500 
 27 C        8.7980     5.4180     2.1100 C.ar  1 <1>  -0.1500 
 28 H        2.0420    -1.8030    -1.8860 H     1 <1>   0.0800 
 29 H        1.4150    -1.7820    -3.4830 H     1 <1>   0.0800 
 30 H        1.2300    -0.5260     0.0570 H     1 <1>   0.0800 
 31 H        1.6120     1.0380     0.6550 H     1 <1>   0.0800 
 32 H        2.0140     2.7880    -0.6350 H     1 <1>   0.0800 
 33 H        1.7020     2.7540    -2.3410 H     1 <1>   0.0800 
 34 H       -0.7930    -1.7520    -2.8490 H     1 <1>   0.0800 
 35 H       -0.5120    -0.9970    -1.3210 H     1 <1>   0.0800 
 36 H        3.5490    -1.0780    -0.2940 H     1 <1>   0.0800 
 37 H        3.3420    -0.4890     1.3260 H     1 <1>   0.0800 
 38 H        4.1550     3.2550    -1.3940 H     1 <1>   0.0800 
 39 H        3.8750     2.4630    -2.8970 H     1 <1>   0.0800 
 40 H        0.3700    -3.8450    -1.9030 H     1 <1>   0.0800 
 41 H       -1.1870    -3.4530    -1.2300 H     1 <1>   0.0800 
 42 H        4.1350     1.7240     0.5050 H     1 <1>   0.4500 
 43 H        5.6240     1.3590    -1.6080 H     1 <1>   0.0800 
 44 H        4.3040     0.2910    -1.9950 H     1 <1>   0.0800 
 45 H        6.2650    -0.1750    -0.0070 H     1 <1>   0.0800 
 46 H        5.5180    -0.1140     1.5750 H     1 <1>   0.0800 
 47 H       -1.3090    -2.9400     1.2730 H     1 <1>   0.1500 
 48 H        2.6540    -3.1990     2.1850 H     1 <1>   0.1500 
 49 H        6.8050     1.7270     3.1970 H     1 <1>   0.1500 
 50 H        7.9710     4.7430    -1.1130 H     1 <1>   0.1500 
 51 H        8.3160     4.1890     3.7990 H     1 <1>   0.1500 
 52 H        9.1460     6.4470     0.2640 H     1 <1>   0.1500 
 53 H        9.3120     6.1650     2.6920 H     1 <1>   0.1500 
@<TRIPOS>BOND
  1   1   2  2   
  2   2   3  am  
  3   2   4  1   
  4   3   5  1   
  5   3   6  1   
  6   4   7  1   
  7   4  28  1   
  8   4  29  1   
  9   5   8  1   
 10   5  30  1   
 11   5  31  1   
 12   6   9  1   
 13   6  32  1   
 14   6  33  1   
 15   7  10  1   
 16   7  34  1   
 17   7  35  1   
 18   8  11  1   
 19   8  36  1   
 20   8  37  1   
 21   9  12  1   
 22   9  38  1   
 23   9  39  1   
 24  10  13  1   
 25  10  40  1   
 26  10  41  1   
 27  11  12  1   
 28  11  14  1   
 29  11  42  1   
 30  12  43  1   
 31  12  44  1   
 32  13  15  1   
 33  13  16  1   
 34  14  17  1   
 35  14  45  1   
 36  14  46  1   
 37  15  18  2   
 38  16  19  2   
 39  16  47  1   
 40  17  20  1   
 41  17  21  2   
 42  18  19  1   
 43  18  48  1   
 44  20  22  1   
 45  21  23  1   
 46  21  49  1   
 47  22  23  ar  
 48  22  24  ar  
 49  23  25  ar  
 50  24  26  ar  
 51  24  50  1   
 52  25  27  ar  
 53  25  51  1   
 54  26  27  ar  
 55  26  52  1   
 56  27  53  1   
@<TRIPOS>SUBSTRUCTURE
  1 ****  11 GROUP 4 **** **** 0

# MOE 2024.06 (io_trps.svl 2023.06)
