@<TRIPOS>MOLECULE
NONAME
54 57 1 0 0 
SMALL
USER_CHARGES


@<TRIPOS>ATOM
  1 O        3.3350    -1.7670     1.5330 O.2   1 <1>  -0.5700 
  2 C        2.3740    -2.1140     0.8650 C.2   1 <1>   0.5440 
  3 N        1.4590    -1.1350     0.5200 N.am  1 <1>  -0.6600 
  4 C        2.2620    -3.5150     0.4530 C.ar  1 <1>   0.3960 
  5 C        1.5850     0.2710     0.9630 C.3   1 <1>   0.1400 
  6 C        0.3310    -1.2900    -0.4290 C.3   1 <1>   0.1400 
  7 N        1.0600    -4.0880     0.2790 N.ar  1 <1>  -0.6200 
  8 C        3.4430    -4.2350     0.2500 C.ar  1 <1>   0.1600 
  9 C        0.3390     0.9660     0.4260 C.3   1 <1>  -0.1600 
 10 C       -0.0780     0.1340    -0.7830 C.3   1 <1>  -0.1600 
 11 C        1.1100    -5.3430    -0.1320 C.ar  1 <1>   0.4100 
 12 N        3.5210    -5.5000    -0.1420 N.ar  1 <1>  -0.6200 
 13 N       -0.1080    -5.9620    -0.3800 N.pl3 1 <1>  -0.8380 
 14 C        2.3240    -6.0200    -0.3250 C.ar  1 <1>   0.1600 
 15 C       -1.3290    -5.4240     0.3060 C.3   1 <1>   0.2090 
 16 C       -0.3750    -6.3710    -1.7900 C.3   1 <1>   0.2090 
 17 C       -2.4740    -6.4670     0.2900 C.3   1 <1>   0.4230 
 18 C       -1.5030    -7.4100    -1.8160 C.3   1 <1>  -0.1600 
 19 N       -3.7260    -6.0340     1.0060 N.4   1 <1>  -0.9590 
 20 C       -2.8050    -6.8690    -1.1620 C.3   1 <1>  -0.1060 
 21 C       -4.7400    -7.1180     1.0700 C.3   1 <1>   0.3430 
 22 C       -3.5210    -5.3600     2.3160 C.3   1 <1>   0.2630 
 23 C       -3.3160    -5.6250    -1.9150 C.2   1 <1>   0.9060 
 24 C       -3.8710    -7.9900    -1.1620 C.3   1 <1>  -0.1600 
 25 C       -5.1050    -7.5910    -0.3390 C.3   1 <1>  -0.1600 
 26 O       -3.9350    -4.7530    -1.2840 O.co2 1 <1>  -0.9000 
 27 O       -3.0970    -5.5150    -3.1200 O.co2 1 <1>  -0.9000 
 28 H        1.6460     0.3290     2.0360 H     1 <1>   0.0800 
 29 H        2.4750     0.6960     0.5290 H     1 <1>   0.0800 
 30 H        0.6270    -1.8450    -1.3040 H     1 <1>   0.0800 
 31 H       -0.4790    -1.8000     0.0650 H     1 <1>   0.0800 
 32 H        4.3760    -3.7270     0.4210 H     1 <1>   0.1500 
 33 H       -0.4310     0.9290     1.1770 H     1 <1>   0.0800 
 34 H        0.5320     1.9930     0.1730 H     1 <1>   0.0800 
 35 H        0.4720     0.4490    -1.6530 H     1 <1>   0.0800 
 36 H       -1.1310     0.2050    -0.9910 H     1 <1>   0.0800 
 37 H        2.2720    -7.0450    -0.6420 H     1 <1>   0.1500 
 38 H       -1.0670    -5.1930     1.3220 H     1 <1>   0.0800 
 39 H       -1.6370    -4.5160    -0.1840 H     1 <1>   0.0800 
 40 H       -0.6490    -5.5040    -2.3710 H     1 <1>   0.0800 
 41 H        0.5110    -6.7940    -2.2330 H     1 <1>   0.0800 
 42 H       -2.0940    -7.3400     0.7920 H     1 <1>   0.0800 
 43 H       -1.7000    -7.6700    -2.8420 H     1 <1>   0.0800 
 44 H       -1.1650    -8.2980    -1.3140 H     1 <1>   0.0800 
 45 H       -4.1020    -5.3260     0.3170 H     1 <1>   0.4500 
 46 H       -4.3480    -7.9450     1.6370 H     1 <1>   0.0800 
 47 H       -5.6290    -6.7570     1.5610 H     1 <1>   0.0800 
 48 H       -3.0440    -6.0310     3.0110 H     1 <1>   0.0800 
 49 H       -4.4680    -5.0470     2.7220 H     1 <1>   0.0800 
 50 H       -2.9030    -4.4860     2.1910 H     1 <1>   0.0800 
 51 H       -4.1690    -8.1970    -2.1770 H     1 <1>   0.0800 
 52 H       -3.4520    -8.8930    -0.7520 H     1 <1>   0.0800 
 53 H       -5.7740    -8.4300    -0.2680 H     1 <1>   0.0800 
 54 H       -5.6400    -6.8030    -0.8450 H     1 <1>   0.0800 
@<TRIPOS>BOND
  1   1   2  2   
  2   2   3  am  
  3   2   4  1   
  4   3   5  1   
  5   3   6  1   
  6   4   7  ar  
  7   4   8  ar  
  8   5   9  1   
  9   5  28  1   
 10   5  29  1   
 11   6  10  1   
 12   6  30  1   
 13   6  31  1   
 14   7  11  ar  
 15   8  12  ar  
 16   8  32  1   
 17   9  10  1   
 18   9  33  1   
 19   9  34  1   
 20  10  35  1   
 21  10  36  1   
 22  11  13  1   
 23  11  14  ar  
 24  12  14  ar  
 25  13  15  1   
 26  13  16  1   
 27  14  37  1   
 28  15  17  1   
 29  15  38  1   
 30  15  39  1   
 31  16  18  1   
 32  16  40  1   
 33  16  41  1   
 34  17  19  1   
 35  17  20  1   
 36  17  42  1   
 37  18  20  1   
 38  18  43  1   
 39  18  44  1   
 40  19  21  1   
 41  19  22  1   
 42  19  45  1   
 43  20  23  1   
 44  20  24  1   
 45  21  25  1   
 46  21  46  1   
 47  21  47  1   
 48  22  48  1   
 49  22  49  1   
 50  22  50  1   
 51  23  26  ar  
 52  23  27  ar  
 53  24  25  1   
 54  24  51  1   
 55  24  52  1   
 56  25  53  1   
 57  25  54  1   
@<TRIPOS>SUBSTRUCTURE
  1 ****  15 GROUP 4 **** **** 0

# MOE 2024.06 (io_trps.svl 2023.06)
