@<TRIPOS>MOLECULE
NONAME
45 48 1 0 0 
SMALL
USER_CHARGES


@<TRIPOS>ATOM
  1 F        1.6580    -1.3650     1.0820 F     1 <1>  -0.1900 
  2 C        0.9550    -2.4440     0.8510 C.ar  1 <1>   0.1900 
  3 C        0.6190    -3.2800     1.9060 C.ar  1 <1>   0.0830 
  4 C        0.5630    -2.7240    -0.4430 C.ar  1 <1>  -0.1500 
  5 O        0.9980    -3.0030     3.1670 O.3   1 <1>  -0.5330 
  6 C       -0.1230    -4.4180     1.6540 C.ar  1 <1>  -0.1500 
  7 C       -0.1850    -3.8670    -0.6780 C.ar  1 <1>  -0.1500 
  8 C       -0.5480    -4.7360     0.3600 C.ar  1 <1>   0.0860 
  9 C       -1.3430    -5.9280     0.1160 C.2   1 <1>   0.5440 
 10 O       -1.4350    -6.8210     0.9410 O.2   1 <1>  -0.5700 
 11 N       -2.1000    -6.0760    -1.0210 N.am  1 <1>  -0.6600 
 12 C       -3.4870    -5.5190    -0.9730 C.3   1 <1>   0.1400 
 13 C       -2.0460    -7.4000    -1.7280 C.3   1 <1>   0.1400 
 14 C       -4.4470    -6.4730    -0.2050 C.3   1 <1>   0.4230 
 15 C       -3.2020    -8.3400    -1.3020 C.3   1 <1>   0.3430 
 16 N       -3.8530    -7.8540    -0.0380 N.4   1 <1>  -0.9590 
 17 C       -5.8360    -6.5430    -0.8810 C.3   1 <1>   0.1200 
 18 C       -4.8250    -8.7800     0.6140 C.3   1 <1>   0.5180 
 19 O       -6.6750    -7.4330    -0.1990 O.3   1 <1>  -0.5600 
 20 C       -4.2370   -10.1950     0.6830 C.3   1 <1>  -0.1950 
 21 C       -6.1960    -8.7490    -0.0960 C.3   1 <1>   0.1200 
 22 C       -4.4190   -11.0230     1.9180 C.3   1 <1>  -0.2000 
 23 C       -3.0570   -10.5090     1.5520 C.3   1 <1>  -0.2000 
 24 H        0.8400    -2.0600    -1.2440 H     1 <1>   0.1500 
 25 H        1.5260    -2.1820     3.2200 H     1 <1>   0.4500 
 26 H       -0.3720    -5.0640     2.4780 H     1 <1>   0.1500 
 27 H       -0.4880    -4.0890    -1.6860 H     1 <1>   0.1500 
 28 H       -3.4810    -4.5570    -0.4890 H     1 <1>   0.0800 
 29 H       -3.8360    -5.3680    -1.9800 H     1 <1>   0.0800 
 30 H       -2.0760    -7.2450    -2.7930 H     1 <1>   0.0800 
 31 H       -1.1090    -7.8810    -1.5030 H     1 <1>   0.0800 
 32 H       -4.5970    -6.0510     0.7750 H     1 <1>   0.0800 
 33 H       -2.7990    -9.3300    -1.1600 H     1 <1>   0.0800 
 34 H       -3.9310    -8.3920    -2.0920 H     1 <1>   0.0800 
 35 H       -3.0520    -7.7210     0.6140 H     1 <1>   0.4500 
 36 H       -5.7580    -6.8620    -1.9050 H     1 <1>   0.0800 
 37 H       -6.3080    -5.5760    -0.8590 H     1 <1>   0.0800 
 38 H       -4.9810    -8.4440     1.6260 H     1 <1>   0.0800 
 39 H       -4.3320   -10.7320    -0.2460 H     1 <1>   0.1000 
 40 H       -6.9140    -9.3140     0.4720 H     1 <1>   0.0800 
 41 H       -6.1330    -9.1730    -1.0830 H     1 <1>   0.0800 
 42 H       -4.8970   -10.6070     2.7890 H     1 <1>   0.1000 
 43 H       -4.6060   -12.0800     1.8200 H     1 <1>   0.1000 
 44 H       -2.3230   -11.2200     1.2110 H     1 <1>   0.1000 
 45 H       -2.6220    -9.7440     2.1740 H     1 <1>   0.1000 
@<TRIPOS>BOND
  1   1   2  1   
  2   2   3  ar  
  3   2   4  ar  
  4   3   5  1   
  5   3   6  ar  
  6   4   7  ar  
  7   4  24  1   
  8   5  25  1   
  9   6   8  ar  
 10   6  26  1   
 11   7   8  ar  
 12   7  27  1   
 13   8   9  1   
 14   9  10  2   
 15   9  11  am  
 16  11  12  1   
 17  11  13  1   
 18  12  14  1   
 19  12  28  1   
 20  12  29  1   
 21  13  15  1   
 22  13  30  1   
 23  13  31  1   
 24  14  16  1   
 25  14  17  1   
 26  14  32  1   
 27  15  16  1   
 28  15  33  1   
 29  15  34  1   
 30  16  18  1   
 31  16  35  1   
 32  17  19  1   
 33  17  36  1   
 34  17  37  1   
 35  18  20  1   
 36  18  21  1   
 37  18  38  1   
 38  19  21  1   
 39  20  22  1   
 40  20  23  1   
 41  20  39  1   
 42  21  40  1   
 43  21  41  1   
 44  22  23  1   
 45  22  42  1   
 46  22  43  1   
 47  23  44  1   
 48  23  45  1   
@<TRIPOS>SUBSTRUCTURE
  1 ****   9 GROUP 4 **** **** 0

# MOE 2024.06 (io_trps.svl 2023.06)
