@<TRIPOS>MOLECULE
NONAME
52 55 1 0 0 
SMALL
USER_CHARGES


@<TRIPOS>ATOM
  1 O       -1.5510     0.4550     1.3860 O.2   1 <1>  -0.5700 
  2 C       -2.4210    -0.2880     0.9450 C.2   1 <1>   0.4690 
  3 C       -2.7470    -0.3430    -0.4520 C.ar  1 <1>   0.0860 
  4 C       -3.1260    -1.1410     1.8220 C.2   1 <1>  -0.1360 
  5 C       -3.7960    -1.1820    -0.8800 C.ar  1 <1>   0.1000 
  6 C       -2.0340     0.4020    -1.3990 C.ar  1 <1>  -0.1500 
  7 C       -4.1540    -1.9180     1.4030 C.2   1 <1>  -0.0380 
  8 N       -4.5610    -1.8860     0.0770 N.pl3 1 <1>  -0.5690 
  9 C       -4.0280    -1.2860    -2.2590 C.ar  1 <1>  -0.1500 
 10 C       -2.3090     0.3060    -2.7430 C.ar  1 <1>  -0.1500 
 11 C       -4.8520    -2.8370     2.3940 C.3   1 <1>  -0.1020 
 12 C       -5.8940    -2.4790    -0.3290 C.3   1 <1>   0.2700 
 13 C       -3.3070    -0.5530    -3.1750 C.ar  1 <1>  -0.1500 
 14 C       -5.8580    -3.9620    -0.7370 C.2   1 <1>   0.5690 
 15 O       -5.2130    -4.2790    -1.7100 O.2   1 <1>  -0.5700 
 16 N       -6.5840    -4.9090    -0.0540 N.am  1 <1>  -0.6600 
 17 C       -7.6480    -4.6810     0.9590 C.3   1 <1>   0.1400 
 18 C       -6.5160    -6.3480    -0.4160 C.3   1 <1>   0.1400 
 19 C       -8.4250    -5.9950     1.0110 C.3   1 <1>   0.2000 
 20 C       -7.4260    -7.0650     0.5820 C.3   1 <1>  -0.0800 
 21 O       -8.8960    -6.2540     2.2860 O.3   1 <1>  -0.6800 
 22 C       -8.0930    -8.3250     0.0090 C.3   1 <1>   0.0210 
 23 C       -7.0510    -9.3080    -0.4840 C.2   1 <1>   0.1080 
 24 N       -6.1600    -9.8370     0.2960 N.2   1 <1>  -0.7070 
 25 C       -6.9200    -9.7380    -1.8000 C.2   1 <1>  -0.1500 
 26 N       -5.4300   -10.6300    -0.5110 N.pl3 1 <1>   0.3000 
 27 C       -5.8700   -10.5860    -1.7860 C.2   1 <1>  -0.3320 
 28 C       -5.2490   -11.3670    -2.9300 C.3   1 <1>  -0.0600 
 29 H       -2.7920    -1.1340     2.8410 H     1 <1>   0.1500 
 30 H       -1.2500     1.0560    -1.0590 H     1 <1>   0.1500 
 31 H       -4.7710    -1.9590    -2.6400 H     1 <1>   0.1500 
 32 H       -1.7490     0.8830    -3.4590 H     1 <1>   0.1500 
 33 H       -4.8420    -3.8470     2.0270 H     1 <1>   0.0800 
 34 H       -5.8630    -2.5170     2.5620 H     1 <1>   0.0800 
 35 H       -4.3420    -2.8280     3.3410 H     1 <1>   0.0800 
 36 H       -6.5890    -2.3430     0.4740 H     1 <1>   0.0800 
 37 H       -6.2970    -1.9200    -1.1510 H     1 <1>   0.0800 
 38 H       -3.5100    -0.6480    -4.2280 H     1 <1>   0.1500 
 39 H       -7.1960    -4.4790     1.9130 H     1 <1>   0.0800 
 40 H       -8.2950    -3.8730     0.6660 H     1 <1>   0.0800 
 41 H       -6.8720    -6.4720    -1.4250 H     1 <1>   0.0800 
 42 H       -5.5040    -6.7110    -0.3540 H     1 <1>   0.0800 
 43 H       -9.2660    -5.9460     0.3400 H     1 <1>   0.0800 
 44 H       -6.8120    -7.3440     1.4210 H     1 <1>   0.0800 
 45 H       -8.1800    -6.6050     2.8510 H     1 <1>   0.4000 
 46 H       -8.7490    -8.0630    -0.8010 H     1 <1>   0.0800 
 47 H       -8.6790    -8.8010     0.7750 H     1 <1>   0.0800 
 48 H       -7.5350    -9.4420    -2.6310 H     1 <1>   0.1500 
 49 H       -4.6410   -11.1870    -0.1620 H     1 <1>   0.2700 
 50 H       -5.7760   -11.1620    -3.8450 H     1 <1>   0.0800 
 51 H       -5.3030   -12.4220    -2.7320 H     1 <1>   0.0800 
 52 H       -4.2190   -11.0840    -3.0580 H     1 <1>   0.0800 
@<TRIPOS>BOND
  1   1   2  2   
  2   2   3  1   
  3   2   4  1   
  4   3   5  ar  
  5   3   6  ar  
  6   4   7  2   
  7   4  29  1   
  8   5   8  1   
  9   5   9  ar  
 10   6  10  ar  
 11   6  30  1   
 12   7   8  1   
 13   7  11  1   
 14   8  12  1   
 15   9  13  ar  
 16   9  31  1   
 17  10  13  ar  
 18  10  32  1   
 19  11  33  1   
 20  11  34  1   
 21  11  35  1   
 22  12  14  1   
 23  12  36  1   
 24  12  37  1   
 25  13  38  1   
 26  14  15  2   
 27  14  16  am  
 28  16  17  1   
 29  16  18  1   
 30  17  19  1   
 31  17  39  1   
 32  17  40  1   
 33  18  20  1   
 34  18  41  1   
 35  18  42  1   
 36  19  20  1   
 37  19  21  1   
 38  19  43  1   
 39  20  22  1   
 40  20  44  1   
 41  21  45  1   
 42  22  23  1   
 43  22  46  1   
 44  22  47  1   
 45  23  24  2   
 46  23  25  1   
 47  24  26  1   
 48  25  27  2   
 49  25  48  1   
 50  26  27  1   
 51  26  49  1   
 52  27  28  1   
 53  28  50  1   
 54  28  51  1   
 55  28  52  1   
@<TRIPOS>SUBSTRUCTURE
  1 ****  14 GROUP 4 **** **** 0

# MOE 2024.06 (io_trps.svl 2023.06)
