@<TRIPOS>MOLECULE
NONAME
45 48 1 0 0 
SMALL
USER_CHARGES


@<TRIPOS>ATOM
  1 CL      -4.6820     0.7920    -2.9140 Cl    1 <1>  -0.1230 
  2 C       -4.0080     0.7100    -1.2950 C.2   1 <1>   0.1230 
  3 C       -3.7470    -0.4390    -0.5400 C.2   1 <1>   0.2030 
  4 C       -3.6480     1.7680    -0.5510 C.2   1 <1>  -0.3020 
  5 N       -3.2410    -0.0770     0.6330 N.2   1 <1>  -0.7070 
  6 C       -3.9840    -1.8110    -0.9510 C.2   1 <1>   0.7160 
  7 N       -3.1870     1.2640     0.6090 N.pl3 1 <1>   0.3140 
  8 O       -4.5050    -2.1140    -2.0100 O.2   1 <1>  -0.5700 
  9 N       -3.6330    -2.8220    -0.1030 N.am  1 <1>  -0.7300 
 10 C       -2.6750     2.0430     1.7440 C.3   1 <1>   0.0160 
 11 C       -3.9190    -4.2570    -0.3120 C.3   1 <1>   0.2200 
 12 C       -5.3160    -4.5640     0.1980 C.3   1 <1>  -0.0800 
 13 C       -3.0410    -5.1170     0.5960 C.3   1 <1>   0.1200 
 14 C       -5.0550    -4.8170     1.6820 C.3   1 <1>   0.1200 
 15 C       -5.9160    -5.7930    -0.5100 C.3   1 <1>  -0.0160 
 16 O       -3.7620    -5.3360     1.7760 O.3   1 <1>  -0.5600 
 17 C       -7.3650    -6.0200    -0.0940 C.ar  1 <1>  -0.1440 
 18 C       -8.4260    -5.2190    -0.5810 C.ar  1 <1>   0.0000 
 19 C       -7.6790    -7.0220     0.7770 C.ar  1 <1>  -0.1500 
 20 C       -9.7330    -5.5070    -0.1180 C.ar  1 <1>   0.3100 
 21 C       -8.2700    -4.1530    -1.4990 C.ar  1 <1>  -0.1500 
 22 C       -9.0080    -7.2250     1.1680 C.ar  1 <1>   0.1600 
 23 N      -10.0060    -6.5100     0.7550 N.ar  1 <1>  -0.6200 
 24 C      -10.8050    -4.7270    -0.5780 C.ar  1 <1>  -0.1500 
 25 C       -9.3370    -3.4110    -1.9270 C.ar  1 <1>  -0.1500 
 26 C      -10.6220    -3.6990    -1.4620 C.ar  1 <1>  -0.1500 
 27 H       -3.6930     2.8160    -0.7770 H     1 <1>   0.1500 
 28 H       -3.2940    -2.5400     0.8220 H     1 <1>   0.3700 
 29 H       -3.4390     2.7140     2.0870 H     1 <1>   0.0800 
 30 H       -1.8120     2.6000     1.4290 H     1 <1>   0.0800 
 31 H       -2.4000     1.3730     2.5370 H     1 <1>   0.0800 
 32 H       -3.7850    -4.5040    -1.3520 H     1 <1>   0.0800 
 33 H       -5.9730    -3.7230     0.0680 H     1 <1>   0.0800 
 34 H       -2.1030    -4.6460     0.8310 H     1 <1>   0.0800 
 35 H       -2.8630    -6.0780     0.1470 H     1 <1>   0.0800 
 36 H       -5.7500    -5.5080     2.1250 H     1 <1>   0.0800 
 37 H       -5.0730    -3.8910     2.2310 H     1 <1>   0.0800 
 38 H       -5.3310    -6.6660    -0.2800 H     1 <1>   0.0800 
 39 H       -5.8750    -5.6610    -1.5770 H     1 <1>   0.0800 
 40 H       -6.9260    -7.6710     1.1840 H     1 <1>   0.1500 
 41 H       -7.2920    -3.9110    -1.8740 H     1 <1>   0.1500 
 42 H       -9.2110    -8.0260     1.8580 H     1 <1>   0.1500 
 43 H      -11.7850    -4.9680    -0.2070 H     1 <1>   0.1500 
 44 H       -9.1990    -2.6020    -2.6240 H     1 <1>   0.1500 
 45 H      -11.4540    -3.1090    -1.8060 H     1 <1>   0.1500 
@<TRIPOS>BOND
  1   1   2  1   
  2   2   3  1   
  3   2   4  2   
  4   3   5  2   
  5   3   6  1   
  6   4   7  1   
  7   4  27  1   
  8   5   7  1   
  9   6   8  2   
 10   6   9  am  
 11   7  10  1   
 12   9  11  1   
 13   9  28  1   
 14  10  29  1   
 15  10  30  1   
 16  10  31  1   
 17  11  12  1   
 18  11  13  1   
 19  11  32  1   
 20  12  14  1   
 21  12  15  1   
 22  12  33  1   
 23  13  16  1   
 24  13  34  1   
 25  13  35  1   
 26  14  16  1   
 27  14  36  1   
 28  14  37  1   
 29  15  17  1   
 30  15  38  1   
 31  15  39  1   
 32  17  18  ar  
 33  17  19  ar  
 34  18  20  ar  
 35  18  21  ar  
 36  19  22  ar  
 37  19  40  1   
 38  20  23  ar  
 39  20  24  ar  
 40  21  25  ar  
 41  21  41  1   
 42  22  23  ar  
 43  22  42  1   
 44  24  26  ar  
 45  24  43  1   
 46  25  26  ar  
 47  25  44  1   
 48  26  45  1   
@<TRIPOS>SUBSTRUCTURE
  1 ****  12 GROUP 4 **** **** 0

# MOE 2024.06 (io_trps.svl 2023.06)
