@<TRIPOS>MOLECULE
NONAME
60 63 1 0 0 
SMALL
USER_CHARGES


@<TRIPOS>ATOM
  1 O        3.1620    -1.0420    -2.0790 O.2   1 <1>  -0.5700 
  2 C        2.7450    -1.0400    -0.9470 C.2   1 <1>   0.5690 
  3 N        2.9810     0.0730    -0.1620 N.am  1 <1>  -0.6600 
  4 C        1.9570    -2.3170    -0.5110 C.3   1 <1>   0.4840 
  5 C        3.3620     1.3680    -0.8300 C.3   1 <1>   0.1400 
  6 C        3.0070     0.1450     1.3240 C.3   1 <1>   0.1400 
  7 N        0.5270    -2.1430    -0.0280 N.4   1 <1>  -0.9590 
  8 C        2.7650    -3.1950     0.4640 C.3   1 <1>  -0.1600 
  9 C        4.8650     1.4480    -1.1590 C.3   1 <1>   0.3430 
 10 C        4.4500     0.0390     1.8450 C.3   1 <1>  -0.1600 
 11 C       -0.3470    -3.1580    -0.6850 C.3   1 <1>   0.3430 
 12 C       -0.0470    -0.7830    -0.2920 C.3   1 <1>   0.2630 
 13 C        2.0310    -4.3830     1.1100 C.3   1 <1>  -0.1600 
 14 N        5.7270     0.6800    -0.1960 N.4   1 <1>  -0.9590 
 15 C        5.4580     1.0230     1.2330 C.3   1 <1>   0.3430 
 16 C       -0.2850    -4.5070     0.0320 C.3   1 <1>  -0.1600 
 17 C        1.1090    -5.1440     0.1500 C.3   1 <1>  -0.1600 
 18 C        7.1790     0.8550    -0.5340 C.3   1 <1>   0.5230 
 19 C        7.5730     2.3260    -0.5590 C.2   1 <1>  -0.0400 
 20 O        7.4540     3.0400     0.5580 O.3   1 <1>  -0.2800 
 21 C        8.0470     3.0830    -1.5690 C.2   1 <1>  -0.1500 
 22 C        7.8540     4.2830     0.2810 C.ar  1 <1>   0.1400 
 23 C        8.2380     4.3770    -1.0440 C.ar  1 <1>   0.0000 
 24 C        7.9050     5.3720     1.1410 C.ar  1 <1>  -0.1500 
 25 C        8.6880     5.5990    -1.5440 C.ar  1 <1>  -0.1500 
 26 C        8.3520     6.5790     0.6400 C.ar  1 <1>  -0.1500 
 27 C        8.7410     6.6900    -0.6980 C.ar  1 <1>  -0.1500 
 28 H        1.8950    -2.8910    -1.4200 H     1 <1>   0.0800 
 29 H        3.0970     2.2000    -0.1990 H     1 <1>   0.0800 
 30 H        2.8050     1.4840    -1.7450 H     1 <1>   0.0800 
 31 H        2.4020    -0.6330     1.7540 H     1 <1>   0.0800 
 32 H        2.5800     1.0830     1.6430 H     1 <1>   0.0800 
 33 H        0.5090    -2.3410     0.9810 H     1 <1>   0.4500 
 34 H        3.1850    -2.6030     1.2510 H     1 <1>   0.0800 
 35 H        3.5990    -3.5860    -0.0930 H     1 <1>   0.0800 
 36 H        5.1590     2.4850    -1.1800 H     1 <1>   0.0800 
 37 H        5.0090     1.0520    -2.1520 H     1 <1>   0.0800 
 38 H        4.8160    -0.9650     1.7260 H     1 <1>   0.0800 
 39 H        4.4220     0.2250     2.9040 H     1 <1>   0.0800 
 40 H       -0.0600    -3.2800    -1.7180 H     1 <1>   0.0800 
 41 H       -1.3710    -2.8200    -0.6690 H     1 <1>   0.0800 
 42 H       -0.0150    -0.5610    -1.3470 H     1 <1>   0.0800 
 43 H        0.5080    -0.0270     0.2370 H     1 <1>   0.0800 
 44 H       -1.0740    -0.7410     0.0360 H     1 <1>   0.0800 
 45 H        1.4710    -4.0580     1.9710 H     1 <1>   0.0800 
 46 H        2.7770    -5.0700     1.4770 H     1 <1>   0.0800 
 47 H        5.4840    -0.3080    -0.3260 H     1 <1>   0.4500 
 48 H        6.3770     0.9600     1.7950 H     1 <1>   0.0800 
 49 H        5.1000     2.0370     1.3140 H     1 <1>   0.0800 
 50 H       -0.9120    -5.1880    -0.5180 H     1 <1>   0.0800 
 51 H       -0.7280    -4.4120     1.0080 H     1 <1>   0.0800 
 52 H        0.9750    -6.1390     0.5450 H     1 <1>   0.0800 
 53 H        1.5670    -5.2570    -0.8190 H     1 <1>   0.0800 
 54 H        7.3790     0.4270    -1.5020 H     1 <1>   0.0800 
 55 H        7.7900     0.3410     0.1900 H     1 <1>   0.0800 
 56 H        8.2640     2.8220    -2.5910 H     1 <1>   0.1500 
 57 H        7.6050     5.2660     2.1670 H     1 <1>   0.1500 
 58 H        8.9880     5.6800    -2.5730 H     1 <1>   0.1500 
 59 H        8.4060     7.4450     1.2780 H     1 <1>   0.1500 
 60 H        9.0870     7.6410    -1.0670 H     1 <1>   0.1500 
@<TRIPOS>BOND
  1   1   2  2   
  2   2   3  am  
  3   2   4  1   
  4   3   5  1   
  5   3   6  1   
  6   4   7  1   
  7   4   8  1   
  8   4  28  1   
  9   5   9  1   
 10   5  29  1   
 11   5  30  1   
 12   6  10  1   
 13   6  31  1   
 14   6  32  1   
 15   7  11  1   
 16   7  12  1   
 17   7  33  1   
 18   8  13  1   
 19   8  34  1   
 20   8  35  1   
 21   9  14  1   
 22   9  36  1   
 23   9  37  1   
 24  10  15  1   
 25  10  38  1   
 26  10  39  1   
 27  11  16  1   
 28  11  40  1   
 29  11  41  1   
 30  12  42  1   
 31  12  43  1   
 32  12  44  1   
 33  13  17  1   
 34  13  45  1   
 35  13  46  1   
 36  14  15  1   
 37  14  18  1   
 38  14  47  1   
 39  15  48  1   
 40  15  49  1   
 41  16  17  1   
 42  16  50  1   
 43  16  51  1   
 44  17  52  1   
 45  17  53  1   
 46  18  19  1   
 47  18  54  1   
 48  18  55  1   
 49  19  20  1   
 50  19  21  2   
 51  20  22  1   
 52  21  23  1   
 53  21  56  1   
 54  22  23  ar  
 55  22  24  ar  
 56  23  25  ar  
 57  24  26  ar  
 58  24  57  1   
 59  25  27  ar  
 60  25  58  1   
 61  26  27  ar  
 62  26  59  1   
 63  27  60  1   
@<TRIPOS>SUBSTRUCTURE
  1 ****  14 GROUP 4 **** **** 0

# MOE 2024.06 (io_trps.svl 2023.06)
