@<TRIPOS>MOLECULE
NONAME
37 38 1 0 0 
SMALL
USER_CHARGES


@<TRIPOS>ATOM
  1 N        0.0290     0.1160     0.1530 N.ar  1 <1>  -0.6200 
  2 C       -1.1700     0.6610     0.1560 C.ar  1 <1>   0.4100 
  3 C        1.0300     0.9240    -0.1220 C.ar  1 <1>   0.4760 
  4 N       -2.2240    -0.1660     0.4390 N.pl3 1 <1>  -0.8690 
  5 C       -1.3580     2.0120    -0.1140 C.ar  1 <1>  -0.1430 
  6 N        0.9800     2.2120    -0.3990 N.ar  1 <1>  -0.6200 
  7 C        2.4080     0.3070    -0.1270 C.3   1 <1>  -0.0970 
  8 C       -2.1130    -1.6330     0.4480 C.3   1 <1>   0.3900 
  9 C       -0.2270     2.7410    -0.3890 C.ar  1 <1>   0.1600 
 10 C       -2.7690     2.6110    -0.0930 C.3   1 <1>  -0.0160 
 11 C       -3.5170    -2.1960     0.4700 C.2   1 <1>  -0.1810 
 12 C       -2.8450     4.1250    -0.3430 C.3   1 <1>  -0.1600 
 13 C       -4.4070    -2.1080     1.5330 C.2   1 <1>   0.1390 
 14 C       -4.1950    -2.8690    -0.4850 C.2   1 <1>  -0.3020 
 15 C       -4.2920     4.6270    -0.2820 C.3   1 <1>  -0.2400 
 16 N       -5.5450    -2.6740     1.2680 N.2   1 <1>  -0.7070 
 17 N       -5.4130    -3.1480     0.0190 N.pl3 1 <1>   0.3140 
 18 C       -6.5040    -3.8660    -0.6470 C.3   1 <1>   0.0160 
 19 H       -3.1620     0.1490     0.1940 H     1 <1>   0.4000 
 20 H        2.3810    -0.6770     0.3030 H     1 <1>   0.0800 
 21 H        3.0790     0.9200     0.4450 H     1 <1>   0.0800 
 22 H        2.7630     0.2410    -1.1370 H     1 <1>   0.0800 
 23 H       -1.5640    -1.9500     1.3190 H     1 <1>   0.0800 
 24 H       -1.5920    -1.9650    -0.4340 H     1 <1>   0.0800 
 25 H       -0.2850     3.7910    -0.6110 H     1 <1>   0.1500 
 26 H       -3.2080     2.4020     0.8670 H     1 <1>   0.0800 
 27 H       -3.3610     2.1100    -0.8400 H     1 <1>   0.0800 
 28 H       -2.4390     4.3530    -1.3140 H     1 <1>   0.0800 
 29 H       -2.2650     4.6430     0.4020 H     1 <1>   0.0800 
 30 H       -4.1880    -1.6230     2.4700 H     1 <1>   0.1500 
 31 H       -3.8870    -3.1570    -1.4730 H     1 <1>   0.1500 
 32 H       -4.8930     4.1410    -1.0310 H     1 <1>   0.0800 
 33 H       -4.3200     5.6880    -0.4590 H     1 <1>   0.0800 
 34 H       -4.7190     4.4320     0.6860 H     1 <1>   0.0800 
 35 H       -6.1310    -4.3580    -1.5250 H     1 <1>   0.0800 
 36 H       -7.2680    -3.1610    -0.9170 H     1 <1>   0.0800 
 37 H       -6.9080    -4.5910     0.0340 H     1 <1>   0.0800 
@<TRIPOS>BOND
  1   1   2  ar  
  2   1   3  ar  
  3   2   4  1   
  4   2   5  ar  
  5   3   6  ar  
  6   3   7  1   
  7   4   8  1   
  8   4  19  1   
  9   5   9  ar  
 10   5  10  1   
 11   6   9  ar  
 12   7  20  1   
 13   7  21  1   
 14   7  22  1   
 15   8  11  1   
 16   8  23  1   
 17   8  24  1   
 18   9  25  1   
 19  10  12  1   
 20  10  26  1   
 21  10  27  1   
 22  11  13  1   
 23  11  14  2   
 24  12  15  1   
 25  12  28  1   
 26  12  29  1   
 27  13  16  2   
 28  13  30  1   
 29  14  17  1   
 30  14  31  1   
 31  15  32  1   
 32  15  33  1   
 33  15  34  1   
 34  16  17  1   
 35  17  18  1   
 36  18  35  1   
 37  18  36  1   
 38  18  37  1   
@<TRIPOS>SUBSTRUCTURE
  1 ****   4 GROUP 4 **** **** 0

# MOE 2024.06 (io_trps.svl 2023.06)
