@<TRIPOS>MOLECULE
NONAME
52 55 1 0 0 
SMALL
USER_CHARGES


@<TRIPOS>ATOM
  1 N       -0.8540    -1.5410    -1.8250 N.ar  1 <1>  -0.6200 
  2 C        0.0030    -1.6480    -0.8560 C.ar  1 <1>   0.1600 
  3 C       -1.6590    -2.5930    -2.0290 C.ar  1 <1>   0.1600 
  4 C        0.1580    -2.7790    -0.0240 C.ar  1 <1>   0.0000 
  5 C       -1.6030    -3.7470    -1.3010 C.ar  1 <1>  -0.1500 
  6 C       -0.6590    -3.8990    -0.2610 C.ar  1 <1>   0.0000 
  7 C        1.0910    -2.8240     1.0300 C.ar  1 <1>  -0.1500 
  8 C       -0.4850    -5.0540     0.5390 C.ar  1 <1>  -0.1430 
  9 C        1.2210    -3.9370     1.8120 C.ar  1 <1>  -0.1500 
 10 C        0.4280    -5.0600     1.5630 C.ar  1 <1>  -0.1500 
 11 C       -1.2970    -6.3040     0.2650 C.3   1 <1>   0.4860 
 12 N       -0.7490    -6.9760    -0.9480 N.4   1 <1>  -0.9590 
 13 C       -1.6490    -8.0460    -1.4640 C.3   1 <1>   0.5230 
 14 C        0.6250    -7.5070    -0.6750 C.3   1 <1>   0.2630 
 15 C       -2.0140    -8.9890    -0.3390 C.2   1 <1>  -0.3320 
 16 N       -3.1740    -8.9760     0.3650 N.pl3 1 <1>   0.0480 
 17 C       -1.2780   -10.0110     0.1530 C.2   1 <1>   0.0770 
 18 C       -3.0340    -9.9870     1.2540 C.2   1 <1>   0.0360 
 19 C       -4.3800    -8.1180     0.2000 C.3   1 <1>   0.1760 
 20 N       -1.9120   -10.6190     1.1630 N.2   1 <1>  -0.5650 
 21 C       -4.7070    -7.3730     1.5060 C.3   1 <1>  -0.1600 
 22 C       -5.5780    -8.9580    -0.2720 C.3   1 <1>  -0.1600 
 23 C       -5.9540    -6.4930     1.3360 C.3   1 <1>  -0.1600 
 24 C       -6.8300    -8.0840    -0.4400 C.3   1 <1>  -0.1600 
 25 C       -7.1520    -7.3210     0.8520 C.3   1 <1>  -0.1600 
 26 H        0.6500    -0.8080    -0.6690 H     1 <1>   0.1500 
 27 H       -2.3810    -2.4790    -2.8220 H     1 <1>   0.1500 
 28 H       -2.2970    -4.5300    -1.5270 H     1 <1>   0.1500 
 29 H        1.7040    -1.9580     1.2140 H     1 <1>   0.1500 
 30 H        1.9320    -3.9590     2.6220 H     1 <1>   0.1500 
 31 H        0.5650    -5.9200     2.1990 H     1 <1>   0.1500 
 32 H       -2.3280    -6.0310     0.1130 H     1 <1>   0.0800 
 33 H       -1.2450    -6.9710     1.1110 H     1 <1>   0.0800 
 34 H       -0.6500    -6.2480    -1.6670 H     1 <1>   0.4500 
 35 H       -1.1480    -8.5970    -2.2440 H     1 <1>   0.0800 
 36 H       -2.5430    -7.6160    -1.8840 H     1 <1>   0.0800 
 37 H        0.6000    -8.2160     0.1370 H     1 <1>   0.0800 
 38 H        1.2900    -6.7020    -0.4040 H     1 <1>   0.0800 
 39 H        1.0220    -7.9960    -1.5490 H     1 <1>   0.0800 
 40 H       -0.3070   -10.3610    -0.1600 H     1 <1>   0.1500 
 41 H       -3.8040   -10.2370     1.9650 H     1 <1>   0.1500 
 42 H       -4.1750    -7.3860    -0.5580 H     1 <1>   0.0800 
 43 H       -3.8790    -6.7560     1.8050 H     1 <1>   0.0800 
 44 H       -4.8980    -8.0830     2.2930 H     1 <1>   0.0800 
 45 H       -5.7920    -9.7290     0.4490 H     1 <1>   0.0800 
 46 H       -5.3480    -9.4300    -1.2120 H     1 <1>   0.0800 
 47 H       -5.7550    -5.7070     0.6280 H     1 <1>   0.0800 
 48 H       -6.2000    -6.0300     2.2780 H     1 <1>   0.0800 
 49 H       -7.6690    -8.7040    -0.7070 H     1 <1>   0.0800 
 50 H       -6.6780    -7.3800    -1.2420 H     1 <1>   0.0800 
 51 H       -7.9950    -6.6710     0.6850 H     1 <1>   0.0800 
 52 H       -7.4330    -8.0230     1.6180 H     1 <1>   0.0800 
@<TRIPOS>BOND
  1   1   2  ar  
  2   1   3  ar  
  3   2   4  ar  
  4   2  26  1   
  5   3   5  ar  
  6   3  27  1   
  7   4   6  ar  
  8   4   7  ar  
  9   5   6  ar  
 10   5  28  1   
 11   6   8  ar  
 12   7   9  ar  
 13   7  29  1   
 14   8  10  ar  
 15   8  11  1   
 16   9  10  ar  
 17   9  30  1   
 18  10  31  1   
 19  11  12  1   
 20  11  32  1   
 21  11  33  1   
 22  12  13  1   
 23  12  14  1   
 24  12  34  1   
 25  13  15  1   
 26  13  35  1   
 27  13  36  1   
 28  14  37  1   
 29  14  38  1   
 30  14  39  1   
 31  15  16  1   
 32  15  17  2   
 33  16  18  1   
 34  16  19  1   
 35  17  20  1   
 36  17  40  1   
 37  18  20  2   
 38  18  41  1   
 39  19  21  1   
 40  19  22  1   
 41  19  42  1   
 42  21  23  1   
 43  21  43  1   
 44  21  44  1   
 45  22  24  1   
 46  22  45  1   
 47  22  46  1   
 48  23  25  1   
 49  23  47  1   
 50  23  48  1   
 51  24  25  1   
 52  24  49  1   
 53  24  50  1   
 54  25  51  1   
 55  25  52  1   
@<TRIPOS>SUBSTRUCTURE
  1 ****  11 GROUP 4 **** **** 0

# MOE 2024.06 (io_trps.svl 2023.06)
