@<TRIPOS>MOLECULE
NONAME
46 48 1 0 0 
SMALL
USER_CHARGES


@<TRIPOS>ATOM
  1 O        1.9160    -0.6000    -2.5860 O.2   1 <1>  -0.5700 
  2 C        1.8200    -1.0560    -1.4600 C.2   1 <1>   0.5440 
  3 N        2.0670    -0.2450    -0.3710 N.am  1 <1>  -0.6600 
  4 C        1.4750    -2.4460    -1.2900 C.ar  1 <1>   0.0860 
  5 C        2.2990     1.2310    -0.4990 C.3   1 <1>   0.2200 
  6 C        2.3040    -0.8100     0.9970 C.3   1 <1>   0.1400 
  7 C        0.2660    -2.8490    -0.6560 C.ar  1 <1>   0.0000 
  8 C        2.3450    -3.4170    -1.7400 C.ar  1 <1>  -0.1500 
  9 C        3.6370     1.6520     0.1840 C.3   1 <1>   0.1200 
 10 C        1.0550     1.9430     0.0480 C.3   1 <1>  -0.2660 
 11 C        3.1360     0.1240     1.8940 C.3   1 <1>   0.1200 
 12 C        0.0140    -4.2270    -0.4410 C.ar  1 <1>   0.0000 
 13 C       -0.7160    -1.9200    -0.2380 C.ar  1 <1>  -0.1500 
 14 C        2.0970    -4.7660    -1.5370 C.ar  1 <1>  -0.1500 
 15 O        4.1290     0.7360     1.1380 O.3   1 <1>  -0.5600 
 16 C        1.2470     3.4300     0.0960 C.2   1 <1>   0.9060 
 17 C        0.9650    -5.1930    -0.8790 C.ar  1 <1>   0.1000 
 18 C       -1.1970    -4.5950     0.1850 C.ar  1 <1>  -0.1500 
 19 C       -1.8730    -2.3120     0.3750 C.ar  1 <1>  -0.1500 
 20 O        1.7150     4.0040    -0.8900 O.co2 1 <1>  -0.9000 
 21 O        0.9630     4.0170     1.1420 O.co2 1 <1>  -0.9000 
 22 N        0.7830    -6.5490    -0.6490 N.pl3 1 <1>  -0.8380 
 23 C       -2.1180    -3.6690     0.5910 C.ar  1 <1>  -0.1500 
 24 C        0.8560    -7.5240    -1.7680 C.3   1 <1>   0.1290 
 25 C        1.0010    -7.0950     0.7140 C.3   1 <1>   0.1290 
 26 H        2.3790     1.5070    -1.5380 H     1 <1>   0.0800 
 27 H        2.8310    -1.7430     0.9060 H     1 <1>   0.0800 
 28 H        1.3600    -1.0060     1.4730 H     1 <1>   0.0800 
 29 H        3.2440    -3.1180    -2.2510 H     1 <1>   0.1500 
 30 H        3.5460     2.6110     0.6630 H     1 <1>   0.0800 
 31 H        4.3920     1.7490    -0.5750 H     1 <1>   0.0800 
 32 H        0.8170     1.6100     1.0370 H     1 <1>   0.0800 
 33 H        0.2220     1.7480    -0.5970 H     1 <1>   0.0800 
 34 H        3.6100    -0.4360     2.6790 H     1 <1>   0.0800 
 35 H        2.5230     0.8890     2.3410 H     1 <1>   0.0800 
 36 H       -0.5510    -0.8700    -0.4100 H     1 <1>   0.1500 
 37 H        2.8090    -5.4890    -1.8870 H     1 <1>   0.1500 
 38 H       -1.3950    -5.6400     0.3350 H     1 <1>   0.1500 
 39 H       -2.6040    -1.5870     0.6880 H     1 <1>   0.1500 
 40 H       -3.0330    -3.9710     1.0680 H     1 <1>   0.1500 
 41 H        0.7220    -7.0150    -2.7070 H     1 <1>   0.0800 
 42 H        0.0760    -8.2580    -1.6600 H     1 <1>   0.0800 
 43 H        1.8120    -8.0160    -1.7660 H     1 <1>   0.0800 
 44 H        1.0330    -6.2930     1.4310 H     1 <1>   0.0800 
 45 H        1.9340    -7.6300     0.7500 H     1 <1>   0.0800 
 46 H        0.1970    -7.7620     0.9720 H     1 <1>   0.0800 
@<TRIPOS>BOND
  1   1   2  2   
  2   2   3  am  
  3   2   4  1   
  4   3   5  1   
  5   3   6  1   
  6   4   7  ar  
  7   4   8  ar  
  8   5   9  1   
  9   5  10  1   
 10   5  26  1   
 11   6  11  1   
 12   6  27  1   
 13   6  28  1   
 14   7  12  ar  
 15   7  13  ar  
 16   8  14  ar  
 17   8  29  1   
 18   9  15  1   
 19   9  30  1   
 20   9  31  1   
 21  10  16  1   
 22  10  32  1   
 23  10  33  1   
 24  11  15  1   
 25  11  34  1   
 26  11  35  1   
 27  12  17  ar  
 28  12  18  ar  
 29  13  19  ar  
 30  13  36  1   
 31  14  17  ar  
 32  14  37  1   
 33  16  20  ar  
 34  16  21  ar  
 35  17  22  1   
 36  18  23  ar  
 37  18  38  1   
 38  19  23  ar  
 39  19  39  1   
 40  22  24  1   
 41  22  25  1   
 42  23  40  1   
 43  24  41  1   
 44  24  42  1   
 45  24  43  1   
 46  25  44  1   
 47  25  45  1   
 48  25  46  1   
@<TRIPOS>SUBSTRUCTURE
  1 ****   4 GROUP 4 **** **** 0

# MOE 2024.06 (io_trps.svl 2023.06)
