@<TRIPOS>MOLECULE
NONAME
52 56 1 0 0 
SMALL
USER_CHARGES


@<TRIPOS>ATOM
  1 S       -0.7530     0.1490     0.9270 S.3   1 <1>  -0.0800 
  2 C       -0.4110    -1.5880     0.7400 C.ar  1 <1>   0.0400 
  3 C        0.9110     0.5200     1.3400 C.2   1 <1>  -0.1100 
  4 C       -1.2480    -2.6680     0.3860 C.ar  1 <1>   0.4100 
  5 C        0.9270    -1.7760     0.9800 C.ar  1 <1>   0.3070 
  6 C        1.6610    -0.5950     1.3240 C.2   1 <1>  -0.1500 
  7 N       -0.6680    -3.8820     0.2610 N.ar  1 <1>  -0.6200 
  8 N       -2.5930    -2.6450     0.1560 N.pl3 1 <1>  -0.8380 
  9 N        1.4190    -3.0290     0.8570 N.ar  1 <1>  -0.1250 
 10 C        0.6020    -4.0350     0.4940 C.ar  1 <1>   0.5280 
 11 C       -3.5600    -1.5480     0.5130 C.3   1 <1>   0.2090 
 12 C       -3.3040    -3.8570    -0.3990 C.3   1 <1>   0.2090 
 13 C        1.1890    -5.4250     0.3490 C.3   1 <1>  -0.0970 
 14 C       -4.3260    -1.0320    -0.7290 C.3   1 <1>   0.1430 
 15 C       -4.7080    -3.5440    -0.9510 C.3   1 <1>  -0.1600 
 16 C       -5.5230    -0.2470    -0.2190 C.ar  1 <1>   0.1670 
 17 C       -4.7310    -2.1910    -1.6760 C.3   1 <1>  -0.1600 
 18 C       -3.5340     0.0580    -1.4980 C.3   1 <1>  -0.1600 
 19 N       -6.6100    -0.7670     0.2960 N.ar  1 <1>  -0.6200 
 20 C       -5.3300     1.0960    -0.3380 C.ar  1 <1>  -0.1430 
 21 C       -3.9890     1.4200    -0.9450 C.3   1 <1>  -0.0170 
 22 C       -7.5350     0.1120     0.6870 C.ar  1 <1>   0.7200 
 23 C       -6.3340     1.9250     0.0930 C.ar  1 <1>   0.1600 
 24 N       -7.4410     1.4440     0.6070 N.ar  1 <1>  -0.6200 
 25 N       -8.6980    -0.4030     1.2280 N.pl3 1 <1>  -0.8380 
 26 C       -9.0550    -1.8430     1.1040 C.3   1 <1>   0.1290 
 27 C       -9.6800     0.4500     1.9520 C.3   1 <1>   0.1290 
 28 H        1.1490     1.5500     1.5540 H     1 <1>   0.1500 
 29 H        2.7140    -0.6200     1.5450 H     1 <1>   0.1500 
 30 H        2.4070    -3.2100     1.0290 H     1 <1>   0.4570 
 31 H       -3.1020    -0.7370     1.0330 H     1 <1>   0.0800 
 32 H       -4.2780    -1.9610     1.2030 H     1 <1>   0.0800 
 33 H       -3.3800    -4.6100     0.3670 H     1 <1>   0.0800 
 34 H       -2.7150    -4.2620    -1.2050 H     1 <1>   0.0800 
 35 H        0.4200    -6.1200     0.0590 H     1 <1>   0.0800 
 36 H        1.6050    -5.7580     1.2820 H     1 <1>   0.0800 
 37 H        1.9510    -5.4350    -0.4090 H     1 <1>   0.0800 
 38 H       -5.4190    -3.5340    -0.1430 H     1 <1>   0.0800 
 39 H       -5.0040    -4.3280    -1.6250 H     1 <1>   0.0800 
 40 H       -4.0360    -2.2520    -2.4940 H     1 <1>   0.0800 
 41 H       -5.7080    -2.0080    -2.0890 H     1 <1>   0.0800 
 42 H       -3.8080     0.0270    -2.5390 H     1 <1>   0.0800 
 43 H       -2.4720    -0.0830    -1.4280 H     1 <1>   0.0800 
 44 H       -4.0700     2.1570    -1.7250 H     1 <1>   0.0800 
 45 H       -3.3180     1.7670    -0.1780 H     1 <1>   0.0800 
 46 H       -6.2290     2.9930     0.0170 H     1 <1>   0.1500 
 47 H       -8.6430    -2.2580     0.2000 H     1 <1>   0.0800 
 48 H      -10.1240    -1.9590     1.0730 H     1 <1>   0.0800 
 49 H       -8.6610    -2.3840     1.9470 H     1 <1>   0.0800 
 50 H       -9.1840     1.2810     2.4230 H     1 <1>   0.0800 
 51 H      -10.1760    -0.1230     2.7150 H     1 <1>   0.0800 
 52 H      -10.4090     0.8260     1.2570 H     1 <1>   0.0800 
@<TRIPOS>BOND
  1   1   2  1   
  2   1   3  1   
  3   2   4  ar  
  4   2   5  ar  
  5   3   6  2   
  6   3  28  1   
  7   4   7  ar  
  8   4   8  1   
  9   5   6  1   
 10   5   9  ar  
 11   6  29  1   
 12   7  10  ar  
 13   8  11  1   
 14   8  12  1   
 15   9  10  ar  
 16   9  30  1   
 17  10  13  1   
 18  11  14  1   
 19  11  31  1   
 20  11  32  1   
 21  12  15  1   
 22  12  33  1   
 23  12  34  1   
 24  13  35  1   
 25  13  36  1   
 26  13  37  1   
 27  14  16  1   
 28  14  17  1   
 29  14  18  1   
 30  15  17  1   
 31  15  38  1   
 32  15  39  1   
 33  16  19  ar  
 34  16  20  ar  
 35  17  40  1   
 36  17  41  1   
 37  18  21  1   
 38  18  42  1   
 39  18  43  1   
 40  19  22  ar  
 41  20  21  1   
 42  20  23  ar  
 43  21  44  1   
 44  21  45  1   
 45  22  24  ar  
 46  22  25  1   
 47  23  24  ar  
 48  23  46  1   
 49  25  26  1   
 50  25  27  1   
 51  26  47  1   
 52  26  48  1   
 53  26  49  1   
 54  27  50  1   
 55  27  51  1   
 56  27  52  1   
@<TRIPOS>SUBSTRUCTURE
  1 ****  11 GROUP 4 **** **** 0

# MOE 2024.06 (io_trps.svl 2023.06)
