@<TRIPOS>MOLECULE
NONAME
52 55 1 0 0 
SMALL
USER_CHARGES


@<TRIPOS>ATOM
  1 O        2.1730    -0.2610    -1.5470 O.2   1 <1>  -0.5700 
  2 C        1.7100    -1.3590    -1.3020 C.2   1 <1>   0.5440 
  3 N        2.5600    -2.3680    -0.8960 N.am  1 <1>  -0.6600 
  4 C        0.2850    -1.5720    -1.4610 C.ar  1 <1>   0.0860 
  5 C        2.2510    -3.8210    -1.0220 C.3   1 <1>   0.1400 
  6 C        3.9260    -2.0790    -0.3820 C.3   1 <1>   0.1400 
  7 C       -0.4860    -2.2190    -0.5160 C.ar  1 <1>  -0.1500 
  8 C       -0.4100    -1.1320    -2.5790 C.ar  1 <1>  -0.1500 
  9 C        2.4140    -4.5060     0.3400 C.3   1 <1>  -0.1600 
 10 C        4.1100    -2.7490     0.9850 C.3   1 <1>  -0.1600 
 11 C       -1.8390    -2.4480    -0.7180 C.ar  1 <1>   0.4100 
 12 C       -1.7630    -1.3810    -2.6930 C.ar  1 <1>   0.1600 
 13 C        3.8100    -4.2550     0.9290 C.3   1 <1>  -0.1600 
 14 N       -2.4870    -2.0310    -1.8000 N.ar  1 <1>  -0.6200 
 15 N       -2.5330    -3.1580     0.2420 N.pl3 1 <1>  -0.8380 
 16 C       -2.0540    -4.5330     0.5850 C.3   1 <1>   0.2090 
 17 C       -4.0130    -3.1650     0.3190 C.3   1 <1>   0.2090 
 18 C       -3.2880    -5.4160     0.8320 C.3   1 <1>   0.0370 
 19 C       -4.3800    -4.6190     0.0860 C.3   1 <1>  -0.1600 
 20 C       -3.0700    -6.8420     0.2660 C.ar  1 <1>  -0.1430 
 21 C       -3.5250    -5.4570     2.3570 C.2   1 <1>   0.9060 
 22 C       -1.9230    -7.5410     0.6220 C.ar  1 <1>  -0.1500 
 23 C       -3.9810    -7.4690    -0.5780 C.ar  1 <1>  -0.1500 
 24 O       -4.6460    -5.1910     2.8190 O.co2 1 <1>  -0.9000 
 25 O       -2.5810    -5.7460     3.1110 O.co2 1 <1>  -0.9000 
 26 C       -1.6730    -8.8090     0.1290 C.ar  1 <1>  -0.1500 
 27 C       -3.7360    -8.7370    -1.0760 C.ar  1 <1>  -0.1500 
 28 C       -2.5780    -9.4080    -0.7270 C.ar  1 <1>  -0.1500 
 29 H        2.9380    -4.2580    -1.7270 H     1 <1>   0.0800 
 30 H        1.2560    -3.9790    -1.3970 H     1 <1>   0.0800 
 31 H        4.0770    -1.0170    -0.2830 H     1 <1>   0.0800 
 32 H        4.6520    -2.4560    -1.0820 H     1 <1>   0.0800 
 33 H       -0.0420    -2.5560     0.4000 H     1 <1>   0.1500 
 34 H        0.1140    -0.5960    -3.3480 H     1 <1>   0.1500 
 35 H        2.2530    -5.5630     0.2280 H     1 <1>   0.0800 
 36 H        1.6640    -4.1330     1.0150 H     1 <1>   0.0800 
 37 H        3.4500    -2.2750     1.6910 H     1 <1>   0.0800 
 38 H        5.1180    -2.5930     1.3230 H     1 <1>   0.0800 
 39 H       -2.2810    -1.0290    -3.5680 H     1 <1>   0.1500 
 40 H        4.5490    -4.7430     0.3170 H     1 <1>   0.0800 
 41 H        3.8660    -4.6740     1.9190 H     1 <1>   0.0800 
 42 H       -1.4060    -4.4950     1.4440 H     1 <1>   0.0800 
 43 H       -1.4970    -4.9240    -0.2480 H     1 <1>   0.0800 
 44 H       -4.4720    -2.5170    -0.4060 H     1 <1>   0.0800 
 45 H       -4.3140    -2.8630     1.3090 H     1 <1>   0.0800 
 46 H       -4.3250    -4.7970    -0.9720 H     1 <1>   0.0800 
 47 H       -5.3710    -4.8420     0.4380 H     1 <1>   0.0800 
 48 H       -1.2220    -7.0960     1.3090 H     1 <1>   0.1500 
 49 H       -4.8990    -6.9840    -0.8530 H     1 <1>   0.1500 
 50 H       -0.7780    -9.3280     0.4210 H     1 <1>   0.1500 
 51 H       -4.4510    -9.2020    -1.7300 H     1 <1>   0.1500 
 52 H       -2.3870   -10.3940    -1.1130 H     1 <1>   0.1500 
@<TRIPOS>BOND
  1   1   2  2   
  2   2   3  am  
  3   2   4  1   
  4   3   5  1   
  5   3   6  1   
  6   4   7  ar  
  7   4   8  ar  
  8   5   9  1   
  9   5  29  1   
 10   5  30  1   
 11   6  10  1   
 12   6  31  1   
 13   6  32  1   
 14   7  11  ar  
 15   7  33  1   
 16   8  12  ar  
 17   8  34  1   
 18   9  13  1   
 19   9  35  1   
 20   9  36  1   
 21  10  13  1   
 22  10  37  1   
 23  10  38  1   
 24  11  14  ar  
 25  11  15  1   
 26  12  14  ar  
 27  12  39  1   
 28  13  40  1   
 29  13  41  1   
 30  15  16  1   
 31  15  17  1   
 32  16  18  1   
 33  16  42  1   
 34  16  43  1   
 35  17  19  1   
 36  17  44  1   
 37  17  45  1   
 38  18  19  1   
 39  18  20  1   
 40  18  21  1   
 41  19  46  1   
 42  19  47  1   
 43  20  22  ar  
 44  20  23  ar  
 45  21  24  ar  
 46  21  25  ar  
 47  22  26  ar  
 48  22  48  1   
 49  23  27  ar  
 50  23  49  1   
 51  26  28  ar  
 52  26  50  1   
 53  27  28  ar  
 54  27  51  1   
 55  28  52  1   
@<TRIPOS>SUBSTRUCTURE
  1 ****  16 GROUP 4 **** **** 0

# MOE 2024.06 (io_trps.svl 2023.06)
