@<TRIPOS>MOLECULE
NONAME
50 52 1 0 0 
SMALL
USER_CHARGES


@<TRIPOS>ATOM
  1 S        0.8760    -1.1150     2.8160 S.o2  1 <1>   1.4470 
  2 O        0.4410    -0.3180     3.9370 O.2   1 <1>  -0.6500 
  3 O        1.8540    -2.1640     3.0040 O.2   1 <1>  -0.6500 
  4 N       -0.5160    -1.8670     2.2670 N.am  1 <1>  -0.9140 
  5 C        1.3080    -0.0650     1.4040 C.ar  1 <1>  -0.0090 
  6 C       -0.2800    -2.9980     1.3790 C.3   1 <1>   0.2760 
  7 C        2.4710    -0.2750     0.6730 C.ar  1 <1>  -0.1500 
  8 C        0.4630     0.9600     0.9980 C.ar  1 <1>  -0.1500 
  9 C       -1.5120    -3.2470     0.5210 C.3   1 <1>  -0.0800 
 10 C       -0.2440    -4.2950     2.1830 C.3   1 <1>   0.1200 
 11 C        2.7870     0.4960    -0.4350 C.ar  1 <1>  -0.1430 
 12 C        0.7610     1.7430    -0.1010 C.ar  1 <1>  -0.1500 
 13 C       -2.4010    -4.0980     1.4350 C.3   1 <1>   0.1200 
 14 C       -2.1970    -1.9860    -0.0400 C.3   1 <1>  -0.0170 
 15 O       -1.5800    -4.5830     2.4590 O.3   1 <1>  -0.5600 
 16 C        1.9250     1.5160    -0.8290 C.ar  1 <1>   0.0830 
 17 C        4.0810     0.2080    -1.1890 C.3   1 <1>  -0.0170 
 18 C       -3.3340    -2.3570    -0.9760 C.ar  1 <1>  -0.1430 
 19 O        2.2630     2.2530    -1.9180 O.3   1 <1>  -0.3630 
 20 C        5.2210     1.0750    -0.6490 C.3   1 <1>  -0.2400 
 21 C       -3.1080    -2.6810    -2.2980 C.ar  1 <1>  -0.1500 
 22 C       -4.6480    -2.3910    -0.5540 C.ar  1 <1>  -0.1500 
 23 C        1.4990     3.3610    -2.3380 C.3   1 <1>   0.0400 
 24 C       -4.1770    -3.0180    -3.1110 C.ar  1 <1>   0.1600 
 25 C       -5.6440    -2.7420    -1.4490 C.ar  1 <1>   0.1600 
 26 N       -5.4390    -3.0590    -2.7170 N.ar  1 <1>  -0.6200 
 27 H       -0.9560    -2.2530     3.1040 H     1 <1>   0.4200 
 28 H        0.6030    -2.8530     0.7770 H     1 <1>   0.0800 
 29 H        3.1430    -1.0600     0.9790 H     1 <1>   0.1500 
 30 H       -0.4420     1.1430     1.5540 H     1 <1>   0.1500 
 31 H       -1.2170    -3.8670    -0.3080 H     1 <1>   0.0800 
 32 H        0.3090    -4.2160     3.1030 H     1 <1>   0.0800 
 33 H        0.1530    -5.1010     1.5900 H     1 <1>   0.0800 
 34 H        0.0750     2.5220    -0.3750 H     1 <1>   0.1500 
 35 H       -2.8360    -4.9310     0.9080 H     1 <1>   0.0800 
 36 H       -3.1780    -3.5110     1.8930 H     1 <1>   0.0800 
 37 H       -1.4750    -1.3940    -0.5760 H     1 <1>   0.0800 
 38 H       -2.5800    -1.3770     0.7610 H     1 <1>   0.0800 
 39 H        4.3430    -0.8300    -1.0840 H     1 <1>   0.0800 
 40 H        3.9490     0.4000    -2.2390 H     1 <1>   0.0800 
 41 H        5.3770     0.8780     0.3970 H     1 <1>   0.0800 
 42 H        4.9800     2.1160    -0.7720 H     1 <1>   0.0800 
 43 H        6.1310     0.8650    -1.1820 H     1 <1>   0.0800 
 44 H       -2.1140    -2.6740    -2.7040 H     1 <1>   0.1500 
 45 H       -4.9080    -2.1470     0.4600 H     1 <1>   0.1500 
 46 H        1.9860     3.7980    -3.1910 H     1 <1>   0.0800 
 47 H        1.4540     4.0780    -1.5370 H     1 <1>   0.0800 
 48 H        0.5150     3.0250    -2.6130 H     1 <1>   0.0800 
 49 H       -3.9850    -3.2680    -4.1410 H     1 <1>   0.1500 
 50 H       -6.6650    -2.7640    -1.1040 H     1 <1>   0.1500 
@<TRIPOS>BOND
  1   1   2  2   
  2   1   3  2   
  3   1   4  am  
  4   1   5  1   
  5   4   6  1   
  6   4  27  1   
  7   5   7  ar  
  8   5   8  ar  
  9   6   9  1   
 10   6  10  1   
 11   6  28  1   
 12   7  11  ar  
 13   7  29  1   
 14   8  12  ar  
 15   8  30  1   
 16   9  13  1   
 17   9  14  1   
 18   9  31  1   
 19  10  15  1   
 20  10  32  1   
 21  10  33  1   
 22  11  16  ar  
 23  11  17  1   
 24  12  16  ar  
 25  12  34  1   
 26  13  15  1   
 27  13  35  1   
 28  13  36  1   
 29  14  18  1   
 30  14  37  1   
 31  14  38  1   
 32  16  19  1   
 33  17  20  1   
 34  17  39  1   
 35  17  40  1   
 36  18  21  ar  
 37  18  22  ar  
 38  19  23  1   
 39  20  41  1   
 40  20  42  1   
 41  20  43  1   
 42  21  24  ar  
 43  21  44  1   
 44  22  25  ar  
 45  22  45  1   
 46  23  46  1   
 47  23  47  1   
 48  23  48  1   
 49  24  26  ar  
 50  24  49  1   
 51  25  26  ar  
 52  25  50  1   
@<TRIPOS>SUBSTRUCTURE
  1 ****  14 GROUP 4 **** **** 0

# MOE 2024.06 (io_trps.svl 2023.06)
