@<TRIPOS>MOLECULE
NONAME
51 53 1 0 0 
SMALL
USER_CHARGES


@<TRIPOS>ATOM
  1 O       -1.6960     0.4570    -1.9610 O.2   1 <1>  -0.5700 
  2 C       -1.7320     0.7220    -0.7740 C.2   1 <1>   0.5440 
  3 N       -1.8260    -0.3200     0.1050 N.am  1 <1>  -0.7300 
  4 C       -1.6880     2.0960    -0.3100 C.ar  1 <1>   0.0860 
  5 C       -1.8650    -1.7550    -0.2640 C.3   1 <1>   0.2200 
  6 C       -2.1070     2.4690     0.9720 C.ar  1 <1>  -0.1500 
  7 C       -1.2200     3.1180    -1.1390 C.ar  1 <1>  -0.1500 
  8 C       -3.2770    -2.3140    -0.1550 C.3   1 <1>  -0.0800 
  9 C       -1.1640    -2.5580     0.8230 C.3   1 <1>   0.1200 
 10 C       -2.0560     3.7820     1.3970 C.ar  1 <1>  -0.1500 
 11 C       -1.1670     4.4300    -0.7140 C.ar  1 <1>  -0.1500 
 12 C       -3.3960    -2.6630     1.3330 C.3   1 <1>   0.1200 
 13 C       -4.4020    -1.4080    -0.6870 C.3   1 <1>  -0.0160 
 14 O       -2.0970    -2.6620     1.8550 O.3   1 <1>  -0.5600 
 15 C       -1.5830     4.7890     0.5620 C.ar  1 <1>   0.1000 
 16 C       -5.7500    -2.1070    -0.5980 C.ar  1 <1>  -0.1430 
 17 N       -1.5300     6.1160     0.9670 N.pl3 1 <1>  -0.8380 
 18 C       -6.1500    -3.0320    -1.5410 C.ar  1 <1>  -0.1500 
 19 C       -6.6410    -1.8550     0.4260 C.ar  1 <1>  -0.1500 
 20 C       -2.3360     7.1270     0.2240 C.3   1 <1>   0.2090 
 21 C       -1.1690     6.4720     2.3660 C.3   1 <1>   0.1290 
 22 C       -7.3840    -3.6480    -1.4140 C.ar  1 <1>   0.1600 
 23 C       -7.8510    -2.5280     0.4610 C.ar  1 <1>   0.1600 
 24 C       -1.4130     8.1460    -0.4510 C.3   1 <1>   0.1200 
 25 N       -8.2430    -3.4210    -0.4340 N.ar  1 <1>  -0.6200 
 26 O       -2.1650     9.0320    -1.2150 O.3   1 <1>  -0.6800 
 27 H       -1.8220    -0.1550     1.1130 H     1 <1>   0.3700 
 28 H       -1.4270    -1.9120    -1.2350 H     1 <1>   0.0800 
 29 H       -2.4890     1.7260     1.6460 H     1 <1>   0.1500 
 30 H       -0.8910     2.8700    -2.1340 H     1 <1>   0.1500 
 31 H       -3.3050    -3.2390    -0.7040 H     1 <1>   0.0800 
 32 H       -0.2700    -2.0820     1.1850 H     1 <1>   0.0800 
 33 H       -0.9390    -3.5520     0.4780 H     1 <1>   0.0800 
 34 H       -2.3940     4.0380     2.3830 H     1 <1>   0.1500 
 35 H       -0.7930     5.1920    -1.3710 H     1 <1>   0.1500 
 36 H       -3.8330    -3.6360     1.4800 H     1 <1>   0.0800 
 37 H       -3.9620    -1.9240     1.8710 H     1 <1>   0.0800 
 38 H       -4.1990    -1.1520    -1.7140 H     1 <1>   0.0800 
 39 H       -4.4420    -0.4880    -0.1310 H     1 <1>   0.0800 
 40 H       -5.5150    -3.2770    -2.3720 H     1 <1>   0.1500 
 41 H       -6.4070    -1.1440     1.1970 H     1 <1>   0.1500 
 42 H       -2.9280     6.6270    -0.5220 H     1 <1>   0.0800 
 43 H       -2.9980     7.6330     0.9060 H     1 <1>   0.0800 
 44 H       -0.6090     7.3910     2.3770 H     1 <1>   0.0800 
 45 H       -0.5610     5.6960     2.7980 H     1 <1>   0.0800 
 46 H       -2.0610     6.5920     2.9570 H     1 <1>   0.0800 
 47 H       -7.6800    -4.3670    -2.1590 H     1 <1>   0.1500 
 48 H       -8.5330    -2.3200     1.2670 H     1 <1>   0.1500 
 49 H       -0.7100     7.6530    -1.0980 H     1 <1>   0.0800 
 50 H       -0.8830     8.7170     0.2900 H     1 <1>   0.0800 
 51 H       -2.5510     8.5800    -1.9900 H     1 <1>   0.4000 
@<TRIPOS>BOND
  1   1   2  2   
  2   2   3  am  
  3   2   4  1   
  4   3   5  1   
  5   3  27  1   
  6   4   6  ar  
  7   4   7  ar  
  8   5   8  1   
  9   5   9  1   
 10   5  28  1   
 11   6  10  ar  
 12   6  29  1   
 13   7  11  ar  
 14   7  30  1   
 15   8  12  1   
 16   8  13  1   
 17   8  31  1   
 18   9  14  1   
 19   9  32  1   
 20   9  33  1   
 21  10  15  ar  
 22  10  34  1   
 23  11  15  ar  
 24  11  35  1   
 25  12  14  1   
 26  12  36  1   
 27  12  37  1   
 28  13  16  1   
 29  13  38  1   
 30  13  39  1   
 31  15  17  1   
 32  16  18  ar  
 33  16  19  ar  
 34  17  20  1   
 35  17  21  1   
 36  18  22  ar  
 37  18  40  1   
 38  19  23  ar  
 39  19  41  1   
 40  20  24  1   
 41  20  42  1   
 42  20  43  1   
 43  21  44  1   
 44  21  45  1   
 45  21  46  1   
 46  22  25  ar  
 47  22  47  1   
 48  23  25  ar  
 49  23  48  1   
 50  24  26  1   
 51  24  49  1   
 52  24  50  1   
 53  26  51  1   
@<TRIPOS>SUBSTRUCTURE
  1 ****   2 GROUP 4 **** **** 0

# MOE 2024.06 (io_trps.svl 2023.06)
