@<TRIPOS>MOLECULE
NONAME
51 54 1 0 0 
SMALL
USER_CHARGES


@<TRIPOS>ATOM
  1 O        0.8000     0.0300    -1.3020 O.3   1 <1>  -0.0190 
  2 N        0.9380     1.2690    -0.9560 N.2   1 <1>  -0.4100 
  3 C        1.6110    -0.7550    -0.6530 C.2   1 <1>  -0.0400 
  4 C        1.8800     1.3140    -0.0630 C.2   1 <1>   0.2350 
  5 C        2.3460     0.0110     0.1660 C.2   1 <1>  -0.1500 
  6 C        1.5770    -2.2470    -0.9240 C.3   1 <1>   0.5230 
  7 C        2.3520     2.5240     0.5820 C.ar  1 <1>   0.0540 
  8 N        0.3090    -2.8400    -0.4050 N.4   1 <1>  -0.9590 
  9 C        1.6530     3.7260     0.4480 C.ar  1 <1>   0.1600 
 10 C        3.5050     2.5570     1.3580 C.ar  1 <1>  -0.1500 
 11 C        0.2950    -4.3350    -0.4520 C.3   1 <1>   0.3430 
 12 C       -0.9140    -2.3780    -1.1110 C.3   1 <1>   0.3430 
 13 N        1.9830     4.8850     0.9970 N.ar  1 <1>  -0.6200 
 14 C        3.8670     3.7540     1.9370 C.ar  1 <1>  -0.1500 
 15 C       -1.1020    -4.7630    -0.9200 C.3   1 <1>   0.0630 
 16 C       -1.9250    -3.4740    -0.8330 C.3   1 <1>  -0.1600 
 17 C        3.0820     4.8740     1.7300 C.ar  1 <1>   0.1600 
 18 C       -1.6100    -5.9810    -0.1380 C.ar  1 <1>  -0.1430 
 19 C       -0.8210    -7.1330    -0.0860 C.ar  1 <1>   0.0830 
 20 C       -2.8400    -5.9800     0.5100 C.ar  1 <1>  -0.1500 
 21 O        0.3430    -7.1210    -0.8010 O.3   1 <1>  -0.3630 
 22 C       -1.2280    -8.2410     0.6750 C.ar  1 <1>   0.0830 
 23 C       -3.2600    -7.0820     1.2300 C.ar  1 <1>  -0.1500 
 24 C        0.6630    -8.2310    -1.6190 C.3   1 <1>   0.0400 
 25 O       -0.3970    -9.3180     0.7830 O.3   1 <1>  -0.3630 
 26 C       -2.4590    -8.2030     1.3210 C.ar  1 <1>  -0.1500 
 27 C       -0.7000   -10.4200     1.6110 C.3   1 <1>   0.0400 
 28 H        3.1200    -0.2680     0.8570 H     1 <1>   0.1500 
 29 H        2.4180    -2.7080    -0.4340 H     1 <1>   0.0800 
 30 H        1.6640    -2.4220    -1.9840 H     1 <1>   0.0800 
 31 H        0.2110    -2.5580     0.5800 H     1 <1>   0.4500 
 32 H        0.7600     3.7270    -0.1540 H     1 <1>   0.1500 
 33 H        4.1120     1.6850     1.5090 H     1 <1>   0.1500 
 34 H        0.4910    -4.7430     0.5270 H     1 <1>   0.0800 
 35 H        1.0330    -4.7180    -1.1380 H     1 <1>   0.0800 
 36 H       -0.7290    -2.3130    -2.1710 H     1 <1>   0.0800 
 37 H       -1.2490    -1.4180    -0.7470 H     1 <1>   0.0800 
 38 H        4.7510     3.8250     2.5450 H     1 <1>   0.1500 
 39 H       -1.0240    -5.0490    -1.9550 H     1 <1>   0.0800 
 40 H       -2.7370    -3.4620    -1.5400 H     1 <1>   0.0800 
 41 H       -2.3140    -3.3210     0.1570 H     1 <1>   0.0800 
 42 H        3.3720     5.8060     2.1870 H     1 <1>   0.1500 
 43 H       -3.5040    -5.1370     0.4690 H     1 <1>   0.1500 
 44 H       -4.2160    -7.0680     1.7260 H     1 <1>   0.1500 
 45 H        1.2800    -7.8900    -2.4300 H     1 <1>   0.0800 
 46 H       -0.2440    -8.6650    -2.0020 H     1 <1>   0.0800 
 47 H        1.2050    -8.9510    -1.0330 H     1 <1>   0.0800 
 48 H       -2.8170    -9.0340     1.9000 H     1 <1>   0.1500 
 49 H        0.1210   -11.1130     1.5570 H     1 <1>   0.0800 
 50 H       -1.5980   -10.8910     1.2540 H     1 <1>   0.0800 
 51 H       -0.8180   -10.0750     2.6230 H     1 <1>   0.0800 
@<TRIPOS>BOND
  1   1   2  1   
  2   1   3  1   
  3   2   4  2   
  4   3   5  2   
  5   3   6  1   
  6   4   5  1   
  7   4   7  1   
  8   5  28  1   
  9   6   8  1   
 10   6  29  1   
 11   6  30  1   
 12   7   9  ar  
 13   7  10  ar  
 14   8  11  1   
 15   8  12  1   
 16   8  31  1   
 17   9  13  ar  
 18   9  32  1   
 19  10  14  ar  
 20  10  33  1   
 21  11  15  1   
 22  11  34  1   
 23  11  35  1   
 24  12  16  1   
 25  12  36  1   
 26  12  37  1   
 27  13  17  ar  
 28  14  17  ar  
 29  14  38  1   
 30  15  16  1   
 31  15  18  1   
 32  15  39  1   
 33  16  40  1   
 34  16  41  1   
 35  17  42  1   
 36  18  19  ar  
 37  18  20  ar  
 38  19  21  1   
 39  19  22  ar  
 40  20  23  ar  
 41  20  43  1   
 42  21  24  1   
 43  22  25  1   
 44  22  26  ar  
 45  23  26  ar  
 46  23  44  1   
 47  24  45  1   
 48  24  46  1   
 49  24  47  1   
 50  25  27  1   
 51  26  48  1   
 52  27  49  1   
 53  27  50  1   
 54  27  51  1   
@<TRIPOS>SUBSTRUCTURE
  1 ****   8 GROUP 4 **** **** 0

# MOE 2024.06 (io_trps.svl 2023.06)
