@<TRIPOS>MOLECULE
NONAME
47 50 1 0 0 
SMALL
USER_CHARGES


@<TRIPOS>ATOM
  1 CL       1.1840    -1.3080    -2.7030 Cl    1 <1>  -0.1770 
  2 C        1.6500    -1.7470    -1.0690 C.ar  1 <1>   0.1770 
  3 C        0.9300    -2.7150    -0.3510 C.ar  1 <1>   0.4100 
  4 C        2.7340    -1.1160    -0.5090 C.ar  1 <1>  -0.1500 
  5 N        1.2430    -3.0580     0.8970 N.ar  1 <1>  -0.6200 
  6 N       -0.1720    -3.3610    -0.8970 N.pl3 1 <1>  -0.8380 
  7 C        3.0590    -1.4860     0.7810 C.ar  1 <1>  -0.1500 
  8 C        2.2930    -2.4430     1.4240 C.ar  1 <1>   0.1600 
  9 C       -1.4460    -2.5970    -0.9700 C.3   1 <1>   0.2090 
 10 C       -0.3480    -4.8290    -0.6550 C.3   1 <1>   0.2090 
 11 C       -2.3560    -2.8950     0.2430 C.3   1 <1>   0.2090 
 12 C       -1.2850    -5.1080     0.5370 C.3   1 <1>   0.2090 
 13 N       -2.6030    -4.3750     0.4070 N.pl3 1 <1>  -0.8380 
 14 C       -3.7900    -5.0360     0.3660 C.ar  1 <1>   0.7710 
 15 N       -3.8010    -6.3550     0.2400 N.ar  1 <1>  -0.6200 
 16 N       -4.9320    -4.3310     0.4590 N.ar  1 <1>  -0.1790 
 17 C       -4.9610    -6.9830     0.1900 C.ar  1 <1>   0.4100 
 18 C       -6.1450    -4.9310     0.4140 C.ar  1 <1>   0.2110 
 19 N       -4.9410    -8.3340     0.0550 N.pl3 1 <1>  -0.8380 
 20 C       -6.1760    -6.2760     0.2760 C.ar  1 <1>  -0.1500 
 21 C       -6.1200    -9.2470     0.0520 C.3   1 <1>   0.2090 
 22 C       -3.6920    -9.1320    -0.0630 C.3   1 <1>   0.2090 
 23 C       -5.5590   -10.6620    -0.1240 C.3   1 <1>   0.2000 
 24 C       -4.1260   -10.4870    -0.6070 C.3   1 <1>  -0.1600 
 25 O       -6.2810   -11.3710    -1.0690 O.3   1 <1>  -0.6800 
 26 H        3.2950    -0.3760    -1.0530 H     1 <1>   0.1500 
 27 H        3.8970    -1.0350     1.2830 H     1 <1>   0.1500 
 28 H        2.5590    -2.7200     2.4310 H     1 <1>   0.1500 
 29 H       -1.9570    -2.8560    -1.8810 H     1 <1>   0.0800 
 30 H       -1.2320    -1.5420    -1.0030 H     1 <1>   0.0800 
 31 H        0.6110    -5.2800    -0.4660 H     1 <1>   0.0800 
 32 H       -0.7550    -5.2850    -1.5400 H     1 <1>   0.0800 
 33 H       -3.2720    -2.3500     0.1180 H     1 <1>   0.0800 
 34 H       -1.8660    -2.5210     1.1270 H     1 <1>   0.0800 
 35 H       -0.7910    -4.7820     1.4370 H     1 <1>   0.0800 
 36 H       -1.4210    -6.1710     0.6240 H     1 <1>   0.0800 
 37 H       -4.8190    -3.3360     0.6000 H     1 <1>   0.4570 
 38 H       -7.0370    -4.3300     0.4920 H     1 <1>   0.1500 
 39 H       -7.1040    -6.8120     0.2320 H     1 <1>   0.1500 
 40 H       -6.7720    -8.9950    -0.7660 H     1 <1>   0.0800 
 41 H       -6.6500    -9.1740     0.9860 H     1 <1>   0.0800 
 42 H       -3.2520    -9.2420     0.9140 H     1 <1>   0.0800 
 43 H       -2.9850    -8.6570    -0.7230 H     1 <1>   0.0800 
 44 H       -5.5990   -11.1970     0.8100 H     1 <1>   0.0800 
 45 H       -3.4850   -11.2720    -0.2480 H     1 <1>   0.0800 
 46 H       -4.0820   -10.4500    -1.6800 H     1 <1>   0.0800 
 47 H       -6.1330   -11.0000    -1.9600 H     1 <1>   0.4000 
@<TRIPOS>BOND
  1   1   2  1   
  2   2   3  ar  
  3   2   4  ar  
  4   3   5  ar  
  5   3   6  1   
  6   4   7  ar  
  7   4  26  1   
  8   5   8  ar  
  9   6   9  1   
 10   6  10  1   
 11   7   8  ar  
 12   7  27  1   
 13   8  28  1   
 14   9  11  1   
 15   9  29  1   
 16   9  30  1   
 17  10  12  1   
 18  10  31  1   
 19  10  32  1   
 20  11  13  1   
 21  11  33  1   
 22  11  34  1   
 23  12  13  1   
 24  12  35  1   
 25  12  36  1   
 26  13  14  1   
 27  14  15  ar  
 28  14  16  ar  
 29  15  17  ar  
 30  16  18  ar  
 31  16  37  1   
 32  17  19  1   
 33  17  20  ar  
 34  18  20  ar  
 35  18  38  1   
 36  19  21  1   
 37  19  22  1   
 38  20  39  1   
 39  21  23  1   
 40  21  40  1   
 41  21  41  1   
 42  22  24  1   
 43  22  42  1   
 44  22  43  1   
 45  23  24  1   
 46  23  25  1   
 47  23  44  1   
 48  24  45  1   
 49  24  46  1   
 50  25  47  1   
@<TRIPOS>SUBSTRUCTURE
  1 ****  13 GROUP 4 **** **** 0

# MOE 2024.06 (io_trps.svl 2023.06)
