@<TRIPOS>MOLECULE
NONAME
41 43 1 0 0 
SMALL
USER_CHARGES


@<TRIPOS>ATOM
  1 O       -0.2210     0.0390    -0.4780 O.2   1 <1>  -0.5700 
  2 C        0.0720     1.2080    -0.5560 C.2   1 <1>   0.5690 
  3 N       -0.7670     2.2040    -0.1220 N.am  1 <1>  -0.6600 
  4 C        1.4240     1.5140    -1.1540 C.3   1 <1>   0.1570 
  5 C       -2.1300     1.8920     0.4140 C.3   1 <1>   0.1400 
  6 C       -0.4640     3.6650    -0.1150 C.3   1 <1>   0.1400 
  7 N        2.3590     1.8610    -0.0820 N.pl3 1 <1>   0.3140 
  8 C       -3.2250     2.5920    -0.4300 C.3   1 <1>   0.0000 
  9 C       -1.5040     4.4070    -0.9610 C.3   1 <1>  -0.1600 
 10 N        3.1180     2.9340    -0.1110 N.2   1 <1>  -0.4180 
 11 C        2.6100     1.2280     1.0480 C.2   1 <1>   0.0360 
 12 C       -4.6300     2.3060     0.1290 C.3   1 <1>   0.2000 
 13 C       -2.9380     4.1090    -0.4890 C.3   1 <1>  -0.1600 
 14 C       -3.3130     1.9580    -1.8300 C.3   1 <1>  -0.1600 
 15 N        3.7980     2.9260     0.9790 N.2   1 <1>   0.0000 
 16 N        3.4920     1.8630     1.7180 N.2   1 <1>  -0.3380 
 17 O       -4.6400     2.3370     1.5250 O.3   1 <1>  -0.5600 
 18 C       -5.0160     0.9210    -0.4020 C.3   1 <1>  -0.1600 
 19 C       -4.1580     0.6920    -1.6550 C.3   1 <1>  -0.1600 
 20 C       -5.9070     2.3930     2.1020 C.3   1 <1>   0.0400 
 21 H        1.3500     2.3280    -1.8490 H     1 <1>   0.0800 
 22 H        1.7960     0.6500    -1.6690 H     1 <1>   0.0800 
 23 H       -2.3000     0.8300     0.4310 H     1 <1>   0.0800 
 24 H       -2.1810     2.2390     1.4310 H     1 <1>   0.0800 
 25 H       -0.5050     4.0220     0.9010 H     1 <1>   0.0800 
 26 H        0.5200     3.8720    -0.4930 H     1 <1>   0.0800 
 27 H       -1.3200     5.4650    -0.8960 H     1 <1>   0.0800 
 28 H       -1.3890     4.1200    -1.9910 H     1 <1>   0.0800 
 29 H        2.1280     0.3130     1.3440 H     1 <1>   0.1500 
 30 H       -5.3170     3.0470    -0.2450 H     1 <1>   0.0800 
 31 H       -3.6420     4.5980    -1.1400 H     1 <1>   0.0800 
 32 H       -3.0700     4.5200     0.4980 H     1 <1>   0.0800 
 33 H       -3.8280     2.6260    -2.4980 H     1 <1>   0.0800 
 34 H       -2.3490     1.7330    -2.2510 H     1 <1>   0.0800 
 35 H       -4.7900     0.1650     0.3290 H     1 <1>   0.0800 
 36 H       -6.0630     0.8900    -0.6450 H     1 <1>   0.0800 
 37 H       -3.5120    -0.1550    -1.4980 H     1 <1>   0.0800 
 38 H       -4.7650     0.5090    -2.5250 H     1 <1>   0.0800 
 39 H       -5.7850     2.4330     3.1700 H     1 <1>   0.0800 
 40 H       -6.4630     1.5120     1.8360 H     1 <1>   0.0800 
 41 H       -6.4140     3.2800     1.7630 H     1 <1>   0.0800 
@<TRIPOS>BOND
  1   1   2  2   
  2   2   3  am  
  3   2   4  1   
  4   3   5  1   
  5   3   6  1   
  6   4   7  1   
  7   4  21  1   
  8   4  22  1   
  9   5   8  1   
 10   5  23  1   
 11   5  24  1   
 12   6   9  1   
 13   6  25  1   
 14   6  26  1   
 15   7  10  1   
 16   7  11  1   
 17   8  12  1   
 18   8  13  1   
 19   8  14  1   
 20   9  13  1   
 21   9  27  1   
 22   9  28  1   
 23  10  15  2   
 24  11  16  2   
 25  11  29  1   
 26  12  17  1   
 27  12  18  1   
 28  12  30  1   
 29  13  31  1   
 30  13  32  1   
 31  14  19  1   
 32  14  33  1   
 33  14  34  1   
 34  15  16  1   
 35  17  20  1   
 36  18  19  1   
 37  18  35  1   
 38  18  36  1   
 39  19  37  1   
 40  19  38  1   
 41  20  39  1   
 42  20  40  1   
 43  20  41  1   
@<TRIPOS>SUBSTRUCTURE
  1 ****   3 GROUP 4 **** **** 0

# MOE 2024.06 (io_trps.svl 2023.06)
