@<TRIPOS>MOLECULE
NONAME
45 47 1 0 0 
SMALL
USER_CHARGES


@<TRIPOS>ATOM
  1 F       -0.2130     0.3430     1.9360 F     1 <1>  -0.3400 
  2 C        0.5690    -0.7130     2.1200 C.3   1 <1>   1.1640 
  3 F       -0.2200    -1.7800     2.0370 F     1 <1>  -0.3400 
  4 F        0.9680    -0.6560     3.3850 F     1 <1>  -0.3400 
  5 C        1.7240    -0.7720     1.0990 C.ar  1 <1>  -0.1440 
  6 C        1.5090    -0.9250    -0.2780 C.ar  1 <1>  -0.1440 
  7 C        3.0370    -0.6760     1.5580 C.ar  1 <1>  -0.1500 
  8 C        2.5960    -0.9840    -1.1390 C.ar  1 <1>  -0.1500 
  9 C        0.1280    -1.0420    -0.9380 C.3   1 <1>   0.0450 
 10 C        4.1100    -0.7330     0.6880 C.ar  1 <1>  -0.1500 
 11 C        3.8890    -0.8890    -0.6650 C.ar  1 <1>  -0.1500 
 12 C       -0.1680    -2.4660    -1.3790 C.2   1 <1>   0.5690 
 13 O       -0.2740    -2.7080    -2.5560 O.2   1 <1>  -0.5700 
 14 N       -0.3070    -3.4300    -0.4350 N.am  1 <1>  -0.7300 
 15 C       -0.4970    -4.8700    -0.7080 C.3   1 <1>   0.2200 
 16 C       -1.8160    -5.3230    -0.1080 C.3   1 <1>  -0.0800 
 17 C        0.5130    -5.6780     0.1020 C.3   1 <1>   0.1200 
 18 C       -1.4260    -5.5780     1.3500 C.3   1 <1>   0.1200 
 19 C       -2.3430    -6.5940    -0.8020 C.3   1 <1>  -0.0170 
 20 O       -0.0650    -5.8940     1.3570 O.3   1 <1>  -0.5600 
 21 C       -3.6720    -7.0440    -0.2130 C.ar  1 <1>  -0.1430 
 22 C       -4.8520    -6.3870    -0.4950 C.ar  1 <1>  -0.1500 
 23 C       -3.7680    -8.1330     0.6300 C.ar  1 <1>  -0.1500 
 24 C       -6.0360    -6.8340     0.0660 C.ar  1 <1>   0.1600 
 25 C       -5.0030    -8.4980     1.1390 C.ar  1 <1>   0.1600 
 26 N       -6.1410    -7.8750     0.8780 N.ar  1 <1>  -0.6200 
 27 H        3.2510    -0.5550     2.6070 H     1 <1>   0.1500 
 28 H        2.4400    -1.1100    -2.1990 H     1 <1>   0.1500 
 29 H        0.1060    -0.4110    -1.8080 H     1 <1>   0.0800 
 30 H       -0.6670    -0.7090    -0.3030 H     1 <1>   0.0800 
 31 H        5.1160    -0.6570     1.0630 H     1 <1>   0.1500 
 32 H        4.7200    -0.9370    -1.3470 H     1 <1>   0.1500 
 33 H       -0.1860    -3.2030     0.5560 H     1 <1>   0.3700 
 34 H       -0.4190    -5.0670    -1.7650 H     1 <1>   0.0800 
 35 H       -2.5640    -4.5520    -0.1810 H     1 <1>   0.0800 
 36 H        1.4520    -5.1660     0.2190 H     1 <1>   0.0800 
 37 H        0.6780    -6.6400    -0.3490 H     1 <1>   0.0800 
 38 H       -1.9770    -6.3810     1.8060 H     1 <1>   0.0800 
 39 H       -1.5520    -4.6840     1.9370 H     1 <1>   0.0800 
 40 H       -1.6250    -7.3900    -0.7180 H     1 <1>   0.0800 
 41 H       -2.4840    -6.3950    -1.8510 H     1 <1>   0.0800 
 42 H       -4.8620    -5.5320    -1.1460 H     1 <1>   0.1500 
 43 H       -2.8960    -8.7010     0.8980 H     1 <1>   0.1500 
 44 H       -6.9470    -6.3080    -0.1650 H     1 <1>   0.1500 
 45 H       -5.0590    -9.3500     1.7960 H     1 <1>   0.1500 
@<TRIPOS>BOND
  1   1   2  1   
  2   2   3  1   
  3   2   4  1   
  4   2   5  1   
  5   5   6  ar  
  6   5   7  ar  
  7   6   8  ar  
  8   6   9  1   
  9   7  10  ar  
 10   7  27  1   
 11   8  11  ar  
 12   8  28  1   
 13   9  12  1   
 14   9  29  1   
 15   9  30  1   
 16  10  11  ar  
 17  10  31  1   
 18  11  32  1   
 19  12  13  2   
 20  12  14  am  
 21  14  15  1   
 22  14  33  1   
 23  15  16  1   
 24  15  17  1   
 25  15  34  1   
 26  16  18  1   
 27  16  19  1   
 28  16  35  1   
 29  17  20  1   
 30  17  36  1   
 31  17  37  1   
 32  18  20  1   
 33  18  38  1   
 34  18  39  1   
 35  19  21  1   
 36  19  40  1   
 37  19  41  1   
 38  21  22  ar  
 39  21  23  ar  
 40  22  24  ar  
 41  22  42  1   
 42  23  25  ar  
 43  23  43  1   
 44  24  26  ar  
 45  24  44  1   
 46  25  26  ar  
 47  25  45  1   
@<TRIPOS>SUBSTRUCTURE
  1 ****  14 GROUP 4 **** **** 0

# MOE 2024.06 (io_trps.svl 2023.06)
