@<TRIPOS>MOLECULE
NONAME
50 53 1 0 0 
SMALL
USER_CHARGES


@<TRIPOS>ATOM
  1 O        0.0830    -1.3910    -1.8400 O.2   1 <1>  -0.5700 
  2 C       -0.8420    -1.8860    -1.2200 C.2   1 <1>   0.6900 
  3 N       -0.7900    -3.0100    -0.4820 N.am  1 <1>  -0.5390 
  4 N       -2.0960    -1.3900    -1.1540 N.am  1 <1>  -0.5390 
  5 C       -2.0510    -3.2460     0.0850 C.2   1 <1>   0.1230 
  6 C       -2.8370    -2.2240    -0.3410 C.2   1 <1>  -0.0410 
  7 C       -2.3290    -4.3730     0.9510 C.2   1 <1>   0.6160 
  8 O       -1.4070    -4.9060     1.5460 O.2   1 <1>  -0.5700 
  9 N       -3.6030    -4.8760     1.1270 N.am  1 <1>  -0.6600 
 10 C       -3.9500    -5.7050     2.3150 C.3   1 <1>   0.1400 
 11 C       -4.6270    -4.9120     0.0460 C.3   1 <1>   0.1400 
 12 C       -4.1540    -7.1580     1.8810 C.3   1 <1>  -0.1600 
 13 C       -4.8410    -6.3600    -0.4010 C.3   1 <1>  -0.1600 
 14 C       -5.2130    -7.2770     0.7730 C.3   1 <1>   0.4240 
 15 O       -6.4290    -6.7640     1.2670 O.3   1 <1>  -0.5600 
 16 C       -5.3620    -8.7350     0.2910 C.ar  1 <1>  -0.1430 
 17 C       -7.2270    -7.6210     2.0220 C.3   1 <1>   0.1200 
 18 C       -6.5550    -9.4290     0.4490 C.ar  1 <1>  -0.1430 
 19 C       -4.2940    -9.3920    -0.3070 C.ar  1 <1>  -0.1500 
 20 C       -7.7290    -8.7460     1.1210 C.3   1 <1>  -0.0170 
 21 C       -6.6770   -10.7340    -0.0010 C.ar  1 <1>  -0.1500 
 22 C       -4.3940   -10.6990    -0.7510 C.ar  1 <1>   0.0830 
 23 C       -5.6110   -11.3850    -0.6150 C.ar  1 <1>   0.0830 
 24 O       -3.2560   -11.2050    -1.3040 O.3   1 <1>  -0.3620 
 25 O       -5.7370   -12.6580    -1.0930 O.3   1 <1>  -0.3620 
 26 C       -2.9250   -12.5690    -1.1650 C.3   1 <1>   0.0400 
 27 C       -6.9960   -13.2750    -1.2480 C.3   1 <1>   0.0400 
 28 H        0.0580    -3.5460    -0.2990 H     1 <1>   0.3700 
 29 H       -2.3530    -0.5230    -1.6260 H     1 <1>   0.3700 
 30 H       -3.8710    -2.0330    -0.1100 H     1 <1>   0.1500 
 31 H       -4.8540    -5.3230     2.7590 H     1 <1>   0.0800 
 32 H       -3.1690    -5.6510     3.0540 H     1 <1>   0.0800 
 33 H       -4.3140    -4.3320    -0.8030 H     1 <1>   0.0800 
 34 H       -5.5500    -4.5000     0.4190 H     1 <1>   0.0800 
 35 H       -4.4300    -7.7600     2.7250 H     1 <1>   0.0800 
 36 H       -3.2130    -7.5320     1.5240 H     1 <1>   0.0800 
 37 H       -3.9370    -6.7050    -0.8660 H     1 <1>   0.0800 
 38 H       -5.6210    -6.4040    -1.1390 H     1 <1>   0.0800 
 39 H       -8.0530    -7.0490     2.4070 H     1 <1>   0.0800 
 40 H       -6.6530    -8.0090     2.8450 H     1 <1>   0.0800 
 41 H       -3.3510    -8.8950    -0.4380 H     1 <1>   0.1500 
 42 H       -8.3880    -8.3390     0.3750 H     1 <1>   0.0800 
 43 H       -8.2820    -9.4520     1.7140 H     1 <1>   0.0800 
 44 H       -7.6180   -11.2300     0.1360 H     1 <1>   0.1500 
 45 H       -1.8670   -12.6750    -1.3240 H     1 <1>   0.0800 
 46 H       -3.4620   -13.1330    -1.9060 H     1 <1>   0.0800 
 47 H       -3.1840   -12.8950    -0.1740 H     1 <1>   0.0800 
 48 H       -6.8480   -14.2110    -1.7550 H     1 <1>   0.0800 
 49 H       -7.6280   -12.6350    -1.8390 H     1 <1>   0.0800 
 50 H       -7.4220   -13.4510    -0.2770 H     1 <1>   0.0800 
@<TRIPOS>BOND
  1   1   2  2   
  2   2   3  am  
  3   2   4  am  
  4   3   5  1   
  5   3  28  1   
  6   4   6  1   
  7   4  29  1   
  8   5   6  2   
  9   5   7  1   
 10   6  30  1   
 11   7   8  2   
 12   7   9  am  
 13   9  10  1   
 14   9  11  1   
 15  10  12  1   
 16  10  31  1   
 17  10  32  1   
 18  11  13  1   
 19  11  33  1   
 20  11  34  1   
 21  12  14  1   
 22  12  35  1   
 23  12  36  1   
 24  13  14  1   
 25  13  37  1   
 26  13  38  1   
 27  14  15  1   
 28  14  16  1   
 29  15  17  1   
 30  16  18  ar  
 31  16  19  ar  
 32  17  20  1   
 33  17  39  1   
 34  17  40  1   
 35  18  20  1   
 36  18  21  ar  
 37  19  22  ar  
 38  19  41  1   
 39  20  42  1   
 40  20  43  1   
 41  21  23  ar  
 42  21  44  1   
 43  22  23  ar  
 44  22  24  1   
 45  23  25  1   
 46  24  26  1   
 47  25  27  1   
 48  26  45  1   
 49  26  46  1   
 50  26  47  1   
 51  27  48  1   
 52  27  49  1   
 53  27  50  1   
@<TRIPOS>SUBSTRUCTURE
  1 ****  13 GROUP 4 **** **** 0

# MOE 2024.06 (io_trps.svl 2023.06)
