@<TRIPOS>MOLECULE
NONAME
48 49 1 0 0 
SMALL
USER_CHARGES


@<TRIPOS>ATOM
  1 O       -0.4680     0.3290     2.7390 O.2   1 <1>  -0.5700 
  2 C       -0.8320    -0.2270     1.7290 C.2   1 <1>   0.5690 
  3 N       -0.8750     0.4050     0.5270 N.am  1 <1>  -0.7300 
  4 C       -1.2820    -1.6910     1.7920 C.3   1 <1>   0.2700 
  5 C       -0.5870     1.8250     0.2590 C.3   1 <1>   0.1400 
  6 N       -1.7400    -2.2410     0.4590 N.pl3 1 <1>  -0.8380 
  7 C       -1.8300     2.4700    -0.3530 C.3   1 <1>  -0.1600 
  8 C       -3.0980    -2.3640     0.2060 C.ar  1 <1>   0.4100 
  9 C       -0.7830    -3.1860    -0.1880 C.3   1 <1>   0.1290 
 10 C       -1.5940     3.9550    -0.6560 C.3   1 <1>  -0.1600 
 11 N       -3.5190    -3.4680    -0.3380 N.ar  1 <1>  -0.6200 
 12 C       -3.9690    -1.3070     0.5330 C.ar  1 <1>  -0.1500 
 13 C       -2.8430     4.5970    -1.2670 C.3   1 <1>  -0.2400 
 14 C       -4.8500    -3.6130    -0.5850 C.ar  1 <1>   0.3100 
 15 C       -5.3060    -1.4010     0.3070 C.ar  1 <1>  -0.1430 
 16 C       -5.3270    -4.8170    -1.1750 C.ar  1 <1>   0.0830 
 17 C       -5.7890    -2.5970    -0.2710 C.ar  1 <1>   0.0000 
 18 C       -6.2320    -0.2470     0.6660 C.3   1 <1>  -0.0970 
 19 O       -4.4110    -5.7830    -1.4770 O.3   1 <1>  -0.3630 
 20 C       -6.6710    -4.9910    -1.4290 C.ar  1 <1>  -0.1500 
 21 C       -7.1530    -2.8210    -0.5480 C.ar  1 <1>  -0.1500 
 22 C       -4.7670    -7.0160    -2.0600 C.3   1 <1>   0.0400 
 23 C       -7.5860    -3.9890    -1.1130 C.ar  1 <1>  -0.1500 
 24 H       -1.2120    -0.1680    -0.2570 H     1 <1>   0.3700 
 25 H       -2.0840    -1.7660     2.5040 H     1 <1>   0.0800 
 26 H       -0.4650    -2.2800     2.1670 H     1 <1>   0.0800 
 27 H        0.2460     1.8960    -0.4190 H     1 <1>   0.0800 
 28 H       -0.3250     2.3240     1.1780 H     1 <1>   0.0800 
 29 H       -2.6500     2.3750     0.3380 H     1 <1>   0.0800 
 30 H       -2.0850     1.9570    -1.2640 H     1 <1>   0.0800 
 31 H        0.2110    -2.7740    -0.1790 H     1 <1>   0.0800 
 32 H       -1.0740    -3.3610    -1.2100 H     1 <1>   0.0800 
 33 H       -0.7900    -4.1250     0.3370 H     1 <1>   0.0800 
 34 H       -0.7710     4.0600    -1.3430 H     1 <1>   0.0800 
 35 H       -1.3390     4.4740     0.2530 H     1 <1>   0.0800 
 36 H       -3.5450    -0.4190     0.9580 H     1 <1>   0.1500 
 37 H       -3.1060     4.1080    -2.1890 H     1 <1>   0.0800 
 38 H       -2.6590     5.6370    -1.4730 H     1 <1>   0.0800 
 39 H       -3.6740     4.5260    -0.5870 H     1 <1>   0.0800 
 40 H       -5.6780     0.5730     1.0870 H     1 <1>   0.0800 
 41 H       -6.9590    -0.5690     1.3900 H     1 <1>   0.0800 
 42 H       -6.7400     0.1050    -0.2130 H     1 <1>   0.0800 
 43 H       -7.0560    -5.8900    -1.8720 H     1 <1>   0.1500 
 44 H       -7.8710    -2.0590    -0.3120 H     1 <1>   0.1500 
 45 H       -3.8690    -7.5920    -2.1920 H     1 <1>   0.0800 
 46 H       -5.2270    -6.8310    -3.0140 H     1 <1>   0.0800 
 47 H       -5.4390    -7.5340    -1.3980 H     1 <1>   0.0800 
 48 H       -8.6310    -4.1460    -1.3200 H     1 <1>   0.1500 
@<TRIPOS>BOND
  1   1   2  2   
  2   2   3  am  
  3   2   4  1   
  4   3   5  1   
  5   3  24  1   
  6   4   6  1   
  7   4  25  1   
  8   4  26  1   
  9   5   7  1   
 10   5  27  1   
 11   5  28  1   
 12   6   8  1   
 13   6   9  1   
 14   7  10  1   
 15   7  29  1   
 16   7  30  1   
 17   8  11  ar  
 18   8  12  ar  
 19   9  31  1   
 20   9  32  1   
 21   9  33  1   
 22  10  13  1   
 23  10  34  1   
 24  10  35  1   
 25  11  14  ar  
 26  12  15  ar  
 27  12  36  1   
 28  13  37  1   
 29  13  38  1   
 30  13  39  1   
 31  14  16  ar  
 32  14  17  ar  
 33  15  17  ar  
 34  15  18  1   
 35  16  19  1   
 36  16  20  ar  
 37  17  21  ar  
 38  18  40  1   
 39  18  41  1   
 40  18  42  1   
 41  19  22  1   
 42  20  23  ar  
 43  20  43  1   
 44  21  23  ar  
 45  21  44  1   
 46  22  45  1   
 47  22  46  1   
 48  22  47  1   
 49  23  48  1   
@<TRIPOS>SUBSTRUCTURE
  1 ****  12 GROUP 4 **** **** 0

# MOE 2024.06 (io_trps.svl 2023.06)
