@<TRIPOS>MOLECULE
NONAME
51 54 1 0 0 
SMALL
USER_CHARGES


@<TRIPOS>ATOM
  1 O        2.3860    -0.7380     2.6300 O.2   1 <1>  -0.5700 
  2 C        2.2400    -1.0150     1.4540 C.2   1 <1>   0.5440 
  3 N        2.4470    -0.0210     0.5090 N.am  1 <1>  -0.6600 
  4 C        1.9120    -2.3730     1.0860 C.ar  1 <1>   0.0860 
  5 C        2.8800     1.3380     0.9700 C.3   1 <1>   0.1400 
  6 C        2.5990    -0.3430    -0.9470 C.3   1 <1>   0.1400 
  7 C        0.6580    -2.7240     0.5330 C.ar  1 <1>   0.0000 
  8 C        2.8300    -3.3790     1.2320 C.ar  1 <1>  -0.1500 
  9 C        4.4140     1.5670     0.8890 C.3   1 <1>   0.4230 
 10 C        3.9740     0.0300    -1.5460 C.3   1 <1>  -0.0800 
 11 C        0.4660    -4.0620     0.1270 C.ar  1 <1>   0.3100 
 12 C       -0.4080    -1.8130     0.3630 C.ar  1 <1>  -0.1500 
 13 C        2.5400    -4.6790     0.8140 C.ar  1 <1>   0.1660 
 14 N        4.8650     2.1270    -0.4390 N.4   1 <1>  -0.9590 
 15 C        5.2790     0.3310     1.2620 C.3   1 <1>   0.1200 
 16 C        5.1890    -0.7130    -0.9460 C.3   1 <1>   0.1200 
 17 C        4.1620     1.5470    -1.6220 C.3   1 <1>   0.3430 
 18 N        1.4150    -5.0190     0.2700 N.ar  1 <1>  -0.6200 
 19 C       -0.7610    -4.4230    -0.4520 C.ar  1 <1>  -0.1500 
 20 C       -1.5930    -2.2000    -0.2030 C.ar  1 <1>  -0.1500 
 21 C        3.5770    -5.7690     0.9850 C.3   1 <1>  -0.0970 
 22 C        4.7890     3.6210    -0.4610 C.3   1 <1>   0.2630 
 23 O        5.1370    -0.8050     0.4430 O.3   1 <1>  -0.5600 
 24 C       -1.7780    -3.5200    -0.6220 C.ar  1 <1>  -0.1430 
 25 C       -3.1020    -3.9210    -1.2470 C.3   1 <1>  -0.0970 
 26 H        2.3560     2.0910     0.4100 H     1 <1>   0.0800 
 27 H        2.5850     1.4750     1.9960 H     1 <1>   0.0800 
 28 H        2.4470    -1.3950    -1.1130 H     1 <1>   0.0800 
 29 H        1.8200     0.1680    -1.4860 H     1 <1>   0.0800 
 30 H        3.7900    -3.1620     1.6660 H     1 <1>   0.1500 
 31 H        4.6380     2.3110     1.6340 H     1 <1>   0.0800 
 32 H        3.9210    -0.2870    -2.5720 H     1 <1>   0.0800 
 33 H       -0.2870    -0.7960     0.6910 H     1 <1>   0.1500 
 34 H        5.8540     1.8540    -0.5220 H     1 <1>   0.4500 
 35 H        5.0140     0.0170     2.2580 H     1 <1>   0.0800 
 36 H        6.3210     0.5970     1.2760 H     1 <1>   0.0800 
 37 H        6.1250    -0.2650    -1.2330 H     1 <1>   0.0800 
 38 H        5.1880    -1.7280    -1.3090 H     1 <1>   0.0800 
 39 H        3.1940     2.0080    -1.7330 H     1 <1>   0.0800 
 40 H        4.7320     1.7780    -2.5080 H     1 <1>   0.0800 
 41 H       -0.8720    -5.4470    -0.7560 H     1 <1>   0.1500 
 42 H       -2.3960    -1.4930    -0.3260 H     1 <1>   0.1500 
 43 H        4.4660    -5.3920     1.4550 H     1 <1>   0.0800 
 44 H        3.8340    -6.1740     0.0230 H     1 <1>   0.0800 
 45 H        3.1700    -6.5570     1.5930 H     1 <1>   0.0800 
 46 H        3.7660     3.9480    -0.3670 H     1 <1>   0.0800 
 47 H        5.1890     4.0030    -1.3870 H     1 <1>   0.0800 
 48 H        5.3600     4.0380     0.3540 H     1 <1>   0.0800 
 49 H       -3.2830    -3.3360    -2.1310 H     1 <1>   0.0800 
 50 H       -3.9020    -3.7540    -0.5490 H     1 <1>   0.0800 
 51 H       -3.0980    -4.9610    -1.5200 H     1 <1>   0.0800 
@<TRIPOS>BOND
  1   1   2  2   
  2   2   3  am  
  3   2   4  1   
  4   3   5  1   
  5   3   6  1   
  6   4   7  ar  
  7   4   8  ar  
  8   5   9  1   
  9   5  26  1   
 10   5  27  1   
 11   6  10  1   
 12   6  28  1   
 13   6  29  1   
 14   7  11  ar  
 15   7  12  ar  
 16   8  13  ar  
 17   8  30  1   
 18   9  14  1   
 19   9  15  1   
 20   9  31  1   
 21  10  16  1   
 22  10  17  1   
 23  10  32  1   
 24  11  18  ar  
 25  11  19  ar  
 26  12  20  ar  
 27  12  33  1   
 28  13  18  ar  
 29  13  21  1   
 30  14  17  1   
 31  14  22  1   
 32  14  34  1   
 33  15  23  1   
 34  15  35  1   
 35  15  36  1   
 36  16  23  1   
 37  16  37  1   
 38  16  38  1   
 39  17  39  1   
 40  17  40  1   
 41  19  24  ar  
 42  19  41  1   
 43  20  24  ar  
 44  20  42  1   
 45  21  43  1   
 46  21  44  1   
 47  21  45  1   
 48  22  46  1   
 49  22  47  1   
 50  22  48  1   
 51  24  25  1   
 52  25  49  1   
 53  25  50  1   
 54  25  51  1   
@<TRIPOS>SUBSTRUCTURE
  1 ****   4 GROUP 4 **** **** 0

# MOE 2024.06 (io_trps.svl 2023.06)
