@<TRIPOS>MOLECULE
NONAME
53 57 1 0 0 
SMALL
USER_CHARGES


@<TRIPOS>ATOM
  1 O        1.2080    -0.2740    -2.2940 O.3   1 <1>  -0.6800 
  2 C        2.4720    -0.2680    -1.7140 C.3   1 <1>   0.2000 
  3 C        2.6980    -1.5410    -0.9090 C.3   1 <1>  -0.0800 
  4 C        2.6170     0.8460    -0.6850 C.3   1 <1>   0.2090 
  5 C        3.7530    -1.1310     0.1230 C.3   1 <1>   0.2090 
  6 C        3.1180    -2.7450    -1.7670 C.3   1 <1>  -0.0170 
  7 N        3.6340     0.3460     0.2850 N.pl3 1 <1>  -0.8380 
  8 C        3.3770    -3.9680    -0.9050 C.ar  1 <1>   0.1660 
  9 C        4.8250     1.0430     0.3640 C.ar  1 <1>   0.4100 
 10 N        4.6000    -4.1870    -0.5290 N.ar  1 <1>  -0.6200 
 11 C        2.2960    -4.7910    -0.5520 C.ar  1 <1>  -0.1500 
 12 N        5.4690     1.2020    -0.7880 N.ar  1 <1>  -0.6200 
 13 C        5.2980     1.5230     1.5910 C.ar  1 <1>   0.0730 
 14 C        4.8380    -5.2740     0.2480 C.ar  1 <1>   0.3100 
 15 C        2.5060    -5.8880     0.2270 C.ar  1 <1>  -0.1500 
 16 C        6.6180     1.8520    -0.7460 C.ar  1 <1>   0.1670 
 17 C        4.5600     1.3180     2.7980 C.1   1 <1>   0.4840 
 18 C        6.5010     2.2020     1.6090 C.ar  1 <1>  -0.1500 
 19 C        3.8160    -6.1590     0.6550 C.ar  1 <1>   0.0000 
 20 C        6.1530    -5.5320     0.6690 C.ar  1 <1>  -0.1500 
 21 C        7.1760     2.3720     0.4170 C.ar  1 <1>  -0.1430 
 22 C        7.3080     2.0180    -2.0940 C.3   1 <1>  -0.0170 
 23 N        4.0250     1.1900     3.7990 N.1   1 <1>  -0.5570 
 24 C        4.1490    -7.2640     1.4640 C.ar  1 <1>  -0.1500 
 25 C        6.4560    -6.6120     1.4550 C.ar  1 <1>  -0.1500 
 26 C        8.5100     3.1100     0.4260 C.3   1 <1>  -0.0170 
 27 C        8.7750     2.4540    -1.9860 C.3   1 <1>  -0.1600 
 28 C        5.4410    -7.4880     1.8560 C.ar  1 <1>  -0.1500 
 29 C        8.9250     3.5890    -0.9700 C.3   1 <1>  -0.1600 
 30 H        1.1690    -0.9230    -3.0200 H     1 <1>   0.4000 
 31 H        3.2160    -0.1430    -2.4830 H     1 <1>   0.0800 
 32 H        1.7990    -1.7760    -0.3660 H     1 <1>   0.0800 
 33 H        1.6870     0.9990    -0.1660 H     1 <1>   0.0800 
 34 H        2.9300     1.7640    -1.1520 H     1 <1>   0.0800 
 35 H        4.7420    -1.3790    -0.2300 H     1 <1>   0.0800 
 36 H        3.5860    -1.6280     1.0630 H     1 <1>   0.0800 
 37 H        4.0120    -2.5060    -2.3160 H     1 <1>   0.0800 
 38 H        2.3470    -2.9710    -2.4810 H     1 <1>   0.0800 
 39 H        1.3100    -4.5430    -0.9000 H     1 <1>   0.1500 
 40 H        1.7040    -6.5410     0.5200 H     1 <1>   0.1500 
 41 H        6.8990     2.5850     2.5320 H     1 <1>   0.1500 
 42 H        6.9170    -4.8480     0.3500 H     1 <1>   0.1500 
 43 H        7.2540     1.0900    -2.6340 H     1 <1>   0.0800 
 44 H        6.7590     2.7540    -2.6530 H     1 <1>   0.0800 
 45 H        3.3650    -7.9340     1.7690 H     1 <1>   0.1500 
 46 H        7.4680    -6.7990     1.7700 H     1 <1>   0.1500 
 47 H        8.4560     3.9580     1.0870 H     1 <1>   0.0800 
 48 H        9.2640     2.4430     0.8070 H     1 <1>   0.0800 
 49 H        9.3730     1.6140    -1.6740 H     1 <1>   0.0800 
 50 H        9.1270     2.7730    -2.9520 H     1 <1>   0.0800 
 51 H        5.6930    -8.3330     2.4740 H     1 <1>   0.1500 
 52 H        8.3030     4.4180    -1.2640 H     1 <1>   0.0800 
 53 H        9.9450     3.9300    -0.9460 H     1 <1>   0.0800 
@<TRIPOS>BOND
  1   1   2  1   
  2   1  30  1   
  3   2   3  1   
  4   2   4  1   
  5   2  31  1   
  6   3   5  1   
  7   3   6  1   
  8   3  32  1   
  9   4   7  1   
 10   4  33  1   
 11   4  34  1   
 12   5   7  1   
 13   5  35  1   
 14   5  36  1   
 15   6   8  1   
 16   6  37  1   
 17   6  38  1   
 18   7   9  1   
 19   8  10  ar  
 20   8  11  ar  
 21   9  12  ar  
 22   9  13  ar  
 23  10  14  ar  
 24  11  15  ar  
 25  11  39  1   
 26  12  16  ar  
 27  13  17  1   
 28  13  18  ar  
 29  14  19  ar  
 30  14  20  ar  
 31  15  19  ar  
 32  15  40  1   
 33  16  21  ar  
 34  16  22  1   
 35  17  23  3   
 36  18  21  ar  
 37  18  41  1   
 38  19  24  ar  
 39  20  25  ar  
 40  20  42  1   
 41  21  26  1   
 42  22  27  1   
 43  22  43  1   
 44  22  44  1   
 45  24  28  ar  
 46  24  45  1   
 47  25  28  ar  
 48  25  46  1   
 49  26  29  1   
 50  26  47  1   
 51  26  48  1   
 52  27  29  1   
 53  27  49  1   
 54  27  50  1   
 55  28  51  1   
 56  29  52  1   
 57  29  53  1   
@<TRIPOS>SUBSTRUCTURE
  1 ****   5 GROUP 4 **** **** 0

# MOE 2024.06 (io_trps.svl 2023.06)
