@<TRIPOS>MOLECULE
NONAME
46 49 1 0 0 
SMALL
USER_CHARGES


@<TRIPOS>ATOM
  1 S       -2.8670     0.9940    -0.8630 S.3   1 <1>  -0.0800 
  2 C       -2.0520     0.6580     0.6580 C.2   1 <1>  -0.1400 
  3 C       -1.4120     1.7030    -1.5400 C.2   1 <1>  -0.1100 
  4 C       -0.7740     1.0750     0.6050 C.2   1 <1>  -0.1500 
  5 C       -2.8420    -0.0080     1.7770 C.3   1 <1>   0.0810 
  6 C       -0.4080     1.6690    -0.6450 C.2   1 <1>  -0.1500 
  7 C       -2.8850    -1.5280     1.6560 C.2   1 <1>   0.5690 
  8 O       -2.0690    -2.1410     2.3050 O.2   1 <1>  -0.5700 
  9 N       -3.8110    -2.1840     0.8790 N.am  1 <1>  -0.6600 
 10 C       -4.8950    -1.5530     0.0610 C.3   1 <1>   0.1400 
 11 C       -3.7780    -3.6740     0.7300 C.3   1 <1>   0.1400 
 12 C       -6.2580    -2.2170     0.3330 C.3   1 <1>   0.1900 
 13 C       -5.1660    -4.2900     0.9740 C.3   1 <1>   0.1100 
 14 N       -6.1910    -3.6800     0.0980 N.3   1 <1>  -0.8100 
 15 C       -7.3510    -1.5800    -0.5480 C.3   1 <1>   0.1200 
 16 C       -7.5270    -4.2880     0.3020 C.3   1 <1>   0.3330 
 17 O       -8.5910    -2.1790    -0.2980 O.3   1 <1>  -0.5600 
 18 C       -7.5190    -5.7720    -0.0640 C.ar  1 <1>  -0.1430 
 19 C       -8.5940    -3.5600    -0.5440 C.3   1 <1>   0.1200 
 20 C       -8.0960    -6.7020     0.7890 C.ar  1 <1>  -0.1500 
 21 C       -6.9450    -6.2100    -1.2490 C.ar  1 <1>  -0.1500 
 22 C       -8.0990    -8.0480     0.4620 C.ar  1 <1>  -0.1500 
 23 C       -6.9470    -7.5540    -1.5780 C.ar  1 <1>  -0.1500 
 24 C       -7.5240    -8.4740    -0.7220 C.ar  1 <1>  -0.1500 
 25 H       -1.4630     2.0730    -2.5480 H     1 <1>   0.1500 
 26 H       -0.0550     0.9880     1.4020 H     1 <1>   0.1500 
 27 H       -2.3570     0.2250     2.7070 H     1 <1>   0.0800 
 28 H       -3.8310     0.4000     1.8360 H     1 <1>   0.0800 
 29 H        0.5890     2.0380    -0.8090 H     1 <1>   0.1500 
 30 H       -4.9770    -0.5050     0.2730 H     1 <1>   0.0800 
 31 H       -4.6500    -1.6630    -0.9810 H     1 <1>   0.0800 
 32 H       -3.4560    -3.9190    -0.2670 H     1 <1>   0.0800 
 33 H       -3.0770    -4.1110     1.4180 H     1 <1>   0.0800 
 34 H       -6.5170    -2.0320     1.3620 H     1 <1>   0.0800 
 35 H       -5.4340    -4.1550     2.0080 H     1 <1>   0.0800 
 36 H       -5.1030    -5.3470     0.7810 H     1 <1>   0.0800 
 37 H       -7.1150    -1.6980    -1.5920 H     1 <1>   0.0800 
 38 H       -7.4470    -0.5320    -0.3280 H     1 <1>   0.0800 
 39 H       -7.8030    -4.1860     1.3380 H     1 <1>   0.0800 
 40 H       -9.5720    -3.9350    -0.3020 H     1 <1>   0.0800 
 41 H       -8.4130    -3.7230    -1.5920 H     1 <1>   0.0800 
 42 H       -8.5480    -6.3860     1.7130 H     1 <1>   0.1500 
 43 H       -6.4890    -5.4980    -1.9150 H     1 <1>   0.1500 
 44 H       -8.5480    -8.7630     1.1290 H     1 <1>   0.1500 
 45 H       -6.4980    -7.8830    -2.4990 H     1 <1>   0.1500 
 46 H       -7.5270    -9.5200    -0.9760 H     1 <1>   0.1500 
@<TRIPOS>BOND
  1   1   2  1   
  2   1   3  1   
  3   2   4  2   
  4   2   5  1   
  5   3   6  2   
  6   3  25  1   
  7   4   6  1   
  8   4  26  1   
  9   5   7  1   
 10   5  27  1   
 11   5  28  1   
 12   6  29  1   
 13   7   8  2   
 14   7   9  am  
 15   9  10  1   
 16   9  11  1   
 17  10  12  1   
 18  10  30  1   
 19  10  31  1   
 20  11  13  1   
 21  11  32  1   
 22  11  33  1   
 23  12  14  1   
 24  12  15  1   
 25  12  34  1   
 26  13  14  1   
 27  13  35  1   
 28  13  36  1   
 29  14  16  1   
 30  15  17  1   
 31  15  37  1   
 32  15  38  1   
 33  16  18  1   
 34  16  19  1   
 35  16  39  1   
 36  17  19  1   
 37  18  20  ar  
 38  18  21  ar  
 39  19  40  1   
 40  19  41  1   
 41  20  22  ar  
 42  20  42  1   
 43  21  23  ar  
 44  21  43  1   
 45  22  24  ar  
 46  22  44  1   
 47  23  24  ar  
 48  23  45  1   
 49  24  46  1   
@<TRIPOS>SUBSTRUCTURE
  1 ****  14 GROUP 4 **** **** 0

# MOE 2024.06 (io_trps.svl 2023.06)
