@<TRIPOS>MOLECULE
NONAME
49 52 1 0 0 
SMALL
USER_CHARGES


@<TRIPOS>ATOM
  1 O       -0.4690     0.0210     2.7990 O.2   1 <1>  -0.5700 
  2 C       -0.9740     0.8630     2.0930 C.2   1 <1>   0.5690 
  3 N       -1.9510     0.5360     1.1900 N.am  1 <1>  -0.6600 
  4 C       -0.5040     2.2970     2.2770 C.3   1 <1>   0.1570 
  5 C       -2.5500     1.4190     0.1520 C.3   1 <1>   0.1400 
  6 C       -2.4780    -0.8380     1.0400 C.3   1 <1>   0.1400 
  7 N        0.0790     2.8480     1.0360 N.pl3 1 <1>   0.0480 
  8 C       -3.5990     0.5640    -0.5690 C.3   1 <1>   0.2000 
  9 C       -3.1050    -0.8700    -0.3550 C.3   1 <1>  -0.0800 
 10 C       -0.4030     3.9150     0.3080 C.ar  1 <1>  -0.1520 
 11 C        1.1290     2.3130     0.3420 C.2   1 <1>  -0.3020 
 12 O       -4.8440     0.7130     0.0540 O.3   1 <1>  -0.5600 
 13 C       -4.1870    -1.9510    -0.5200 C.3   1 <1>   0.0200 
 14 C        0.3560     4.0300    -0.8530 C.ar  1 <1>   0.0000 
 15 C       -1.4570     4.8030     0.5540 C.ar  1 <1>  -0.1500 
 16 C        1.3240     3.0070    -0.8030 C.2   1 <1>  -0.1500 
 17 C       -5.6050     1.7890    -0.3990 C.3   1 <1>   0.0400 
 18 C       -3.6300    -3.3650    -0.4770 C.2   1 <1>  -0.0400 
 19 C        0.0630     5.0310    -1.7830 C.ar  1 <1>  -0.1500 
 20 C       -1.7370     5.7830    -0.3700 C.ar  1 <1>  -0.1500 
 21 O       -4.4650    -4.3700    -0.5160 O.3   1 <1>  -0.0190 
 22 C       -2.3880    -3.8700    -0.4080 C.2   1 <1>  -0.1500 
 23 C       -0.9770     5.8970    -1.5400 C.ar  1 <1>  -0.1500 
 24 N       -3.8500    -5.5160    -0.4740 N.2   1 <1>  -0.4100 
 25 C       -2.5970    -5.2460    -0.4070 C.2   1 <1>   0.1080 
 26 C       -1.5030    -6.2880    -0.3370 C.3   1 <1>  -0.0590 
 27 H        0.2450     2.3260     3.0450 H     1 <1>   0.0800 
 28 H       -1.3350     2.8980     2.5870 H     1 <1>   0.0800 
 29 H       -2.9840     2.3000     0.5890 H     1 <1>   0.0800 
 30 H       -1.7840     1.6990    -0.5510 H     1 <1>   0.0800 
 31 H       -1.6930    -1.5660     1.1500 H     1 <1>   0.0800 
 32 H       -3.2280    -1.0040     1.7960 H     1 <1>   0.0800 
 33 H       -3.6890     0.8090    -1.6140 H     1 <1>   0.0800 
 34 H       -2.3180    -1.0530    -1.0660 H     1 <1>   0.0800 
 35 H        1.6760     1.4610     0.7090 H     1 <1>   0.1500 
 36 H       -4.6870    -1.8140    -1.4630 H     1 <1>   0.0800 
 37 H       -4.9260    -1.8500     0.2560 H     1 <1>   0.0800 
 38 H       -2.0390     4.7250     1.4540 H     1 <1>   0.1500 
 39 H        2.0660     2.8410    -1.5640 H     1 <1>   0.1500 
 40 H       -6.5210     1.8090     0.1650 H     1 <1>   0.0800 
 41 H       -5.8280     1.6520    -1.4430 H     1 <1>   0.0800 
 42 H       -5.0660     2.7070    -0.2440 H     1 <1>   0.0800 
 43 H        0.6580     5.1070    -2.6750 H     1 <1>   0.1500 
 44 H       -2.5410     6.4780    -0.2000 H     1 <1>   0.1500 
 45 H       -1.4350    -3.3770    -0.3640 H     1 <1>   0.1500 
 46 H       -1.2150     6.6730    -2.2460 H     1 <1>   0.1500 
 47 H       -0.8390    -6.1780    -1.1740 H     1 <1>   0.0800 
 48 H       -1.9340    -7.2730    -0.3600 H     1 <1>   0.0800 
 49 H       -0.9480    -6.1720     0.5760 H     1 <1>   0.0800 
@<TRIPOS>BOND
  1   1   2  2   
  2   2   3  am  
  3   2   4  1   
  4   3   5  1   
  5   3   6  1   
  6   4   7  1   
  7   4  27  1   
  8   4  28  1   
  9   5   8  1   
 10   5  29  1   
 11   5  30  1   
 12   6   9  1   
 13   6  31  1   
 14   6  32  1   
 15   7  10  1   
 16   7  11  1   
 17   8   9  1   
 18   8  12  1   
 19   8  33  1   
 20   9  13  1   
 21   9  34  1   
 22  10  14  ar  
 23  10  15  ar  
 24  11  16  2   
 25  11  35  1   
 26  12  17  1   
 27  13  18  1   
 28  13  36  1   
 29  13  37  1   
 30  14  16  1   
 31  14  19  ar  
 32  15  20  ar  
 33  15  38  1   
 34  16  39  1   
 35  17  40  1   
 36  17  41  1   
 37  17  42  1   
 38  18  21  1   
 39  18  22  2   
 40  19  23  ar  
 41  19  43  1   
 42  20  23  ar  
 43  20  44  1   
 44  21  24  1   
 45  22  25  1   
 46  22  45  1   
 47  23  46  1   
 48  24  25  2   
 49  25  26  1   
 50  26  47  1   
 51  26  48  1   
 52  26  49  1   
@<TRIPOS>SUBSTRUCTURE
  1 ****   5 GROUP 4 **** **** 0

# MOE 2024.06 (io_trps.svl 2023.06)
