@<TRIPOS>MOLECULE
NONAME
48 50 1 0 0 
SMALL
USER_CHARGES


@<TRIPOS>ATOM
  1 F        2.0300    -0.6360     1.8470 F     1 <1>  -0.3400 
  2 C        2.6980    -1.5390     1.1390 C.3   1 <1>   1.1640 
  3 F        3.2690    -0.8780     0.1390 F     1 <1>  -0.3400 
  4 F        3.6850    -1.9680     1.9140 F     1 <1>  -0.3400 
  5 C        1.8140    -2.6890     0.6460 C.ar  1 <1>  -0.1440 
  6 C        0.5970    -2.9930     1.2230 C.ar  1 <1>  -0.1500 
  7 C        2.1950    -3.5030    -0.4110 C.ar  1 <1>  -0.1500 
  8 C       -0.1720    -4.0490     0.7460 C.ar  1 <1>   0.4100 
  9 C        1.3680    -4.5350    -0.8190 C.ar  1 <1>   0.1660 
 10 N        0.2060    -4.8180    -0.2650 N.ar  1 <1>  -0.6200 
 11 N       -1.3910    -4.3240     1.3280 N.pl3 1 <1>  -0.8380 
 12 C        1.7710    -5.4290    -1.9720 C.3   1 <1>  -0.0970 
 13 C       -1.9020    -5.7260     1.5060 C.3   1 <1>   0.2090 
 14 C       -2.4690    -3.2950     1.3380 C.3   1 <1>   0.2090 
 15 C       -2.9460    -6.0750     0.4260 C.3   1 <1>   0.2000 
 16 C       -3.5410    -3.6250     0.2890 C.3   1 <1>  -0.1600 
 17 O       -2.2870    -6.0540    -0.8020 O.3   1 <1>  -0.6800 
 18 C       -4.1200    -5.0640     0.4370 C.3   1 <1>  -0.1060 
 19 C       -4.8400    -5.2680     1.7810 C.2   1 <1>   0.9060 
 20 C       -5.1150    -5.3850    -0.7130 C.3   1 <1>  -0.0170 
 21 O       -5.0920    -4.3080     2.5200 O.co2 1 <1>  -0.9000 
 22 O       -5.1360    -6.4210     2.1220 O.co2 1 <1>  -0.9000 
 23 C       -6.2000    -4.3340    -0.9440 C.ar  1 <1>  -0.1430 
 24 C       -6.1420    -3.5040    -2.0540 C.ar  1 <1>  -0.1500 
 25 C       -7.2570    -4.2000    -0.0570 C.ar  1 <1>  -0.1500 
 26 C       -7.1270    -2.5560    -2.2760 C.ar  1 <1>  -0.1500 
 27 C       -8.2410    -3.2520    -0.2750 C.ar  1 <1>  -0.1500 
 28 C       -8.1790    -2.4290    -1.3860 C.ar  1 <1>  -0.1500 
 29 H        0.2120    -2.4330     2.0550 H     1 <1>   0.1500 
 30 H        3.1310    -3.3360    -0.9140 H     1 <1>   0.1500 
 31 H        2.7250    -5.1440    -2.3750 H     1 <1>   0.0800 
 32 H        1.0310    -5.3670    -2.7490 H     1 <1>   0.0800 
 33 H        1.8260    -6.4470    -1.6320 H     1 <1>   0.0800 
 34 H       -1.0880    -6.4280     1.4580 H     1 <1>   0.0800 
 35 H       -2.3500    -5.8140     2.4800 H     1 <1>   0.0800 
 36 H       -2.9080    -3.2590     2.3210 H     1 <1>   0.0800 
 37 H       -2.0580    -2.3240     1.1260 H     1 <1>   0.0800 
 38 H       -3.3130    -7.0760     0.5770 H     1 <1>   0.0800 
 39 H       -4.3370    -2.9090     0.3920 H     1 <1>   0.0800 
 40 H       -3.1170    -3.5000    -0.6900 H     1 <1>   0.0800 
 41 H       -1.5020    -5.4560    -0.6770 H     1 <1>   0.4000 
 42 H       -4.5740    -5.5090    -1.6320 H     1 <1>   0.0800 
 43 H       -5.5890    -6.3300    -0.5090 H     1 <1>   0.0800 
 44 H       -5.3250    -3.5950    -2.7470 H     1 <1>   0.1500 
 45 H       -7.3080    -4.8310     0.8160 H     1 <1>   0.1500 
 46 H       -7.0710    -1.9170    -3.1390 H     1 <1>   0.1500 
 47 H       -9.0490    -3.1580     0.4290 H     1 <1>   0.1500 
 48 H       -8.9430    -1.6920    -1.5520 H     1 <1>   0.1500 
@<TRIPOS>BOND
  1   1   2  1   
  2   2   3  1   
  3   2   4  1   
  4   2   5  1   
  5   5   6  ar  
  6   5   7  ar  
  7   6   8  ar  
  8   6  29  1   
  9   7   9  ar  
 10   7  30  1   
 11   8  10  ar  
 12   8  11  1   
 13   9  10  ar  
 14   9  12  1   
 15  11  13  1   
 16  11  14  1   
 17  12  31  1   
 18  12  32  1   
 19  12  33  1   
 20  13  15  1   
 21  13  34  1   
 22  13  35  1   
 23  14  16  1   
 24  14  36  1   
 25  14  37  1   
 26  15  17  1   
 27  15  18  1   
 28  15  38  1   
 29  16  18  1   
 30  16  39  1   
 31  16  40  1   
 32  17  41  1   
 33  18  19  1   
 34  18  20  1   
 35  19  21  ar  
 36  19  22  ar  
 37  20  23  1   
 38  20  42  1   
 39  20  43  1   
 40  23  24  ar  
 41  23  25  ar  
 42  24  26  ar  
 43  24  44  1   
 44  25  27  ar  
 45  25  45  1   
 46  26  28  ar  
 47  26  46  1   
 48  27  28  ar  
 49  27  47  1   
 50  28  48  1   
@<TRIPOS>SUBSTRUCTURE
  1 ****  14 GROUP 4 **** **** 0

# MOE 2024.06 (io_trps.svl 2023.06)
