@<TRIPOS>MOLECULE
NONAME
55 58 1 0 0 
SMALL
USER_CHARGES


@<TRIPOS>ATOM
  1 O       -0.3900    -0.1410     1.1940 O.2   1 <1>  -0.5700 
  2 C       -0.3300    -1.1050     0.4550 C.2   1 <1>   0.5440 
  3 N        0.8210    -1.3070    -0.2590 N.am  1 <1>  -0.7300 
  4 C       -1.4480    -2.0160     0.3450 C.ar  1 <1>   0.0860 
  5 C        2.0180    -0.4450    -0.2130 C.3   1 <1>   0.1400 
  6 C       -2.4230    -2.0640     1.3410 C.ar  1 <1>   0.1600 
  7 C       -1.6210    -2.8840    -0.7320 C.ar  1 <1>  -0.1500 
  8 C        3.2550    -1.3340    -0.1510 C.3   1 <1>  -0.2400 
  9 N       -3.4800    -2.8570     1.3640 N.ar  1 <1>  -0.6200 
 10 C       -2.7160    -3.7130    -0.7260 C.ar  1 <1>  -0.1500 
 11 C       -3.6250    -3.6770     0.3280 C.ar  1 <1>   0.4100 
 12 N       -4.7240    -4.5050     0.3170 N.pl3 1 <1>  -0.8380 
 13 C       -5.7200    -4.3780    -0.7740 C.3   1 <1>   0.2090 
 14 C       -5.3190    -4.9680     1.5990 C.3   1 <1>   0.2090 
 15 C       -6.3490    -5.7460    -1.0350 C.3   1 <1>  -0.1600 
 16 C       -5.9570    -6.3420     1.3890 C.3   1 <1>  -0.1600 
 17 C       -6.9830    -6.3330     0.2420 C.3   1 <1>   0.4240 
 18 O       -7.9610    -5.4100     0.6740 O.3   1 <1>  -0.5600 
 19 C       -7.5950    -7.7460     0.0090 C.ar  1 <1>  -0.1440 
 20 C       -9.2240    -5.4810     0.1000 C.3   1 <1>   0.1200 
 21 C       -6.8130    -8.8480    -0.3650 C.ar  1 <1>   0.0830 
 22 C       -8.9670    -7.9420     0.1700 C.ar  1 <1>  -0.1430 
 23 C       -9.8680    -6.7840     0.5450 C.3   1 <1>  -0.0170 
 24 O       -5.4780    -8.6760    -0.5520 O.3   1 <1>  -0.3620 
 25 C       -7.4020   -10.0980    -0.5480 C.ar  1 <1>  -0.1500 
 26 C       -9.5410    -9.1900    -0.0110 C.ar  1 <1>  -0.1500 
 27 C       -4.5950    -9.7480    -0.7970 C.3   1 <1>   0.0400 
 28 C       -8.7590   -10.2680    -0.3690 C.ar  1 <1>  -0.1500 
 29 H        0.9170    -2.1490    -0.8250 H     1 <1>   0.3700 
 30 H        1.9820     0.1960     0.6530 H     1 <1>   0.0800 
 31 H        2.0460     0.1730    -1.0940 H     1 <1>   0.0800 
 32 H       -2.3100    -1.3960     2.1790 H     1 <1>   0.1500 
 33 H       -0.9240    -2.9040    -1.5490 H     1 <1>   0.1500 
 34 H        3.2240    -1.9490     0.7310 H     1 <1>   0.0800 
 35 H        4.1360    -0.7200    -0.1050 H     1 <1>   0.0800 
 36 H        3.3180    -1.9570    -1.0250 H     1 <1>   0.0800 
 37 H       -2.8890    -4.4080    -1.5250 H     1 <1>   0.1500 
 38 H       -5.2500    -4.0130    -1.6700 H     1 <1>   0.0800 
 39 H       -6.4770    -3.6700    -0.4790 H     1 <1>   0.0800 
 40 H       -6.0560    -4.2550     1.9280 H     1 <1>   0.0800 
 41 H       -4.5540    -5.0360     2.3540 H     1 <1>   0.0800 
 42 H       -5.5740    -6.3920    -1.3960 H     1 <1>   0.0800 
 43 H       -7.0840    -5.6740    -1.8120 H     1 <1>   0.0800 
 44 H       -6.4420    -6.6610     2.2920 H     1 <1>   0.0800 
 45 H       -5.1650    -7.0340     1.1900 H     1 <1>   0.0800 
 46 H       -9.1350    -5.4330    -0.9710 H     1 <1>   0.0800 
 47 H       -9.7930    -4.6380     0.4480 H     1 <1>   0.0800 
 48 H      -10.8260    -6.8840     0.0680 H     1 <1>   0.0800 
 49 H      -10.0160    -6.7660     1.6100 H     1 <1>   0.0800 
 50 H       -6.8240   -10.9540    -0.8320 H     1 <1>   0.1500 
 51 H      -10.5990    -9.3270     0.1250 H     1 <1>   0.1500 
 52 H       -3.5960    -9.3520    -0.8420 H     1 <1>   0.0800 
 53 H       -4.8500   -10.2030    -1.7370 H     1 <1>   0.0800 
 54 H       -4.6710   -10.4540     0.0110 H     1 <1>   0.0800 
 55 H       -9.2080   -11.2360    -0.5090 H     1 <1>   0.1500 
@<TRIPOS>BOND
  1   1   2  2   
  2   2   3  am  
  3   2   4  1   
  4   3   5  1   
  5   3  29  1   
  6   4   6  ar  
  7   4   7  ar  
  8   5   8  1   
  9   5  30  1   
 10   5  31  1   
 11   6   9  ar  
 12   6  32  1   
 13   7  10  ar  
 14   7  33  1   
 15   8  34  1   
 16   8  35  1   
 17   8  36  1   
 18   9  11  ar  
 19  10  11  ar  
 20  10  37  1   
 21  11  12  1   
 22  12  13  1   
 23  12  14  1   
 24  13  15  1   
 25  13  38  1   
 26  13  39  1   
 27  14  16  1   
 28  14  40  1   
 29  14  41  1   
 30  15  17  1   
 31  15  42  1   
 32  15  43  1   
 33  16  17  1   
 34  16  44  1   
 35  16  45  1   
 36  17  18  1   
 37  17  19  1   
 38  18  20  1   
 39  19  21  ar  
 40  19  22  ar  
 41  20  23  1   
 42  20  46  1   
 43  20  47  1   
 44  21  24  1   
 45  21  25  ar  
 46  22  23  1   
 47  22  26  ar  
 48  23  48  1   
 49  23  49  1   
 50  24  27  1   
 51  25  28  ar  
 52  25  50  1   
 53  26  28  ar  
 54  26  51  1   
 55  27  52  1   
 56  27  53  1   
 57  27  54  1   
 58  28  55  1   
@<TRIPOS>SUBSTRUCTURE
  1 ****  12 GROUP 4 **** **** 0

# MOE 2024.06 (io_trps.svl 2023.06)
