@<TRIPOS>MOLECULE
NONAME
46 47 1 0 0 
SMALL
USER_CHARGES


@<TRIPOS>ATOM
  1 F        0.3890     0.0880     0.9920 F     1 <1>  -0.3400 
  2 C        0.8530     1.2300     1.4880 C.3   1 <1>   1.1640 
  3 F       -0.0990     1.6970     2.2890 F     1 <1>  -0.3400 
  4 F        1.8730     0.9090     2.2720 F     1 <1>  -0.3400 
  5 C        1.2590     2.2410     0.4040 C.ar  1 <1>  -0.1440 
  6 C        1.3510     3.5960     0.7100 C.ar  1 <1>  -0.1500 
  7 C        1.5510     1.8310    -0.8930 C.ar  1 <1>  -0.1500 
  8 C        1.7200     4.5230    -0.2510 C.ar  1 <1>  -0.1440 
  9 C        1.9190     2.7530    -1.8570 C.ar  1 <1>  -0.1500 
 10 C        2.0030     4.0950    -1.5370 C.ar  1 <1>  -0.1500 
 11 C        1.8210     6.0000     0.0950 C.3   1 <1>  -0.0160 
 12 C        3.2700     6.3680     0.4140 C.3   1 <1>   0.1400 
 13 N        3.3640     7.8090     0.7510 N.am  1 <1>  -0.7300 
 14 C        3.5890     8.7910    -0.1600 C.2   1 <1>   0.5690 
 15 O        3.6950     8.5460    -1.3380 O.2   1 <1>  -0.5700 
 16 C        3.7050    10.2320     0.3390 C.3   1 <1>  -0.0190 
 17 C        3.2680    11.2700    -0.7160 C.3   1 <1>  -0.1600 
 18 C        5.1400    10.5300     0.8350 C.3   1 <1>  -0.1600 
 19 C        3.2480    12.7060    -0.1500 C.3   1 <1>   0.2000 
 20 C        5.4770    12.0340     0.9000 C.3   1 <1>  -0.1600 
 21 O        3.6110    13.5970    -1.1770 O.3   1 <1>  -0.5600 
 22 C        4.2170    12.8920     1.0480 C.3   1 <1>   0.2000 
 23 C        2.6120    13.8650    -2.1120 C.3   1 <1>   0.0400 
 24 O        4.6050    14.2140     1.1180 O.3   1 <1>  -0.6800 
 25 H        1.1330     3.9330     1.7100 H     1 <1>   0.1500 
 26 H        1.4940     0.7900    -1.1660 H     1 <1>   0.1500 
 27 H        2.1420     2.4260    -2.8580 H     1 <1>   0.1500 
 28 H        2.2920     4.8050    -2.2930 H     1 <1>   0.1500 
 29 H        1.1940     6.2220     0.9390 H     1 <1>   0.0800 
 30 H        1.4830     6.5850    -0.7430 H     1 <1>   0.0800 
 31 H        3.8890     6.1590    -0.4430 H     1 <1>   0.0800 
 32 H        3.6300     5.7800     1.2400 H     1 <1>   0.0800 
 33 H        3.2800     8.0420     1.7410 H     1 <1>   0.3700 
 34 H        3.0330    10.3280     1.1730 H     1 <1>   0.0800 
 35 H        2.2900    11.0170    -1.0830 H     1 <1>   0.0800 
 36 H        3.9590    11.2200    -1.5420 H     1 <1>   0.0800 
 37 H        5.2640    10.0930     1.8110 H     1 <1>   0.0800 
 38 H        5.8510    10.0550     0.1790 H     1 <1>   0.0800 
 39 H        2.2570    12.9570     0.1890 H     1 <1>   0.0800 
 40 H        5.9730    12.3170    -0.0130 H     1 <1>   0.0800 
 41 H        6.1470    12.2210     1.7200 H     1 <1>   0.0800 
 42 H        3.7230    12.6450     1.9710 H     1 <1>   0.0800 
 43 H        3.0020    14.5750    -2.8210 H     1 <1>   0.0800 
 44 H        1.7580    14.2870    -1.6120 H     1 <1>   0.0800 
 45 H        2.3440    12.9580    -2.6250 H     1 <1>   0.0800 
 46 H        4.6060    14.5390     0.1880 H     1 <1>   0.4000 
@<TRIPOS>BOND
  1   1   2  1   
  2   2   3  1   
  3   2   4  1   
  4   2   5  1   
  5   5   6  ar  
  6   5   7  ar  
  7   6   8  ar  
  8   6  25  1   
  9   7   9  ar  
 10   7  26  1   
 11   8  10  ar  
 12   8  11  1   
 13   9  10  ar  
 14   9  27  1   
 15  10  28  1   
 16  11  12  1   
 17  11  29  1   
 18  11  30  1   
 19  12  13  1   
 20  12  31  1   
 21  12  32  1   
 22  13  14  am  
 23  13  33  1   
 24  14  15  2   
 25  14  16  1   
 26  16  17  1   
 27  16  18  1   
 28  16  34  1   
 29  17  19  1   
 30  17  35  1   
 31  17  36  1   
 32  18  20  1   
 33  18  37  1   
 34  18  38  1   
 35  19  21  1   
 36  19  22  1   
 37  19  39  1   
 38  20  22  1   
 39  20  40  1   
 40  20  41  1   
 41  21  23  1   
 42  22  24  1   
 43  22  42  1   
 44  23  43  1   
 45  23  44  1   
 46  23  45  1   
 47  24  46  1   
@<TRIPOS>SUBSTRUCTURE
  1 ****  12 GROUP 4 **** **** 0

# MOE 2024.06 (io_trps.svl 2023.06)
