@<TRIPOS>MOLECULE
NONAME
43 45 1 0 0 
SMALL
USER_CHARGES


@<TRIPOS>ATOM
  1 O       -0.4280     0.7570    -0.3100 O.2   1 <1>  -0.5700 
  2 C       -0.1150     1.8430     0.1550 C.2   1 <1>   0.5440 
  3 N       -1.1110     2.6060     0.7480 N.am  1 <1>  -0.6600 
  4 C        1.2780     2.2860     0.0280 C.ar  1 <1>   0.3960 
  5 C       -2.5050     2.0950     0.9150 C.3   1 <1>   0.1400 
  6 C       -0.9070     4.0280     1.1570 C.3   1 <1>   0.1400 
  7 N        1.8970     2.9040     1.0530 N.ar  1 <1>  -0.6200 
  8 C        1.9380     2.0410    -1.1800 C.ar  1 <1>  -0.1500 
  9 C       -3.5180     2.9010     0.0560 C.3   1 <1>   0.0000 
 10 C       -2.2260     4.8160     1.1790 C.3   1 <1>  -0.1600 
 11 C        3.1430     3.2580     0.8420 C.ar  1 <1>   0.3920 
 12 C        3.2460     2.4300    -1.3770 C.ar  1 <1>  -0.1500 
 13 C       -4.9360     2.6200     0.6050 C.3   1 <1>   0.2000 
 14 C       -3.1240     4.4080     0.0020 C.3   1 <1>  -0.1600 
 15 C       -3.5900     2.2990    -1.3580 C.3   1 <1>  -0.1600 
 16 O        3.7120     3.8530     1.8720 O.3   1 <1>  -0.5320 
 17 C        3.8620     3.0610    -0.3230 C.ar  1 <1>  -0.1500 
 18 O       -5.8540     3.5370     0.0790 O.3   1 <1>  -0.5600 
 19 C       -5.2930     1.2330     0.0560 C.3   1 <1>  -0.1600 
 20 C       -4.5260     1.0870    -1.2660 C.3   1 <1>  -0.1600 
 21 C       -6.9980     3.7360     0.8480 C.3   1 <1>   0.0400 
 22 H       -2.5570     1.0480     0.6740 H     1 <1>   0.0800 
 23 H       -2.7610     2.1880     1.9550 H     1 <1>   0.0800 
 24 H       -0.4460     4.0580     2.1300 H     1 <1>   0.0800 
 25 H       -0.2400     4.4990     0.4550 H     1 <1>   0.0800 
 26 H        1.4060     1.5370    -1.9680 H     1 <1>   0.1500 
 27 H       -2.7400     4.6390     2.1070 H     1 <1>   0.0800 
 28 H       -2.0090     5.8680     1.1260 H     1 <1>   0.0800 
 29 H        3.7590     2.2450    -2.3060 H     1 <1>   0.1500 
 30 H       -4.9650     2.6670     1.6800 H     1 <1>   0.0800 
 31 H       -2.5710     4.5910    -0.9040 H     1 <1>   0.0800 
 32 H       -3.9880     5.0450    -0.0320 H     1 <1>   0.0800 
 33 H       -4.0320     3.0180    -2.0270 H     1 <1>   0.0800 
 34 H       -2.6180     2.0290    -1.7340 H     1 <1>   0.0800 
 35 H        3.0770     3.8660     2.6070 H     1 <1>   0.4500 
 36 H        4.8810     3.3970    -0.3840 H     1 <1>   0.1500 
 37 H       -4.9480     0.4830     0.7450 H     1 <1>   0.0800 
 38 H       -6.3510     1.1080    -0.0820 H     1 <1>   0.0800 
 39 H       -3.9580     0.1720    -1.2670 H     1 <1>   0.0800 
 40 H       -5.2030     1.0790    -2.1020 H     1 <1>   0.0800 
 41 H       -7.6320     4.4310     0.3270 H     1 <1>   0.0800 
 42 H       -6.7150     4.1480     1.8010 H     1 <1>   0.0800 
 43 H       -7.5140     2.8010     0.9760 H     1 <1>   0.0800 
@<TRIPOS>BOND
  1   1   2  2   
  2   2   3  am  
  3   2   4  1   
  4   3   5  1   
  5   3   6  1   
  6   4   7  ar  
  7   4   8  ar  
  8   5   9  1   
  9   5  22  1   
 10   5  23  1   
 11   6  10  1   
 12   6  24  1   
 13   6  25  1   
 14   7  11  ar  
 15   8  12  ar  
 16   8  26  1   
 17   9  13  1   
 18   9  14  1   
 19   9  15  1   
 20  10  14  1   
 21  10  27  1   
 22  10  28  1   
 23  11  16  1   
 24  11  17  ar  
 25  12  17  ar  
 26  12  29  1   
 27  13  18  1   
 28  13  19  1   
 29  13  30  1   
 30  14  31  1   
 31  14  32  1   
 32  15  20  1   
 33  15  33  1   
 34  15  34  1   
 35  16  35  1   
 36  17  36  1   
 37  18  21  1   
 38  19  20  1   
 39  19  37  1   
 40  19  38  1   
 41  20  39  1   
 42  20  40  1   
 43  21  41  1   
 44  21  42  1   
 45  21  43  1   
@<TRIPOS>SUBSTRUCTURE
  1 ****   3 GROUP 4 **** **** 0

# MOE 2024.06 (io_trps.svl 2023.06)
