@<TRIPOS>MOLECULE
NONAME
45 47 1 0 0 
SMALL
USER_CHARGES


@<TRIPOS>ATOM
  1 O       -0.5910    -1.1050    -2.0530 O.2   1 <1>  -0.5700 
  2 C       -1.4810    -1.2600    -1.2500 C.2   1 <1>   0.5690 
  3 N       -1.7700    -0.3270    -0.2990 N.am  1 <1>  -0.6600 
  4 C       -2.2790    -2.5420    -1.3260 C.3   1 <1>  -0.0190 
  5 C       -2.9240    -0.4860     0.6330 C.3   1 <1>   0.2200 
  6 C       -0.9880     0.9360    -0.1670 C.3   1 <1>   0.0600 
  7 C       -2.1080    -3.3670    -0.0360 C.3   1 <1>   0.1200 
  8 C       -3.7150    -2.2750    -1.8230 C.3   1 <1>   0.1400 
  9 C       -2.7250    -1.6970     1.5810 C.3   1 <1>   0.1200 
 10 C       -4.2630    -0.4460    -0.1400 C.3   1 <1>   0.1400 
 11 O       -2.9390    -2.9610     1.0080 O.3   1 <1>  -0.5600 
 12 N       -4.6590    -1.7410    -0.7870 N.am  1 <1>  -0.6600 
 13 C       -5.7430    -2.4340    -0.3010 C.2   1 <1>   0.5690 
 14 O       -6.5120    -1.9340     0.4890 O.2   1 <1>  -0.5700 
 15 C       -6.0130    -3.8630    -0.7470 C.3   1 <1>  -0.0990 
 16 C       -7.1570    -4.5150     0.0280 C.3   1 <1>   0.1200 
 17 O       -7.3430    -5.8230    -0.4690 O.3   1 <1>  -0.3630 
 18 C       -8.3170    -6.6280     0.0270 C.ar  1 <1>   0.0820 
 19 C       -9.1740    -6.2600     1.0610 C.ar  1 <1>  -0.1500 
 20 C       -8.4430    -7.8830    -0.5470 C.ar  1 <1>  -0.1500 
 21 C      -10.1430    -7.1440     1.5050 C.ar  1 <1>  -0.1500 
 22 C       -9.4120    -8.7660    -0.1020 C.ar  1 <1>  -0.1500 
 23 C      -10.2630    -8.3960     0.9250 C.ar  1 <1>  -0.1500 
 24 H       -1.8070    -3.1190    -2.1000 H     1 <1>   0.0800 
 25 H       -2.9270     0.3830     1.2670 H     1 <1>   0.0800 
 26 H       -0.5840     1.0130     0.8280 H     1 <1>   0.0800 
 27 H       -1.6240     1.7810    -0.3600 H     1 <1>   0.0800 
 28 H       -0.1710     0.9560    -0.8680 H     1 <1>   0.0800 
 29 H       -1.0880    -3.3320     0.3070 H     1 <1>   0.0800 
 30 H       -2.3580    -4.3930    -0.2390 H     1 <1>   0.0800 
 31 H       -4.0980    -3.1890    -2.2360 H     1 <1>   0.0800 
 32 H       -3.6710    -1.5690    -2.6340 H     1 <1>   0.0800 
 33 H       -3.4320    -1.6150     2.3870 H     1 <1>   0.0800 
 34 H       -1.7360    -1.6800     2.0030 H     1 <1>   0.0800 
 35 H       -4.2140     0.3210    -0.8920 H     1 <1>   0.0800 
 36 H       -5.0250    -0.1450     0.5560 H     1 <1>   0.0800 
 37 H       -6.2630    -3.8540    -1.7910 H     1 <1>   0.0800 
 38 H       -5.1230    -4.4430    -0.5900 H     1 <1>   0.0800 
 39 H       -8.0710    -3.9640    -0.1100 H     1 <1>   0.0800 
 40 H       -6.9160    -4.5760     1.0760 H     1 <1>   0.0800 
 41 H       -9.1050    -5.2970     1.5290 H     1 <1>   0.1500 
 42 H       -7.7780    -8.1630    -1.3440 H     1 <1>   0.1500 
 43 H      -10.8040    -6.8570     2.3040 H     1 <1>   0.1500 
 44 H       -9.5030    -9.7380    -0.5540 H     1 <1>   0.1500 
 45 H      -11.0160    -9.0810     1.2730 H     1 <1>   0.1500 
@<TRIPOS>BOND
  1   1   2  2   
  2   2   3  am  
  3   2   4  1   
  4   3   5  1   
  5   3   6  1   
  6   4   7  1   
  7   4   8  1   
  8   4  24  1   
  9   5   9  1   
 10   5  10  1   
 11   5  25  1   
 12   6  26  1   
 13   6  27  1   
 14   6  28  1   
 15   7  11  1   
 16   7  29  1   
 17   7  30  1   
 18   8  12  1   
 19   8  31  1   
 20   8  32  1   
 21   9  11  1   
 22   9  33  1   
 23   9  34  1   
 24  10  12  1   
 25  10  35  1   
 26  10  36  1   
 27  12  13  am  
 28  13  14  2   
 29  13  15  1   
 30  15  16  1   
 31  15  37  1   
 32  15  38  1   
 33  16  17  1   
 34  16  39  1   
 35  16  40  1   
 36  17  18  1   
 37  18  19  ar  
 38  18  20  ar  
 39  19  21  ar  
 40  19  41  1   
 41  20  22  ar  
 42  20  42  1   
 43  21  23  ar  
 44  21  43  1   
 45  22  23  ar  
 46  22  44  1   
 47  23  45  1   
@<TRIPOS>SUBSTRUCTURE
  1 ****  15 GROUP 4 **** **** 0

# MOE 2024.06 (io_trps.svl 2023.06)
