@<TRIPOS>MOLECULE
NONAME
43 45 1 0 0 
SMALL
USER_CHARGES


@<TRIPOS>ATOM
  1 O       -2.4510     0.2100    -2.6210 O.2   1 <1>  -0.5700 
  2 C       -2.4150    -0.4090    -1.5890 C.2   1 <1>   0.5690 
  3 N       -2.1740     0.1900    -0.3850 N.am  1 <1>  -0.6600 
  4 C       -2.6990    -1.8870    -1.6610 C.3   1 <1>  -0.0190 
  5 C       -2.1820    -0.5530     0.9070 C.3   1 <1>   0.2200 
  6 C       -1.8260     1.6430    -0.2990 C.3   1 <1>   0.0600 
  7 C       -1.5180    -2.7400    -1.1500 C.3   1 <1>   0.1200 
  8 C       -4.0730    -2.1490    -1.0340 C.3   1 <1>   0.3430 
  9 C       -1.0800    -1.6400     0.9250 C.3   1 <1>   0.1200 
 10 C       -3.6050    -1.0830     1.2350 C.3   1 <1>   0.3430 
 11 O       -1.4540    -2.8120     0.2490 O.3   1 <1>  -0.5600 
 12 N       -4.0320    -2.2990     0.4580 N.4   1 <1>  -0.9590 
 13 C       -5.2580    -2.9380     1.0000 C.3   1 <1>   0.5240 
 14 C       -5.4360    -4.2740     0.3140 C.2   1 <1>  -0.1810 
 15 C       -4.6040    -5.3840     0.4420 C.2   1 <1>   0.1080 
 16 C       -6.3950    -4.6570    -0.5620 C.2   1 <1>  -0.3320 
 17 N       -4.9950    -6.3670    -0.2990 N.2   1 <1>  -0.7070 
 18 C       -3.3700    -5.5190     1.3110 C.3   1 <1>  -0.0590 
 19 N       -6.1080    -5.9300    -0.9110 N.pl3 1 <1>   0.3000 
 20 C       -7.5990    -3.9100    -1.1160 C.3   1 <1>  -0.0600 
 21 H       -2.7980    -2.1120    -2.7080 H     1 <1>   0.0800 
 22 H       -1.9280     0.1540     1.6780 H     1 <1>   0.0800 
 23 H       -2.5490     2.1620     0.3060 H     1 <1>   0.0800 
 24 H       -1.8160     2.0970    -1.2770 H     1 <1>   0.0800 
 25 H       -0.8480     1.7620     0.1340 H     1 <1>   0.0800 
 26 H       -0.5800    -2.3600    -1.5230 H     1 <1>   0.0800 
 27 H       -1.6300    -3.7510    -1.5060 H     1 <1>   0.0800 
 28 H       -4.4510    -3.0610    -1.4670 H     1 <1>   0.0800 
 29 H       -4.7490    -1.3550    -1.3090 H     1 <1>   0.0800 
 30 H       -0.8820    -1.9250     1.9440 H     1 <1>   0.0800 
 31 H       -0.1620    -1.2650     0.5030 H     1 <1>   0.0800 
 32 H       -4.3120    -0.2850     1.0820 H     1 <1>   0.0800 
 33 H       -3.6190    -1.3320     2.2840 H     1 <1>   0.0800 
 34 H       -3.2630    -2.9840     0.5930 H     1 <1>   0.4500 
 35 H       -5.1630    -3.0950     2.0620 H     1 <1>   0.0800 
 36 H       -6.1170    -2.3150     0.8160 H     1 <1>   0.0800 
 37 H       -3.3720    -4.8070     2.1130 H     1 <1>   0.0800 
 38 H       -2.4880    -5.3870     0.7120 H     1 <1>   0.0800 
 39 H       -3.3430    -6.5080     1.7340 H     1 <1>   0.0800 
 40 H       -6.6440    -6.5260    -1.5540 H     1 <1>   0.2700 
 41 H       -7.6540    -2.9120    -0.7210 H     1 <1>   0.0800 
 42 H       -8.5060    -4.4270    -0.8520 H     1 <1>   0.0800 
 43 H       -7.5390    -3.8500    -2.1890 H     1 <1>   0.0800 
@<TRIPOS>BOND
  1   1   2  2   
  2   2   3  am  
  3   2   4  1   
  4   3   5  1   
  5   3   6  1   
  6   4   7  1   
  7   4   8  1   
  8   4  21  1   
  9   5   9  1   
 10   5  10  1   
 11   5  22  1   
 12   6  23  1   
 13   6  24  1   
 14   6  25  1   
 15   7  11  1   
 16   7  26  1   
 17   7  27  1   
 18   8  12  1   
 19   8  28  1   
 20   8  29  1   
 21   9  11  1   
 22   9  30  1   
 23   9  31  1   
 24  10  12  1   
 25  10  32  1   
 26  10  33  1   
 27  12  13  1   
 28  12  34  1   
 29  13  14  1   
 30  13  35  1   
 31  13  36  1   
 32  14  15  1   
 33  14  16  2   
 34  15  17  2   
 35  15  18  1   
 36  16  19  1   
 37  16  20  1   
 38  17  19  1   
 39  18  37  1   
 40  18  38  1   
 41  18  39  1   
 42  19  40  1   
 43  20  41  1   
 44  20  42  1   
 45  20  43  1   
@<TRIPOS>SUBSTRUCTURE
  1 ****  12 GROUP 4 **** **** 0

# MOE 2024.06 (io_trps.svl 2023.06)
