@<TRIPOS>MOLECULE
NONAME
36 37 1 0 0 
SMALL
USER_CHARGES


@<TRIPOS>ATOM
  1 O        2.4500    -0.6830    -2.5530 O.2   1 <1>  -0.5700 
  2 C        2.2990    -0.9530    -1.3720 C.2   1 <1>   0.5440 
  3 N        2.4600     0.0280    -0.4260 N.am  1 <1>  -0.4930 
  4 C        1.9480    -2.3040    -0.9450 C.ar  1 <1>   0.3960 
  5 C        2.7950     1.3970    -0.5690 C.2   1 <1>   0.0630 
  6 N        1.7900    -2.5660     0.3550 N.ar  1 <1>  -0.6200 
  7 C        1.7770    -3.3200    -1.8690 C.ar  1 <1>  -0.1500 
  8 C        3.0550     2.1360    -1.7250 C.2   1 <1>   0.1390 
  9 C        2.9310     2.2870     0.4340 C.2   1 <1>  -0.3020 
 10 C        1.4730    -3.8060     0.6710 C.ar  1 <1>   0.4770 
 11 C        1.4480    -4.5740    -1.4220 C.ar  1 <1>   0.1670 
 12 N        3.3300     3.3810    -1.4660 N.2   1 <1>  -0.7070 
 13 N        3.2530     3.4770    -0.1240 N.pl3 1 <1>   0.3140 
 14 N        1.2930    -4.8270    -0.1450 N.ar  1 <1>  -0.6200 
 15 C        1.2930    -4.1070     2.1400 C.3   1 <1>  -0.0970 
 16 C        1.2470    -5.7290    -2.3800 C.3   1 <1>  -0.0970 
 17 C        3.5060     4.7640     0.5800 C.3   1 <1>   0.1760 
 18 C        4.7110     4.6420     1.5230 C.3   1 <1>  -0.2400 
 19 C        2.2540     5.2230     1.3420 C.3   1 <1>  -0.2400 
 20 H        2.3130    -0.2960     0.5330 H     1 <1>   0.3700 
 21 H        1.9030    -3.1210    -2.9170 H     1 <1>   0.1500 
 22 H        3.0320     1.7270    -2.7200 H     1 <1>   0.1500 
 23 H        2.8200     2.1480     1.4920 H     1 <1>   0.1500 
 24 H        1.4520    -3.2260     2.7330 H     1 <1>   0.0800 
 25 H        1.9960    -4.8620     2.4380 H     1 <1>   0.0800 
 26 H        0.2970    -4.4690     2.3100 H     1 <1>   0.0800 
 27 H        1.3960    -5.4190    -3.3970 H     1 <1>   0.0800 
 28 H        0.2490    -6.1130    -2.2750 H     1 <1>   0.0800 
 29 H        1.9450    -6.5130    -2.1490 H     1 <1>   0.0800 
 30 H        3.7340     5.4960    -0.1750 H     1 <1>   0.0800 
 31 H        4.5160     3.9310     2.3050 H     1 <1>   0.0800 
 32 H        4.9240     5.5950     1.9720 H     1 <1>   0.0800 
 33 H        5.5780     4.3300     0.9680 H     1 <1>   0.0800 
 34 H        2.0020     4.5250     2.1200 H     1 <1>   0.0800 
 35 H        1.4250     5.3110     0.6620 H     1 <1>   0.0800 
 36 H        2.4280     6.1850     1.7880 H     1 <1>   0.0800 
@<TRIPOS>BOND
  1   1   2  2   
  2   2   3  am  
  3   2   4  1   
  4   3   5  1   
  5   3  20  1   
  6   4   6  ar  
  7   4   7  ar  
  8   5   8  1   
  9   5   9  2   
 10   6  10  ar  
 11   7  11  ar  
 12   7  21  1   
 13   8  12  2   
 14   8  22  1   
 15   9  13  1   
 16   9  23  1   
 17  10  14  ar  
 18  10  15  1   
 19  11  14  ar  
 20  11  16  1   
 21  12  13  1   
 22  13  17  1   
 23  15  24  1   
 24  15  25  1   
 25  15  26  1   
 26  16  27  1   
 27  16  28  1   
 28  16  29  1   
 29  17  18  1   
 30  17  19  1   
 31  17  30  1   
 32  18  31  1   
 33  18  32  1   
 34  18  33  1   
 35  19  34  1   
 36  19  35  1   
 37  19  36  1   
@<TRIPOS>SUBSTRUCTURE
  1 ****   3 GROUP 4 **** **** 0

# MOE 2024.06 (io_trps.svl 2023.06)
