@<TRIPOS>MOLECULE
NONAME
48 51 1 0 0 
SMALL
USER_CHARGES


@<TRIPOS>ATOM
  1 O        0.0130     2.7800    -0.1590 O.2   1 <1>  -0.5700 
  2 C       -1.1350     2.4970     0.1720 C.2   1 <1>   0.5440 
  3 N       -1.8280     3.3030     1.0700 N.am  1 <1>  -0.2980 
  4 C       -1.7900     1.3130    -0.3160 C.ar  1 <1>   0.0860 
  5 N       -3.0490     2.9710     1.6050 N.2   1 <1>  -0.5120 
  6 C       -1.2810     4.6240     1.5020 C.3   1 <1>   0.2010 
  7 C       -3.0530     1.0070     0.2090 C.ar  1 <1>   0.0860 
  8 C       -1.2340     0.4610    -1.2760 C.ar  1 <1>  -0.1500 
  9 C       -3.6060     1.8910     1.1870 C.2   1 <1>   0.3040 
 10 C       -0.8370     5.5070     0.3280 C.2   1 <1>   0.5690 
 11 C       -3.7180    -0.1400    -0.2350 C.ar  1 <1>  -0.1500 
 12 C       -1.9030    -0.6650    -1.7030 C.ar  1 <1>  -0.1500 
 13 O       -1.6930     5.8520    -0.4520 O.2   1 <1>  -0.5700 
 14 N        0.4750     5.8950     0.1240 N.am  1 <1>  -0.6600 
 15 C       -3.1510    -0.9670    -1.1790 C.ar  1 <1>  -0.1500 
 16 C        1.5790     5.7700     1.1480 C.3   1 <1>   0.2200 
 17 C        0.8050     6.4950    -1.2090 C.3   1 <1>   0.1400 
 18 C        2.3850     7.0700     1.3100 C.3   1 <1>   0.1200 
 19 C        2.5230     4.5800     0.8410 C.3   1 <1>   0.3430 
 20 C        2.2890     6.4620    -1.6100 C.3   1 <1>  -0.0800 
 21 O        3.4460     7.1130     0.4050 O.3   1 <1>  -0.5600 
 22 N        2.4450     4.1040    -0.5800 N.4   1 <1>  -0.9590 
 23 C        3.1190     7.5260    -0.8780 C.3   1 <1>   0.1200 
 24 C        2.9570     5.0730    -1.6000 C.3   1 <1>   0.3430 
 25 C        3.0890     2.7700    -0.7280 C.3   1 <1>   0.2630 
 26 H       -2.0500     5.1550     2.0330 H     1 <1>   0.0800 
 27 H       -0.4840     4.4340     2.1870 H     1 <1>   0.0800 
 28 H       -0.2670     0.6930    -1.6860 H     1 <1>   0.1500 
 29 H       -4.5650     1.6180     1.5920 H     1 <1>   0.0600 
 30 H       -4.6870    -0.3780     0.1680 H     1 <1>   0.1500 
 31 H       -1.4640    -1.3150    -2.4430 H     1 <1>   0.1500 
 32 H       -3.6710    -1.8490    -1.5160 H     1 <1>   0.1500 
 33 H        1.1430     5.6020     2.1130 H     1 <1>   0.0800 
 34 H        0.2450     5.9700    -1.9650 H     1 <1>   0.0800 
 35 H        0.4530     7.5140    -1.2180 H     1 <1>   0.0800 
 36 H        2.8260     7.0920     2.2920 H     1 <1>   0.0800 
 37 H        1.7650     7.9450     1.2030 H     1 <1>   0.0800 
 38 H        2.2430     3.7680     1.4900 H     1 <1>   0.0800 
 39 H        3.5370     4.8530     1.0850 H     1 <1>   0.0800 
 40 H        2.3070     6.7810    -2.6370 H     1 <1>   0.0800 
 41 H        1.4220     3.9680    -0.7370 H     1 <1>   0.4500 
 42 H        2.6020     8.4710    -0.8240 H     1 <1>   0.0800 
 43 H        4.0490     7.6860    -1.3980 H     1 <1>   0.0800 
 44 H        4.0180     5.2070    -1.4620 H     1 <1>   0.0800 
 45 H        2.8130     4.6350    -2.5740 H     1 <1>   0.0800 
 46 H        4.1430     2.8350    -0.5150 H     1 <1>   0.0800 
 47 H        2.9580     2.4040    -1.7330 H     1 <1>   0.0800 
 48 H        2.6370     2.0660    -0.0490 H     1 <1>   0.0800 
@<TRIPOS>BOND
  1   1   2  2   
  2   2   3  am  
  3   2   4  1   
  4   3   5  1   
  5   3   6  1   
  6   4   7  ar  
  7   4   8  ar  
  8   5   9  2   
  9   6  10  1   
 10   6  26  1   
 11   6  27  1   
 12   7   9  1   
 13   7  11  ar  
 14   8  12  ar  
 15   8  28  1   
 16   9  29  1   
 17  10  13  2   
 18  10  14  am  
 19  11  15  ar  
 20  11  30  1   
 21  12  15  ar  
 22  12  31  1   
 23  14  16  1   
 24  14  17  1   
 25  15  32  1   
 26  16  18  1   
 27  16  19  1   
 28  16  33  1   
 29  17  20  1   
 30  17  34  1   
 31  17  35  1   
 32  18  21  1   
 33  18  36  1   
 34  18  37  1   
 35  19  22  1   
 36  19  38  1   
 37  19  39  1   
 38  20  23  1   
 39  20  24  1   
 40  20  40  1   
 41  21  23  1   
 42  22  24  1   
 43  22  25  1   
 44  22  41  1   
 45  23  42  1   
 46  23  43  1   
 47  24  44  1   
 48  24  45  1   
 49  25  46  1   
 50  25  47  1   
 51  25  48  1   
@<TRIPOS>SUBSTRUCTURE
  1 ****   1 GROUP 4 **** **** 0

# MOE 2024.06 (io_trps.svl 2023.06)
