@<TRIPOS>MOLECULE
NONAME
52 55 1 0 0 
SMALL
USER_CHARGES


@<TRIPOS>ATOM
  1 O        2.0150    -0.8180     1.2640 O.3   1 <1>  -0.5600 
  2 C        1.0290    -1.2140     0.3490 C.3   1 <1>   0.2000 
  3 C        1.6230     0.2190     2.1130 C.3   1 <1>   0.0400 
  4 C        1.6400    -2.0900    -0.7580 C.3   1 <1>   0.0000 
  5 C       -0.0470    -2.0800     1.0140 C.3   1 <1>  -0.1600 
  6 C        2.6400    -3.0980    -0.1420 C.3   1 <1>   0.3430 
  7 C        2.3030    -1.2190    -1.8610 C.3   1 <1>  -0.1600 
  8 C        0.4150    -2.8640    -1.2640 C.3   1 <1>  -0.1600 
  9 C       -0.4120    -3.1650    -0.0090 C.3   1 <1>  -0.1600 
 10 N        3.9500    -2.4270     0.0180 N.4   1 <1>  -0.9590 
 11 C        3.5940    -1.8590    -2.4000 C.3   1 <1>  -0.1600 
 12 C        4.6190    -2.1600    -1.2930 C.3   1 <1>   0.3430 
 13 C        4.8380    -3.0990     0.9950 C.3   1 <1>   0.4860 
 14 C        5.9590    -2.1400     1.3750 C.ar  1 <1>  -0.1440 
 15 C        7.2980    -2.3750     1.0340 C.ar  1 <1>  -0.0230 
 16 C        5.6190    -0.9970     2.0870 C.ar  1 <1>  -0.1500 
 17 N        7.7240    -3.5420     0.3310 N.pl3 1 <1>   0.5930 
 18 C        8.2550    -1.4320     1.4050 C.ar  1 <1>  -0.1500 
 19 C        6.5850    -0.0770     2.4490 C.ar  1 <1>  -0.1500 
 20 N        7.0860    -4.0390    -0.7620 N.2   1 <1>  -0.7070 
 21 C        8.7920    -4.3210     0.6270 C.2   1 <1>  -0.3020 
 22 C        7.9040    -0.2940     2.1050 C.ar  1 <1>  -0.1500 
 23 C        7.7690    -5.0830    -1.1200 C.2   1 <1>   0.1390 
 24 C        8.8520    -5.3130    -0.2830 C.2   1 <1>  -0.1500 
 25 H        0.5770    -0.3400    -0.0920 H     1 <1>   0.0800 
 26 H        2.4460     0.4570     2.7630 H     1 <1>   0.0800 
 27 H        0.7800    -0.0950     2.7040 H     1 <1>   0.0800 
 28 H        1.3660     1.0850     1.5260 H     1 <1>   0.0800 
 29 H        0.3280    -2.5360     1.9140 H     1 <1>   0.0800 
 30 H       -0.9090    -1.4810     1.2510 H     1 <1>   0.0800 
 31 H        2.7490    -3.9540    -0.7880 H     1 <1>   0.0800 
 32 H        2.2670    -3.4300     0.8130 H     1 <1>   0.0800 
 33 H        1.6200    -1.0360    -2.6730 H     1 <1>   0.0800 
 34 H        2.5640    -0.2580    -1.4500 H     1 <1>   0.0800 
 35 H       -0.1730    -2.2370    -1.9130 H     1 <1>   0.0800 
 36 H        0.6760    -3.7590    -1.8020 H     1 <1>   0.0800 
 37 H       -0.1570    -4.1360     0.3820 H     1 <1>   0.0800 
 38 H       -1.4670    -3.1560    -0.2330 H     1 <1>   0.0800 
 39 H        3.6950    -1.5140     0.4350 H     1 <1>   0.4500 
 40 H        4.0500    -1.2130    -3.1300 H     1 <1>   0.0800 
 41 H        3.3510    -2.7780    -2.9050 H     1 <1>   0.0800 
 42 H        5.2920    -1.3250    -1.1810 H     1 <1>   0.0800 
 43 H        5.2000    -3.0150    -1.5950 H     1 <1>   0.0800 
 44 H        4.2780    -3.3420     1.8830 H     1 <1>   0.0800 
 45 H        5.2220    -4.0160     0.5830 H     1 <1>   0.0800 
 46 H        4.5970    -0.8080     2.3700 H     1 <1>   0.1500 
 47 H        9.2890    -1.5820     1.1440 H     1 <1>   0.1500 
 48 H        6.3130     0.8080     3.0010 H     1 <1>   0.1500 
 49 H        9.4380    -4.1200     1.4620 H     1 <1>   0.1500 
 50 H        8.6580     0.4230     2.3840 H     1 <1>   0.1500 
 51 H        7.5220    -5.7010    -1.9700 H     1 <1>   0.1500 
 52 H        9.5640    -6.1170    -0.3700 H     1 <1>   0.1500 
@<TRIPOS>BOND
  1   1   2  1   
  2   1   3  1   
  3   2   4  1   
  4   2   5  1   
  5   2  25  1   
  6   3  26  1   
  7   3  27  1   
  8   3  28  1   
  9   4   6  1   
 10   4   7  1   
 11   4   8  1   
 12   5   9  1   
 13   5  29  1   
 14   5  30  1   
 15   6  10  1   
 16   6  31  1   
 17   6  32  1   
 18   7  11  1   
 19   7  33  1   
 20   7  34  1   
 21   8   9  1   
 22   8  35  1   
 23   8  36  1   
 24   9  37  1   
 25   9  38  1   
 26  10  12  1   
 27  10  13  1   
 28  10  39  1   
 29  11  12  1   
 30  11  40  1   
 31  11  41  1   
 32  12  42  1   
 33  12  43  1   
 34  13  14  1   
 35  13  44  1   
 36  13  45  1   
 37  14  15  ar  
 38  14  16  ar  
 39  15  17  1   
 40  15  18  ar  
 41  16  19  ar  
 42  16  46  1   
 43  17  20  1   
 44  17  21  1   
 45  18  22  ar  
 46  18  47  1   
 47  19  22  ar  
 48  19  48  1   
 49  20  23  2   
 50  21  24  2   
 51  21  49  1   
 52  22  50  1   
 53  23  24  1   
 54  23  51  1   
 55  24  52  1   
@<TRIPOS>SUBSTRUCTURE
  1 ****  10 GROUP 4 **** **** 0

# MOE 2024.06 (io_trps.svl 2023.06)
