@<TRIPOS>MOLECULE
NONAME
55 56 1 0 0 
SMALL
USER_CHARGES


@<TRIPOS>ATOM
  1 O       -1.0070     0.3840     0.4690 O.2   1 <1>  -0.5700 
  2 C       -1.9330     1.1150     0.7400 C.2   1 <1>   0.5690 
  3 N       -3.1060     0.5710     1.1980 N.am  1 <1>  -0.6600 
  4 C       -1.8210     2.6290     0.4770 C.3   1 <1>  -0.0190 
  5 C       -3.0990    -0.7900     1.8140 C.3   1 <1>   0.3200 
  6 C       -4.4640     1.1110     0.8800 C.3   1 <1>   0.1400 
  7 C       -0.4790     3.1100    -0.1570 C.3   1 <1>  -0.0190 
  8 C       -2.1420     3.5010     1.7130 C.3   1 <1>  -0.1600 
  9 C       -3.2850    -1.8590     0.7520 C.2   1 <1>   0.0060 
 10 C       -4.8830     0.7240    -0.5430 C.3   1 <1>   0.1200 
 11 C        0.7840     2.5560     0.5180 C.2   1 <1>   0.5690 
 12 C       -0.3820     4.6590    -0.2300 C.3   1 <1>  -0.1600 
 13 C       -2.3570     4.9790     1.3280 C.3   1 <1>  -0.1600 
 14 N       -4.2990    -2.6600     0.6600 N.2   1 <1>  -0.5650 
 15 N       -2.3620    -2.0390    -0.2150 N.pl3 1 <1>   0.0330 
 16 O       -6.0790     1.3560    -0.8500 O.3   1 <1>  -0.6800 
 17 O        1.0000     2.8170     1.6790 O.2   1 <1>  -0.5700 
 18 N        1.6330     1.8080    -0.2380 N.am  1 <1>  -0.7300 
 19 C       -1.7280     5.3670    -0.0230 C.3   1 <1>  -0.1600 
 20 C       -4.0170    -3.4070    -0.4260 C.2   1 <1>   0.0770 
 21 C       -2.8390    -3.0410    -0.9760 C.2   1 <1>  -0.3020 
 22 C        2.8540     1.1110     0.1740 C.3   1 <1>   0.3000 
 23 C        2.5180     0.0800     1.2510 C.3   1 <1>  -0.2400 
 24 C        3.8890     2.1220     0.6670 C.3   1 <1>  -0.2400 
 25 C        3.3850     0.3990    -1.0690 C.3   1 <1>  -0.2400 
 26 H       -2.5830     2.8290    -0.2520 H     1 <1>   0.0800 
 27 H       -2.1630    -0.9530     2.3210 H     1 <1>   0.0800 
 28 H       -3.8860    -0.8660     2.5440 H     1 <1>   0.0800 
 29 H       -5.1800     0.7220     1.5840 H     1 <1>   0.0800 
 30 H       -4.4660     2.1820     0.9580 H     1 <1>   0.0800 
 31 H       -0.4830     2.7430    -1.1670 H     1 <1>   0.0800 
 32 H       -3.0100     3.1460     2.2360 H     1 <1>   0.0800 
 33 H       -1.3240     3.4350     2.4090 H     1 <1>   0.0800 
 34 H       -5.0280    -0.3380    -0.6400 H     1 <1>   0.0800 
 35 H       -4.1490     1.0560    -1.2550 H     1 <1>   0.0800 
 36 H        0.2880     5.0150     0.5350 H     1 <1>   0.0800 
 37 H        0.0420     4.9480    -1.1760 H     1 <1>   0.0800 
 38 H       -3.4110     5.1910     1.2870 H     1 <1>   0.0800 
 39 H       -1.9360     5.5960     2.1050 H     1 <1>   0.0800 
 40 H       -1.5060    -1.4740    -0.3150 H     1 <1>   0.2700 
 41 H       -6.8300     0.8830    -0.4390 H     1 <1>   0.4000 
 42 H        1.3210     1.5360    -1.1660 H     1 <1>   0.3700 
 43 H       -1.5890     6.4340    -0.0610 H     1 <1>   0.0800 
 44 H       -2.3960     5.1010    -0.8250 H     1 <1>   0.0800 
 45 H       -4.6880    -4.1820    -0.7600 H     1 <1>   0.1500 
 46 H       -2.3280    -3.4250    -1.8390 H     1 <1>   0.1500 
 47 H        3.3900    -0.4960     1.5000 H     1 <1>   0.0800 
 48 H        1.7500    -0.5880     0.9050 H     1 <1>   0.0800 
 49 H        2.1740     0.5660     2.1460 H     1 <1>   0.0800 
 50 H        4.8140     1.6240     0.8920 H     1 <1>   0.0800 
 51 H        3.5490     2.6070     1.5640 H     1 <1>   0.0800 
 52 H        4.0750     2.8680    -0.0840 H     1 <1>   0.0800 
 53 H        4.2870    -0.1340    -0.8290 H     1 <1>   0.0800 
 54 H        3.6110     1.1100    -1.8430 H     1 <1>   0.0800 
 55 H        2.6650    -0.3110    -1.4350 H     1 <1>   0.0800 
@<TRIPOS>BOND
  1   1   2  2   
  2   2   3  am  
  3   2   4  1   
  4   3   5  1   
  5   3   6  1   
  6   4   7  1   
  7   4   8  1   
  8   4  26  1   
  9   5   9  1   
 10   5  27  1   
 11   5  28  1   
 12   6  10  1   
 13   6  29  1   
 14   6  30  1   
 15   7  11  1   
 16   7  12  1   
 17   7  31  1   
 18   8  13  1   
 19   8  32  1   
 20   8  33  1   
 21   9  14  2   
 22   9  15  1   
 23  10  16  1   
 24  10  34  1   
 25  10  35  1   
 26  11  17  2   
 27  11  18  am  
 28  12  19  1   
 29  12  36  1   
 30  12  37  1   
 31  13  19  1   
 32  13  38  1   
 33  13  39  1   
 34  14  20  1   
 35  15  21  1   
 36  15  40  1   
 37  16  41  1   
 38  18  22  1   
 39  18  42  1   
 40  19  43  1   
 41  19  44  1   
 42  20  21  2   
 43  20  45  1   
 44  21  46  1   
 45  22  23  1   
 46  22  24  1   
 47  22  25  1   
 48  23  47  1   
 49  23  48  1   
 50  23  49  1   
 51  24  50  1   
 52  24  51  1   
 53  24  52  1   
 54  25  53  1   
 55  25  54  1   
 56  25  55  1   
@<TRIPOS>SUBSTRUCTURE
  1 ****   2 GROUP 4 **** **** 0

# MOE 2024.06 (io_trps.svl 2023.06)
