@<TRIPOS>MOLECULE
NONAME
48 50 1 0 0 
SMALL
USER_CHARGES


@<TRIPOS>ATOM
  1 O        0.2880     0.9290     1.7210 O.2   1 <1>  -0.5700 
  2 C       -0.0180     1.5720     0.7360 C.2   1 <1>   0.5440 
  3 N       -1.3410     1.6440     0.4100 N.am  1 <1>  -0.7300 
  4 C        0.9930     2.2110    -0.0900 C.ar  1 <1>   0.0860 
  5 C       -2.4660     1.1210     1.2280 C.3   1 <1>   0.2200 
  6 C        0.7130     3.3470    -0.8540 C.ar  1 <1>  -0.1500 
  7 C        2.2920     1.7070    -0.1490 C.ar  1 <1>  -0.1500 
  8 C       -2.6360    -0.4060     1.0540 C.3   1 <1>   0.2000 
  9 C       -3.7400     1.8730     0.8280 C.3   1 <1>  -0.1600 
 10 C        1.6780     3.9400    -1.6480 C.ar  1 <1>  -0.1500 
 11 C        3.2630     2.2940    -0.9400 C.ar  1 <1>  -0.1500 
 12 O       -1.5440    -1.0760     1.5850 O.3   1 <1>  -0.6800 
 13 C       -3.8930    -0.9160     1.7650 C.3   1 <1>   0.1400 
 14 C       -4.9620     1.3330     1.5740 C.3   1 <1>   0.1400 
 15 C        2.9560     3.4120    -1.6940 C.ar  1 <1>  -0.1500 
 16 N       -5.0880    -0.1300     1.3230 N.am  1 <1>  -0.6600 
 17 C       -6.1930    -0.6510     0.6960 C.2   1 <1>   0.5690 
 18 O       -7.0780     0.0590     0.2830 O.2   1 <1>  -0.5700 
 19 C       -6.3230    -2.1580     0.4900 C.3   1 <1>  -0.0990 
 20 C       -7.6860    -2.6040    -0.0760 C.3   1 <1>  -0.1600 
 21 C       -7.7320    -4.1220    -0.2970 C.3   1 <1>   0.0960 
 22 N       -9.0680    -4.5690    -0.7380 N.pl3 1 <1>   0.3140 
 23 N       -9.7460    -5.5130    -0.1250 N.2   1 <1>  -0.4180 
 24 C       -9.7900    -4.1710    -1.7690 C.2   1 <1>   0.0360 
 25 N      -10.8410    -5.6590    -0.7810 N.2   1 <1>   0.0000 
 26 N      -10.8850    -4.8260    -1.8160 N.2   1 <1>  -0.3380 
 27 H       -1.6020     2.0200    -0.5020 H     1 <1>   0.3700 
 28 H       -2.2660     1.3210     2.2680 H     1 <1>   0.0800 
 29 H       -0.2700     3.7810    -0.8220 H     1 <1>   0.1500 
 30 H        2.5420     0.8380     0.4370 H     1 <1>   0.1500 
 31 H       -2.6930    -0.6500     0.0080 H     1 <1>   0.0800 
 32 H       -3.6270     2.9170     1.0590 H     1 <1>   0.0800 
 33 H       -3.9170     1.7730    -0.2280 H     1 <1>   0.0800 
 34 H        1.4400     4.8140    -2.2300 H     1 <1>   0.1500 
 35 H        4.2570     1.8820    -0.9680 H     1 <1>   0.1500 
 36 H       -0.7700    -0.4510     1.6260 H     1 <1>   0.4000 
 37 H       -3.7740    -0.7950     2.8280 H     1 <1>   0.0800 
 38 H       -4.0070    -1.9620     1.5540 H     1 <1>   0.0800 
 39 H       -5.8450     1.8560     1.2460 H     1 <1>   0.0800 
 40 H       -4.8550     1.5010     2.6330 H     1 <1>   0.0800 
 41 H        3.7100     3.8710    -2.3110 H     1 <1>   0.1500 
 42 H       -5.5430    -2.4670    -0.1820 H     1 <1>   0.0800 
 43 H       -6.1700    -2.6400     1.4380 H     1 <1>   0.0800 
 44 H       -7.8620    -2.0960    -1.0090 H     1 <1>   0.0800 
 45 H       -8.4600    -2.3160     0.6170 H     1 <1>   0.0800 
 46 H       -7.4970    -4.6320     0.6210 H     1 <1>   0.0800 
 47 H       -7.0140    -4.4150    -1.0420 H     1 <1>   0.0800 
 48 H       -9.4860    -3.4060    -2.4580 H     1 <1>   0.1500 
@<TRIPOS>BOND
  1   1   2  2   
  2   2   3  am  
  3   2   4  1   
  4   3   5  1   
  5   3  27  1   
  6   4   6  ar  
  7   4   7  ar  
  8   5   8  1   
  9   5   9  1   
 10   5  28  1   
 11   6  10  ar  
 12   6  29  1   
 13   7  11  ar  
 14   7  30  1   
 15   8  12  1   
 16   8  13  1   
 17   8  31  1   
 18   9  14  1   
 19   9  32  1   
 20   9  33  1   
 21  10  15  ar  
 22  10  34  1   
 23  11  15  ar  
 24  11  35  1   
 25  12  36  1   
 26  13  16  1   
 27  13  37  1   
 28  13  38  1   
 29  14  16  1   
 30  14  39  1   
 31  14  40  1   
 32  15  41  1   
 33  16  17  am  
 34  17  18  2   
 35  17  19  1   
 36  19  20  1   
 37  19  42  1   
 38  19  43  1   
 39  20  21  1   
 40  20  44  1   
 41  20  45  1   
 42  21  22  1   
 43  21  46  1   
 44  21  47  1   
 45  22  23  1   
 46  22  24  1   
 47  23  25  2   
 48  24  26  2   
 49  24  48  1   
 50  25  26  1   
@<TRIPOS>SUBSTRUCTURE
  1 ****   8 GROUP 4 **** **** 0

# MOE 2024.06 (io_trps.svl 2023.06)
