@<TRIPOS>MOLECULE
NONAME
45 46 1 0 0 
SMALL
USER_CHARGES


@<TRIPOS>ATOM
  1 O        0.3840    -0.1730    -0.3150 O.3   1 <1>  -0.5600 
  2 C        1.5430    -0.8650    -0.7180 C.3   1 <1>   0.2000 
  3 C        0.3600     1.1890    -0.6160 C.3   1 <1>   0.1200 
  4 C        2.8260    -0.1970    -0.1520 C.3   1 <1>   0.5660 
  5 C        1.4350    -2.3190    -0.2290 C.3   1 <1>   0.1200 
  6 C        1.5390     1.9020     0.0690 C.3   1 <1>   0.3430 
  7 N        2.8560     1.2970    -0.3230 N.4   1 <1>  -0.9590 
  8 C        4.0740    -0.7740    -0.8080 C.ar  1 <1>  -0.1440 
  9 O        1.6620    -2.3840     1.1440 O.3   1 <1>  -0.6800 
 10 C        4.0020     1.8790     0.4310 C.3   1 <1>   0.3430 
 11 C        4.3490    -0.5810    -2.1580 C.ar  1 <1>  -0.1500 
 12 C        4.9630    -1.5070    -0.0340 C.ar  1 <1>  -0.1500 
 13 C        4.2480     3.3260     0.0010 C.3   1 <1>  -0.1600 
 14 C        5.5010    -1.1060    -2.7170 C.ar  1 <1>  -0.1500 
 15 C        6.1140    -2.0300    -0.5950 C.ar  1 <1>  -0.1500 
 16 C        5.5150     3.9060     0.6510 C.3   1 <1>  -0.0800 
 17 C        6.3840    -1.8280    -1.9360 C.ar  1 <1>  -0.1500 
 18 C        5.4000     3.9620     2.1810 C.3   1 <1>  -0.2400 
 19 C        5.7780     5.3150     0.1080 C.3   1 <1>  -0.2400 
 20 H        1.5610    -0.8620    -1.7930 H     1 <1>   0.0800 
 21 H        0.3920     1.3130    -1.6850 H     1 <1>   0.0800 
 22 H       -0.5720     1.5850    -0.2530 H     1 <1>   0.0800 
 23 H        2.8610    -0.4220     0.9020 H     1 <1>   0.0800 
 24 H        2.1720    -2.9380    -0.7140 H     1 <1>   0.0800 
 25 H        0.4530    -2.7090    -0.4400 H     1 <1>   0.0800 
 26 H        1.4050     1.8260     1.1370 H     1 <1>   0.0800 
 27 H        1.5200     2.9470    -0.1930 H     1 <1>   0.0800 
 28 H        3.0260     1.4600    -1.3190 H     1 <1>   0.4500 
 29 H        1.3660    -3.2480     1.5010 H     1 <1>   0.4000 
 30 H        3.8080     1.8360     1.4910 H     1 <1>   0.0800 
 31 H        4.8960     1.3080     0.2330 H     1 <1>   0.0800 
 32 H        3.6800    -0.0310    -2.7960 H     1 <1>   0.1500 
 33 H        4.7680    -1.6840     1.0120 H     1 <1>   0.1500 
 34 H        4.3720     3.3570    -1.0680 H     1 <1>   0.0800 
 35 H        3.4110     3.9440     0.2690 H     1 <1>   0.0800 
 36 H        5.7150    -0.9570    -3.7620 H     1 <1>   0.1500 
 37 H        6.8010    -2.5980     0.0100 H     1 <1>   0.1500 
 38 H        6.3610     3.2880     0.3920 H     1 <1>   0.0800 
 39 H        7.2800    -2.2360    -2.3720 H     1 <1>   0.1500 
 40 H        4.5480     4.5480     2.4800 H     1 <1>   0.0800 
 41 H        6.2810     4.4180     2.5980 H     1 <1>   0.0800 
 42 H        5.3140     2.9790     2.6060 H     1 <1>   0.0800 
 43 H        4.9660     5.9790     0.3490 H     1 <1>   0.0800 
 44 H        5.8990     5.2930    -0.9610 H     1 <1>   0.0800 
 45 H        6.6810     5.7170     0.5340 H     1 <1>   0.0800 
@<TRIPOS>BOND
  1   1   2  1   
  2   1   3  1   
  3   2   4  1   
  4   2   5  1   
  5   2  20  1   
  6   3   6  1   
  7   3  21  1   
  8   3  22  1   
  9   4   7  1   
 10   4   8  1   
 11   4  23  1   
 12   5   9  1   
 13   5  24  1   
 14   5  25  1   
 15   6   7  1   
 16   6  26  1   
 17   6  27  1   
 18   7  10  1   
 19   7  28  1   
 20   8  11  ar  
 21   8  12  ar  
 22   9  29  1   
 23  10  13  1   
 24  10  30  1   
 25  10  31  1   
 26  11  14  ar  
 27  11  32  1   
 28  12  15  ar  
 29  12  33  1   
 30  13  16  1   
 31  13  34  1   
 32  13  35  1   
 33  14  17  ar  
 34  14  36  1   
 35  15  17  ar  
 36  15  37  1   
 37  16  18  1   
 38  16  19  1   
 39  16  38  1   
 40  17  39  1   
 41  18  40  1   
 42  18  41  1   
 43  18  42  1   
 44  19  43  1   
 45  19  44  1   
 46  19  45  1   
@<TRIPOS>SUBSTRUCTURE
  1 ****   4 GROUP 4 **** **** 0

# MOE 2024.06 (io_trps.svl 2023.06)
