@<TRIPOS>MOLECULE
NONAME
43 45 1 0 0 
SMALL
USER_CHARGES


@<TRIPOS>ATOM
  1 F       -2.2120     0.0980    -1.5180 F     1 <1>  -0.3400 
  2 C       -3.4230    -0.4490    -1.4300 C.3   1 <1>   0.8560 
  3 F       -4.2490     0.4620    -1.9380 F     1 <1>  -0.3400 
  4 N       -3.7670    -0.7090     0.0160 N.pl3 1 <1>   0.0480 
  5 C       -4.1030    -1.9310     0.5790 C.2   1 <1>  -0.2370 
  6 C       -3.7990     0.2200     1.0250 C.2   1 <1>  -0.3320 
  7 C       -4.1940    -3.1790    -0.1320 C.2   1 <1>   0.7150 
  8 C       -4.3310    -1.7270     1.9180 C.2   1 <1>  -0.1500 
  9 C       -4.1410    -0.3810     2.1930 C.2   1 <1>  -0.1500 
 10 C       -3.4940     1.6990     0.8460 C.3   1 <1>  -0.0600 
 11 O       -4.0600    -3.2440    -1.3380 O.2   1 <1>  -0.5700 
 12 N       -4.4520    -4.3220     0.5520 N.am  1 <1>  -0.7300 
 13 C       -4.5640    -5.6830    -0.0210 C.3   1 <1>   0.2200 
 14 C       -6.0140    -6.1500    -0.0540 C.3   1 <1>  -0.0800 
 15 C       -3.9750    -6.6790     0.9690 C.3   1 <1>   0.1200 
 16 C       -6.2330    -6.7020     1.3600 C.3   1 <1>   0.1200 
 17 C       -7.0530    -5.1010    -0.4920 C.3   1 <1>  -0.0160 
 18 O       -4.9660    -6.8580     1.9330 O.3   1 <1>  -0.5600 
 19 C       -8.4450    -5.7110    -0.5550 C.ar  1 <1>  -0.1430 
 20 C       -8.8560    -6.4740    -1.6280 C.ar  1 <1>  -0.1500 
 21 C       -9.3680    -5.5350     0.4570 C.ar  1 <1>  -0.1500 
 22 C      -10.1310    -7.0150    -1.6360 C.ar  1 <1>   0.1600 
 23 C      -10.6190    -6.1200     0.3510 C.ar  1 <1>   0.1600 
 24 N      -11.0210    -6.8590    -0.6700 N.ar  1 <1>  -0.6200 
 25 H       -3.4430    -1.3100    -2.0660 H     1 <1>   0.0800 
 26 H       -4.6120    -2.4540     2.6590 H     1 <1>   0.1500 
 27 H       -4.2500     0.0780     3.1610 H     1 <1>   0.1500 
 28 H       -3.5910     2.2150     1.7850 H     1 <1>   0.0800 
 29 H       -4.1780     2.1420     0.1440 H     1 <1>   0.0800 
 30 H       -2.4880     1.8350     0.4890 H     1 <1>   0.0800 
 31 H       -4.5660    -4.2790     1.5650 H     1 <1>   0.3700 
 32 H       -4.0870    -5.7340    -0.9850 H     1 <1>   0.0800 
 33 H       -6.0730    -6.9820    -0.7330 H     1 <1>   0.0800 
 34 H       -3.0720    -6.3240     1.4340 H     1 <1>   0.0800 
 35 H       -3.7970    -7.6290     0.4960 H     1 <1>   0.0800 
 36 H       -6.7310    -7.6560     1.3430 H     1 <1>   0.0800 
 37 H       -6.7860    -6.0140     1.9760 H     1 <1>   0.0800 
 38 H       -6.7870    -4.7190    -1.4630 H     1 <1>   0.0800 
 39 H       -7.0610    -4.2690     0.1900 H     1 <1>   0.0800 
 40 H       -8.1980    -6.6530    -2.4590 H     1 <1>   0.1500 
 41 H       -9.1290    -4.9490     1.3250 H     1 <1>   0.1500 
 42 H      -10.4340    -7.6080    -2.4820 H     1 <1>   0.1500 
 43 H      -11.3250    -5.9730     1.1490 H     1 <1>   0.1500 
@<TRIPOS>BOND
  1   1   2  1   
  2   2   3  1   
  3   2   4  1   
  4   2  25  1   
  5   4   5  1   
  6   4   6  1   
  7   5   7  1   
  8   5   8  2   
  9   6   9  2   
 10   6  10  1   
 11   7  11  2   
 12   7  12  am  
 13   8   9  1   
 14   8  26  1   
 15   9  27  1   
 16  10  28  1   
 17  10  29  1   
 18  10  30  1   
 19  12  13  1   
 20  12  31  1   
 21  13  14  1   
 22  13  15  1   
 23  13  32  1   
 24  14  16  1   
 25  14  17  1   
 26  14  33  1   
 27  15  18  1   
 28  15  34  1   
 29  15  35  1   
 30  16  18  1   
 31  16  36  1   
 32  16  37  1   
 33  17  19  1   
 34  17  38  1   
 35  17  39  1   
 36  19  20  ar  
 37  19  21  ar  
 38  20  22  ar  
 39  20  40  1   
 40  21  23  ar  
 41  21  41  1   
 42  22  24  ar  
 43  22  42  1   
 44  23  24  ar  
 45  23  43  1   
@<TRIPOS>SUBSTRUCTURE
  1 ****  12 GROUP 4 **** **** 0

# MOE 2024.06 (io_trps.svl 2023.06)
