@<TRIPOS>MOLECULE
NONAME
52 54 1 0 0 
SMALL
USER_CHARGES


@<TRIPOS>ATOM
  1 O       -1.8070    -2.2650    -1.6850 O.2   1 <1>  -0.5700 
  2 C       -0.7660    -2.6070    -1.1680 C.2   1 <1>   0.6900 
  3 N       -0.5580    -3.9110    -0.7700 N.am  1 <1>  -0.4200 
  4 N        0.1970    -1.6720    -0.9190 N.am  1 <1>  -0.5390 
  5 C        0.5790    -4.2340    -0.0480 C.2   1 <1>   0.6160 
  6 C       -1.4610    -5.0050    -1.2430 C.3   1 <1>   0.1400 
  7 C        1.3660    -1.9610    -0.2470 C.2   1 <1>  -0.0290 
  8 O        0.7040    -5.3630     0.3890 O.2   1 <1>  -0.5700 
  9 C        1.5570    -3.2250     0.1880 C.2   1 <1>  -0.1360 
 10 C       -2.2160    -5.7040    -0.0930 C.3   1 <1>   0.3430 
 11 C        2.3500    -0.8240    -0.0510 C.3   1 <1>  -0.1020 
 12 N       -3.4590    -5.0010     0.3730 N.4   1 <1>  -0.9590 
 13 C       -4.2460    -5.8910     1.2910 C.3   1 <1>   0.3430 
 14 C       -3.2690    -3.6360     0.9390 C.3   1 <1>   0.3430 
 15 C       -5.6660    -5.3510     1.5660 C.3   1 <1>   0.1400 
 16 C       -4.3160    -2.6920     0.3390 C.3   1 <1>  -0.1600 
 17 N       -6.1100    -4.4120     0.4870 N.am  1 <1>  -0.6600 
 18 C       -5.7680    -2.9840     0.7390 C.3   1 <1>   0.1400 
 19 C       -6.6620    -4.8080    -0.7150 C.2   1 <1>   0.5690 
 20 O       -6.8130    -4.0040    -1.6050 O.2   1 <1>  -0.5700 
 21 C       -7.0670    -6.2660    -1.0190 C.3   1 <1>   0.2610 
 22 O       -6.0910    -7.2130    -0.6580 O.3   1 <1>  -0.5600 
 23 C       -8.3420    -6.7370    -0.3190 C.3   1 <1>  -0.1600 
 24 C       -6.6910    -8.4670    -0.6010 C.3   1 <1>   0.1200 
 25 C       -8.0910    -8.2160    -0.0500 C.3   1 <1>  -0.1600 
 26 H       -0.0040    -0.7350    -1.2780 H     1 <1>   0.3700 
 27 H       -2.1590    -4.6430    -1.9770 H     1 <1>   0.0800 
 28 H       -0.8440    -5.7410    -1.7300 H     1 <1>   0.0800 
 29 H        2.4370    -3.5310     0.7230 H     1 <1>   0.1500 
 30 H       -1.5420    -5.8560     0.7340 H     1 <1>   0.0800 
 31 H       -2.5020    -6.6790    -0.4510 H     1 <1>   0.0800 
 32 H        1.8920    -0.0310     0.5130 H     1 <1>   0.0800 
 33 H        2.6650    -0.4380    -1.0040 H     1 <1>   0.0800 
 34 H        3.2200    -1.1640     0.4830 H     1 <1>   0.0800 
 35 H       -4.0860    -4.8580    -0.4370 H     1 <1>   0.4500 
 36 H       -4.3480    -6.8610     0.8330 H     1 <1>   0.0800 
 37 H       -3.7240    -6.0280     2.2230 H     1 <1>   0.0800 
 38 H       -3.3570    -3.6570     2.0130 H     1 <1>   0.0800 
 39 H       -2.2910    -3.2630     0.6970 H     1 <1>   0.0800 
 40 H       -5.6730    -4.8400     2.5130 H     1 <1>   0.0800 
 41 H       -6.3500    -6.1760     1.6550 H     1 <1>   0.0800 
 42 H       -4.0830    -1.6900     0.6520 H     1 <1>   0.0800 
 43 H       -4.2400    -2.6980    -0.7340 H     1 <1>   0.0800 
 44 H       -6.4270    -2.3470     0.1710 H     1 <1>   0.0800 
 45 H       -5.9220    -2.7530     1.7800 H     1 <1>   0.0800 
 46 H       -7.2020    -6.3580    -2.0840 H     1 <1>   0.0800 
 47 H       -8.4940    -6.2010     0.6010 H     1 <1>   0.0800 
 48 H       -9.1960    -6.5790    -0.9540 H     1 <1>   0.0800 
 49 H       -6.7350    -8.8630    -1.6020 H     1 <1>   0.0800 
 50 H       -6.1090    -9.1180     0.0280 H     1 <1>   0.0800 
 51 H       -8.8120    -8.8450    -0.5430 H     1 <1>   0.0800 
 52 H       -8.1150    -8.4220     1.0060 H     1 <1>   0.0800 
@<TRIPOS>BOND
  1   1   2  2   
  2   2   3  am  
  3   2   4  am  
  4   3   5  am  
  5   3   6  1   
  6   4   7  1   
  7   4  26  1   
  8   5   8  2   
  9   5   9  1   
 10   6  10  1   
 11   6  27  1   
 12   6  28  1   
 13   7   9  2   
 14   7  11  1   
 15   9  29  1   
 16  10  12  1   
 17  10  30  1   
 18  10  31  1   
 19  11  32  1   
 20  11  33  1   
 21  11  34  1   
 22  12  13  1   
 23  12  14  1   
 24  12  35  1   
 25  13  15  1   
 26  13  36  1   
 27  13  37  1   
 28  14  16  1   
 29  14  38  1   
 30  14  39  1   
 31  15  17  1   
 32  15  40  1   
 33  15  41  1   
 34  16  18  1   
 35  16  42  1   
 36  16  43  1   
 37  17  18  1   
 38  17  19  am  
 39  18  44  1   
 40  18  45  1   
 41  19  20  2   
 42  19  21  1   
 43  21  22  1   
 44  21  23  1   
 45  21  46  1   
 46  22  24  1   
 47  23  25  1   
 48  23  47  1   
 49  23  48  1   
 50  24  25  1   
 51  24  49  1   
 52  24  50  1   
 53  25  51  1   
 54  25  52  1   
@<TRIPOS>SUBSTRUCTURE
  1 ****  12 GROUP 4 **** **** 0

# MOE 2024.06 (io_trps.svl 2023.06)
