@<TRIPOS>MOLECULE
NONAME
39 41 1 0 0 
SMALL
USER_CHARGES


@<TRIPOS>ATOM
  1 S        0.9780     0.0030     2.0700 S.3   1 <1>  -0.0800 
  2 C        0.2590    -0.1430     0.4790 C.2   1 <1>   0.4620 
  3 C        1.3780     1.6570     1.7040 C.2   1 <1>  -0.1100 
  4 N       -0.2880    -1.3270     0.1140 N.pl3 1 <1>  -0.8840 
  5 N        0.3110     0.9220    -0.2270 N.2   1 <1>  -0.5650 
  6 C        0.9560     1.9430     0.4590 C.2   1 <1>   0.0460 
  7 C        1.1120     3.2810    -0.2720 C.3   1 <1>   0.4010 
  8 N        2.2040     4.1470     0.3090 N.am  1 <1>  -0.6600 
  9 C       -0.2800     3.9510    -0.2710 C.3   1 <1>   0.1200 
 10 C        3.4970     3.7020     0.3480 C.2   1 <1>   0.7800 
 11 C        1.9840     5.6270     0.3100 C.3   1 <1>   0.1400 
 12 O       -0.2320     5.3240    -0.5370 O.3   1 <1>  -0.5600 
 13 O        4.4220     4.4130     0.6910 O.2   1 <1>  -0.5700 
 14 O        3.7390     2.4470    -0.0100 O.3   1 <1>  -0.4300 
 15 C        0.5090     6.0260     0.4080 C.3   1 <1>   0.1200 
 16 C        5.0320     1.8920     0.0540 C.3   1 <1>   0.2630 
 17 C        4.9410     0.3700     0.0130 C.ar  1 <1>  -0.1430 
 18 C        3.8670    -0.2850    -0.5790 C.ar  1 <1>  -0.1500 
 19 C        5.9550    -0.3860     0.5830 C.ar  1 <1>  -0.1500 
 20 C        3.8070    -1.6670    -0.5950 C.ar  1 <1>  -0.1500 
 21 C        5.8980    -1.7690     0.5660 C.ar  1 <1>  -0.1500 
 22 C        4.8230    -2.4110    -0.0230 C.ar  1 <1>  -0.1500 
 23 H        1.8930     2.2300     2.4520 H     1 <1>   0.1500 
 24 H       -0.6800    -1.4370    -0.8210 H     1 <1>   0.4000 
 25 H       -0.2400    -2.1520     0.7120 H     1 <1>   0.4000 
 26 H        1.3760     3.0680    -1.2940 H     1 <1>   0.0800 
 27 H       -0.7560     3.8110     0.6840 H     1 <1>   0.0800 
 28 H       -0.9000     3.4890    -1.0180 H     1 <1>   0.0800 
 29 H        2.3910     6.0370    -0.5980 H     1 <1>   0.0800 
 30 H        2.5210     6.0660     1.1330 H     1 <1>   0.0800 
 31 H        0.3950     7.0760     0.2030 H     1 <1>   0.0800 
 32 H        0.1170     5.8220     1.3900 H     1 <1>   0.0800 
 33 H        5.4950     2.2050     0.9750 H     1 <1>   0.0800 
 34 H        5.6000     2.2640    -0.7800 H     1 <1>   0.0800 
 35 H        3.0650     0.2750    -1.0280 H     1 <1>   0.1500 
 36 H        6.7970     0.0990     1.0460 H     1 <1>   0.1500 
 37 H        2.9670    -2.1590    -1.0520 H     1 <1>   0.1500 
 38 H        6.6900    -2.3450     1.0110 H     1 <1>   0.1500 
 39 H        4.7770    -3.4860    -0.0350 H     1 <1>   0.1500 
@<TRIPOS>BOND
  1   1   2  1   
  2   1   3  1   
  3   2   4  1   
  4   2   5  2   
  5   3   6  2   
  6   3  23  1   
  7   4  24  1   
  8   4  25  1   
  9   5   6  1   
 10   6   7  1   
 11   7   8  1   
 12   7   9  1   
 13   7  26  1   
 14   8  10  am  
 15   8  11  1   
 16   9  12  1   
 17   9  27  1   
 18   9  28  1   
 19  10  13  2   
 20  10  14  1   
 21  11  15  1   
 22  11  29  1   
 23  11  30  1   
 24  12  15  1   
 25  14  16  1   
 26  15  31  1   
 27  15  32  1   
 28  16  17  1   
 29  16  33  1   
 30  16  34  1   
 31  17  18  ar  
 32  17  19  ar  
 33  18  20  ar  
 34  18  35  1   
 35  19  21  ar  
 36  19  36  1   
 37  20  22  ar  
 38  20  37  1   
 39  21  22  ar  
 40  21  38  1   
 41  22  39  1   
@<TRIPOS>SUBSTRUCTURE
  1 ****  14 GROUP 4 **** **** 0

# MOE 2024.06 (io_trps.svl 2023.06)
