@<TRIPOS>MOLECULE
NONAME
55 57 1 0 0 
SMALL
USER_CHARGES


@<TRIPOS>ATOM
  1 O        1.2010     3.8360     1.5990 O.2   1 <1>  -0.5700 
  2 C        1.3600     2.9310     0.8150 C.2   1 <1>   0.5690 
  3 N        0.5600     2.6360    -0.2330 N.am  1 <1>  -0.6600 
  4 C        2.5120     1.9690     0.8950 C.3   1 <1>  -0.0990 
  5 C        1.0350     1.4770    -1.0080 C.3   1 <1>   0.1400 
  6 C       -0.6680     3.3720    -0.6040 C.3   1 <1>   0.1400 
  7 C        2.4270     1.1890    -0.4290 C.3   1 <1>  -0.1600 
  8 C       -1.8930     2.4690    -0.4460 C.3   1 <1>  -0.1600 
  9 C       -3.1990     3.2500    -0.6860 C.3   1 <1>  -0.0990 
 10 C       -4.4630     2.4030    -0.5650 C.2   1 <1>   0.5690 
 11 O       -4.3610     1.2020    -0.6710 O.2   1 <1>  -0.5700 
 12 N       -5.6770     3.0070    -0.3580 N.am  1 <1>  -0.6600 
 13 C       -5.8730     4.4890    -0.3420 C.3   1 <1>   0.1400 
 14 C       -6.8980     2.1770    -0.1270 C.3   1 <1>   0.1400 
 15 C       -7.3230     4.8440    -0.6760 C.3   1 <1>  -0.1600 
 16 C       -7.8310     2.8760     0.8660 C.3   1 <1>  -0.1600 
 17 C       -8.3040     4.2630     0.3660 C.3   1 <1>   0.2800 
 18 O       -8.1990     5.1240     1.4820 O.3   1 <1>  -0.5600 
 19 C       -9.7710     4.1870    -0.1640 C.3   1 <1>   0.2000 
 20 C       -9.3340     5.7980     1.9470 C.3   1 <1>   0.1200 
 21 O       -9.8760     3.4290    -1.3360 O.3   1 <1>  -0.6800 
 22 C      -10.4600     5.5770    -0.3110 C.3   1 <1>   0.2800 
 23 C       -9.9820     6.5490     0.7820 C.3   1 <1>  -0.1600 
 24 O      -11.8140     5.3690    -0.1170 O.3   1 <1>  -0.6800 
 25 C      -10.3530     6.2280    -1.6980 C.3   1 <1>  -0.2400 
 26 H        3.4420     2.4990     0.9920 H     1 <1>   0.0800 
 27 H        2.3640     1.3210     1.7390 H     1 <1>   0.0800 
 28 H        0.3730     0.6420    -0.8470 H     1 <1>   0.0800 
 29 H        1.0840     1.7120    -2.0570 H     1 <1>   0.0800 
 30 H       -0.7670     4.2330     0.0360 H     1 <1>   0.0800 
 31 H       -0.5840     3.7160    -1.6210 H     1 <1>   0.0800 
 32 H        2.5820     0.1340    -0.2860 H     1 <1>   0.0800 
 33 H        3.1710     1.5580    -1.1150 H     1 <1>   0.0800 
 34 H       -1.8340     1.6570    -1.1480 H     1 <1>   0.0800 
 35 H       -1.9090     2.0610     0.5500 H     1 <1>   0.0800 
 36 H       -3.1830     3.6780    -1.6710 H     1 <1>   0.0800 
 37 H       -3.2480     4.0470     0.0330 H     1 <1>   0.0800 
 38 H       -5.6280     4.8660     0.6370 H     1 <1>   0.0800 
 39 H       -5.2250     4.9530    -1.0640 H     1 <1>   0.0800 
 40 H       -7.4050     2.0240    -1.0650 H     1 <1>   0.0800 
 41 H       -6.6190     1.2130     0.2640 H     1 <1>   0.0800 
 42 H       -7.5400     4.4590    -1.6560 H     1 <1>   0.0800 
 43 H       -7.4230     5.9120    -0.7170 H     1 <1>   0.0800 
 44 H       -7.2990     2.9780     1.7950 H     1 <1>   0.0800 
 45 H       -8.6720     2.2340     1.0470 H     1 <1>   0.0800 
 46 H      -10.3280     3.6420     0.5780 H     1 <1>   0.0800 
 47 H      -10.0090     5.0830     2.3870 H     1 <1>   0.0800 
 48 H       -9.0130     6.4860     2.7100 H     1 <1>   0.0800 
 49 H      -10.8190     3.4030    -1.5980 H     1 <1>   0.4000 
 50 H       -9.2400     7.2170     0.3850 H     1 <1>   0.0800 
 51 H      -10.7950     7.1530     1.1430 H     1 <1>   0.0800 
 52 H      -12.2990     6.2000    -0.2790 H     1 <1>   0.4000 
 53 H       -9.3250     6.3700    -1.9680 H     1 <1>   0.0800 
 54 H      -10.8330     7.1890    -1.7050 H     1 <1>   0.0800 
 55 H      -10.8060     5.6060    -2.4500 H     1 <1>   0.0800 
@<TRIPOS>BOND
  1   1   2  2   
  2   2   3  am  
  3   2   4  1   
  4   3   5  1   
  5   3   6  1   
  6   4   7  1   
  7   4  26  1   
  8   4  27  1   
  9   5   7  1   
 10   5  28  1   
 11   5  29  1   
 12   6   8  1   
 13   6  30  1   
 14   6  31  1   
 15   7  32  1   
 16   7  33  1   
 17   8   9  1   
 18   8  34  1   
 19   8  35  1   
 20   9  10  1   
 21   9  36  1   
 22   9  37  1   
 23  10  11  2   
 24  10  12  am  
 25  12  13  1   
 26  12  14  1   
 27  13  15  1   
 28  13  38  1   
 29  13  39  1   
 30  14  16  1   
 31  14  40  1   
 32  14  41  1   
 33  15  17  1   
 34  15  42  1   
 35  15  43  1   
 36  16  17  1   
 37  16  44  1   
 38  16  45  1   
 39  17  18  1   
 40  17  19  1   
 41  18  20  1   
 42  19  21  1   
 43  19  22  1   
 44  19  46  1   
 45  20  23  1   
 46  20  47  1   
 47  20  48  1   
 48  21  49  1   
 49  22  23  1   
 50  22  24  1   
 51  22  25  1   
 52  23  50  1   
 53  23  51  1   
 54  24  52  1   
 55  25  53  1   
 56  25  54  1   
 57  25  55  1   
@<TRIPOS>SUBSTRUCTURE
  1 ****  12 GROUP 4 **** **** 0

# MOE 2024.06 (io_trps.svl 2023.06)
