@<TRIPOS>MOLECULE
NONAME
48 50 1 0 0 
SMALL
USER_CHARGES


@<TRIPOS>ATOM
  1 O       -0.5070    -2.5020     1.6510 O.2   1 <1>  -0.5700 
  2 C       -0.1400    -2.4070     0.4950 C.2   1 <1>   0.5440 
  3 N       -0.9670    -2.1110    -0.5570 N.am  1 <1>  -0.6600 
  4 C        1.1870    -2.6750     0.0240 C.ar  1 <1>   0.0860 
  5 C       -2.4400    -1.8280    -0.5020 C.3   1 <1>   0.3000 
  6 C       -0.2010    -2.2270    -1.8350 C.3   1 <1>   0.2840 
  7 C        1.1930    -2.5870    -1.3530 C.ar  1 <1>  -0.1440 
  8 C        2.3580    -2.9970     0.6990 C.ar  1 <1>  -0.1500 
  9 C       -3.0270    -1.6670    -1.9250 C.3   1 <1>  -0.1600 
 10 C       -2.6230    -0.4830     0.2220 C.3   1 <1>  -0.1600 
 11 C       -3.1710    -2.9550     0.2690 C.3   1 <1>  -0.0990 
 12 C        2.3440    -2.8140    -2.0840 C.ar  1 <1>  -0.1500 
 13 C        3.5180    -3.2270    -0.0220 C.ar  1 <1>  -0.1500 
 14 C       -4.4470    -1.0900    -1.9070 C.3   1 <1>   0.1200 
 15 C       -4.0630     0.0340     0.1270 C.3   1 <1>   0.1200 
 16 C       -2.8150    -4.3410    -0.2120 C.2   1 <1>   0.5690 
 17 C        3.5110    -3.1360    -1.4080 C.ar  1 <1>  -0.1500 
 18 O       -4.4380     0.1180    -1.2120 O.3   1 <1>  -0.5600 
 19 O       -3.4280    -4.8250    -1.1320 O.2   1 <1>  -0.5700 
 20 N       -1.8240    -5.0040     0.4290 N.am  1 <1>  -0.7300 
 21 C       -1.2950    -6.3250     0.0590 C.3   1 <1>   0.2200 
 22 C       -1.8310    -7.3770     1.0450 C.3   1 <1>   0.1200 
 23 C        0.2310    -6.2280     0.0590 C.3   1 <1>  -0.2400 
 24 O       -1.4060    -8.6540     0.6890 O.3   1 <1>  -0.6800 
 25 H       -0.6080    -3.0100    -2.4510 H     1 <1>   0.0800 
 26 H       -0.1910    -1.2870    -2.3600 H     1 <1>   0.0800 
 27 H        2.3470    -3.0640     1.7730 H     1 <1>   0.1500 
 28 H       -3.0410    -2.6080    -2.4420 H     1 <1>   0.0800 
 29 H       -2.4350    -0.9760    -2.4960 H     1 <1>   0.0800 
 30 H       -1.9760     0.2540    -0.2200 H     1 <1>   0.0800 
 31 H       -2.3520    -0.5770     1.2580 H     1 <1>   0.0800 
 32 H       -4.2340    -2.8470     0.1900 H     1 <1>   0.0800 
 33 H       -2.9480    -2.8880     1.3170 H     1 <1>   0.0800 
 34 H        2.3400    -2.7440    -3.1580 H     1 <1>   0.1500 
 35 H        4.4300    -3.4770     0.4930 H     1 <1>   0.1500 
 36 H       -5.1560    -1.7540    -1.4450 H     1 <1>   0.0800 
 37 H       -4.7770    -0.8830    -2.9100 H     1 <1>   0.0800 
 38 H       -4.1330     1.0220     0.5470 H     1 <1>   0.0800 
 39 H       -4.7560    -0.6100     0.6410 H     1 <1>   0.0800 
 40 H        4.4180    -3.3170    -1.9600 H     1 <1>   0.1500 
 41 H       -1.2980    -4.4960     1.1510 H     1 <1>   0.3700 
 42 H       -1.6400    -6.5720    -0.9320 H     1 <1>   0.0800 
 43 H       -2.9070    -7.3730     1.0470 H     1 <1>   0.0800 
 44 H       -1.4690    -7.1770     2.0390 H     1 <1>   0.0800 
 45 H        0.5950    -5.9630     1.0360 H     1 <1>   0.0800 
 46 H        0.5550    -5.4950    -0.6570 H     1 <1>   0.0800 
 47 H        0.6590    -7.1750    -0.2150 H     1 <1>   0.0800 
 48 H       -1.8030    -8.9220    -0.1620 H     1 <1>   0.4000 
@<TRIPOS>BOND
  1   1   2  2   
  2   2   3  am  
  3   2   4  1   
  4   3   5  1   
  5   3   6  1   
  6   4   7  ar  
  7   4   8  ar  
  8   5   9  1   
  9   5  10  1   
 10   5  11  1   
 11   6   7  1   
 12   6  25  1   
 13   6  26  1   
 14   7  12  ar  
 15   8  13  ar  
 16   8  27  1   
 17   9  14  1   
 18   9  28  1   
 19   9  29  1   
 20  10  15  1   
 21  10  30  1   
 22  10  31  1   
 23  11  16  1   
 24  11  32  1   
 25  11  33  1   
 26  12  17  ar  
 27  12  34  1   
 28  13  17  ar  
 29  13  35  1   
 30  14  18  1   
 31  14  36  1   
 32  14  37  1   
 33  15  18  1   
 34  15  38  1   
 35  15  39  1   
 36  16  19  2   
 37  16  20  am  
 38  17  40  1   
 39  20  21  1   
 40  20  41  1   
 41  21  22  1   
 42  21  23  1   
 43  21  42  1   
 44  22  24  1   
 45  22  43  1   
 46  22  44  1   
 47  23  45  1   
 48  23  46  1   
 49  23  47  1   
 50  24  48  1   
@<TRIPOS>SUBSTRUCTURE
  1 ****   3 GROUP 4 **** **** 0

# MOE 2024.06 (io_trps.svl 2023.06)
