@<TRIPOS>MOLECULE
NONAME
63 65 1 0 0 
SMALL
USER_CHARGES


@<TRIPOS>ATOM
  1 O       -0.8800     1.6910     1.5060 O.2   1 <1>  -0.5700 
  2 C       -1.6970     2.1810     0.7620 C.2   1 <1>   0.5690 
  3 N       -3.0170     1.7830     0.7860 N.am  1 <1>  -0.6600 
  4 C       -1.2250     3.2570    -0.2150 C.3   1 <1>  -0.0990 
  5 C       -4.0290     2.2400    -0.2150 C.3   1 <1>   0.2200 
  6 C       -3.4560     0.8140     1.8410 C.3   1 <1>   0.0600 
  7 C        0.1830     3.8130     0.0740 C.3   1 <1>  -0.1600 
  8 C       -4.9980     3.2630     0.3640 C.3   1 <1>  -0.1600 
  9 C       -4.9410     1.1420    -0.7590 C.3   1 <1>  -0.1600 
 10 C        0.5800     4.9010    -0.9320 C.3   1 <1>  -0.0170 
 11 C       -6.1900     3.2550    -0.6060 C.3   1 <1>  -0.0800 
 12 C       -6.1420     1.9040    -1.3400 C.3   1 <1>  -0.0800 
 13 C        1.9680     5.4390    -0.6220 C.ar  1 <1>  -0.1430 
 14 C       -7.5570     3.3310     0.0880 C.3   1 <1>  -0.1600 
 15 C       -7.4910     1.2200    -1.0870 C.3   1 <1>  -0.1600 
 16 C        2.1260     6.5340     0.2120 C.ar  1 <1>  -0.1500 
 17 C        3.0900     4.8390    -1.1700 C.ar  1 <1>  -0.1500 
 18 C       -8.0220     1.8780     0.1830 C.3   1 <1>   0.4230 
 19 C        3.3890     7.0240     0.4920 C.ar  1 <1>  -0.1500 
 20 C        4.3540     5.3300    -0.8900 C.ar  1 <1>  -0.1500 
 21 N       -9.4980     1.7040     0.3610 N.4   1 <1>  -0.9590 
 22 C        4.5120     6.4260    -0.0560 C.ar  1 <1>  -0.1430 
 23 C      -10.3550     2.3380    -0.6970 C.3   1 <1>   0.2630 
 24 C       -9.9260     2.1760     1.7140 C.3   1 <1>   0.2630 
 25 C        5.8990     6.9640     0.2520 C.3   1 <1>  -0.0170 
 26 C        6.3030     8.0280    -0.7710 C.3   1 <1>  -0.2400 
 27 H       -1.2360     2.8360    -1.2020 H     1 <1>   0.0800 
 28 H       -1.9220     4.0740    -0.1800 H     1 <1>   0.0800 
 29 H       -3.5380     2.6850    -1.0630 H     1 <1>   0.0800 
 30 H       -4.4450     1.0500     2.1860 H     1 <1>   0.0800 
 31 H       -2.7920     0.8490     2.6880 H     1 <1>   0.0800 
 32 H       -3.4420    -0.1840     1.4410 H     1 <1>   0.0800 
 33 H        0.2100     4.2210     1.0700 H     1 <1>   0.0800 
 34 H        0.9010     3.0120     0.0310 H     1 <1>   0.0800 
 35 H       -5.3050     2.9570     1.3470 H     1 <1>   0.0800 
 36 H       -4.5440     4.2370     0.4220 H     1 <1>   0.0800 
 37 H       -4.4390     0.5610    -1.5130 H     1 <1>   0.0800 
 38 H       -5.2710     0.4920     0.0280 H     1 <1>   0.0800 
 39 H       -0.1300     5.7080    -0.8970 H     1 <1>   0.0800 
 40 H        0.5700     4.4970    -1.9290 H     1 <1>   0.0800 
 41 H       -6.0790     4.0620    -1.3130 H     1 <1>   0.0800 
 42 H       -5.9870     2.0620    -2.3960 H     1 <1>   0.0800 
 43 H       -8.2110     3.9080    -0.5400 H     1 <1>   0.0800 
 44 H       -7.4900     3.7990     1.0540 H     1 <1>   0.0800 
 45 H       -7.3880     0.1550    -0.9760 H     1 <1>   0.0800 
 46 H       -8.1280     1.4280    -1.9270 H     1 <1>   0.0800 
 47 H        1.2650     7.0080     0.6490 H     1 <1>   0.1500 
 48 H        2.9850     3.9860    -1.8160 H     1 <1>   0.1500 
 49 H       -7.5090     1.4260     1.0170 H     1 <1>   0.0800 
 50 H        3.4950     7.8760     1.1400 H     1 <1>   0.1500 
 51 H        5.2150     4.8540    -1.3240 H     1 <1>   0.1500 
 52 H       -9.6690     0.6880     0.3200 H     1 <1>   0.4500 
 53 H      -10.2360     3.4090    -0.6880 H     1 <1>   0.0800 
 54 H      -11.3930     2.1100    -0.5190 H     1 <1>   0.0800 
 55 H      -10.0910     1.9680    -1.6740 H     1 <1>   0.0800 
 56 H       -9.7730     3.2390     1.8050 H     1 <1>   0.0800 
 57 H       -9.3570     1.6790     2.4830 H     1 <1>   0.0800 
 58 H      -10.9720     1.9650     1.8720 H     1 <1>   0.0800 
 59 H        5.9110     7.3890     1.2400 H     1 <1>   0.0800 
 60 H        6.6120     6.1570     0.2360 H     1 <1>   0.0800 
 61 H        5.6040     8.8450    -0.7500 H     1 <1>   0.0800 
 62 H        6.3090     7.6060    -1.7600 H     1 <1>   0.0800 
 63 H        7.2850     8.4040    -0.5470 H     1 <1>   0.0800 
@<TRIPOS>BOND
  1   1   2  2   
  2   2   3  am  
  3   2   4  1   
  4   3   5  1   
  5   3   6  1   
  6   4   7  1   
  7   4  27  1   
  8   4  28  1   
  9   5   8  1   
 10   5   9  1   
 11   5  29  1   
 12   6  30  1   
 13   6  31  1   
 14   6  32  1   
 15   7  10  1   
 16   7  33  1   
 17   7  34  1   
 18   8  11  1   
 19   8  35  1   
 20   8  36  1   
 21   9  12  1   
 22   9  37  1   
 23   9  38  1   
 24  10  13  1   
 25  10  39  1   
 26  10  40  1   
 27  11  12  1   
 28  11  14  1   
 29  11  41  1   
 30  12  15  1   
 31  12  42  1   
 32  13  16  ar  
 33  13  17  ar  
 34  14  18  1   
 35  14  43  1   
 36  14  44  1   
 37  15  18  1   
 38  15  45  1   
 39  15  46  1   
 40  16  19  ar  
 41  16  47  1   
 42  17  20  ar  
 43  17  48  1   
 44  18  21  1   
 45  18  49  1   
 46  19  22  ar  
 47  19  50  1   
 48  20  22  ar  
 49  20  51  1   
 50  21  23  1   
 51  21  24  1   
 52  21  52  1   
 53  22  25  1   
 54  23  53  1   
 55  23  54  1   
 56  23  55  1   
 57  24  56  1   
 58  24  57  1   
 59  24  58  1   
 60  25  26  1   
 61  25  59  1   
 62  25  60  1   
 63  26  61  1   
 64  26  62  1   
 65  26  63  1   
@<TRIPOS>SUBSTRUCTURE
  1 ****   4 GROUP 4 **** **** 0

# MOE 2024.06 (io_trps.svl 2023.06)
