@<TRIPOS>MOLECULE
NONAME
45 48 1 0 0 
SMALL
USER_CHARGES


@<TRIPOS>ATOM
  1 CL       1.9420     0.7640    -1.9670 Cl    1 <1>  -0.1770 
  2 C        0.8770     1.6860    -0.9270 C.ar  1 <1>   0.1770 
  3 C        1.3410     2.3050     0.2300 C.ar  1 <1>  -0.1440 
  4 C       -0.4500     1.7710    -1.3100 C.ar  1 <1>  -0.1500 
  5 C        0.4290     3.0220     0.9960 C.ar  1 <1>  -0.1500 
  6 C        2.7940     2.2340     0.6950 C.3   1 <1>   0.3640 
  7 C       -1.3430     2.4860    -0.5350 C.ar  1 <1>  -0.1500 
  8 C       -0.9010     3.1110     0.6180 C.ar  1 <1>  -0.1500 
  9 N        3.1520     0.8160     0.9430 N.am  1 <1>  -0.7300 
 10 C        3.7810     2.9460    -0.2690 C.3   1 <1>   0.2610 
 11 C        4.3040     0.2540     0.5170 C.2   1 <1>   0.5690 
 12 O        5.1120     2.4840    -0.0770 O.3   1 <1>  -0.5600 
 13 C        3.6920     4.4570    -0.0410 C.2   1 <1>   0.5690 
 14 O        4.5550    -0.8980     0.7630 O.2   1 <1>  -0.5700 
 15 C        5.2820     1.1010    -0.3000 C.3   1 <1>   0.1810 
 16 O        2.7760     5.0780    -0.5260 O.2   1 <1>  -0.5700 
 17 N        4.6330     5.0710     0.7140 N.am  1 <1>  -0.7300 
 18 C        4.7900     6.5250     0.8920 C.3   1 <1>   0.3210 
 19 C        6.2750     6.8530     0.9100 C.2   1 <1>   0.1080 
 20 N        7.1520     6.2150     1.6400 N.2   1 <1>  -0.7070 
 21 C        6.8780     7.8500     0.1520 C.2   1 <1>  -0.1810 
 22 N        8.3370     6.8040     1.3560 N.pl3 1 <1>   0.3000 
 23 C        8.1700     7.7900     0.4570 C.2   1 <1>  -0.3320 
 24 C        6.5820     8.9260    -0.8550 C.3   1 <1>   0.0210 
 25 C        9.0220     8.7960    -0.2620 C.3   1 <1>   0.0200 
 26 C        7.9940     9.4610    -1.2100 C.3   1 <1>  -0.1600 
 27 H       -0.7770     1.2810    -2.2100 H     1 <1>   0.1500 
 28 H        0.7450     3.5240     1.8950 H     1 <1>   0.1500 
 29 H        2.8670     2.7400     1.6420 H     1 <1>   0.0800 
 30 H       -2.3770     2.5580    -0.8270 H     1 <1>   0.1500 
 31 H       -1.5940     3.6730     1.2210 H     1 <1>   0.1500 
 32 H        2.4820     0.2360     1.4490 H     1 <1>   0.3700 
 33 H        3.5160     2.7560    -1.2910 H     1 <1>   0.0800 
 34 H        5.1430     0.9030    -1.3470 H     1 <1>   0.0800 
 35 H        6.2900     0.8460    -0.0270 H     1 <1>   0.0800 
 36 H        5.4790     4.5560     0.9900 H     1 <1>   0.3700 
 37 H        4.3020     7.0530     0.0910 H     1 <1>   0.0800 
 38 H        4.3510     6.8190     1.8280 H     1 <1>   0.0800 
 39 H        9.2210     6.5100     1.7870 H     1 <1>   0.2700 
 40 H        6.0860     8.5190    -1.7180 H     1 <1>   0.0800 
 41 H        5.9770     9.6940    -0.4070 H     1 <1>   0.0800 
 42 H        9.4300     9.5090     0.4340 H     1 <1>   0.0800 
 43 H        9.8130     8.3170    -0.8140 H     1 <1>   0.0800 
 44 H        8.0280    10.5320    -1.1170 H     1 <1>   0.0800 
 45 H        8.2260     9.1950    -2.2260 H     1 <1>   0.0800 
@<TRIPOS>BOND
  1   1   2  1   
  2   2   3  ar  
  3   2   4  ar  
  4   3   5  ar  
  5   3   6  1   
  6   4   7  ar  
  7   4  27  1   
  8   5   8  ar  
  9   5  28  1   
 10   6   9  1   
 11   6  10  1   
 12   6  29  1   
 13   7   8  ar  
 14   7  30  1   
 15   8  31  1   
 16   9  11  am  
 17   9  32  1   
 18  10  12  1   
 19  10  13  1   
 20  10  33  1   
 21  11  14  2   
 22  11  15  1   
 23  12  15  1   
 24  13  16  2   
 25  13  17  am  
 26  15  34  1   
 27  15  35  1   
 28  17  18  1   
 29  17  36  1   
 30  18  19  1   
 31  18  37  1   
 32  18  38  1   
 33  19  20  2   
 34  19  21  1   
 35  20  22  1   
 36  21  23  2   
 37  21  24  1   
 38  22  23  1   
 39  22  39  1   
 40  23  25  1   
 41  24  26  1   
 42  24  40  1   
 43  24  41  1   
 44  25  26  1   
 45  25  42  1   
 46  25  43  1   
 47  26  44  1   
 48  26  45  1   
@<TRIPOS>SUBSTRUCTURE
  1 ****  13 GROUP 4 **** **** 0

# MOE 2024.06 (io_trps.svl 2023.06)
