@<TRIPOS>MOLECULE
NONAME
44 47 1 0 0 
SMALL
USER_CHARGES


@<TRIPOS>ATOM
  1 O       -0.3290     0.1840     0.0930 O.2   1 <1>  -0.5700 
  2 C       -1.3740     0.8140     0.1400 C.2   1 <1>   0.7150 
  3 N       -2.5440     0.0880     0.0110 N.am  1 <1>  -0.6600 
  4 C       -1.3380     2.2570     0.3170 C.2   1 <1>   0.1020 
  5 C       -3.9220     0.6430    -0.0340 C.3   1 <1>   0.1400 
  6 C       -2.5730    -1.3890    -0.1240 C.3   1 <1>   0.1400 
  7 N       -2.3370     3.0340     0.6600 N.2   1 <1>  -0.3380 
  8 N       -0.2300     3.0120     0.1570 N.pl3 1 <1>   0.0480 
  9 C       -4.8270    -0.5620    -0.2960 C.3   1 <1>   0.2000 
 10 C       -4.0250    -1.7820     0.1510 C.3   1 <1>  -0.0800 
 11 N       -1.8920     4.2810     0.7300 N.2   1 <1>  -0.3380 
 12 C       -0.6410     4.2460     0.4320 C.2   1 <1>   0.0070 
 13 C        1.1650     2.6300    -0.1840 C.3   1 <1>   0.0960 
 14 O       -6.0090    -0.4870     0.4230 O.3   1 <1>  -0.6800 
 15 C       -4.4740    -3.0750    -0.5510 C.3   1 <1>  -0.0170 
 16 C        0.2790     5.4530     0.3820 C.3   1 <1>   0.0200 
 17 C        2.0160     3.8630    -0.5380 C.3   1 <1>  -0.1600 
 18 C       -3.6880    -4.2820    -0.0650 C.ar  1 <1>   0.1670 
 19 C        1.7560     5.0300     0.4290 C.3   1 <1>  -0.1600 
 20 N       -2.5160    -4.4960    -0.6400 N.ar  1 <1>  -0.6200 
 21 C       -4.2120    -5.0930     0.9400 C.ar  1 <1>   0.1600 
 22 C       -1.9090    -5.5630    -0.1480 C.ar  1 <1>   0.1600 
 23 N       -3.6060    -6.1600     1.4350 N.ar  1 <1>  -0.6200 
 24 C       -2.4350    -6.3670     0.8550 C.ar  1 <1>   0.1600 
 25 H       -4.1530     1.0980     0.9140 H     1 <1>   0.0800 
 26 H       -4.0100     1.3690    -0.8240 H     1 <1>   0.0800 
 27 H       -2.2840    -1.6550    -1.1270 H     1 <1>   0.0800 
 28 H       -1.8980    -1.8570     0.5730 H     1 <1>   0.0800 
 29 H       -5.0680    -0.6150    -1.3450 H     1 <1>   0.0800 
 30 H       -4.1230    -1.9010     1.2170 H     1 <1>   0.0800 
 31 H        1.5870     2.1280     0.6690 H     1 <1>   0.0800 
 32 H        1.1540     1.9430    -1.0110 H     1 <1>   0.0800 
 33 H       -5.8210    -0.3210     1.3680 H     1 <1>   0.4000 
 34 H       -4.3470    -2.9790    -1.6150 H     1 <1>   0.0800 
 35 H       -5.5220    -3.2310    -0.3650 H     1 <1>   0.0800 
 36 H        0.0840     5.9860    -0.5310 H     1 <1>   0.0800 
 37 H        0.0550     6.1100     1.2050 H     1 <1>   0.0800 
 38 H        3.0570     3.5920    -0.5140 H     1 <1>   0.0800 
 39 H        1.7850     4.1710    -1.5440 H     1 <1>   0.0800 
 40 H        2.3790     5.8690     0.1740 H     1 <1>   0.0800 
 41 H        2.0040     4.7240     1.4310 H     1 <1>   0.0800 
 42 H       -5.1740    -4.8490     1.3550 H     1 <1>   0.1500 
 43 H       -0.9470    -5.8140    -0.5590 H     1 <1>   0.1500 
 44 H       -1.8650    -7.2150     1.1910 H     1 <1>   0.1500 
@<TRIPOS>BOND
  1   1   2  2   
  2   2   3  am  
  3   2   4  1   
  4   3   5  1   
  5   3   6  1   
  6   4   7  2   
  7   4   8  1   
  8   5   9  1   
  9   5  25  1   
 10   5  26  1   
 11   6  10  1   
 12   6  27  1   
 13   6  28  1   
 14   7  11  1   
 15   8  12  1   
 16   8  13  1   
 17   9  10  1   
 18   9  14  1   
 19   9  29  1   
 20  10  15  1   
 21  10  30  1   
 22  11  12  2   
 23  12  16  1   
 24  13  17  1   
 25  13  31  1   
 26  13  32  1   
 27  14  33  1   
 28  15  18  1   
 29  15  34  1   
 30  15  35  1   
 31  16  19  1   
 32  16  36  1   
 33  16  37  1   
 34  17  19  1   
 35  17  38  1   
 36  17  39  1   
 37  18  20  ar  
 38  18  21  ar  
 39  19  40  1   
 40  19  41  1   
 41  20  22  ar  
 42  21  23  ar  
 43  21  42  1   
 44  22  24  ar  
 45  22  43  1   
 46  23  24  ar  
 47  24  44  1   
@<TRIPOS>SUBSTRUCTURE
  1 ****   3 GROUP 4 **** **** 0

# MOE 2024.06 (io_trps.svl 2023.06)
