@<TRIPOS>MOLECULE
NONAME
48 51 1 0 0 
SMALL
USER_CHARGES


@<TRIPOS>ATOM
  1 S        1.1290     0.6760     1.7650 S.3   1 <1>  -0.0800 
  2 C        2.0790     0.5650     0.2800 C.2   1 <1>   0.0400 
  3 C        0.6390    -1.0040     1.6630 C.2   1 <1>  -0.1100 
  4 C        2.7810     1.7240    -0.1960 C.2   1 <1>   0.1400 
  5 C        1.9810    -0.6990    -0.2040 C.2   1 <1>  -0.1500 
  6 C        1.1720    -1.5820     0.5720 C.2   1 <1>  -0.1500 
  7 O        2.7270     2.8740     0.4620 O.3   1 <1>  -0.2800 
  8 C        3.5660     1.8910    -1.2930 C.2   1 <1>  -0.1500 
  9 C        3.4490     3.7700    -0.1760 C.2   1 <1>  -0.0400 
 10 C        3.9990     3.2180    -1.2810 C.2   1 <1>  -0.1500 
 11 C        3.5260     5.1690     0.4110 C.3   1 <1>   0.0200 
 12 C        4.4080     6.1050    -0.4280 C.3   1 <1>  -0.0990 
 13 C        4.5410     7.5060     0.1530 C.2   1 <1>   0.5690 
 14 O        3.7830     7.8280     1.0390 O.2   1 <1>  -0.5700 
 15 N        5.5000     8.3700    -0.3210 N.am  1 <1>  -0.6600 
 16 C        5.8530     9.5840     0.4850 C.3   1 <1>   0.1400 
 17 C        6.3710     8.0930    -1.5090 C.3   1 <1>   0.1400 
 18 C        7.2620     9.5490     1.1240 C.3   1 <1>   0.2200 
 19 C        7.8670     7.8890    -1.1930 C.3   1 <1>  -0.0190 
 20 N        8.3000     9.9560     0.1340 N.am  1 <1>  -0.6600 
 21 C        7.6470     8.2280     1.8410 C.3   1 <1>   0.1200 
 22 C        8.5620     9.2140    -0.9810 C.2   1 <1>   0.5690 
 23 C        8.2380     6.8990    -0.0720 C.3   1 <1>   0.1200 
 24 C        8.9890    11.2510     0.4000 C.3   1 <1>   0.0600 
 25 O        7.4830     7.0530     1.0890 O.3   1 <1>  -0.5600 
 26 O        9.3460     9.5770    -1.8250 O.2   1 <1>  -0.5700 
 27 H       -0.0030    -1.3820     2.4390 H     1 <1>   0.1500 
 28 H        2.4630    -1.0450    -1.1010 H     1 <1>   0.1500 
 29 H        1.0270    -2.6070     0.2780 H     1 <1>   0.1500 
 30 H        3.8170     1.1590    -2.0380 H     1 <1>   0.1500 
 31 H        4.6380     3.6690    -2.0180 H     1 <1>   0.1500 
 32 H        2.5300     5.5700     0.4770 H     1 <1>   0.0800 
 33 H        3.9220     5.1030     1.4090 H     1 <1>   0.0800 
 34 H        3.9960     6.1850    -1.4160 H     1 <1>   0.0800 
 35 H        5.3880     5.6710    -0.4880 H     1 <1>   0.0800 
 36 H        5.7660    10.4570    -0.1370 H     1 <1>   0.0800 
 37 H        5.1430     9.7040     1.2840 H     1 <1>   0.0800 
 38 H        6.0160     7.2250    -2.0320 H     1 <1>   0.0800 
 39 H        6.2750     8.9190    -2.1940 H     1 <1>   0.0800 
 40 H        7.2530    10.3050     1.8890 H     1 <1>   0.0800 
 41 H        8.3020     7.4860    -2.0890 H     1 <1>   0.0800 
 42 H        7.0150     8.1160     2.7040 H     1 <1>   0.0800 
 43 H        8.6670     8.2740     2.1800 H     1 <1>   0.0800 
 44 H        9.2810     6.9860     0.1840 H     1 <1>   0.0800 
 45 H        8.0620     5.8950    -0.4170 H     1 <1>   0.0800 
 46 H        9.4810    11.2130     1.3560 H     1 <1>   0.0800 
 47 H        8.2720    12.0530     0.3990 H     1 <1>   0.0800 
 48 H        9.7290    11.4540    -0.3550 H     1 <1>   0.0800 
@<TRIPOS>BOND
  1   1   2  1   
  2   1   3  1   
  3   2   4  1   
  4   2   5  2   
  5   3   6  2   
  6   3  27  1   
  7   4   7  1   
  8   4   8  2   
  9   5   6  1   
 10   5  28  1   
 11   6  29  1   
 12   7   9  1   
 13   8  10  1   
 14   8  30  1   
 15   9  10  2   
 16   9  11  1   
 17  10  31  1   
 18  11  12  1   
 19  11  32  1   
 20  11  33  1   
 21  12  13  1   
 22  12  34  1   
 23  12  35  1   
 24  13  14  2   
 25  13  15  am  
 26  15  16  1   
 27  15  17  1   
 28  16  18  1   
 29  16  36  1   
 30  16  37  1   
 31  17  19  1   
 32  17  38  1   
 33  17  39  1   
 34  18  20  1   
 35  18  21  1   
 36  18  40  1   
 37  19  22  1   
 38  19  23  1   
 39  19  41  1   
 40  20  22  am  
 41  20  24  1   
 42  21  25  1   
 43  21  42  1   
 44  21  43  1   
 45  22  26  2   
 46  23  25  1   
 47  23  44  1   
 48  23  45  1   
 49  24  46  1   
 50  24  47  1   
 51  24  48  1   
@<TRIPOS>SUBSTRUCTURE
  1 ****  12 GROUP 4 **** **** 0

# MOE 2024.06 (io_trps.svl 2023.06)
