@<TRIPOS>MOLECULE
NONAME
53 56 1 0 0 
SMALL
USER_CHARGES


@<TRIPOS>ATOM
  1 O        0.0690     1.4770    -0.4210 O.2   1 <1>  -0.5700 
  2 C        0.0190     2.6720    -0.5550 C.2   1 <1>   0.5690 
  3 N       -0.9000     3.4050     0.1110 N.am  1 <1>  -0.7300 
  4 C        0.9760     3.3850    -1.5090 C.3   1 <1>   0.1810 
  5 C       -1.0660     4.8720    -0.0470 C.3   1 <1>   0.3640 
  6 O        1.1350     4.7460    -1.1780 O.3   1 <1>  -0.5600 
  7 C       -2.5170     5.1380    -0.4340 C.ar  1 <1>  -0.1440 
  8 C       -0.0780     5.4900    -1.0790 C.3   1 <1>   0.2610 
  9 C       -3.1460     4.3920    -1.4240 C.ar  1 <1>   0.1600 
 10 C       -3.2380     6.1380     0.1900 C.ar  1 <1>  -0.1500 
 11 C        0.2290     6.9450    -0.6980 C.2   1 <1>   0.5690 
 12 N       -4.3940     4.5610    -1.8290 N.ar  1 <1>  -0.6200 
 13 C       -4.5410     6.3270    -0.2170 C.ar  1 <1>  -0.1500 
 14 O       -0.6770     7.7130    -0.4770 O.2   1 <1>  -0.5700 
 15 N        1.5230     7.3380    -0.6000 N.am  1 <1>  -0.7300 
 16 C       -5.0620     5.5230    -1.2160 C.ar  1 <1>   0.1600 
 17 C        2.0070     8.6680    -0.1830 C.3   1 <1>   0.2350 
 18 C        2.9880     8.5720     1.0060 C.3   1 <1>  -0.1900 
 19 C        2.8870     7.4680     2.0170 C.3   1 <1>  -0.2000 
 20 C        4.0280     7.4930     1.0320 C.3   1 <1>  -0.2000 
 21 C        3.3820     9.9700     1.5270 C.3   1 <1>   0.1910 
 22 N        3.8990    10.8470     0.4500 N.pl3 1 <1>   0.3140 
 23 N        5.1060    10.6320    -0.1080 N.2   1 <1>  -0.7070 
 24 C        3.2800    11.9090    -0.1220 C.2   1 <1>  -0.3320 
 25 C        5.2280    11.5500    -1.0110 C.2   1 <1>   0.1080 
 26 C        4.1180    12.3820    -1.0680 C.2   1 <1>  -0.1500 
 27 C        1.9070    12.4450     0.2530 C.3   1 <1>  -0.0600 
 28 C        6.4560    11.6680    -1.8810 C.3   1 <1>  -0.0590 
 29 H       -1.5510     2.9200     0.7310 H     1 <1>   0.3700 
 30 H        0.6060     3.3160    -2.5160 H     1 <1>   0.0800 
 31 H        1.9430     2.9180    -1.4580 H     1 <1>   0.0800 
 32 H       -0.8760     5.3240     0.9120 H     1 <1>   0.0800 
 33 H       -0.5320     5.4950    -2.0530 H     1 <1>   0.0800 
 34 H       -2.5960     3.6070    -1.9150 H     1 <1>   0.1500 
 35 H       -2.8070     6.7590     0.9580 H     1 <1>   0.1500 
 36 H       -5.1480     7.0920     0.2310 H     1 <1>   0.1500 
 37 H        2.2500     6.6340    -0.7600 H     1 <1>   0.3700 
 38 H       -6.0810     5.6820    -1.5280 H     1 <1>   0.1500 
 39 H        2.4960     9.1330    -1.0220 H     1 <1>   0.0800 
 40 H        1.1650     9.2810     0.0940 H     1 <1>   0.0800 
 41 H        3.1100     7.6690     3.0510 H     1 <1>   0.1000 
 42 H        2.1350     6.7050     1.9090 H     1 <1>   0.1000 
 43 H        4.0550     6.7540     0.2510 H     1 <1>   0.1000 
 44 H        5.0180     7.7500     1.3720 H     1 <1>   0.1000 
 45 H        4.1500     9.8820     2.2730 H     1 <1>   0.0800 
 46 H        2.5310    10.4420     1.9800 H     1 <1>   0.0800 
 47 H        3.9840    13.2140    -1.7350 H     1 <1>   0.1500 
 48 H        1.6660    13.2970    -0.3580 H     1 <1>   0.0800 
 49 H        1.8950    12.7530     1.2830 H     1 <1>   0.0800 
 50 H        1.1540    11.6940     0.0990 H     1 <1>   0.0800 
 51 H        6.3520    12.4840    -2.5710 H     1 <1>   0.0800 
 52 H        6.5930    10.7550    -2.4300 H     1 <1>   0.0800 
 53 H        7.3180    11.8360    -1.2620 H     1 <1>   0.0800 
@<TRIPOS>BOND
  1   1   2  2   
  2   2   3  am  
  3   2   4  1   
  4   3   5  1   
  5   3  29  1   
  6   4   6  1   
  7   4  30  1   
  8   4  31  1   
  9   5   7  1   
 10   5   8  1   
 11   5  32  1   
 12   6   8  1   
 13   7   9  ar  
 14   7  10  ar  
 15   8  11  1   
 16   8  33  1   
 17   9  12  ar  
 18   9  34  1   
 19  10  13  ar  
 20  10  35  1   
 21  11  14  2   
 22  11  15  am  
 23  12  16  ar  
 24  13  16  ar  
 25  13  36  1   
 26  15  17  1   
 27  15  37  1   
 28  16  38  1   
 29  17  18  1   
 30  17  39  1   
 31  17  40  1   
 32  18  19  1   
 33  18  20  1   
 34  18  21  1   
 35  19  20  1   
 36  19  41  1   
 37  19  42  1   
 38  20  43  1   
 39  20  44  1   
 40  21  22  1   
 41  21  45  1   
 42  21  46  1   
 43  22  23  1   
 44  22  24  1   
 45  23  25  2   
 46  24  26  2   
 47  24  27  1   
 48  25  26  1   
 49  25  28  1   
 50  26  47  1   
 51  27  48  1   
 52  27  49  1   
 53  27  50  1   
 54  28  51  1   
 55  28  52  1   
 56  28  53  1   
@<TRIPOS>SUBSTRUCTURE
  1 ****  15 GROUP 4 **** **** 0

# MOE 2024.06 (io_trps.svl 2023.06)
