@<TRIPOS>MOLECULE
NONAME
55 56 1 0 0 
SMALL
USER_CHARGES


@<TRIPOS>ATOM
  1 S        0.2480     0.6720     0.5910 S.o2  1 <1>   1.3330 
  2 O        0.0660     0.9300     2.0010 O.2   1 <1>  -0.6500 
  3 O        1.5190     0.1790     0.1100 O.2   1 <1>  -0.6500 
  4 N       -0.9550    -0.4140     0.0850 N.am  1 <1>  -0.8490 
  5 C       -0.1690     2.1700    -0.2980 C.3   1 <1>  -0.0550 
  6 C       -0.6470    -1.0740    -1.1880 C.3   1 <1>   0.1160 
  7 C       -1.2610    -1.4190     1.1070 C.3   1 <1>   0.1160 
  8 C        0.7090     3.3710     0.0890 C.3   1 <1>  -0.0800 
  9 C        0.2930     4.6480    -0.6330 C.3   1 <1>   0.2000 
 10 C        2.1910     3.2170    -0.2650 C.3   1 <1>   0.1400 
 11 O       -0.7870     5.2290     0.0110 O.3   1 <1>  -0.6800 
 12 C        1.5280     5.5460    -0.6110 C.3   1 <1>   0.1400 
 13 N        2.6730     4.6030    -0.4750 N.am  1 <1>  -0.6600 
 14 C        3.9980     4.9380    -0.4320 C.2   1 <1>   0.5690 
 15 O        4.8630     4.1130    -0.2780 O.2   1 <1>  -0.5700 
 16 C        4.4190     6.3840    -0.5420 C.3   1 <1>  -0.0990 
 17 C        4.3110     7.0510     0.8340 C.3   1 <1>   0.0960 
 18 N        3.8320     8.4400     0.6990 N.pl3 1 <1>   0.3140 
 19 N        2.5270     8.6670     0.5000 N.2   1 <1>  -0.7070 
 20 C        4.5340     9.5890     0.7320 C.2   1 <1>  -0.3320 
 21 C        2.4180     9.9500     0.4140 C.2   1 <1>   0.1080 
 22 C        3.6470    10.6180     0.5360 C.2   1 <1>  -0.0860 
 23 C        6.0390     9.6250     0.9780 C.3   1 <1>  -0.0600 
 24 C        1.0710    10.6070     0.1940 C.3   1 <1>  -0.0590 
 25 C        3.8160    12.0480     0.4470 C.2   1 <1>   0.5950 
 26 O        2.9680    12.8450     0.7590 O.2   1 <1>  -0.5700 
 27 C        5.1040    12.6250    -0.0970 C.3   1 <1>  -0.1790 
 28 H       -0.0890     1.9940    -1.3530 H     1 <1>   0.0800 
 29 H       -1.1910     2.4170    -0.0850 H     1 <1>   0.0800 
 30 H       -1.4810    -1.6790    -1.5010 H     1 <1>   0.0800 
 31 H        0.2230    -1.7030    -1.0860 H     1 <1>   0.0800 
 32 H       -0.4550    -0.3400    -1.9510 H     1 <1>   0.0800 
 33 H       -2.0370    -2.0800     0.7610 H     1 <1>   0.0800 
 34 H       -1.6070    -0.9370     2.0070 H     1 <1>   0.0800 
 35 H       -0.3810    -1.9950     1.3410 H     1 <1>   0.0800 
 36 H        0.6500     3.5280     1.1530 H     1 <1>   0.0800 
 37 H        0.0100     4.4460    -1.6530 H     1 <1>   0.0800 
 38 H        2.3200     2.6610    -1.1780 H     1 <1>   0.0800 
 39 H        2.7420     2.7330     0.5250 H     1 <1>   0.0800 
 40 H       -0.5370     5.5100     0.9130 H     1 <1>   0.4000 
 41 H        1.5030     6.2060     0.2390 H     1 <1>   0.0800 
 42 H        1.6040     6.1130    -1.5210 H     1 <1>   0.0800 
 43 H        5.4350     6.4310    -0.8880 H     1 <1>   0.0800 
 44 H        3.7990     6.8790    -1.2660 H     1 <1>   0.0800 
 45 H        5.2570     7.0290     1.3390 H     1 <1>   0.0800 
 46 H        3.5960     6.5280     1.4450 H     1 <1>   0.0800 
 47 H        6.3840    10.6230     1.1690 H     1 <1>   0.0800 
 48 H        6.5630     9.2340     0.1240 H     1 <1>   0.0800 
 49 H        6.2890     9.0330     1.8400 H     1 <1>   0.0800 
 50 H        1.1150    11.2640    -0.6550 H     1 <1>   0.0800 
 51 H        0.7990    11.1750     1.0650 H     1 <1>   0.0800 
 52 H        0.3190     9.8600     0.0170 H     1 <1>   0.0800 
 53 H        5.5850    11.9210    -0.7500 H     1 <1>   0.0800 
 54 H        5.7570    12.8770     0.7170 H     1 <1>   0.0800 
 55 H        4.8880    13.5170    -0.6550 H     1 <1>   0.0800 
@<TRIPOS>BOND
  1   1   2  2   
  2   1   3  2   
  3   1   4  am  
  4   1   5  1   
  5   4   6  1   
  6   4   7  1   
  7   5   8  1   
  8   5  28  1   
  9   5  29  1   
 10   6  30  1   
 11   6  31  1   
 12   6  32  1   
 13   7  33  1   
 14   7  34  1   
 15   7  35  1   
 16   8   9  1   
 17   8  10  1   
 18   8  36  1   
 19   9  11  1   
 20   9  12  1   
 21   9  37  1   
 22  10  13  1   
 23  10  38  1   
 24  10  39  1   
 25  11  40  1   
 26  12  13  1   
 27  12  41  1   
 28  12  42  1   
 29  13  14  am  
 30  14  15  2   
 31  14  16  1   
 32  16  17  1   
 33  16  43  1   
 34  16  44  1   
 35  17  18  1   
 36  17  45  1   
 37  17  46  1   
 38  18  19  1   
 39  18  20  1   
 40  19  21  2   
 41  20  22  2   
 42  20  23  1   
 43  21  22  1   
 44  21  24  1   
 45  22  25  1   
 46  23  47  1   
 47  23  48  1   
 48  23  49  1   
 49  24  50  1   
 50  24  51  1   
 51  24  52  1   
 52  25  26  2   
 53  25  27  1   
 54  27  53  1   
 55  27  54  1   
 56  27  55  1   
@<TRIPOS>SUBSTRUCTURE
  1 ****  12 GROUP 4 **** **** 0

# MOE 2024.06 (io_trps.svl 2023.06)
