@<TRIPOS>MOLECULE
NONAME
57 60 1 0 0 
SMALL
USER_CHARGES


@<TRIPOS>ATOM
  1 O        0.0820    -0.0330     0.0200 O.3   1 <1>  -0.5600 
  2 C        0.6140     0.9200    -0.8350 C.3   1 <1>   0.1200 
  3 C       -1.3110    -0.0040    -0.0970 C.3   1 <1>   0.1200 
  4 C       -0.2900     2.1200    -0.5740 C.3   1 <1>   0.4230 
  5 C       -1.6440     1.4060    -0.6160 C.3   1 <1>  -0.0800 
  6 N       -0.0170     2.6110     0.8140 N.4   1 <1>  -0.9060 
  7 C       -2.8320     2.0770     0.1040 C.3   1 <1>  -0.0170 
  8 C        0.9240     3.7420     1.0450 C.3   1 <1>   0.4230 
  9 C       -4.1100     1.2970    -0.1510 C.ar  1 <1>  -0.1440 
 10 C        0.3880     5.0350     0.4290 C.3   1 <1>  -0.1600 
 11 C        2.3330     3.4530     0.5240 C.3   1 <1>  -0.1600 
 12 C       -4.8250     1.4410    -1.3240 C.ar  1 <1>  -0.1500 
 13 C       -4.6250     0.4050     0.7700 C.ar  1 <1>  -0.1500 
 14 C        1.3360     6.2010     0.7200 C.3   1 <1>   0.3430 
 15 C        3.2630     4.6300     0.8280 C.3   1 <1>   0.3430 
 16 C       -5.9810     0.7030    -1.5170 C.ar  1 <1>   0.1600 
 17 C       -5.7900    -0.2840     0.4780 C.ar  1 <1>   0.1600 
 18 N        2.7150     5.8880     0.2290 N.4   1 <1>  -0.9590 
 19 N       -6.4760    -0.1580    -0.6450 N.ar  1 <1>  -0.6200 
 20 C        3.6490     7.0340     0.4700 C.3   1 <1>   0.4230 
 21 C        3.1230     8.3330    -0.1460 C.3   1 <1>  -0.1600 
 22 C        5.0180     6.8010    -0.1880 C.3   1 <1>  -0.1600 
 23 C        4.3710     9.1220    -0.5230 C.3   1 <1>  -0.1600 
 24 C        5.3530     8.0590    -0.9970 C.3   1 <1>  -0.1600 
 25 H        1.6510     1.0740    -0.6010 H     1 <1>   0.0800 
 26 H        0.5220     0.5600    -1.8480 H     1 <1>   0.0800 
 27 H       -1.6180    -0.7680    -0.7940 H     1 <1>   0.0800 
 28 H       -1.7340    -0.2110     0.8710 H     1 <1>   0.0800 
 29 H       -0.2040     2.8980    -1.3160 H     1 <1>   0.0800 
 30 H       -1.9180     1.2970    -1.6520 H     1 <1>   0.0800 
 31 H       -0.9170     2.8260     1.2550 H     1 <1>   0.4500 
 32 H        0.3120     1.7600     1.3050 H     1 <1>   0.4500 
 33 H       -2.9660     3.0810    -0.2610 H     1 <1>   0.0800 
 34 H       -2.6700     2.1250     1.1660 H     1 <1>   0.0800 
 35 H        0.9990     3.8940     2.1120 H     1 <1>   0.0800 
 36 H        0.2720     4.9420    -0.6360 H     1 <1>   0.0800 
 37 H       -0.5720     5.2700     0.8540 H     1 <1>   0.0800 
 38 H        2.7290     2.5780     1.0090 H     1 <1>   0.0800 
 39 H        2.3330     3.2890    -0.5380 H     1 <1>   0.0800 
 40 H       -4.5050     2.1180    -2.0940 H     1 <1>   0.1500 
 41 H       -4.1440     0.2320     1.7150 H     1 <1>   0.1500 
 42 H        1.3650     6.3930     1.7810 H     1 <1>   0.0800 
 43 H        0.9630     7.0900     0.2340 H     1 <1>   0.0800 
 44 H        4.2420     4.4210     0.4250 H     1 <1>   0.0800 
 45 H        3.3650     4.7500     1.8950 H     1 <1>   0.0800 
 46 H       -6.5270     0.8260    -2.4370 H     1 <1>   0.1500 
 47 H       -6.1800    -0.9770     1.2050 H     1 <1>   0.1500 
 48 H        2.6920     5.7920    -0.7960 H     1 <1>   0.4500 
 49 H        3.7950     7.1870     1.5280 H     1 <1>   0.0800 
 50 H        2.5680     8.1360    -1.0470 H     1 <1>   0.0800 
 51 H        2.5170     8.8930     0.5450 H     1 <1>   0.0800 
 52 H        5.7600     6.6700     0.5810 H     1 <1>   0.0800 
 53 H        5.0370     5.9490    -0.8440 H     1 <1>   0.0800 
 54 H        4.1750     9.8590    -1.2850 H     1 <1>   0.0800 
 55 H        4.7690     9.6200     0.3470 H     1 <1>   0.0800 
 56 H        6.3750     8.3720    -0.8570 H     1 <1>   0.0800 
 57 H        5.1950     7.8710    -2.0470 H     1 <1>   0.0800 
@<TRIPOS>BOND
  1   1   2  1   
  2   1   3  1   
  3   2   4  1   
  4   2  25  1   
  5   2  26  1   
  6   3   5  1   
  7   3  27  1   
  8   3  28  1   
  9   4   5  1   
 10   4   6  1   
 11   4  29  1   
 12   5   7  1   
 13   5  30  1   
 14   6   8  1   
 15   6  31  1   
 16   6  32  1   
 17   7   9  1   
 18   7  33  1   
 19   7  34  1   
 20   8  10  1   
 21   8  11  1   
 22   8  35  1   
 23   9  12  ar  
 24   9  13  ar  
 25  10  14  1   
 26  10  36  1   
 27  10  37  1   
 28  11  15  1   
 29  11  38  1   
 30  11  39  1   
 31  12  16  ar  
 32  12  40  1   
 33  13  17  ar  
 34  13  41  1   
 35  14  18  1   
 36  14  42  1   
 37  14  43  1   
 38  15  18  1   
 39  15  44  1   
 40  15  45  1   
 41  16  19  ar  
 42  16  46  1   
 43  17  19  ar  
 44  17  47  1   
 45  18  20  1   
 46  18  48  1   
 47  20  21  1   
 48  20  22  1   
 49  20  49  1   
 50  21  23  1   
 51  21  50  1   
 52  21  51  1   
 53  22  24  1   
 54  22  52  1   
 55  22  53  1   
 56  23  24  1   
 57  23  54  1   
 58  23  55  1   
 59  24  56  1   
 60  24  57  1   
@<TRIPOS>SUBSTRUCTURE
  1 ****   6 GROUP 4 **** **** 0

# MOE 2024.06 (io_trps.svl 2023.06)
