@<TRIPOS>MOLECULE
NONAME
44 46 1 0 0 
SMALL
USER_CHARGES


@<TRIPOS>ATOM
  1 CL      -0.4420     2.7630    -3.1320 Cl    1 <1>  -0.1770 
  2 C       -1.3550     2.7560    -1.6390 C.ar  1 <1>   0.1770 
  3 C       -0.7010     2.7960    -0.4120 C.ar  1 <1>  -0.1440 
  4 C       -2.7350     2.7240    -1.7290 C.ar  1 <1>  -0.1500 
  5 C       -1.4670     2.8060     0.7460 C.ar  1 <1>  -0.1500 
  6 C        0.8210     2.8410    -0.3000 C.3   1 <1>   0.0450 
  7 C       -3.4870     2.7380    -0.5700 C.ar  1 <1>   0.0830 
  8 C       -2.8500     2.7710     0.6730 C.ar  1 <1>   0.0830 
  9 C        1.3380     4.2680    -0.3290 C.2   1 <1>   0.5690 
 10 O       -4.8400     2.7270    -0.6660 O.3   1 <1>  -0.3630 
 11 O       -3.5640     2.7660     1.8260 O.3   1 <1>  -0.3630 
 12 O        1.9010     4.7130     0.6420 O.2   1 <1>  -0.5700 
 13 N        1.1430     5.0220    -1.4420 N.am  1 <1>  -0.7300 
 14 C       -5.5720     3.0500     0.5020 C.3   1 <1>   0.1200 
 15 C       -4.9270     2.3970     1.7330 C.3   1 <1>   0.1200 
 16 C        1.5750     6.4330    -1.5730 C.3   1 <1>   0.1400 
 17 C        0.6340     7.3390    -0.7780 C.3   1 <1>   0.0960 
 18 N        1.1900     8.7030    -0.7230 N.pl3 1 <1>   0.0480 
 19 C        2.0680     9.2230     0.1720 C.2   1 <1>   0.0070 
 20 C        0.9430     9.7010    -1.5900 C.2   1 <1>  -0.3020 
 21 N        2.3780    10.4570    -0.0760 N.2   1 <1>  -0.5650 
 22 C        2.6160     8.4100     1.3440 C.3   1 <1>   0.0200 
 23 C        1.6730    10.7580    -1.1800 C.2   1 <1>   0.0770 
 24 C        3.7020     9.1440     2.1410 C.3   1 <1>  -0.2400 
 25 H       -3.2210     2.6930    -2.6860 H     1 <1>   0.1500 
 26 H       -1.0020     2.8420     1.7170 H     1 <1>   0.1500 
 27 H        1.2820     2.2850    -1.0950 H     1 <1>   0.0800 
 28 H        1.1290     2.3840     0.6230 H     1 <1>   0.0800 
 29 H        0.6420     4.6160    -2.2400 H     1 <1>   0.3700 
 30 H       -6.5800     2.7010     0.3680 H     1 <1>   0.0800 
 31 H       -5.5790     4.1200     0.6070 H     1 <1>   0.0800 
 32 H       -5.4190     2.7140     2.6350 H     1 <1>   0.0800 
 33 H       -4.9800     1.3250     1.6590 H     1 <1>   0.0800 
 34 H        1.5770     6.7160    -2.6120 H     1 <1>   0.0800 
 35 H        2.5770     6.5230    -1.1870 H     1 <1>   0.0800 
 36 H        0.5260     6.9720     0.2260 H     1 <1>   0.0800 
 37 H       -0.3330     7.3730    -1.2440 H     1 <1>   0.0800 
 38 H        0.2790     9.6120    -2.4300 H     1 <1>   0.1500 
 39 H        3.0270     7.4870     0.9750 H     1 <1>   0.0800 
 40 H        1.8040     8.1680     2.0060 H     1 <1>   0.0800 
 41 H        1.7300    11.7370    -1.6260 H     1 <1>   0.1500 
 42 H        4.5280     9.3880     1.4960 H     1 <1>   0.0800 
 43 H        4.0570     8.5250     2.9450 H     1 <1>   0.0800 
 44 H        3.3050    10.0560     2.5500 H     1 <1>   0.0800 
@<TRIPOS>BOND
  1   1   2  1   
  2   2   3  ar  
  3   2   4  ar  
  4   3   5  ar  
  5   3   6  1   
  6   4   7  ar  
  7   4  25  1   
  8   5   8  ar  
  9   5  26  1   
 10   6   9  1   
 11   6  27  1   
 12   6  28  1   
 13   7   8  ar  
 14   7  10  1   
 15   8  11  1   
 16   9  12  2   
 17   9  13  am  
 18  10  14  1   
 19  11  15  1   
 20  13  16  1   
 21  13  29  1   
 22  14  15  1   
 23  14  30  1   
 24  14  31  1   
 25  15  32  1   
 26  15  33  1   
 27  16  17  1   
 28  16  34  1   
 29  16  35  1   
 30  17  18  1   
 31  17  36  1   
 32  17  37  1   
 33  18  19  1   
 34  18  20  1   
 35  19  21  2   
 36  19  22  1   
 37  20  23  2   
 38  20  38  1   
 39  21  23  1   
 40  22  24  1   
 41  22  39  1   
 42  22  40  1   
 43  23  41  1   
 44  24  42  1   
 45  24  43  1   
 46  24  44  1   
@<TRIPOS>SUBSTRUCTURE
  1 ****  13 GROUP 4 **** **** 0

# MOE 2024.06 (io_trps.svl 2023.06)
