@<TRIPOS>MOLECULE
NONAME
49 50 1 0 0 
SMALL
USER_CHARGES


@<TRIPOS>ATOM
  1 O       -1.1130    -0.5540     1.4240 O.2   1 <1>  -0.5700 
  2 C       -0.4470    -1.5100     1.0920 C.2   1 <1>   0.6900 
  3 N       -0.9990    -2.5920     0.5210 N.am  1 <1>  -0.7300 
  4 N        0.8710    -1.4960     1.2910 N.am  1 <1>  -0.8000 
  5 C       -2.4690    -2.8120     0.4210 C.3   1 <1>   0.2010 
  6 C       -2.8550    -4.2970     0.3660 C.2   1 <1>   0.5690 
  7 O       -1.9650    -5.1160     0.2740 O.2   1 <1>  -0.5700 
  8 N       -4.1730    -4.6760     0.4040 N.am  1 <1>  -0.6600 
  9 C       -4.5690    -6.1210     0.3910 C.3   1 <1>   0.1400 
 10 C       -5.3300    -3.7380     0.4300 C.3   1 <1>   0.1400 
 11 C       -5.0730    -6.5810    -0.9880 C.3   1 <1>   0.1400 
 12 C       -5.7350    -3.2960    -0.9830 C.3   1 <1>  -0.1600 
 13 N       -6.1460    -5.6910    -1.5410 N.am  1 <1>  -0.6600 
 14 C       -5.6550    -4.3870    -2.0590 C.3   1 <1>   0.1400 
 15 C       -7.4830    -6.0250    -1.5700 C.2   1 <1>   0.5440 
 16 O       -8.2800    -5.2290    -2.0320 O.2   1 <1>  -0.5700 
 17 C       -7.9610    -7.2950    -1.0730 C.ar  1 <1>   0.0860 
 18 C       -8.1120    -7.5600     0.2940 C.ar  1 <1>   0.0820 
 19 C       -8.2640    -8.3190    -1.9700 C.ar  1 <1>  -0.1500 
 20 O       -7.8750    -6.6250     1.2360 O.3   1 <1>  -0.3620 
 21 C       -8.5060    -8.8140     0.7330 C.ar  1 <1>  -0.1500 
 22 C       -8.6710    -9.5660    -1.5310 C.ar  1 <1>  -0.1500 
 23 C       -8.7570    -5.5270     1.3080 C.3   1 <1>   0.1200 
 24 C       -8.7870    -9.8170    -0.1750 C.ar  1 <1>  -0.1500 
 25 C       -8.5960    -4.8830     2.6820 C.3   1 <1>  -0.2400 
 26 H       -0.4650    -3.4630     0.4710 H     1 <1>   0.3700 
 27 H        1.2900    -0.6370     1.6430 H     1 <1>   0.3700 
 28 H        1.4890    -2.1730     0.8550 H     1 <1>   0.3700 
 29 H       -2.8280    -2.3260    -0.4670 H     1 <1>   0.0800 
 30 H       -2.9450    -2.3600     1.2730 H     1 <1>   0.0800 
 31 H       -5.3370    -6.2890     1.1250 H     1 <1>   0.0800 
 32 H       -3.7300    -6.7330     0.6720 H     1 <1>   0.0800 
 33 H       -5.1090    -2.8780     1.0380 H     1 <1>   0.0800 
 34 H       -6.1680    -4.2380     0.8850 H     1 <1>   0.0800 
 35 H       -5.4310    -7.5910    -0.9040 H     1 <1>   0.0800 
 36 H       -4.2420    -6.5990    -1.6700 H     1 <1>   0.0800 
 37 H       -5.1220    -2.4690    -1.2890 H     1 <1>   0.0800 
 38 H       -6.7460    -2.9330    -0.9450 H     1 <1>   0.0800 
 39 H       -4.6350    -4.4970    -2.3830 H     1 <1>   0.0800 
 40 H       -6.2380    -4.0930    -2.9160 H     1 <1>   0.0800 
 41 H       -8.1740    -8.1260    -3.0250 H     1 <1>   0.1500 
 42 H       -8.5970    -8.9960     1.7890 H     1 <1>   0.1500 
 43 H       -8.8980   -10.3420    -2.2420 H     1 <1>   0.1500 
 44 H       -9.7640    -5.8840     1.1690 H     1 <1>   0.0800 
 45 H       -8.5110    -4.8280     0.5290 H     1 <1>   0.0800 
 46 H       -9.0980   -10.7890     0.1700 H     1 <1>   0.1500 
 47 H       -8.8570    -5.5880     3.4520 H     1 <1>   0.0800 
 48 H       -9.2480    -4.0320     2.7610 H     1 <1>   0.0800 
 49 H       -7.5830    -4.5550     2.8250 H     1 <1>   0.0800 
@<TRIPOS>BOND
  1   1   2  2   
  2   2   3  am  
  3   2   4  am  
  4   3   5  1   
  5   3  26  1   
  6   4  27  1   
  7   4  28  1   
  8   5   6  1   
  9   5  29  1   
 10   5  30  1   
 11   6   7  2   
 12   6   8  am  
 13   8   9  1   
 14   8  10  1   
 15   9  11  1   
 16   9  31  1   
 17   9  32  1   
 18  10  12  1   
 19  10  33  1   
 20  10  34  1   
 21  11  13  1   
 22  11  35  1   
 23  11  36  1   
 24  12  14  1   
 25  12  37  1   
 26  12  38  1   
 27  13  14  1   
 28  13  15  am  
 29  14  39  1   
 30  14  40  1   
 31  15  16  2   
 32  15  17  1   
 33  17  18  ar  
 34  17  19  ar  
 35  18  20  1   
 36  18  21  ar  
 37  19  22  ar  
 38  19  41  1   
 39  20  23  1   
 40  21  24  ar  
 41  21  42  1   
 42  22  24  ar  
 43  22  43  1   
 44  23  25  1   
 45  23  44  1   
 46  23  45  1   
 47  24  46  1   
 48  25  47  1   
 49  25  48  1   
 50  25  49  1   
@<TRIPOS>SUBSTRUCTURE
  1 ****   9 GROUP 4 **** **** 0

# MOE 2024.06 (io_trps.svl 2023.06)
