@<TRIPOS>MOLECULE
NONAME
41 42 1 0 0 
SMALL
USER_CHARGES


@<TRIPOS>ATOM
  1 O        2.2800    -0.5320     2.0800 O.2   1 <1>  -0.5700 
  2 C        1.7770    -0.8720     1.0330 C.2   1 <1>   0.5690 
  3 N        1.4430    -0.0100     0.0390 N.am  1 <1>  -0.4930 
  4 C        1.4960    -2.3550     0.8090 C.3   1 <1>   0.1810 
  5 C        1.7820     1.3620    -0.0760 C.2   1 <1>   0.0630 
  6 O        0.8010    -2.5810    -0.3950 O.3   1 <1>  -0.5600 
  7 C        3.0380     1.9100    -0.3830 C.2   1 <1>   0.3720 
  8 C        0.9610     2.4220     0.0740 C.2   1 <1>  -0.3320 
  9 C        0.5470    -3.9200    -0.6560 C.3   1 <1>   0.1200 
 10 N        3.0050     3.2080    -0.4180 N.2   1 <1>  -0.7070 
 11 N        4.2130     1.1600    -0.6010 N.pl3 1 <1>  -0.8210 
 12 N        1.7230     3.5230    -0.1340 N.pl3 1 <1>   0.3140 
 13 C       -0.5200     2.4440     0.4190 C.3   1 <1>  -0.0600 
 14 C       -0.2060    -3.9930    -1.9780 C.3   1 <1>  -0.2400 
 15 C        5.2240     1.8060    -1.4820 C.3   1 <1>   0.2090 
 16 C        4.8660     0.8270     0.6940 C.3   1 <1>   0.2090 
 17 C        1.2920     4.9240    -0.0640 C.3   1 <1>   0.0160 
 18 C        6.4000     2.1580    -0.5820 C.3   1 <1>  -0.1600 
 19 C        6.3530     1.0990     0.5070 C.3   1 <1>  -0.1600 
 20 H        1.0750    -0.4570    -0.8030 H     1 <1>   0.3700 
 21 H        0.9030    -2.7260     1.6250 H     1 <1>   0.0800 
 22 H        2.4320    -2.8830     0.7720 H     1 <1>   0.0800 
 23 H       -0.0510    -4.3250     0.1440 H     1 <1>   0.0800 
 24 H        1.4840    -4.4470    -0.7220 H     1 <1>   0.0800 
 25 H       -0.8870     1.4410     0.5470 H     1 <1>   0.0800 
 26 H       -1.0790     2.9150    -0.3690 H     1 <1>   0.0800 
 27 H       -0.6780     2.9810     1.3370 H     1 <1>   0.0800 
 28 H       -1.1330    -3.4540    -1.9060 H     1 <1>   0.0800 
 29 H       -0.4220    -5.0180    -2.2180 H     1 <1>   0.0800 
 30 H        0.3930    -3.5750    -2.7670 H     1 <1>   0.0800 
 31 H        4.8380     2.6760    -1.9850 H     1 <1>   0.0800 
 32 H        5.5310     1.0900    -2.2230 H     1 <1>   0.0800 
 33 H        4.6880    -0.2040     0.9470 H     1 <1>   0.0800 
 34 H        4.4710     1.4520     1.4790 H     1 <1>   0.0800 
 35 H        0.5090     5.0880    -0.7800 H     1 <1>   0.0800 
 36 H        2.1270     5.5600    -0.2900 H     1 <1>   0.0800 
 37 H        0.9370     5.1330     0.9270 H     1 <1>   0.0800 
 38 H        6.2240     3.1310    -0.1570 H     1 <1>   0.0800 
 39 H        7.3300     2.1640    -1.1190 H     1 <1>   0.0800 
 40 H        6.8320     0.1980     0.1680 H     1 <1>   0.0800 
 41 H        6.8140     1.4260     1.4210 H     1 <1>   0.0800 
@<TRIPOS>BOND
  1   1   2  2   
  2   2   3  am  
  3   2   4  1   
  4   3   5  1   
  5   3  20  1   
  6   4   6  1   
  7   4  21  1   
  8   4  22  1   
  9   5   7  1   
 10   5   8  2   
 11   6   9  1   
 12   7  10  2   
 13   7  11  1   
 14   8  12  1   
 15   8  13  1   
 16   9  14  1   
 17   9  23  1   
 18   9  24  1   
 19  10  12  1   
 20  11  15  1   
 21  11  16  1   
 22  12  17  1   
 23  13  25  1   
 24  13  26  1   
 25  13  27  1   
 26  14  28  1   
 27  14  29  1   
 28  14  30  1   
 29  15  18  1   
 30  15  31  1   
 31  15  32  1   
 32  16  19  1   
 33  16  33  1   
 34  16  34  1   
 35  17  35  1   
 36  17  36  1   
 37  17  37  1   
 38  18  19  1   
 39  18  38  1   
 40  18  39  1   
 41  19  40  1   
 42  19  41  1   
@<TRIPOS>SUBSTRUCTURE
  1 ****   5 GROUP 4 **** **** 0

# MOE 2024.06 (io_trps.svl 2023.06)
