@<TRIPOS>MOLECULE
NONAME
46 48 1 0 0 
SMALL
USER_CHARGES


@<TRIPOS>ATOM
  1 O        0.1510    -0.7080    -1.4230 O.2   1 <1>  -0.5700 
  2 C        0.0730    -1.9030    -1.1690 C.2   1 <1>   0.6160 
  3 N        0.7570    -2.4460    -0.0910 N.am  1 <1>  -0.4690 
  4 C       -0.7150    -2.7810    -1.9610 C.2   1 <1>  -0.1360 
  5 C        0.6490    -3.7870     0.1970 C.2   1 <1>  -0.0410 
  6 C        1.6130    -1.5650     0.7430 C.3   1 <1>   0.0600 
  7 C       -0.8140    -4.1040    -1.6660 C.2   1 <1>  -0.1500 
  8 C       -0.1280    -4.6470    -0.5370 C.2   1 <1>   0.0140 
  9 C       -0.2390    -6.0460    -0.1930 C.2   1 <1>   0.6160 
 10 O        0.7520    -6.6570     0.1700 O.2   1 <1>  -0.5700 
 11 N       -1.4410    -6.7170    -0.2420 N.am  1 <1>  -0.6600 
 12 C       -2.7690    -6.0690    -0.1460 C.3   1 <1>   0.1400 
 13 C       -1.5510    -8.1680     0.0300 C.3   1 <1>   0.1400 
 14 C       -3.6600    -7.0800     0.5870 C.3   1 <1>  -0.0800 
 15 C       -3.0430    -8.4480     0.2390 C.3   1 <1>  -0.0800 
 16 C       -5.1940    -6.9610     0.3230 C.3   1 <1>   0.2800 
 17 C       -3.7100    -9.0490    -1.0080 C.3   1 <1>  -0.1600 
 18 O       -5.4260    -6.3840    -0.9120 O.3   1 <1>  -0.6800 
 19 C       -5.8360    -8.3600     0.2780 C.3   1 <1>  -0.1600 
 20 C       -5.9130    -6.0840     1.3720 C.3   1 <1>  -0.1600 
 21 C       -5.2140    -9.2910    -0.7860 C.3   1 <1>  -0.1600 
 22 C       -5.4300    -4.6250     1.4640 C.3   1 <1>  -0.2400 
 23 H       -1.2180    -2.3390    -2.7990 H     1 <1>   0.1500 
 24 H        1.2040    -4.1630     1.0420 H     1 <1>   0.1500 
 25 H        2.0910    -2.1280     1.5240 H     1 <1>   0.0800 
 26 H        1.0080    -0.7910     1.1830 H     1 <1>   0.0800 
 27 H        2.3670    -1.1090     0.1250 H     1 <1>   0.0800 
 28 H       -1.3990    -4.7720    -2.2760 H     1 <1>   0.1500 
 29 H       -2.7120    -5.1360     0.3860 H     1 <1>   0.0800 
 30 H       -3.1210    -5.8880    -1.1460 H     1 <1>   0.0800 
 31 H       -1.1450    -8.7340    -0.7910 H     1 <1>   0.0800 
 32 H       -1.0000    -8.4010     0.9250 H     1 <1>   0.0800 
 33 H       -3.4930    -6.9410     1.6400 H     1 <1>   0.0800 
 34 H       -3.1620    -9.1380     1.0560 H     1 <1>   0.0800 
 35 H       -3.5850    -8.3640    -1.8310 H     1 <1>   0.0800 
 36 H       -3.2320    -9.9740    -1.2810 H     1 <1>   0.0800 
 37 H       -6.3830    -6.3780    -1.0880 H     1 <1>   0.4000 
 38 H       -5.7000    -8.8160     1.2430 H     1 <1>   0.0800 
 39 H       -6.8970    -8.2850     0.1180 H     1 <1>   0.0800 
 40 H       -6.9680    -6.0820     1.1600 H     1 <1>   0.0800 
 41 H       -5.7940    -6.5390     2.3400 H     1 <1>   0.0800 
 42 H       -5.3740   -10.3120    -0.4840 H     1 <1>   0.0800 
 43 H       -5.7220    -9.1510    -1.7250 H     1 <1>   0.0800 
 44 H       -5.4840    -4.1430     0.5040 H     1 <1>   0.0800 
 45 H       -4.4180    -4.5780     1.8210 H     1 <1>   0.0800 
 46 H       -6.0510    -4.0790     2.1520 H     1 <1>   0.0800 
@<TRIPOS>BOND
  1   1   2  2   
  2   2   3  am  
  3   2   4  1   
  4   3   5  1   
  5   3   6  1   
  6   4   7  2   
  7   4  23  1   
  8   5   8  2   
  9   5  24  1   
 10   6  25  1   
 11   6  26  1   
 12   6  27  1   
 13   7   8  1   
 14   7  28  1   
 15   8   9  1   
 16   9  10  2   
 17   9  11  am  
 18  11  12  1   
 19  11  13  1   
 20  12  14  1   
 21  12  29  1   
 22  12  30  1   
 23  13  15  1   
 24  13  31  1   
 25  13  32  1   
 26  14  15  1   
 27  14  16  1   
 28  14  33  1   
 29  15  17  1   
 30  15  34  1   
 31  16  18  1   
 32  16  19  1   
 33  16  20  1   
 34  17  21  1   
 35  17  35  1   
 36  17  36  1   
 37  18  37  1   
 38  19  21  1   
 39  19  38  1   
 40  19  39  1   
 41  20  22  1   
 42  20  40  1   
 43  20  41  1   
 44  21  42  1   
 45  21  43  1   
 46  22  44  1   
 47  22  45  1   
 48  22  46  1   
@<TRIPOS>SUBSTRUCTURE
  1 ****  12 GROUP 4 **** **** 0

# MOE 2024.06 (io_trps.svl 2023.06)
