@<TRIPOS>MOLECULE
NONAME
54 56 1 0 0 
SMALL
USER_CHARGES


@<TRIPOS>ATOM
  1 F        0.9700    -0.6240    -1.3980 F     1 <1>  -0.1900 
  2 C        0.6420    -1.8640    -1.1530 C.ar  1 <1>   0.1900 
  3 C       -0.5780    -2.3320    -1.6030 C.ar  1 <1>  -0.1500 
  4 C        1.5250    -2.6610    -0.4520 C.ar  1 <1>  -0.1500 
  5 C       -0.9210    -3.6470    -1.3390 C.ar  1 <1>  -0.1500 
  6 C        1.1700    -3.9750    -0.1940 C.ar  1 <1>  -0.1500 
  7 C       -0.0510    -4.4710    -0.6350 C.ar  1 <1>  -0.1430 
  8 C       -0.4300    -5.9130    -0.3400 C.3   1 <1>  -0.0160 
  9 C       -0.9680    -6.0460     1.0890 C.3   1 <1>  -0.0990 
 10 C       -1.4200    -7.4680     1.3730 C.2   1 <1>   0.5690 
 11 O       -0.5760    -8.2180     1.8030 O.2   1 <1>  -0.5700 
 12 N       -2.7140    -7.8850     1.1500 N.am  1 <1>  -0.6600 
 13 C       -3.7620    -7.0360     0.5040 C.3   1 <1>   0.2200 
 14 C       -3.1020    -9.2680     1.5760 C.3   1 <1>   0.0600 
 15 C       -4.7730    -6.5000     1.5140 C.3   1 <1>  -0.1600 
 16 C       -4.6090    -7.7510    -0.5510 C.3   1 <1>  -0.1600 
 17 C       -6.0080    -6.1400     0.6760 C.3   1 <1>  -0.0800 
 18 C       -5.8930    -6.9140    -0.6430 C.3   1 <1>  -0.0800 
 19 C       -7.3570    -6.5510     1.2850 C.3   1 <1>  -0.1600 
 20 C       -7.1950    -7.7200    -0.7740 C.3   1 <1>  -0.1600 
 21 C       -8.2230    -6.9930     0.1000 C.3   1 <1>   0.4230 
 22 N       -8.7940    -5.8070    -0.6190 N.4   1 <1>  -0.9590 
 23 C       -9.7000    -4.9850     0.2480 C.3   1 <1>   0.2630 
 24 C       -9.5500    -6.1910    -1.8550 C.3   1 <1>   0.2630 
 25 H       -1.2370    -1.6800    -2.1460 H     1 <1>   0.1500 
 26 H        2.4650    -2.2620    -0.1180 H     1 <1>   0.1500 
 27 H       -1.8670    -4.0250    -1.6850 H     1 <1>   0.1500 
 28 H        1.8470    -4.6110     0.3510 H     1 <1>   0.1500 
 29 H       -1.1690    -6.2490    -1.0460 H     1 <1>   0.0800 
 30 H        0.4340    -6.5450    -0.4560 H     1 <1>   0.0800 
 31 H       -1.7650    -5.3500     1.2660 H     1 <1>   0.0800 
 32 H       -0.1820    -5.8020     1.7800 H     1 <1>   0.0800 
 33 H       -3.3070    -6.1950     0.0120 H     1 <1>   0.0800 
 34 H       -4.1140    -9.2890     1.9340 H     1 <1>   0.0800 
 35 H       -2.4610    -9.6130     2.3700 H     1 <1>   0.0800 
 36 H       -3.0030    -9.9420     0.7430 H     1 <1>   0.0800 
 37 H       -5.0080    -7.2620     2.2340 H     1 <1>   0.0800 
 38 H       -4.3840    -5.6410     2.0310 H     1 <1>   0.0800 
 39 H       -4.0950    -7.7920    -1.4960 H     1 <1>   0.0800 
 40 H       -4.8460    -8.7500    -0.2400 H     1 <1>   0.0800 
 41 H       -6.0020    -5.0840     0.4630 H     1 <1>   0.0800 
 42 H       -5.8050    -6.2090    -1.4540 H     1 <1>   0.0800 
 43 H       -7.7820    -5.7800     1.8980 H     1 <1>   0.0800 
 44 H       -7.2170    -7.4150     1.9120 H     1 <1>   0.0800 
 45 H       -7.0570    -8.6980    -0.3470 H     1 <1>   0.0800 
 46 H       -7.4870    -7.8600    -1.7970 H     1 <1>   0.0800 
 47 H       -9.0130    -7.6570     0.4160 H     1 <1>   0.0800 
 48 H       -7.9910    -5.2250    -0.8940 H     1 <1>   0.4500 
 49 H      -10.5050    -5.5920     0.6310 H     1 <1>   0.0800 
 50 H      -10.1240    -4.1730    -0.3200 H     1 <1>   0.0800 
 51 H       -9.1590    -4.5650     1.0790 H     1 <1>   0.0800 
 52 H      -10.3460    -6.8760    -1.6110 H     1 <1>   0.0800 
 53 H       -8.8990    -6.6600    -2.5730 H     1 <1>   0.0800 
 54 H       -9.9800    -5.3160    -2.3160 H     1 <1>   0.0800 
@<TRIPOS>BOND
  1   1   2  1   
  2   2   3  ar  
  3   2   4  ar  
  4   3   5  ar  
  5   3  25  1   
  6   4   6  ar  
  7   4  26  1   
  8   5   7  ar  
  9   5  27  1   
 10   6   7  ar  
 11   6  28  1   
 12   7   8  1   
 13   8   9  1   
 14   8  29  1   
 15   8  30  1   
 16   9  10  1   
 17   9  31  1   
 18   9  32  1   
 19  10  11  2   
 20  10  12  am  
 21  12  13  1   
 22  12  14  1   
 23  13  15  1   
 24  13  16  1   
 25  13  33  1   
 26  14  34  1   
 27  14  35  1   
 28  14  36  1   
 29  15  17  1   
 30  15  37  1   
 31  15  38  1   
 32  16  18  1   
 33  16  39  1   
 34  16  40  1   
 35  17  18  1   
 36  17  19  1   
 37  17  41  1   
 38  18  20  1   
 39  18  42  1   
 40  19  21  1   
 41  19  43  1   
 42  19  44  1   
 43  20  21  1   
 44  20  45  1   
 45  20  46  1   
 46  21  22  1   
 47  21  47  1   
 48  22  23  1   
 49  22  24  1   
 50  22  48  1   
 51  23  49  1   
 52  23  50  1   
 53  23  51  1   
 54  24  52  1   
 55  24  53  1   
 56  24  54  1   
@<TRIPOS>SUBSTRUCTURE
  1 ****  13 GROUP 4 **** **** 0

# MOE 2024.06 (io_trps.svl 2023.06)
