@<TRIPOS>MOLECULE
NONAME
47 50 1 0 0 
SMALL
USER_CHARGES


@<TRIPOS>ATOM
  1 O       -0.1180    -0.1310    -1.6410 O.2   1 <1>  -0.5700 
  2 C        0.3650     0.8600    -1.1430 C.2   1 <1>   0.5690 
  3 N       -0.2720     1.5410    -0.1320 N.am  1 <1>  -0.6600 
  4 C        1.6930     1.3290    -1.7180 C.3   1 <1>   0.1570 
  5 C       -1.5710     1.0590     0.4230 C.3   1 <1>   0.1400 
  6 C        0.2630     2.7780     0.5200 C.3   1 <1>   0.1400 
  7 N        2.7590     1.3660    -0.6950 N.pl3 1 <1>   0.0480 
  8 C       -2.6820     2.1120     0.2040 C.3   1 <1>   0.0000 
  9 C       -0.8440     3.5900     1.2140 C.3   1 <1>  -0.1600 
 10 C        3.5100     2.4650    -0.3360 C.ar  1 <1>  -0.1520 
 11 C        3.1250     0.3290     0.1180 C.2   1 <1>  -0.3020 
 12 C       -3.8850     1.7880     1.1110 C.3   1 <1>   0.2000 
 13 C       -2.1420     3.5660     0.3910 C.3   1 <1>  -0.1600 
 14 C       -3.3280     1.9860    -1.1850 C.3   1 <1>  -0.1600 
 15 C        4.3410     2.0990     0.7190 C.ar  1 <1>   0.0000 
 16 C        3.5420     3.7710    -0.8390 C.ar  1 <1>  -0.1500 
 17 C        4.0800     0.7400     0.9840 C.2   1 <1>  -0.1500 
 18 O       -3.7280     2.2720     2.3960 O.3   1 <1>  -0.6800 
 19 C       -5.1090     2.4150     0.4410 C.3   1 <1>  -0.1600 
 20 C       -4.7260     2.5980    -1.0350 C.3   1 <1>  -0.1600 
 21 C        5.2040     3.0400     1.2880 C.ar  1 <1>  -0.1500 
 22 C        4.3960     4.6880    -0.2720 C.ar  1 <1>  -0.1500 
 23 C        5.2270     4.3230     0.7930 C.ar  1 <1>  -0.1500 
 24 H        1.5640     2.3020    -2.1470 H     1 <1>   0.0800 
 25 H        1.9960     0.6530    -2.4950 H     1 <1>   0.0800 
 26 H       -1.8550     0.1180    -0.0160 H     1 <1>   0.0800 
 27 H       -1.4420     0.8890     1.4780 H     1 <1>   0.0800 
 28 H        1.0190     2.5080     1.2390 H     1 <1>   0.0800 
 29 H        0.7190     3.4000    -0.2290 H     1 <1>   0.0800 
 30 H       -1.0220     3.1820     2.1940 H     1 <1>   0.0800 
 31 H       -0.5070     4.6030     1.3460 H     1 <1>   0.0800 
 32 H        2.6750    -0.6450     0.0320 H     1 <1>   0.1500 
 33 H       -4.0240     0.7210     1.1740 H     1 <1>   0.0800 
 34 H       -1.9100     3.9930    -0.5690 H     1 <1>   0.0800 
 35 H       -2.8800     4.2070     0.8380 H     1 <1>   0.0800 
 36 H       -2.7540     2.4570    -1.9630 H     1 <1>   0.0800 
 37 H       -3.4360     0.9450    -1.4400 H     1 <1>   0.0800 
 38 H        2.9100     4.0550    -1.6610 H     1 <1>   0.1500 
 39 H        4.5740     0.1690     1.7500 H     1 <1>   0.1500 
 40 H       -3.5270     3.2250     2.3600 H     1 <1>   0.4000 
 41 H       -5.9540     1.7560     0.5350 H     1 <1>   0.0800 
 42 H       -5.3490     3.3690     0.8760 H     1 <1>   0.0800 
 43 H       -5.4320     2.1190    -1.6930 H     1 <1>   0.0800 
 44 H       -4.6890     3.6480    -1.2710 H     1 <1>   0.0800 
 45 H        5.8380     2.7430     2.1030 H     1 <1>   0.1500 
 46 H        4.4370     5.6970    -0.6430 H     1 <1>   0.1500 
 47 H        5.8870     5.0580     1.2200 H     1 <1>   0.1500 
@<TRIPOS>BOND
  1   1   2  2   
  2   2   3  am  
  3   2   4  1   
  4   3   5  1   
  5   3   6  1   
  6   4   7  1   
  7   4  24  1   
  8   4  25  1   
  9   5   8  1   
 10   5  26  1   
 11   5  27  1   
 12   6   9  1   
 13   6  28  1   
 14   6  29  1   
 15   7  10  1   
 16   7  11  1   
 17   8  12  1   
 18   8  13  1   
 19   8  14  1   
 20   9  13  1   
 21   9  30  1   
 22   9  31  1   
 23  10  15  ar  
 24  10  16  ar  
 25  11  17  2   
 26  11  32  1   
 27  12  18  1   
 28  12  19  1   
 29  12  33  1   
 30  13  34  1   
 31  13  35  1   
 32  14  20  1   
 33  14  36  1   
 34  14  37  1   
 35  15  17  1   
 36  15  21  ar  
 37  16  22  ar  
 38  16  38  1   
 39  17  39  1   
 40  18  40  1   
 41  19  20  1   
 42  19  41  1   
 43  19  42  1   
 44  20  43  1   
 45  20  44  1   
 46  21  23  ar  
 47  21  45  1   
 48  22  23  ar  
 49  22  46  1   
 50  23  47  1   
@<TRIPOS>SUBSTRUCTURE
  1 ****   6 GROUP 4 **** **** 0

# MOE 2024.06 (io_trps.svl 2023.06)
