@<TRIPOS>MOLECULE
NONAME
51 53 1 0 0 
SMALL
USER_CHARGES


@<TRIPOS>ATOM
  1 CL       1.1930    -0.2690     1.2440 Cl    1 <1>  -0.1230 
  2 C        2.8850    -0.3440     0.7860 C.2   1 <1>   0.1230 
  3 C        3.7170     0.7390     0.4940 C.2   1 <1>   0.2030 
  4 C        3.6120    -1.4620     0.6370 C.2   1 <1>  -0.3020 
  5 N        4.9240     0.2850     0.1660 N.2   1 <1>  -0.7070 
  6 C        3.2920     2.1280     0.5660 C.2   1 <1>   0.7160 
  7 N        4.8400    -1.0570     0.2670 N.pl3 1 <1>   0.3140 
  8 O        2.6330     2.5170     1.5130 O.2   1 <1>  -0.5700 
  9 N        3.6820     3.0780    -0.3710 N.am  1 <1>  -0.6600 
 10 C        5.9790    -1.9460    -0.0050 C.3   1 <1>   0.0160 
 11 C        4.5580     2.7700    -1.5440 C.3   1 <1>   0.1400 
 12 C        3.3090     4.5140    -0.2340 C.3   1 <1>   0.1400 
 13 C        6.0530     2.8640    -1.1760 C.3   1 <1>   0.3430 
 14 C        4.4230     5.2880     0.4830 C.3   1 <1>  -0.1600 
 15 N        6.2990     3.7380     0.0230 N.4   1 <1>  -0.9590 
 16 C        5.8160     5.1400    -0.1370 C.3   1 <1>   0.3430 
 17 C        7.7070     3.6610     0.5310 C.3   1 <1>   0.3430 
 18 C        8.7560     4.1560    -0.4830 C.3   1 <1>   0.1100 
 19 N       10.0380     4.4010     0.1880 N.3   1 <1>  -0.8100 
 20 C       10.7540     3.1500     0.5410 C.3   1 <1>   0.1100 
 21 C       10.9260     5.2440    -0.6470 C.3   1 <1>   0.1100 
 22 C       12.1220     3.4480     1.1820 C.3   1 <1>   0.1200 
 23 C       12.2890     5.4720     0.0320 C.3   1 <1>   0.1200 
 24 O       12.8900     4.2480     0.3330 O.3   1 <1>  -0.5600 
 25 H        3.3280    -2.4890     0.7700 H     1 <1>   0.1500 
 26 H        6.1190    -2.6080     0.8300 H     1 <1>   0.0800 
 27 H        6.8660    -1.3580    -0.1490 H     1 <1>   0.0800 
 28 H        5.7770    -2.5180    -0.8910 H     1 <1>   0.0800 
 29 H        4.3460     3.4590    -2.3430 H     1 <1>   0.0800 
 30 H        4.3420     1.7850    -1.9240 H     1 <1>   0.0800 
 31 H        2.3910     4.6060     0.3250 H     1 <1>   0.0800 
 32 H        3.1290     4.9360    -1.2080 H     1 <1>   0.0800 
 33 H        6.6100     3.2210    -2.0260 H     1 <1>   0.0800 
 34 H        6.4020     1.8680    -0.9570 H     1 <1>   0.0800 
 35 H        4.4500     4.9960     1.5190 H     1 <1>   0.0800 
 36 H        4.1580     6.3300     0.4660 H     1 <1>   0.0800 
 37 H        5.6860     3.3320     0.7490 H     1 <1>   0.4500 
 38 H        6.4890     5.8110     0.3740 H     1 <1>   0.0800 
 39 H        5.7950     5.4150    -1.1790 H     1 <1>   0.0800 
 40 H        7.9370     2.6430     0.7980 H     1 <1>   0.0800 
 41 H        7.7930     4.2640     1.4200 H     1 <1>   0.0800 
 42 H        8.4170     5.0840    -0.9080 H     1 <1>   0.0800 
 43 H        8.8890     3.4390    -1.2750 H     1 <1>   0.0800 
 44 H       10.9140     2.5520    -0.3410 H     1 <1>   0.0800 
 45 H       10.1700     2.5750     1.2380 H     1 <1>   0.0800 
 46 H       10.4620     6.2000    -0.8170 H     1 <1>   0.0800 
 47 H       11.0930     4.7750    -1.6020 H     1 <1>   0.0800 
 48 H       12.6640     2.5350     1.3520 H     1 <1>   0.0800 
 49 H       11.9990     3.9600     2.1220 H     1 <1>   0.0800 
 50 H       12.1710     6.0340     0.9420 H     1 <1>   0.0800 
 51 H       12.9490     6.0090    -0.6250 H     1 <1>   0.0800 
@<TRIPOS>BOND
  1   1   2  1   
  2   2   3  1   
  3   2   4  2   
  4   3   5  2   
  5   3   6  1   
  6   4   7  1   
  7   4  25  1   
  8   5   7  1   
  9   6   8  2   
 10   6   9  am  
 11   7  10  1   
 12   9  11  1   
 13   9  12  1   
 14  10  26  1   
 15  10  27  1   
 16  10  28  1   
 17  11  13  1   
 18  11  29  1   
 19  11  30  1   
 20  12  14  1   
 21  12  31  1   
 22  12  32  1   
 23  13  15  1   
 24  13  33  1   
 25  13  34  1   
 26  14  16  1   
 27  14  35  1   
 28  14  36  1   
 29  15  16  1   
 30  15  17  1   
 31  15  37  1   
 32  16  38  1   
 33  16  39  1   
 34  17  18  1   
 35  17  40  1   
 36  17  41  1   
 37  18  19  1   
 38  18  42  1   
 39  18  43  1   
 40  19  20  1   
 41  19  21  1   
 42  20  22  1   
 43  20  44  1   
 44  20  45  1   
 45  21  23  1   
 46  21  46  1   
 47  21  47  1   
 48  22  24  1   
 49  22  48  1   
 50  22  49  1   
 51  23  24  1   
 52  23  50  1   
 53  23  51  1   
@<TRIPOS>SUBSTRUCTURE
  1 ****  15 GROUP 4 **** **** 0

# MOE 2024.06 (io_trps.svl 2023.06)
