@<TRIPOS>MOLECULE
NONAME
46 48 1 0 0 
SMALL
USER_CHARGES


@<TRIPOS>ATOM
  1 O       -1.0050    -0.1430     0.1050 O.2   1 <1>  -0.5700 
  2 C       -1.7130     0.7570    -0.3250 C.2   1 <1>   0.7160 
  3 N       -2.9490     0.3680    -0.8150 N.am  1 <1>  -0.6600 
  4 C       -1.2740     2.1520    -0.2880 C.2   1 <1>   0.1410 
  5 C       -3.1850    -1.0370    -1.2200 C.3   1 <1>   0.1400 
  6 C       -4.1870     1.1300    -0.5040 C.3   1 <1>   0.1400 
  7 N       -1.8090     3.1160    -1.1010 N.2   1 <1>  -0.5650 
  8 C       -0.3050     2.7390     0.4870 C.2   1 <1>  -0.3320 
  9 C       -3.8720    -1.7760    -0.0520 C.3   1 <1>   0.4230 
 10 C       -4.9120     0.4160     0.6470 C.3   1 <1>  -0.1600 
 11 C       -1.1740     4.1980    -0.8130 C.2   1 <1>   0.0360 
 12 N       -0.2440     4.0330     0.1460 N.pl3 1 <1>   0.0330 
 13 C        0.6050     2.1570     1.5590 C.3   1 <1>  -0.0600 
 14 N       -3.9810    -3.2810    -0.2540 N.4   1 <1>  -0.9590 
 15 C       -5.2070    -1.0900     0.3710 C.3   1 <1>   0.0000 
 16 C       -4.9840    -3.9460     0.6390 C.3   1 <1>   0.3430 
 17 C       -4.1760    -3.7300    -1.6720 C.3   1 <1>   0.2630 
 18 C       -5.7230    -1.7460     1.6870 C.3   1 <1>  -0.1600 
 19 C       -6.2650    -1.2300    -0.7600 C.3   1 <1>   0.1200 
 20 C       -5.1670    -3.1610     1.9370 C.3   1 <1>  -0.1600 
 21 O       -7.4040    -0.4890    -0.4940 O.3   1 <1>  -0.6800 
 22 H       -3.7920    -1.0410    -2.1070 H     1 <1>   0.0800 
 23 H       -2.2450    -1.5080    -1.4510 H     1 <1>   0.0800 
 24 H       -3.9550     2.1370    -0.2030 H     1 <1>   0.0800 
 25 H       -4.8110     1.1850    -1.3800 H     1 <1>   0.0800 
 26 H       -3.2070    -1.6350     0.7850 H     1 <1>   0.0800 
 27 H       -4.2880     0.5120     1.5180 H     1 <1>   0.0800 
 28 H       -5.8210     0.9490     0.8640 H     1 <1>   0.0800 
 29 H       -1.3510     5.1510    -1.2800 H     1 <1>   0.1500 
 30 H        0.3780     4.7540     0.5240 H     1 <1>   0.2700 
 31 H        0.3480     1.1370     1.7790 H     1 <1>   0.0800 
 32 H        0.5190     2.7250     2.4680 H     1 <1>   0.0800 
 33 H        1.6280     2.1830     1.2280 H     1 <1>   0.0800 
 34 H       -3.0580    -3.6370     0.0430 H     1 <1>   0.4500 
 35 H       -5.9370    -4.0030     0.1390 H     1 <1>   0.0800 
 36 H       -4.6660    -4.9520     0.8620 H     1 <1>   0.0800 
 37 H       -5.1040    -3.3480    -2.0650 H     1 <1>   0.0800 
 38 H       -4.2000    -4.8070    -1.7220 H     1 <1>   0.0800 
 39 H       -3.3680    -3.3820    -2.2940 H     1 <1>   0.0800 
 40 H       -5.4590    -1.1440     2.5400 H     1 <1>   0.0800 
 41 H       -6.7980    -1.7920     1.6810 H     1 <1>   0.0800 
 42 H       -6.5720    -2.2520    -0.8880 H     1 <1>   0.0800 
 43 H       -5.8850    -0.8700    -1.7000 H     1 <1>   0.0800 
 44 H       -5.8420    -3.6960     2.5830 H     1 <1>   0.0800 
 45 H       -4.2220    -3.1030     2.4500 H     1 <1>   0.0800 
 46 H       -7.8320    -0.7530     0.3440 H     1 <1>   0.4000 
@<TRIPOS>BOND
  1   1   2  2   
  2   2   3  am  
  3   2   4  1   
  4   3   5  1   
  5   3   6  1   
  6   4   7  1   
  7   4   8  2   
  8   5   9  1   
  9   5  22  1   
 10   5  23  1   
 11   6  10  1   
 12   6  24  1   
 13   6  25  1   
 14   7  11  2   
 15   8  12  1   
 16   8  13  1   
 17   9  14  1   
 18   9  15  1   
 19   9  26  1   
 20  10  15  1   
 21  10  27  1   
 22  10  28  1   
 23  11  12  1   
 24  11  29  1   
 25  12  30  1   
 26  13  31  1   
 27  13  32  1   
 28  13  33  1   
 29  14  16  1   
 30  14  17  1   
 31  14  34  1   
 32  15  18  1   
 33  15  19  1   
 34  16  20  1   
 35  16  35  1   
 36  16  36  1   
 37  17  37  1   
 38  17  38  1   
 39  17  39  1   
 40  18  20  1   
 41  18  40  1   
 42  18  41  1   
 43  19  21  1   
 44  19  42  1   
 45  19  43  1   
 46  20  44  1   
 47  20  45  1   
 48  21  46  1   
@<TRIPOS>SUBSTRUCTURE
  1 ****   3 GROUP 4 **** **** 0

# MOE 2024.06 (io_trps.svl 2023.06)
