@<TRIPOS>MOLECULE
NONAME
42 43 1 0 0 
SMALL
USER_CHARGES


@<TRIPOS>ATOM
  1 O       -2.5050     1.5180     2.8080 O.2   1 <1>  -0.5700 
  2 C       -2.6660     1.4510     1.6090 C.2   1 <1>   0.5690 
  3 N       -3.5040     0.5030     1.0680 N.am  1 <1>  -0.6600 
  4 C       -1.9070     2.4600     0.7230 C.3   1 <1>   0.1250 
  5 C       -4.1790    -0.4970     1.9650 C.3   1 <1>   0.3210 
  6 C       -3.7120     0.2730    -0.4020 C.3   1 <1>   0.1400 
  7 C       -0.7520     1.7940    -0.0280 C.ar  1 <1>  -0.1440 
  8 C       -1.3650     3.6800     1.4910 C.3   1 <1>  -0.2400 
  9 C       -3.8560    -1.9290     1.5560 C.2   1 <1>   0.0460 
 10 C       -5.1830     0.4650    -0.7890 C.3   1 <1>   0.1200 
 11 C        0.1390     0.9670     0.6430 C.ar  1 <1>  -0.1500 
 12 C       -0.5770     2.0120    -1.3870 C.ar  1 <1>  -0.1500 
 13 N       -4.7880    -2.7070     0.9670 N.2   1 <1>  -0.5650 
 14 C       -2.6840    -2.5950     1.6850 C.2   1 <1>  -0.3320 
 15 O       -5.2880     0.6320    -2.1650 O.3   1 <1>  -0.6800 
 16 C        1.1800     0.3580    -0.0360 C.ar  1 <1>  -0.1500 
 17 C        0.4630     1.4020    -2.0670 C.ar  1 <1>  -0.1500 
 18 C       -4.1690    -3.8210     0.7500 C.2   1 <1>   0.0360 
 19 N       -2.8850    -3.8180     1.1640 N.pl3 1 <1>   0.0330 
 20 C       -1.3560    -2.1400     2.2660 C.3   1 <1>  -0.0600 
 21 C        1.3410     0.5730    -1.3920 C.ar  1 <1>  -0.1500 
 22 H       -2.6140     2.8430     0.0110 H     1 <1>   0.0800 
 23 H       -5.2430    -0.3510     1.9250 H     1 <1>   0.0800 
 24 H       -3.8760    -0.3660     2.9880 H     1 <1>   0.0800 
 25 H       -3.4050    -0.7260    -0.6590 H     1 <1>   0.0800 
 26 H       -3.1110     0.9480    -0.9770 H     1 <1>   0.0800 
 27 H       -0.6410     3.3670     2.2230 H     1 <1>   0.0800 
 28 H       -2.1670     4.1850     1.9980 H     1 <1>   0.0800 
 29 H       -0.8920     4.3670     0.8130 H     1 <1>   0.0800 
 30 H       -5.5960     1.3380    -0.3160 H     1 <1>   0.0800 
 31 H       -5.7570    -0.4050    -0.5170 H     1 <1>   0.0800 
 32 H        0.0260     0.7970     1.7000 H     1 <1>   0.1500 
 33 H       -1.2470     2.6570    -1.9270 H     1 <1>   0.1500 
 34 H       -4.8940     1.4790    -2.4480 H     1 <1>   0.4000 
 35 H        1.8640    -0.2820     0.4930 H     1 <1>   0.1500 
 36 H        0.5910     1.5730    -3.1220 H     1 <1>   0.1500 
 37 H       -4.6170    -4.6810     0.2840 H     1 <1>   0.1500 
 38 H       -2.2110    -4.5850     1.0910 H     1 <1>   0.2700 
 39 H       -1.4430    -1.1460     2.6670 H     1 <1>   0.0800 
 40 H       -0.6010    -2.1320     1.5000 H     1 <1>   0.0800 
 41 H       -1.0490    -2.7990     3.0580 H     1 <1>   0.0800 
 42 H        2.1500     0.1000    -1.9210 H     1 <1>   0.1500 
@<TRIPOS>BOND
  1   1   2  2   
  2   2   3  am  
  3   2   4  1   
  4   3   5  1   
  5   3   6  1   
  6   4   7  1   
  7   4   8  1   
  8   4  22  1   
  9   5   9  1   
 10   5  23  1   
 11   5  24  1   
 12   6  10  1   
 13   6  25  1   
 14   6  26  1   
 15   7  11  ar  
 16   7  12  ar  
 17   8  27  1   
 18   8  28  1   
 19   8  29  1   
 20   9  13  1   
 21   9  14  2   
 22  10  15  1   
 23  10  30  1   
 24  10  31  1   
 25  11  16  ar  
 26  11  32  1   
 27  12  17  ar  
 28  12  33  1   
 29  13  18  2   
 30  14  19  1   
 31  14  20  1   
 32  15  34  1   
 33  16  21  ar  
 34  16  35  1   
 35  17  21  ar  
 36  17  36  1   
 37  18  19  1   
 38  18  37  1   
 39  19  38  1   
 40  20  39  1   
 41  20  40  1   
 42  20  41  1   
 43  21  42  1   
@<TRIPOS>SUBSTRUCTURE
  1 ****   3 GROUP 4 **** **** 0

# MOE 2024.06 (io_trps.svl 2023.06)
