@<TRIPOS>MOLECULE
NONAME
50 53 1 0 0 
SMALL
USER_CHARGES


@<TRIPOS>ATOM
  1 O       -1.7590     1.1120    -1.0600 O.2   1 <1>  -0.5700 
  2 C       -1.2690     2.0690    -0.5160 C.2   1 <1>   0.5690 
  3 N       -2.0220     3.1420    -0.1980 N.am  1 <1>  -0.7300 
  4 C        0.2320     2.0940    -0.2150 C.3   1 <1>   0.1810 
  5 C       -1.4870     4.3590     0.4620 C.3   1 <1>   0.3640 
  6 O        0.5930     3.0740     0.7340 O.3   1 <1>  -0.5600 
  7 C       -2.0210     5.5860    -0.2770 C.ar  1 <1>  -0.1440 
  8 C        0.0660     4.3710     0.4870 C.3   1 <1>   0.2610 
  9 C       -2.0360     5.6460    -1.6660 C.ar  1 <1>  -0.1500 
 10 C       -2.4950     6.6710     0.4460 C.ar  1 <1>  -0.1500 
 11 C        0.6170     5.3860     1.5060 C.2   1 <1>   0.5690 
 12 C       -2.5170     6.7690    -2.3160 C.ar  1 <1>  -0.1500 
 13 C       -2.9760     7.7950    -0.2030 C.ar  1 <1>  -0.1500 
 14 O       -0.1170     5.7780     2.3880 O.2   1 <1>  -0.5700 
 15 N        1.9120     5.8500     1.4140 N.am  1 <1>  -0.6600 
 16 C       -2.9880     7.8440    -1.5850 C.ar  1 <1>  -0.1500 
 17 C        2.9550     5.2880     0.5100 C.3   1 <1>   0.1400 
 18 C        2.4120     6.9320     2.3090 C.3   1 <1>   0.1400 
 19 C        3.5210     6.4080    -0.3670 C.3   1 <1>  -0.1600 
 20 C        2.9830     8.0710     1.4590 C.3   1 <1>  -0.1600 
 21 C        4.0630     7.5620     0.4910 C.3   1 <1>   0.0630 
 22 C        4.5990     8.6890    -0.3860 C.ar  1 <1>  -0.1430 
 23 C        5.9360     9.0380    -0.3720 C.ar  1 <1>  -0.1500 
 24 C        3.7950     9.4200    -1.2400 C.ar  1 <1>  -0.1500 
 25 C        6.3880    10.0650    -1.1850 C.ar  1 <1>   0.1600 
 26 C        4.3480    10.4290    -2.0110 C.ar  1 <1>   0.1600 
 27 N        5.6260    10.7690    -2.0050 N.ar  1 <1>  -0.6200 
 28 H       -3.0220     3.1270    -0.4040 H     1 <1>   0.3700 
 29 H        0.7750     2.2840    -1.1230 H     1 <1>   0.0800 
 30 H        0.5310     1.1380     0.1740 H     1 <1>   0.0800 
 31 H       -1.8560     4.3650     1.4730 H     1 <1>   0.0800 
 32 H        0.4060     4.6740    -0.4850 H     1 <1>   0.0800 
 33 H       -1.6770     4.8180    -2.2520 H     1 <1>   0.1500 
 34 H       -2.4880     6.6520     1.5240 H     1 <1>   0.1500 
 35 H       -2.5280     6.8050    -3.3920 H     1 <1>   0.1500 
 36 H       -3.3410     8.6300     0.3690 H     1 <1>   0.1500 
 37 H       -3.3630     8.7170    -2.0900 H     1 <1>   0.1500 
 38 H        3.7410     4.8630     1.1110 H     1 <1>   0.0800 
 39 H        2.5630     4.5050    -0.1120 H     1 <1>   0.0800 
 40 H        1.6190     7.3140     2.9300 H     1 <1>   0.0800 
 41 H        3.1740     6.5300     2.9540 H     1 <1>   0.0800 
 42 H        4.3140     6.0160    -0.9780 H     1 <1>   0.0800 
 43 H        2.7460     6.7630    -1.0210 H     1 <1>   0.0800 
 44 H        2.1760     8.5260     0.9150 H     1 <1>   0.0800 
 45 H        3.4050     8.8200     2.1060 H     1 <1>   0.0800 
 46 H        4.8750     7.1770     1.0840 H     1 <1>   0.0800 
 47 H        6.6340     8.5230     0.2610 H     1 <1>   0.1500 
 48 H        2.7430     9.2170    -1.3150 H     1 <1>   0.1500 
 49 H        7.4340    10.3200    -1.1580 H     1 <1>   0.1500 
 50 H        3.7020    10.9860    -2.6680 H     1 <1>   0.1500 
@<TRIPOS>BOND
  1   1   2  2   
  2   2   3  am  
  3   2   4  1   
  4   3   5  1   
  5   3  28  1   
  6   4   6  1   
  7   4  29  1   
  8   4  30  1   
  9   5   7  1   
 10   5   8  1   
 11   5  31  1   
 12   6   8  1   
 13   7   9  ar  
 14   7  10  ar  
 15   8  11  1   
 16   8  32  1   
 17   9  12  ar  
 18   9  33  1   
 19  10  13  ar  
 20  10  34  1   
 21  11  14  2   
 22  11  15  am  
 23  12  16  ar  
 24  12  35  1   
 25  13  16  ar  
 26  13  36  1   
 27  15  17  1   
 28  15  18  1   
 29  16  37  1   
 30  17  19  1   
 31  17  38  1   
 32  17  39  1   
 33  18  20  1   
 34  18  40  1   
 35  18  41  1   
 36  19  21  1   
 37  19  42  1   
 38  19  43  1   
 39  20  21  1   
 40  20  44  1   
 41  20  45  1   
 42  21  22  1   
 43  21  46  1   
 44  22  23  ar  
 45  22  24  ar  
 46  23  25  ar  
 47  23  47  1   
 48  24  26  ar  
 49  24  48  1   
 50  25  27  ar  
 51  25  49  1   
 52  26  27  ar  
 53  26  50  1   
@<TRIPOS>SUBSTRUCTURE
  1 ****  15 GROUP 4 **** **** 0

# MOE 2024.06 (io_trps.svl 2023.06)
