@<TRIPOS>MOLECULE
NONAME
45 46 1 0 0 
SMALL
USER_CHARGES


@<TRIPOS>ATOM
  1 S        0.5070    -0.3860    -1.2450 S.o2  1 <1>   1.3330 
  2 O        0.0210    -0.4520    -2.6050 O.2   1 <1>  -0.6500 
  3 O        1.7530    -1.0360    -0.9030 O.2   1 <1>  -0.6500 
  4 N       -0.7110    -1.0440    -0.2590 N.am  1 <1>  -0.8490 
  5 C        0.5730     1.3370    -0.7300 C.3   1 <1>  -0.0550 
  6 C       -2.0670    -0.8110    -0.7700 C.3   1 <1>   0.1160 
  7 C       -0.5150    -2.4770    -0.0160 C.3   1 <1>   0.1160 
  8 C        1.3550     1.6710     0.5610 C.3   1 <1>  -0.0800 
  9 C        2.8650     1.4530     0.4290 C.3   1 <1>   0.2200 
 10 C        0.9800     0.8930     1.8280 C.3   1 <1>   0.1200 
 11 N        3.5620     2.7470     0.6100 N.am  1 <1>  -0.7300 
 12 C        3.1820     0.5100     1.5870 C.3   1 <1>   0.1200 
 13 O        2.1750     0.7360     2.5200 O.3   1 <1>  -0.5600 
 14 C        3.7440     3.6700    -0.3800 C.2   1 <1>   0.5440 
 15 O        3.2780     3.4270    -1.4770 O.2   1 <1>  -0.5700 
 16 C        4.4440     4.9170    -0.1240 C.ar  1 <1>   0.0860 
 17 C        4.2270     6.0380    -0.9290 C.ar  1 <1>  -0.1500 
 18 C        5.3560     5.0560     0.9250 C.ar  1 <1>  -0.1500 
 19 C        4.8750     7.2380    -0.7030 C.ar  1 <1>  -0.1500 
 20 C        6.0090     6.2510     1.1590 C.ar  1 <1>  -0.1500 
 21 C        5.7800     7.3510     0.3490 C.ar  1 <1>   0.0820 
 22 O        6.4690     8.4770     0.6410 O.3   1 <1>  -0.3620 
 23 C        6.5010     9.5660    -0.2500 C.3   1 <1>   0.8800 
 24 F        7.4760    10.3780     0.1310 F     1 <1>  -0.3400 
 25 F        5.3770    10.2590    -0.1150 F     1 <1>  -0.3400 
 26 H        1.0240     1.9020    -1.5240 H     1 <1>   0.0800 
 27 H       -0.4280     1.7030    -0.6260 H     1 <1>   0.0800 
 28 H       -2.7950    -1.1620    -0.0590 H     1 <1>   0.0800 
 29 H       -2.2110    -1.3290    -1.7050 H     1 <1>   0.0800 
 30 H       -2.2290     0.2400    -0.9320 H     1 <1>   0.0800 
 31 H       -1.2970    -2.8610     0.6160 H     1 <1>   0.0800 
 32 H        0.4270    -2.6430     0.4790 H     1 <1>   0.0800 
 33 H       -0.5140    -3.0180    -0.9490 H     1 <1>   0.0800 
 34 H        1.1690     2.7100     0.7700 H     1 <1>   0.0800 
 35 H        3.1570     1.0160    -0.5120 H     1 <1>   0.0800 
 36 H        0.6040    -0.0910     1.6220 H     1 <1>   0.0800 
 37 H        0.2820     1.4270     2.4490 H     1 <1>   0.0800 
 38 H        3.7080     3.0100     1.5860 H     1 <1>   0.3700 
 39 H        4.1430     0.6960     2.0330 H     1 <1>   0.0800 
 40 H        3.1160    -0.5170     1.2690 H     1 <1>   0.0800 
 41 H        3.5300     5.9570    -1.7460 H     1 <1>   0.1500 
 42 H        5.5650     4.2160     1.5630 H     1 <1>   0.1500 
 43 H        4.6500     8.0660    -1.3500 H     1 <1>   0.1500 
 44 H        6.7060     6.3390     1.9740 H     1 <1>   0.1500 
 45 H        6.6450     9.2740    -1.2750 H     1 <1>   0.0800 
@<TRIPOS>BOND
  1   1   2  2   
  2   1   3  2   
  3   1   4  am  
  4   1   5  1   
  5   4   6  1   
  6   4   7  1   
  7   5   8  1   
  8   5  26  1   
  9   5  27  1   
 10   6  28  1   
 11   6  29  1   
 12   6  30  1   
 13   7  31  1   
 14   7  32  1   
 15   7  33  1   
 16   8   9  1   
 17   8  10  1   
 18   8  34  1   
 19   9  11  1   
 20   9  12  1   
 21   9  35  1   
 22  10  13  1   
 23  10  36  1   
 24  10  37  1   
 25  11  14  am  
 26  11  38  1   
 27  12  13  1   
 28  12  39  1   
 29  12  40  1   
 30  14  15  2   
 31  14  16  1   
 32  16  17  ar  
 33  16  18  ar  
 34  17  19  ar  
 35  17  41  1   
 36  18  20  ar  
 37  18  42  1   
 38  19  21  ar  
 39  19  43  1   
 40  20  21  ar  
 41  20  44  1   
 42  21  22  1   
 43  22  23  1   
 44  23  24  1   
 45  23  25  1   
 46  23  45  1   
@<TRIPOS>SUBSTRUCTURE
  1 ****  14 GROUP 4 **** **** 0

# MOE 2024.06 (io_trps.svl 2023.06)
