@<TRIPOS>MOLECULE
NONAME
22 22 1 0 0 
SMALL
USER_CHARGES


@<TRIPOS>ATOM
  1 CL       0.0620     0.3880     1.4010 Cl    1 <1>  -0.1770 
  2 C        1.4260    -0.5930     0.9230 C.ar  1 <1>   0.4870 
  3 N        1.1910    -1.8930     1.0680 N.ar  1 <1>  -0.6200 
  4 C        2.5990    -0.0190     0.4120 C.ar  1 <1>  -0.1440 
  5 C        2.1800    -2.6870     0.7110 C.ar  1 <1>   0.1600 
  6 C        3.6070    -0.9010     0.0430 C.ar  1 <1>  -0.1500 
  7 C        2.7770     1.5200     0.2580 C.3   1 <1>   0.0380 
  8 C        3.3860    -2.2520     0.2010 C.ar  1 <1>  -0.1500 
  9 C        2.4880     2.2630     1.5940 C.2   1 <1>   0.9060 
 10 C        4.2180     1.9130    -0.1560 C.3   1 <1>  -0.2400 
 11 C        1.8680     1.9940    -0.9030 C.3   1 <1>  -0.2400 
 12 O        2.9090     1.7790     2.6540 O.co2 1 <1>  -0.9000 
 13 O        1.9070     3.3580     1.5730 O.co2 1 <1>  -0.9000 
 14 H        2.0200    -3.7440     0.8310 H     1 <1>   0.1500 
 15 H        4.5500    -0.5790    -0.3540 H     1 <1>   0.1500 
 16 H        4.1460    -2.9620    -0.0680 H     1 <1>   0.1500 
 17 H        4.9180     1.5630     0.5830 H     1 <1>   0.0800 
 18 H        4.2990     2.9860    -0.1950 H     1 <1>   0.0800 
 19 H        4.4760     1.5200    -1.1210 H     1 <1>   0.0800 
 20 H        0.8320     1.8650    -0.6570 H     1 <1>   0.0800 
 21 H        2.0810     1.4460    -1.8020 H     1 <1>   0.0800 
 22 H        2.0220     3.0430    -1.0860 H     1 <1>   0.0800 
@<TRIPOS>BOND
  1   1   2  1   
  2   2   3  ar  
  3   2   4  ar  
  4   3   5  ar  
  5   4   6  ar  
  6   4   7  1   
  7   5   8  ar  
  8   5  14  1   
  9   6   8  ar  
 10   6  15  1   
 11   7   9  1   
 12   7  10  1   
 13   7  11  1   
 14   8  16  1   
 15   9  12  ar  
 16   9  13  ar  
 17  10  17  1   
 18  10  18  1   
 19  10  19  1   
 20  11  20  1   
 21  11  21  1   
 22  11  22  1   
@<TRIPOS>SUBSTRUCTURE
  1 ****   4 GROUP 4 **** **** 0

# MOE 2024.06 (io_trps.svl 2023.06)
