@<TRIPOS>MOLECULE
NONAME
55 57 1 0 0 
SMALL
USER_CHARGES


@<TRIPOS>ATOM
  1 O       -0.3890     1.8280    -1.5660 O.2   1 <1>  -0.5700 
  2 C       -1.5810     2.0610    -1.5000 C.2   1 <1>   0.5440 
  3 N       -2.0610     3.2390    -2.0380 N.am  1 <1>  -0.6600 
  4 C       -2.4550     1.1060    -0.8440 C.ar  1 <1>   0.0860 
  5 C       -3.3230     3.8880    -1.5940 C.3   1 <1>   0.1400 
  6 C       -1.2220     4.0870    -2.9280 C.3   1 <1>   0.1400 
  7 C       -3.6100     0.6270    -1.4560 C.ar  1 <1>  -0.1500 
  8 C       -2.1670     0.6260     0.4290 C.ar  1 <1>  -0.1500 
  9 C       -2.9840     5.1750    -0.8360 C.3   1 <1>  -0.1600 
 10 C       -0.8430     5.3700    -2.1870 C.3   1 <1>  -0.1600 
 11 C       -4.4480    -0.2720    -0.8200 C.ar  1 <1>  -0.1500 
 12 C       -3.0020    -0.2720     1.0670 C.ar  1 <1>  -0.1500 
 13 C       -2.0920     6.1140    -1.6730 C.3   1 <1>  -0.0190 
 14 C       -4.1630    -0.7390     0.4600 C.ar  1 <1>  -0.1430 
 15 C       -1.7200     7.3740    -0.8970 C.2   1 <1>   0.5690 
 16 C       -5.0650    -1.7420     1.2130 C.3   1 <1>   0.1430 
 17 O       -2.1360     8.4420    -1.2730 O.2   1 <1>  -0.5700 
 18 N       -0.9350     7.2690     0.2020 N.am  1 <1>  -0.7300 
 19 C       -4.2670    -3.0180     1.5220 C.3   1 <1>  -0.2400 
 20 C       -5.5490    -1.1120     2.5280 C.3   1 <1>  -0.2400 
 21 C       -6.3110    -2.1560     0.4120 C.3   1 <1>  -0.2400 
 22 C       -0.4610     8.4060     0.9930 C.3   1 <1>   0.3200 
 23 C        0.8270     8.0110     1.6880 C.2   1 <1>  -0.3320 
 24 N        1.3550     8.7410     2.6930 N.pl3 1 <1>   0.3000 
 25 C        1.6680     6.9680     1.4930 C.2   1 <1>  -0.1500 
 26 N        2.4970     8.2030     3.1560 N.2   1 <1>  -0.7070 
 27 C        2.6790     7.1430     2.4310 C.2   1 <1>   0.1390 
 28 H       -3.8890     3.2380    -0.9500 H     1 <1>   0.0800 
 29 H       -3.9260     4.1140    -2.4570 H     1 <1>   0.0800 
 30 H       -1.7800     4.3230    -3.8170 H     1 <1>   0.0800 
 31 H       -0.3310     3.5600    -3.2270 H     1 <1>   0.0800 
 32 H       -3.8490     0.9660    -2.4480 H     1 <1>   0.1500 
 33 H       -1.2700     0.9650     0.9180 H     1 <1>   0.1500 
 34 H       -2.4850     4.9100     0.0800 H     1 <1>   0.0800 
 35 H       -3.8950     5.6840    -0.5770 H     1 <1>   0.0800 
 36 H       -0.2880     6.0110    -2.8490 H     1 <1>   0.0800 
 37 H       -0.1970     5.1060    -1.3680 H     1 <1>   0.0800 
 38 H       -5.3220    -0.5980    -1.3520 H     1 <1>   0.1500 
 39 H       -2.7320    -0.6090     2.0520 H     1 <1>   0.1500 
 40 H       -2.6610     6.4290    -2.5310 H     1 <1>   0.0800 
 41 H       -0.5960     6.3600     0.5160 H     1 <1>   0.3700 
 42 H       -3.4290    -2.8070     2.1600 H     1 <1>   0.0800 
 43 H       -3.8950    -3.4480     0.6090 H     1 <1>   0.0800 
 44 H       -4.8880    -3.7450     2.0150 H     1 <1>   0.0800 
 45 H       -4.7230    -0.8850     3.1770 H     1 <1>   0.0800 
 46 H       -6.2070    -1.7830     3.0500 H     1 <1>   0.0800 
 47 H       -6.0800    -0.2000     2.3250 H     1 <1>   0.0800 
 48 H       -6.0270    -2.6340    -0.5080 H     1 <1>   0.0800 
 49 H       -6.9190    -1.2980     0.1890 H     1 <1>   0.0800 
 50 H       -6.9090    -2.8500     0.9750 H     1 <1>   0.0800 
 51 H       -1.2150     8.6600     1.7200 H     1 <1>   0.0800 
 52 H       -0.2970     9.2560     0.3520 H     1 <1>   0.0800 
 53 H        0.9680     9.6080     3.0880 H     1 <1>   0.2700 
 54 H        1.6140     6.1640     0.7810 H     1 <1>   0.1500 
 55 H        3.5210     6.4810     2.5500 H     1 <1>   0.1500 
@<TRIPOS>BOND
  1   1   2  2   
  2   2   3  am  
  3   2   4  1   
  4   3   5  1   
  5   3   6  1   
  6   4   7  ar  
  7   4   8  ar  
  8   5   9  1   
  9   5  28  1   
 10   5  29  1   
 11   6  10  1   
 12   6  30  1   
 13   6  31  1   
 14   7  11  ar  
 15   7  32  1   
 16   8  12  ar  
 17   8  33  1   
 18   9  13  1   
 19   9  34  1   
 20   9  35  1   
 21  10  13  1   
 22  10  36  1   
 23  10  37  1   
 24  11  14  ar  
 25  11  38  1   
 26  12  14  ar  
 27  12  39  1   
 28  13  15  1   
 29  13  40  1   
 30  14  16  1   
 31  15  17  2   
 32  15  18  am  
 33  16  19  1   
 34  16  20  1   
 35  16  21  1   
 36  18  22  1   
 37  18  41  1   
 38  19  42  1   
 39  19  43  1   
 40  19  44  1   
 41  20  45  1   
 42  20  46  1   
 43  20  47  1   
 44  21  48  1   
 45  21  49  1   
 46  21  50  1   
 47  22  23  1   
 48  22  51  1   
 49  22  52  1   
 50  23  24  1   
 51  23  25  2   
 52  24  26  1   
 53  24  53  1   
 54  25  27  1   
 55  25  54  1   
 56  26  27  2   
 57  27  55  1   
@<TRIPOS>SUBSTRUCTURE
  1 ****   3 GROUP 4 **** **** 0

# MOE 2024.06 (io_trps.svl 2023.06)
