@<TRIPOS>MOLECULE
NONAME
48 49 1 0 0 
SMALL
USER_CHARGES


@<TRIPOS>ATOM
  1 O       -1.7050     0.5450     2.2240 O.2   1 <1>  -0.5700 
  2 C       -2.3140     0.9570     1.2630 C.2   1 <1>   0.5690 
  3 N       -3.2250     0.1570     0.6100 N.am  1 <1>  -0.6600 
  4 C       -2.0270     2.4040     0.8220 C.3   1 <1>  -0.0190 
  5 C       -3.3820    -1.2690     1.0090 C.3   1 <1>   0.3200 
  6 C       -4.1440     0.5950    -0.4840 C.3   1 <1>   0.1400 
  7 C       -0.5660     2.5630     0.3200 C.3   1 <1>  -0.0800 
  8 C       -2.3650     3.3720     1.9760 C.3   1 <1>  -0.2400 
  9 C       -2.8990    -2.1950    -0.0970 C.2   1 <1>  -0.3320 
 10 C       -5.3260     1.3820     0.0910 C.3   1 <1>   0.1200 
 11 C       -0.2710     3.9970    -0.1770 C.3   1 <1>  -0.1600 
 12 C       -0.2490     1.5440    -0.7980 C.3   1 <1>  -0.1600 
 13 N       -3.1120    -3.5270    -0.1010 N.pl3 1 <1>   0.0480 
 14 C       -2.2000    -1.9230    -1.2230 C.2   1 <1>   0.0770 
 15 O       -6.1720     1.7650    -0.9400 O.3   1 <1>  -0.6800 
 16 C        1.1540     4.1400    -0.7260 C.3   1 <1>  -0.1600 
 17 C        1.1750     1.7000    -1.3430 C.3   1 <1>  -0.1600 
 18 C       -2.5330    -3.9660    -1.2410 C.2   1 <1>   0.0360 
 19 C       -3.8060    -4.3430     0.9110 C.3   1 <1>   0.0160 
 20 N       -1.9770    -3.0350    -1.9440 N.2   1 <1>  -0.5650 
 21 C        1.4270     3.1260    -1.8400 C.3   1 <1>  -0.1600 
 22 H       -2.6680     2.6680     0.0070 H     1 <1>   0.0800 
 23 H       -4.4220    -1.4560     1.2110 H     1 <1>   0.0800 
 24 H       -2.8320    -1.4830     1.9090 H     1 <1>   0.0800 
 25 H       -4.5250    -0.2680    -1.0040 H     1 <1>   0.0800 
 26 H       -3.6030     1.1900    -1.1980 H     1 <1>   0.0800 
 27 H        0.0940     2.3550     1.1470 H     1 <1>   0.0800 
 28 H       -1.6510     3.2620     2.7740 H     1 <1>   0.0800 
 29 H       -3.3410     3.1510     2.3690 H     1 <1>   0.0800 
 30 H       -2.3660     4.3940     1.6440 H     1 <1>   0.0800 
 31 H       -4.9980     2.2680     0.6040 H     1 <1>   0.0800 
 32 H       -5.8930     0.7630     0.7640 H     1 <1>   0.0800 
 33 H       -0.3840     4.7000     0.6290 H     1 <1>   0.0800 
 34 H       -0.9720     4.2610    -0.9500 H     1 <1>   0.0800 
 35 H       -0.9490     1.6650    -1.6070 H     1 <1>   0.0800 
 36 H       -0.3470     0.5410    -0.4210 H     1 <1>   0.0800 
 37 H       -1.8370    -0.9660    -1.5570 H     1 <1>   0.1500 
 38 H       -5.7520     2.4320    -1.5170 H     1 <1>   0.4000 
 39 H        1.8590     3.9870     0.0740 H     1 <1>   0.0800 
 40 H        1.2960     5.1380    -1.1040 H     1 <1>   0.0800 
 41 H        1.3300     1.0040    -2.1490 H     1 <1>   0.0800 
 42 H        1.8800     1.4630    -0.5640 H     1 <1>   0.0800 
 43 H       -2.5420    -5.0040    -1.5220 H     1 <1>   0.1500 
 44 H       -3.3380    -4.1980     1.8670 H     1 <1>   0.0800 
 45 H       -3.7470    -5.3810     0.6400 H     1 <1>   0.0800 
 46 H       -4.8380    -4.0450     0.9620 H     1 <1>   0.0800 
 47 H        2.4470     3.2180    -2.1710 H     1 <1>   0.0800 
 48 H        0.7850     3.3320    -2.6800 H     1 <1>   0.0800 
@<TRIPOS>BOND
  1   1   2  2   
  2   2   3  am  
  3   2   4  1   
  4   3   5  1   
  5   3   6  1   
  6   4   7  1   
  7   4   8  1   
  8   4  22  1   
  9   5   9  1   
 10   5  23  1   
 11   5  24  1   
 12   6  10  1   
 13   6  25  1   
 14   6  26  1   
 15   7  11  1   
 16   7  12  1   
 17   7  27  1   
 18   8  28  1   
 19   8  29  1   
 20   8  30  1   
 21   9  13  1   
 22   9  14  2   
 23  10  15  1   
 24  10  31  1   
 25  10  32  1   
 26  11  16  1   
 27  11  33  1   
 28  11  34  1   
 29  12  17  1   
 30  12  35  1   
 31  12  36  1   
 32  13  18  1   
 33  13  19  1   
 34  14  20  1   
 35  14  37  1   
 36  15  38  1   
 37  16  21  1   
 38  16  39  1   
 39  16  40  1   
 40  17  21  1   
 41  17  41  1   
 42  17  42  1   
 43  18  20  2   
 44  18  43  1   
 45  19  44  1   
 46  19  45  1   
 47  19  46  1   
 48  21  47  1   
 49  21  48  1   
@<TRIPOS>SUBSTRUCTURE
  1 ****   3 GROUP 4 **** **** 0

# MOE 2024.06 (io_trps.svl 2023.06)
