@<TRIPOS>MOLECULE
NONAME
55 58 1 0 0 
SMALL
USER_CHARGES


@<TRIPOS>ATOM
  1 O        0.7070    -0.3730    -0.6330 O.2   1 <1>  -0.5700 
  2 C        0.4980    -1.2320     0.1970 C.2   1 <1>   0.5440 
  3 N       -0.0970    -0.8160     1.3370 N.am  1 <1>  -0.8000 
  4 C        0.8820    -2.6100    -0.0200 C.ar  1 <1>   0.0860 
  5 C        0.1930    -3.7060     0.5410 C.ar  1 <1>   0.4100 
  6 C        1.9920    -2.8890    -0.8050 C.ar  1 <1>  -0.1500 
  7 N        0.5870    -4.9700     0.3890 N.ar  1 <1>  -0.6200 
  8 N       -0.9800    -3.5520     1.2720 N.pl3 1 <1>  -0.8380 
  9 C        2.3910    -4.1960    -0.9730 C.ar  1 <1>  -0.1430 
 10 C        1.6590    -5.1960    -0.3410 C.ar  1 <1>   0.1670 
 11 C       -2.2120    -3.1590     0.5420 C.3   1 <1>   0.2090 
 12 C       -1.2230    -4.3640     2.4970 C.3   1 <1>   0.2090 
 13 C        3.6130    -4.4890    -1.8360 C.3   1 <1>  -0.0970 
 14 C        2.0550    -6.6560    -0.4590 C.3   1 <1>  -0.0970 
 15 C       -2.9510    -4.4170     0.0970 C.3   1 <1>  -0.1600 
 16 C       -2.0050    -5.6340     2.1550 C.3   1 <1>  -0.1600 
 17 C       -3.2420    -5.3500     1.2850 C.3   1 <1>   0.1000 
 18 C       -3.9180    -6.6390     0.8280 C.2   1 <1>   0.0060 
 19 N       -5.1220    -6.9350     1.1810 N.2   1 <1>  -0.3380 
 20 N       -3.3910    -7.5940     0.0410 N.pl3 1 <1>   0.0480 
 21 N       -5.4190    -8.1080     0.6290 N.2   1 <1>  -0.3380 
 22 C       -4.3850    -8.4830    -0.0390 C.2   1 <1>   0.0060 
 23 C       -2.0650    -7.7040    -0.6140 C.3   1 <1>   0.0960 
 24 C       -4.3110    -9.7830    -0.8170 C.3   1 <1>   0.0200 
 25 C       -1.2930    -8.9400    -0.1310 C.3   1 <1>  -0.1600 
 26 C       -3.1870   -10.6970    -0.3080 C.3   1 <1>  -0.1600 
 27 C       -1.7790   -10.2630    -0.7460 C.3   1 <1>  -0.1600 
 28 H       -0.3960     0.1530     1.4300 H     1 <1>   0.3700 
 29 H       -0.5040    -1.5160     1.9650 H     1 <1>   0.3700 
 30 H        2.5300    -2.0780    -1.2660 H     1 <1>   0.1500 
 31 H       -1.9610    -2.5630    -0.3200 H     1 <1>   0.0800 
 32 H       -2.8390    -2.5680     1.1890 H     1 <1>   0.0800 
 33 H       -1.7790    -3.7740     3.2040 H     1 <1>   0.0800 
 34 H       -0.2810    -4.6290     2.9490 H     1 <1>   0.0800 
 35 H        3.9290    -3.6080    -2.3650 H     1 <1>   0.0800 
 36 H        3.3850    -5.2490    -2.5610 H     1 <1>   0.0800 
 37 H        4.4280    -4.8230    -1.2190 H     1 <1>   0.0800 
 38 H        1.6440    -7.2170     0.3610 H     1 <1>   0.0800 
 39 H        3.1230    -6.7680    -0.4320 H     1 <1>   0.0800 
 40 H        1.6760    -7.0580    -1.3800 H     1 <1>   0.0800 
 41 H       -2.3530    -4.9060    -0.6460 H     1 <1>   0.0800 
 42 H       -3.8790    -4.1380    -0.3680 H     1 <1>   0.0800 
 43 H       -2.3170    -6.1130     3.0650 H     1 <1>   0.0800 
 44 H       -1.3360    -6.3110     1.6630 H     1 <1>   0.0800 
 45 H       -3.9460    -4.8340     1.9150 H     1 <1>   0.0800 
 46 H       -1.4830    -6.8290    -0.3990 H     1 <1>   0.0800 
 47 H       -2.2080    -7.7460    -1.6790 H     1 <1>   0.0800 
 48 H       -4.1850    -9.5750    -1.8640 H     1 <1>   0.0800 
 49 H       -5.2500   -10.2950    -0.6990 H     1 <1>   0.0800 
 50 H       -1.3230    -8.9900     0.9440 H     1 <1>   0.0800 
 51 H       -0.2630    -8.8100    -0.4130 H     1 <1>   0.0800 
 52 H       -3.3650   -11.6870    -0.6920 H     1 <1>   0.0800 
 53 H       -3.2370   -10.7580     0.7660 H     1 <1>   0.0800 
 54 H       -1.0900   -11.0360    -0.4510 H     1 <1>   0.0800 
 55 H       -1.7390   -10.2000    -1.8200 H     1 <1>   0.0800 
@<TRIPOS>BOND
  1   1   2  2   
  2   2   3  am  
  3   2   4  1   
  4   3  28  1   
  5   3  29  1   
  6   4   5  ar  
  7   4   6  ar  
  8   5   7  ar  
  9   5   8  1   
 10   6   9  ar  
 11   6  30  1   
 12   7  10  ar  
 13   8  11  1   
 14   8  12  1   
 15   9  10  ar  
 16   9  13  1   
 17  10  14  1   
 18  11  15  1   
 19  11  31  1   
 20  11  32  1   
 21  12  16  1   
 22  12  33  1   
 23  12  34  1   
 24  13  35  1   
 25  13  36  1   
 26  13  37  1   
 27  14  38  1   
 28  14  39  1   
 29  14  40  1   
 30  15  17  1   
 31  15  41  1   
 32  15  42  1   
 33  16  17  1   
 34  16  43  1   
 35  16  44  1   
 36  17  18  1   
 37  17  45  1   
 38  18  19  2   
 39  18  20  1   
 40  19  21  1   
 41  20  22  1   
 42  20  23  1   
 43  21  22  2   
 44  22  24  1   
 45  23  25  1   
 46  23  46  1   
 47  23  47  1   
 48  24  26  1   
 49  24  48  1   
 50  24  49  1   
 51  25  27  1   
 52  25  50  1   
 53  25  51  1   
 54  26  27  1   
 55  26  52  1   
 56  26  53  1   
 57  27  54  1   
 58  27  55  1   
@<TRIPOS>SUBSTRUCTURE
  1 ****   7 GROUP 4 **** **** 0

# MOE 2024.06 (io_trps.svl 2023.06)
