@<TRIPOS>MOLECULE
NONAME
35 36 1 0 0 
SMALL
USER_CHARGES


@<TRIPOS>ATOM
  1 S       -0.4340    -0.5670    -0.0720 S.3   1 <1>  -0.0800 
  2 C       -2.0170    -1.1450    -0.5130 C.2   1 <1>  -0.1400 
  3 C       -1.1230     1.0150     0.2090 C.2   1 <1>   0.2280 
  4 C       -2.8910    -0.1300    -0.4040 C.2   1 <1>   0.0460 
  5 C       -2.1480    -2.6020    -0.9170 C.3   1 <1>   0.0200 
  6 N       -2.3760     1.0910     0.0020 N.2   1 <1>  -0.5650 
  7 C       -4.3800    -0.1760    -0.6700 C.3   1 <1>  -0.0590 
  8 C       -2.1630    -3.5020     0.3180 C.3   1 <1>   0.2090 
  9 N       -2.3970    -4.9110    -0.0920 N.pl3 1 <1>  -0.8380 
 10 C       -3.6710    -5.4510    -0.1480 C.ar  1 <1>   0.7200 
 11 C       -1.1940    -5.7870    -0.1820 C.3   1 <1>   0.1290 
 12 N       -3.7590    -6.7730    -0.1930 N.ar  1 <1>  -0.6200 
 13 N       -4.6900    -4.5910    -0.1560 N.ar  1 <1>  -0.6200 
 14 C       -4.9750    -7.3290    -0.2540 C.ar  1 <1>   0.1310 
 15 C       -5.8820    -5.1240    -0.2120 C.ar  1 <1>   0.1670 
 16 C       -5.2000    -8.7870    -0.3120 C.2   1 <1>   0.9790 
 17 C       -6.0720    -6.4810    -0.2620 C.ar  1 <1>  -0.1500 
 18 C       -7.0580    -4.1720    -0.2200 C.3   1 <1>  -0.0960 
 19 O       -4.2710    -9.6220    -0.3400 O.co2 1 <1>  -0.9000 
 20 O       -6.3670    -9.2360    -0.3410 O.co2 1 <1>  -0.9000 
 21 H       -0.4520     1.7920     0.5290 H     1 <1>   0.1500 
 22 H       -1.3320    -2.8770    -1.5600 H     1 <1>   0.0800 
 23 H       -3.0650    -2.7420    -1.4590 H     1 <1>   0.0800 
 24 H       -4.6980    -1.1720    -0.9180 H     1 <1>   0.0800 
 25 H       -4.6220     0.4830    -1.4830 H     1 <1>   0.0800 
 26 H       -4.9100     0.1460     0.2080 H     1 <1>   0.0800 
 27 H       -2.9420    -3.1810     0.9880 H     1 <1>   0.0800 
 28 H       -1.2270    -3.4230     0.8440 H     1 <1>   0.0800 
 29 H       -0.3270    -5.2100    -0.4460 H     1 <1>   0.0800 
 30 H       -1.3430    -6.5440    -0.9350 H     1 <1>   0.0800 
 31 H       -1.0310    -6.2720     0.7650 H     1 <1>   0.0800 
 32 H       -7.0600    -6.9010    -0.3090 H     1 <1>   0.1500 
 33 H       -7.0390    -3.5740     0.6720 H     1 <1>   0.0800 
 34 H       -7.9860    -4.7110    -0.2600 H     1 <1>   0.0800 
 35 H       -6.9900    -3.5270    -1.0760 H     1 <1>   0.0800 
@<TRIPOS>BOND
  1   1   2  1   
  2   1   3  1   
  3   2   4  2   
  4   2   5  1   
  5   3   6  2   
  6   3  21  1   
  7   4   6  1   
  8   4   7  1   
  9   5   8  1   
 10   5  22  1   
 11   5  23  1   
 12   7  24  1   
 13   7  25  1   
 14   7  26  1   
 15   8   9  1   
 16   8  27  1   
 17   8  28  1   
 18   9  10  1   
 19   9  11  1   
 20  10  12  ar  
 21  10  13  ar  
 22  11  29  1   
 23  11  30  1   
 24  11  31  1   
 25  12  14  ar  
 26  13  15  ar  
 27  14  16  1   
 28  14  17  ar  
 29  15  17  ar  
 30  15  18  1   
 31  16  19  ar  
 32  16  20  ar  
 33  17  32  1   
 34  18  33  1   
 35  18  34  1   
 36  18  35  1   
@<TRIPOS>SUBSTRUCTURE
  1 ****  13 GROUP 4 **** **** 0

# MOE 2024.06 (io_trps.svl 2023.06)
