@<TRIPOS>MOLECULE
NONAME
41 43 1 0 0 
SMALL
USER_CHARGES


@<TRIPOS>ATOM
  1 O       -0.4570     0.2520    -0.2230 O.2   1 <1>  -0.5700 
  2 C       -1.4820     0.8350     0.0670 C.2   1 <1>   0.5440 
  3 N       -2.6170     0.0990     0.3130 N.am  1 <1>  -0.6600 
  4 C       -1.4820     2.2750     0.1240 C.ar  1 <1>   0.0860 
  5 C       -4.0100     0.6000     0.1600 C.3   1 <1>   0.1400 
  6 C       -2.6020    -1.3880     0.3030 C.3   1 <1>   0.1400 
  7 C       -2.1090     2.9900     1.1260 C.ar  1 <1>   0.1600 
  8 C       -0.8400     3.0390    -0.8300 C.ar  1 <1>   0.1600 
  9 C       -4.8260    -0.6310    -0.2290 C.3   1 <1>   0.2000 
 10 C       -4.0700    -1.8130     0.3680 C.3   1 <1>  -0.0800 
 11 N       -2.1360     4.3050     1.1670 N.ar  1 <1>  -0.6200 
 12 N       -0.8450     4.3560    -0.8220 N.ar  1 <1>  -0.6200 
 13 O       -6.1130    -0.5730     0.2800 O.3   1 <1>  -0.6800 
 14 C       -4.3540    -3.1430    -0.3450 C.3   1 <1>   0.0210 
 15 C       -1.4970     4.9170     0.1820 C.ar  1 <1>   0.4770 
 16 C       -3.4770    -4.2510     0.2040 C.2   1 <1>   0.1080 
 17 C       -1.5090     6.4270     0.2020 C.3   1 <1>  -0.0970 
 18 N       -3.4560    -4.5750     1.4600 N.2   1 <1>  -0.7070 
 19 C       -2.6020    -5.0220    -0.5520 C.2   1 <1>  -0.1500 
 20 N       -2.5590    -5.5760     1.5380 N.pl3 1 <1>   0.3000 
 21 C       -2.0250    -5.8630     0.3320 C.2   1 <1>  -0.3320 
 22 C       -0.9810    -6.9380     0.0950 C.3   1 <1>  -0.0600 
 23 H       -4.3510     0.9930     1.1020 H     1 <1>   0.0800 
 24 H       -4.0680     1.3540    -0.6050 H     1 <1>   0.0800 
 25 H       -2.1410    -1.7300    -0.6080 H     1 <1>   0.0800 
 26 H       -2.0470    -1.7710     1.1430 H     1 <1>   0.0800 
 27 H       -2.6020     2.4550     1.9190 H     1 <1>   0.1500 
 28 H       -0.3110     2.5400    -1.6250 H     1 <1>   0.1500 
 29 H       -4.8870    -0.7010    -1.3020 H     1 <1>   0.0800 
 30 H       -4.3200    -1.9130     1.4100 H     1 <1>   0.0800 
 31 H       -6.1020    -0.7130     1.2470 H     1 <1>   0.4000 
 32 H       -4.1800    -3.0420    -1.4010 H     1 <1>   0.0800 
 33 H       -5.3850    -3.4150    -0.2000 H     1 <1>   0.0800 
 34 H       -2.0580     6.7900     1.0500 H     1 <1>   0.0800 
 35 H       -1.9680     6.7920    -0.6970 H     1 <1>   0.0800 
 36 H       -0.5000     6.7900     0.2550 H     1 <1>   0.0800 
 37 H       -2.4370    -4.9450    -1.6120 H     1 <1>   0.1500 
 38 H       -2.3330    -6.0400     2.4260 H     1 <1>   0.2700 
 39 H       -0.7160    -6.9730    -0.9470 H     1 <1>   0.0800 
 40 H       -1.3660    -7.9010     0.3830 H     1 <1>   0.0800 
 41 H       -0.0940    -6.7280     0.6670 H     1 <1>   0.0800 
@<TRIPOS>BOND
  1   1   2  2   
  2   2   3  am  
  3   2   4  1   
  4   3   5  1   
  5   3   6  1   
  6   4   7  ar  
  7   4   8  ar  
  8   5   9  1   
  9   5  23  1   
 10   5  24  1   
 11   6  10  1   
 12   6  25  1   
 13   6  26  1   
 14   7  11  ar  
 15   7  27  1   
 16   8  12  ar  
 17   8  28  1   
 18   9  10  1   
 19   9  13  1   
 20   9  29  1   
 21  10  14  1   
 22  10  30  1   
 23  11  15  ar  
 24  12  15  ar  
 25  13  31  1   
 26  14  16  1   
 27  14  32  1   
 28  14  33  1   
 29  15  17  1   
 30  16  18  2   
 31  16  19  1   
 32  17  34  1   
 33  17  35  1   
 34  17  36  1   
 35  18  20  1   
 36  19  21  2   
 37  19  37  1   
 38  20  21  1   
 39  20  38  1   
 40  21  22  1   
 41  22  39  1   
 42  22  40  1   
 43  22  41  1   
@<TRIPOS>SUBSTRUCTURE
  1 ****   3 GROUP 4 **** **** 0

# MOE 2024.06 (io_trps.svl 2023.06)
