@<TRIPOS>MOLECULE
NONAME
33 34 1 0 0 
SMALL
USER_CHARGES


@<TRIPOS>ATOM
  1 O        0.9650    -0.3360    -1.1730 O.3   1 <1>  -0.0190 
  2 N        1.0300     0.9090    -0.8030 N.2   1 <1>  -0.4100 
  3 C        1.0860    -1.1530    -0.1600 C.2   1 <1>  -0.0400 
  4 C        1.2010     0.8940     0.4710 C.2   1 <1>   0.1080 
  5 C        1.2490    -0.4130     0.9470 C.2   1 <1>  -0.1500 
  6 C        1.0290    -2.6530    -0.3820 C.3   1 <1>   0.2900 
  7 C        1.3280     2.1340     1.3270 C.3   1 <1>  -0.0590 
  8 N       -0.3420    -3.1950    -0.2640 N.3   1 <1>  -0.8100 
  9 C       -0.3180    -4.6680    -0.4120 C.3   1 <1>   0.2900 
 10 C       -1.2950    -2.5640    -1.2140 C.3   1 <1>   0.1100 
 11 C       -1.5780    -5.3090     0.1460 C.2   1 <1>   0.0060 
 12 C       -2.1320    -1.4470    -0.5570 C.3   1 <1>   0.1200 
 13 N       -2.0420    -6.4650    -0.2070 N.2   1 <1>  -0.5650 
 14 N       -2.3210    -4.6950     1.0890 N.pl3 1 <1>   0.0330 
 15 O       -2.9950    -1.9690     0.4040 O.3   1 <1>  -0.6800 
 16 C       -3.1470    -6.6120     0.5500 C.2   1 <1>   0.0770 
 17 C       -3.3360    -5.5380     1.3470 C.2   1 <1>  -0.3020 
 18 H        1.3770    -0.7220     1.9680 H     1 <1>   0.1500 
 19 H        1.6490    -3.1190     0.3640 H     1 <1>   0.0800 
 20 H        1.4400    -2.8850    -1.3510 H     1 <1>   0.0800 
 21 H        1.2480     3.0140     0.7140 H     1 <1>   0.0800 
 22 H        2.2810     2.1400     1.8220 H     1 <1>   0.0800 
 23 H        0.5450     2.1500     2.0620 H     1 <1>   0.0800 
 24 H        0.5140    -5.0750     0.1350 H     1 <1>   0.0800 
 25 H       -0.2030    -4.9400    -1.4480 H     1 <1>   0.0800 
 26 H       -1.9760    -3.2980    -1.6120 H     1 <1>   0.0800 
 27 H       -0.7590    -2.1520    -2.0520 H     1 <1>   0.0800 
 28 H       -2.7290    -0.9480    -1.3000 H     1 <1>   0.0800 
 29 H       -1.5020    -0.7180    -0.0810 H     1 <1>   0.0800 
 30 H       -2.1410    -3.7420     1.4380 H     1 <1>   0.2700 
 31 H       -3.6190    -2.5950    -0.0140 H     1 <1>   0.4000 
 32 H       -3.7590    -7.4960     0.4780 H     1 <1>   0.1500 
 33 H       -4.1120    -5.3290     2.0600 H     1 <1>   0.1500 
@<TRIPOS>BOND
  1   1   2  1   
  2   1   3  1   
  3   2   4  2   
  4   3   5  2   
  5   3   6  1   
  6   4   5  1   
  7   4   7  1   
  8   5  18  1   
  9   6   8  1   
 10   6  19  1   
 11   6  20  1   
 12   7  21  1   
 13   7  22  1   
 14   7  23  1   
 15   8   9  1   
 16   8  10  1   
 17   9  11  1   
 18   9  24  1   
 19   9  25  1   
 20  10  12  1   
 21  10  26  1   
 22  10  27  1   
 23  11  13  2   
 24  11  14  1   
 25  12  15  1   
 26  12  28  1   
 27  12  29  1   
 28  13  16  1   
 29  14  17  1   
 30  14  30  1   
 31  15  31  1   
 32  16  17  2   
 33  16  32  1   
 34  17  33  1   
@<TRIPOS>SUBSTRUCTURE
  1 ****   8 GROUP 4 **** **** 0

# MOE 2024.06 (io_trps.svl 2023.06)
