@<TRIPOS>MOLECULE
NONAME
40 42 1 0 0 
SMALL
USER_CHARGES


@<TRIPOS>ATOM
  1 F       -0.0210     2.9210     1.3770 F     1 <1>  -0.1900 
  2 C       -1.2600     2.9650     0.9720 C.ar  1 <1>   0.1900 
  3 C       -2.2060     3.5600     1.7810 C.ar  1 <1>  -0.1500 
  4 C       -1.5800     2.4210    -0.2560 C.ar  1 <1>  -0.1500 
  5 C       -3.5170     3.6170     1.3400 C.ar  1 <1>  -0.1500 
  6 C       -2.8940     2.4850    -0.6900 C.ar  1 <1>  -0.1500 
  7 C       -3.8690     3.0890     0.0990 C.ar  1 <1>  -0.1430 
  8 C       -5.3000     3.1740    -0.4300 C.3   1 <1>   0.5670 
  9 N       -5.7160     4.5930    -0.5810 N.4   1 <1>  -0.9590 
 10 C       -6.2900     2.4420     0.4840 C.3   1 <1>  -0.1600 
 11 C       -7.0850     4.7620    -1.1330 C.3   1 <1>   0.3430 
 12 C       -4.7090     5.4560    -1.2590 C.3   1 <1>   0.5230 
 13 C       -7.7330     2.5700    -0.0220 C.3   1 <1>  -0.1600 
 14 C       -8.0940     4.0460    -0.2340 C.3   1 <1>  -0.1600 
 15 C       -4.0810     6.3180    -0.1810 C.2   1 <1>   0.0070 
 16 N       -2.7970     6.6810    -0.1210 N.pl3 1 <1>   0.0330 
 17 N       -4.7410     6.7540     0.8380 N.2   1 <1>  -0.3380 
 18 C       -2.7320     7.3650     1.0210 C.2   1 <1>   0.0060 
 19 N       -3.8790     7.4180     1.6030 N.2   1 <1>  -0.3380 
 20 C       -1.4610     7.9900     1.5600 C.3   1 <1>  -0.0600 
 21 H       -1.9210     3.9690     2.7350 H     1 <1>   0.1500 
 22 H       -0.8130     1.9560    -0.8510 H     1 <1>   0.1500 
 23 H       -4.2470     4.0900     1.9770 H     1 <1>   0.1500 
 24 H       -3.1420     2.0540    -1.6460 H     1 <1>   0.1500 
 25 H       -5.3300     2.7010    -1.3980 H     1 <1>   0.0800 
 26 H       -5.7300     4.9870     0.3760 H     1 <1>   0.4500 
 27 H       -6.2250     2.8340     1.4830 H     1 <1>   0.0800 
 28 H       -6.0190     1.4020     0.5310 H     1 <1>   0.0800 
 29 H       -7.1340     4.3510    -2.1290 H     1 <1>   0.0800 
 30 H       -7.3360     5.8110    -1.1830 H     1 <1>   0.0800 
 31 H       -5.1840     6.0920    -1.9880 H     1 <1>   0.0800 
 32 H       -3.9590     4.8570    -1.7480 H     1 <1>   0.0800 
 33 H       -8.4100     2.1270     0.6910 H     1 <1>   0.0800 
 34 H       -7.8410     2.0340    -0.9510 H     1 <1>   0.0800 
 35 H       -9.0720     4.1140    -0.6790 H     1 <1>   0.0800 
 36 H       -8.1420     4.5510     0.7160 H     1 <1>   0.0800 
 37 H       -2.0210     6.4830    -0.7580 H     1 <1>   0.2700 
 38 H       -1.0820     8.7200     0.8690 H     1 <1>   0.0800 
 39 H       -0.7150     7.2340     1.7260 H     1 <1>   0.0800 
 40 H       -1.6650     8.4790     2.4960 H     1 <1>   0.0800 
@<TRIPOS>BOND
  1   1   2  1   
  2   2   3  ar  
  3   2   4  ar  
  4   3   5  ar  
  5   3  21  1   
  6   4   6  ar  
  7   4  22  1   
  8   5   7  ar  
  9   5  23  1   
 10   6   7  ar  
 11   6  24  1   
 12   7   8  1   
 13   8   9  1   
 14   8  10  1   
 15   8  25  1   
 16   9  11  1   
 17   9  12  1   
 18   9  26  1   
 19  10  13  1   
 20  10  27  1   
 21  10  28  1   
 22  11  14  1   
 23  11  29  1   
 24  11  30  1   
 25  12  15  1   
 26  12  31  1   
 27  12  32  1   
 28  13  14  1   
 29  13  33  1   
 30  13  34  1   
 31  14  35  1   
 32  14  36  1   
 33  15  16  1   
 34  15  17  2   
 35  16  18  1   
 36  16  37  1   
 37  17  19  1   
 38  18  19  2   
 39  18  20  1   
 40  20  38  1   
 41  20  39  1   
 42  20  40  1   
@<TRIPOS>SUBSTRUCTURE
  1 ****   5 GROUP 4 **** **** 0

# MOE 2024.06 (io_trps.svl 2023.06)
