@<TRIPOS>MOLECULE
NONAME
53 57 1 0 0 
SMALL
USER_CHARGES


@<TRIPOS>ATOM
  1 O        0.0580     1.4150     0.7620 O.2   1 <1>  -0.5700 
  2 C       -0.6190     2.1280     0.0470 C.2   1 <1>   0.7160 
  3 N       -1.9900     1.9820     0.0520 N.am  1 <1>  -0.6600 
  4 C        0.0260     3.1250    -0.7650 C.2   1 <1>  -0.0860 
  5 C       -2.9250     2.9360    -0.6240 C.3   1 <1>   0.1400 
  6 C       -2.6510     0.9440     0.9050 C.3   1 <1>   0.1400 
  7 C        0.7390     4.2150    -0.4160 C.2   1 <1>  -0.0400 
  8 C        0.0630     3.2110    -2.1480 C.2   1 <1>   0.1080 
  9 C       -3.7640     3.7200     0.4090 C.3   1 <1>   0.1440 
 10 C       -4.0930     1.3340     1.2790 C.3   1 <1>  -0.1600 
 11 O        1.1310     4.9080    -1.4580 O.3   1 <1>  -0.0190 
 12 C        1.1210     4.7090     0.9650 C.3   1 <1>  -0.0600 
 13 N        0.6950     4.2600    -2.5160 N.2   1 <1>  -0.4100 
 14 C       -0.5370     2.2120    -3.1160 C.3   1 <1>  -0.0590 
 15 C       -4.9440     4.3140    -0.3410 C.ar  1 <1>   0.1670 
 16 C       -4.1950     2.8320     1.6070 C.3   1 <1>  -0.1600 
 17 C       -3.0170     4.9910     0.8900 C.3   1 <1>  -0.1600 
 18 N       -6.0030     3.6520    -0.7410 N.ar  1 <1>  -0.6200 
 19 C       -4.7670     5.6420    -0.5810 C.ar  1 <1>  -0.1440 
 20 C       -3.4550     6.1420    -0.0320 C.3   1 <1>  -0.0170 
 21 C       -6.9280     4.3670    -1.3940 C.ar  1 <1>   0.6200 
 22 C       -5.7560     6.3040    -1.2610 C.ar  1 <1>   0.1600 
 23 N       -6.8370     5.6770    -1.6680 N.ar  1 <1>  -0.6200 
 24 C       -8.1240     3.6660    -1.8430 C.ar  1 <1>   0.0000 
 25 C       -9.3430     4.3290    -2.0150 C.ar  1 <1>  -0.1500 
 26 C       -8.1100     2.2960    -2.1240 C.ar  1 <1>  -0.1500 
 27 C      -10.4810     3.6670    -2.4410 C.ar  1 <1>  -0.1500 
 28 C       -9.2430     1.6260    -2.5490 C.ar  1 <1>  -0.1500 
 29 C      -10.4330     2.3120    -2.7090 C.ar  1 <1>  -0.1500 
 30 H       -3.5850     2.3630    -1.2540 H     1 <1>   0.0800 
 31 H       -2.4040     3.6280    -1.2580 H     1 <1>   0.0800 
 32 H       -2.0820     0.8230     1.8120 H     1 <1>   0.0800 
 33 H       -2.6480     0.0010     0.3860 H     1 <1>   0.0800 
 34 H       -4.4070     0.7500     2.1250 H     1 <1>   0.0800 
 35 H       -4.7550     1.0960     0.4630 H     1 <1>   0.0800 
 36 H        0.7420     4.0470     1.7230 H     1 <1>   0.0800 
 37 H        0.7220     5.6940     1.1260 H     1 <1>   0.0800 
 38 H        2.1920     4.7490     1.0490 H     1 <1>   0.0800 
 39 H       -0.4600     1.2160    -2.7200 H     1 <1>   0.0800 
 40 H       -0.0090     2.2520    -4.0520 H     1 <1>   0.0800 
 41 H       -1.5700     2.4450    -3.2930 H     1 <1>   0.0800 
 42 H       -5.2000     3.0760     1.9060 H     1 <1>   0.0800 
 43 H       -3.5510     3.0210     2.4480 H     1 <1>   0.0800 
 44 H       -1.9500     4.8620     0.8950 H     1 <1>   0.0800 
 45 H       -3.3340     5.2360     1.8890 H     1 <1>   0.0800 
 46 H       -2.7510     6.2770    -0.8360 H     1 <1>   0.0800 
 47 H       -3.5720     7.0640     0.5110 H     1 <1>   0.0800 
 48 H       -5.6620     7.3550    -1.4760 H     1 <1>   0.1500 
 49 H       -9.4010     5.3840    -1.8100 H     1 <1>   0.1500 
 50 H       -7.1940     1.7440    -2.0060 H     1 <1>   0.1500 
 51 H      -11.4030     4.2070    -2.5630 H     1 <1>   0.1500 
 52 H       -9.2000     0.5710    -2.7560 H     1 <1>   0.1500 
 53 H      -11.3170     1.7940    -3.0400 H     1 <1>   0.1500 
@<TRIPOS>BOND
  1   1   2  2   
  2   2   3  am  
  3   2   4  1   
  4   3   5  1   
  5   3   6  1   
  6   4   7  2   
  7   4   8  1   
  8   5   9  1   
  9   5  30  1   
 10   5  31  1   
 11   6  10  1   
 12   6  32  1   
 13   6  33  1   
 14   7  11  1   
 15   7  12  1   
 16   8  13  2   
 17   8  14  1   
 18   9  15  1   
 19   9  16  1   
 20   9  17  1   
 21  10  16  1   
 22  10  34  1   
 23  10  35  1   
 24  11  13  1   
 25  12  36  1   
 26  12  37  1   
 27  12  38  1   
 28  14  39  1   
 29  14  40  1   
 30  14  41  1   
 31  15  18  ar  
 32  15  19  ar  
 33  16  42  1   
 34  16  43  1   
 35  17  20  1   
 36  17  44  1   
 37  17  45  1   
 38  18  21  ar  
 39  19  20  1   
 40  19  22  ar  
 41  20  46  1   
 42  20  47  1   
 43  21  23  ar  
 44  21  24  1   
 45  22  23  ar  
 46  22  48  1   
 47  24  25  ar  
 48  24  26  ar  
 49  25  27  ar  
 50  25  49  1   
 51  26  28  ar  
 52  26  50  1   
 53  27  29  ar  
 54  27  51  1   
 55  28  29  ar  
 56  28  52  1   
 57  29  53  1   
@<TRIPOS>SUBSTRUCTURE
  1 ****   5 GROUP 4 **** **** 0

# MOE 2024.06 (io_trps.svl 2023.06)
