@<TRIPOS>MOLECULE
NONAME
47 48 1 0 0 
SMALL
USER_CHARGES


@<TRIPOS>ATOM
  1 O        3.5030    -1.2410     0.7990 O.2   1 <1>  -0.5700 
  2 C        2.2960    -1.2970     0.7980 C.2   1 <1>   0.5690 
  3 N        1.4910    -0.2110     0.6560 N.am  1 <1>  -0.7300 
  4 C        1.6190    -2.6630     0.9600 C.3   1 <1>   0.1710 
  5 C        1.8310     1.1940     0.4370 C.3   1 <1>   0.3000 
  6 N        0.2780    -2.7710     0.3110 N.3   1 <1>  -0.8100 
  7 C        0.5090     1.9520     0.3430 C.3   1 <1>  -0.2400 
  8 C        2.6010     1.3330    -0.8760 C.3   1 <1>  -0.2400 
  9 C        2.6460     1.7160     1.6200 C.3   1 <1>  -0.2400 
 10 C        0.3530    -2.6810    -1.1570 C.3   1 <1>   0.1100 
 11 C       -0.3940    -4.0490     0.6130 C.3   1 <1>   0.1100 
 12 C       -0.9350    -3.3360    -1.6390 C.3   1 <1>   0.2000 
 13 C       -1.0970    -4.5110    -0.6780 C.3   1 <1>  -0.0800 
 14 O       -1.9660    -2.4460    -1.4070 O.3   1 <1>  -0.6800 
 15 C       -0.4590    -5.7890    -1.2540 C.3   1 <1>   0.0210 
 16 C       -0.5420    -6.9560    -0.2880 C.2   1 <1>   0.1080 
 17 N       -1.6640    -7.4020     0.1860 N.2   1 <1>  -0.7070 
 18 C        0.5500    -7.6700     0.1940 C.2   1 <1>  -0.1500 
 19 N       -1.3150    -8.4250     0.9870 N.pl3 1 <1>   0.3000 
 20 C        0.0220    -8.6060     1.0100 C.2   1 <1>  -0.3320 
 21 C        0.7220    -9.6820     1.8210 C.3   1 <1>  -0.0600 
 22 H        0.4930    -0.4230     0.6060 H     1 <1>   0.3700 
 23 H        1.5110    -2.8410     2.0140 H     1 <1>   0.0800 
 24 H        2.2770    -3.4160     0.5640 H     1 <1>   0.0800 
 25 H        0.6950     2.9990     0.1790 H     1 <1>   0.0800 
 26 H       -0.0500     1.8500     1.2550 H     1 <1>   0.0800 
 27 H       -0.0810     1.5850    -0.4780 H     1 <1>   0.0800 
 28 H        2.8000     2.3690    -1.0810 H     1 <1>   0.0800 
 29 H        2.0330     0.9250    -1.6920 H     1 <1>   0.0800 
 30 H        3.5450     0.8200    -0.8160 H     1 <1>   0.0800 
 31 H        2.8410     2.7660     1.5000 H     1 <1>   0.0800 
 32 H        3.5910     1.2070     1.6820 H     1 <1>   0.0800 
 33 H        2.1090     1.5700     2.5390 H     1 <1>   0.0800 
 34 H        0.4320    -1.6620    -1.4940 H     1 <1>   0.0800 
 35 H        1.1980    -3.2400    -1.5200 H     1 <1>   0.0800 
 36 H        0.3150    -4.7870     0.9510 H     1 <1>   0.0800 
 37 H       -1.1180    -3.8940     1.3950 H     1 <1>   0.0800 
 38 H       -0.9320    -3.6040    -2.6820 H     1 <1>   0.0800 
 39 H       -2.1370    -4.7140    -0.4900 H     1 <1>   0.0800 
 40 H       -1.8630    -2.1390    -0.4820 H     1 <1>   0.4000 
 41 H        0.5720    -5.6120    -1.5030 H     1 <1>   0.0800 
 42 H       -0.9760    -6.0670    -2.1550 H     1 <1>   0.0800 
 43 H        1.5830    -7.4950    -0.0500 H     1 <1>   0.1500 
 44 H       -2.0120    -8.9800     1.4990 H     1 <1>   0.2700 
 45 H        1.7860    -9.6220     1.6750 H     1 <1>   0.0800 
 46 H        0.3890   -10.6570     1.5110 H     1 <1>   0.0800 
 47 H        0.5130    -9.5560     2.8680 H     1 <1>   0.0800 
@<TRIPOS>BOND
  1   1   2  2   
  2   2   3  am  
  3   2   4  1   
  4   3   5  1   
  5   3  22  1   
  6   4   6  1   
  7   4  23  1   
  8   4  24  1   
  9   5   7  1   
 10   5   8  1   
 11   5   9  1   
 12   6  10  1   
 13   6  11  1   
 14   7  25  1   
 15   7  26  1   
 16   7  27  1   
 17   8  28  1   
 18   8  29  1   
 19   8  30  1   
 20   9  31  1   
 21   9  32  1   
 22   9  33  1   
 23  10  12  1   
 24  10  34  1   
 25  10  35  1   
 26  11  13  1   
 27  11  36  1   
 28  11  37  1   
 29  12  13  1   
 30  12  14  1   
 31  12  38  1   
 32  13  15  1   
 33  13  39  1   
 34  14  40  1   
 35  15  16  1   
 36  15  41  1   
 37  15  42  1   
 38  16  17  2   
 39  16  18  1   
 40  17  19  1   
 41  18  20  2   
 42  18  43  1   
 43  19  20  1   
 44  19  44  1   
 45  20  21  1   
 46  21  45  1   
 47  21  46  1   
 48  21  47  1   
@<TRIPOS>SUBSTRUCTURE
  1 ****   6 GROUP 4 **** **** 0

# MOE 2024.06 (io_trps.svl 2023.06)
