@<TRIPOS>MOLECULE
NONAME
51 53 1 0 0 
SMALL
USER_CHARGES


@<TRIPOS>ATOM
  1 S        0.0700     1.4420     0.9650 S.o2  1 <1>   1.0900 
  2 O       -0.7810     0.2960     1.1880 O.2   1 <1>  -0.6500 
  3 O       -0.3880     2.7530     1.3710 O.2   1 <1>  -0.6500 
  4 C        1.6370     1.1410     1.7530 C.3   1 <1>  -0.0550 
  5 C        0.4780     1.5130    -0.7660 C.3   1 <1>  -0.0550 
  6 C        2.6550     2.1630     1.2780 C.3   1 <1>   0.2090 
  7 C        1.6140     2.4970    -0.9830 C.3   1 <1>   0.2090 
  8 N        2.7900     2.0370    -0.1960 N.pl3 1 <1>  -0.8380 
  9 C        4.0520     2.2830    -0.7250 C.ar  1 <1>   0.1000 
 10 C        4.4100     3.5380    -1.1960 C.ar  1 <1>  -0.1500 
 11 C        4.9820     1.2550    -0.7910 C.ar  1 <1>  -0.1500 
 12 C        5.6670     3.7910    -1.7350 C.ar  1 <1>   0.0860 
 13 C        6.2370     1.4750    -1.3270 C.ar  1 <1>  -0.1500 
 14 C        6.0050     5.1160    -2.2180 C.2   1 <1>   0.5440 
 15 C        6.5730     2.7320    -1.7990 C.ar  1 <1>  -0.1500 
 16 O        5.2810     5.6380    -3.0450 O.2   1 <1>  -0.5700 
 17 N        7.1110     5.8030    -1.7580 N.am  1 <1>  -0.6600 
 18 C        7.5590     7.0760    -2.3890 C.3   1 <1>   0.1400 
 19 C        7.8510     5.4500    -0.5160 C.3   1 <1>   0.1400 
 20 C        7.4240     8.2250    -1.3880 C.3   1 <1>  -0.1600 
 21 C        7.7170     6.5860     0.5030 C.3   1 <1>  -0.1600 
 22 C        8.1820     7.9320    -0.0790 C.3   1 <1>  -0.0800 
 23 C        7.9900     9.0560     0.9490 C.3   1 <1>   0.1200 
 24 O        8.5140    10.2370     0.4310 O.3   1 <1>  -0.5600 
 25 C        8.3620    11.3360     1.2680 C.3   1 <1>   0.0400 
 26 H        1.9940     0.1580     1.5140 H     1 <1>   0.0800 
 27 H        1.5300     1.2120     2.8180 H     1 <1>   0.0800 
 28 H       -0.3780     1.8240    -1.3310 H     1 <1>   0.0800 
 29 H        0.7830     0.5480    -1.1190 H     1 <1>   0.0800 
 30 H        3.6060     1.9780     1.7480 H     1 <1>   0.0800 
 31 H        2.3350     3.1600     1.5330 H     1 <1>   0.0800 
 32 H        1.3210     3.4850    -0.6680 H     1 <1>   0.0800 
 33 H        1.8680     2.5310    -2.0300 H     1 <1>   0.0800 
 34 H        3.7020     4.3450    -1.1490 H     1 <1>   0.1500 
 35 H        4.7080     0.2820    -0.4270 H     1 <1>   0.1500 
 36 H        6.9480     0.6690    -1.3810 H     1 <1>   0.1500 
 37 H        7.5450     2.9030    -2.2270 H     1 <1>   0.1500 
 38 H        6.9780     7.2940    -3.2690 H     1 <1>   0.0800 
 39 H        8.5870     6.9740    -2.6910 H     1 <1>   0.0800 
 40 H        8.8880     5.2950    -0.7590 H     1 <1>   0.0800 
 41 H        7.4690     4.5440    -0.0800 H     1 <1>   0.0800 
 42 H        6.3790     8.3820    -1.1840 H     1 <1>   0.0800 
 43 H        7.8080     9.1240    -1.8360 H     1 <1>   0.0800 
 44 H        8.3020     6.3450     1.3730 H     1 <1>   0.0800 
 45 H        6.6870     6.6550     0.8060 H     1 <1>   0.0800 
 46 H        9.2340     7.8600    -0.2960 H     1 <1>   0.0800 
 47 H        8.5120     8.8240     1.8610 H     1 <1>   0.0800 
 48 H        6.9430     9.2020     1.1550 H     1 <1>   0.0800 
 49 H        8.8000    12.1900     0.7810 H     1 <1>   0.0800 
 50 H        8.8710    11.1490     2.1980 H     1 <1>   0.0800 
 51 H        7.3140    11.5130     1.4360 H     1 <1>   0.0800 
@<TRIPOS>BOND
  1   1   2  2   
  2   1   3  2   
  3   1   4  1   
  4   1   5  1   
  5   4   6  1   
  6   4  26  1   
  7   4  27  1   
  8   5   7  1   
  9   5  28  1   
 10   5  29  1   
 11   6   8  1   
 12   6  30  1   
 13   6  31  1   
 14   7   8  1   
 15   7  32  1   
 16   7  33  1   
 17   8   9  1   
 18   9  10  ar  
 19   9  11  ar  
 20  10  12  ar  
 21  10  34  1   
 22  11  13  ar  
 23  11  35  1   
 24  12  14  1   
 25  12  15  ar  
 26  13  15  ar  
 27  13  36  1   
 28  14  16  2   
 29  14  17  am  
 30  15  37  1   
 31  17  18  1   
 32  17  19  1   
 33  18  20  1   
 34  18  38  1   
 35  18  39  1   
 36  19  21  1   
 37  19  40  1   
 38  19  41  1   
 39  20  22  1   
 40  20  42  1   
 41  20  43  1   
 42  21  22  1   
 43  21  44  1   
 44  21  45  1   
 45  22  23  1   
 46  22  46  1   
 47  23  24  1   
 48  23  47  1   
 49  23  48  1   
 50  24  25  1   
 51  25  49  1   
 52  25  50  1   
 53  25  51  1   
@<TRIPOS>SUBSTRUCTURE
  1 ****  10 GROUP 4 **** **** 0

# MOE 2024.06 (io_trps.svl 2023.06)
