@<TRIPOS>MOLECULE
NONAME
47 48 1 0 0 
SMALL
USER_CHARGES


@<TRIPOS>ATOM
  1 S        0.0380     0.5210     0.3760 S.3   1 <1>  -0.3320 
  2 C        0.0640    -1.2450     0.6070 C.ar  1 <1>   0.7220 
  3 C        1.0860     0.7950    -1.1330 C.3   1 <1>   0.1310 
  4 N        0.7820    -1.9300    -0.2700 N.ar  1 <1>  -0.6200 
  5 N       -0.6340    -1.6760     1.6420 N.ar  1 <1>  -0.6200 
  6 C        1.3090     2.2810    -1.3720 C.2   1 <1>   0.5690 
  7 C        0.7820    -3.2300    -0.0800 C.ar  1 <1>   0.1660 
  8 C       -0.6120    -2.9800     1.8030 C.ar  1 <1>   0.1600 
  9 O        0.8120     2.7550    -2.3660 O.2   1 <1>  -0.5700 
 10 N        2.0540     3.0470    -0.5080 N.am  1 <1>  -0.6600 
 11 C        0.0890    -3.8090     0.9590 C.ar  1 <1>  -0.1500 
 12 C        1.5800    -4.0670    -1.0580 C.3   1 <1>  -0.0970 
 13 C        2.2090     4.5270    -0.7370 C.3   1 <1>   0.2810 
 14 C        2.7190     2.5600     0.7370 C.3   1 <1>   0.1400 
 15 C        3.6410     5.0380    -0.4440 C.2   1 <1>   0.5690 
 16 C        1.1300     5.2450     0.1000 C.3   1 <1>  -0.1600 
 17 C        4.2180     2.8910     0.7330 C.3   1 <1>   0.1400 
 18 O        3.9830     6.0970    -0.9220 O.2   1 <1>  -0.5700 
 19 N        4.5090     4.2970     0.3320 N.am  1 <1>  -0.6600 
 20 C        0.9470     6.7250    -0.2730 C.3   1 <1>  -0.1600 
 21 C        5.8840     4.7750     0.6490 C.3   1 <1>   0.0600 
 22 C       -0.2100     7.3520     0.5140 C.3   1 <1>  -0.1600 
 23 C       -0.3940     8.8250     0.1410 C.3   1 <1>  -0.2400 
 24 H        0.5630     0.3550    -1.9620 H     1 <1>   0.0800 
 25 H        2.0220     0.2900    -0.9850 H     1 <1>   0.0800 
 26 H       -1.1660    -3.3950     2.6280 H     1 <1>   0.1500 
 27 H        0.0900    -4.8720     1.1110 H     1 <1>   0.1500 
 28 H        2.6130    -3.7710    -1.0280 H     1 <1>   0.0800 
 29 H        1.2050    -3.9140    -2.0530 H     1 <1>   0.0800 
 30 H        1.5110    -5.1120    -0.8190 H     1 <1>   0.0800 
 31 H        2.0200     4.7380    -1.7750 H     1 <1>   0.0800 
 32 H        2.6040     1.4980     0.8530 H     1 <1>   0.0800 
 33 H        2.2550     3.0270     1.5890 H     1 <1>   0.0800 
 34 H        1.3810     5.1750     1.1430 H     1 <1>   0.0800 
 35 H        0.1920     4.7410    -0.0590 H     1 <1>   0.0800 
 36 H        4.7210     2.2290     0.0500 H     1 <1>   0.0800 
 37 H        4.6140     2.7120     1.7180 H     1 <1>   0.0800 
 38 H        0.7470     6.8060    -1.3280 H     1 <1>   0.0800 
 39 H        1.8510     7.2720    -0.0630 H     1 <1>   0.0800 
 40 H        6.0030     5.8080     0.3700 H     1 <1>   0.0800 
 41 H        6.6060     4.1880     0.1080 H     1 <1>   0.0800 
 42 H        6.0680     4.6850     1.7050 H     1 <1>   0.0800 
 43 H       -0.0120     7.2770     1.5700 H     1 <1>   0.0800 
 44 H       -1.1220     6.8180     0.3050 H     1 <1>   0.0800 
 45 H        0.5010     9.3820     0.3590 H     1 <1>   0.0800 
 46 H       -1.2070     9.2490     0.7020 H     1 <1>   0.0800 
 47 H       -0.6140     8.9220    -0.9080 H     1 <1>   0.0800 
@<TRIPOS>BOND
  1   1   2  1   
  2   1   3  1   
  3   2   4  ar  
  4   2   5  ar  
  5   3   6  1   
  6   3  24  1   
  7   3  25  1   
  8   4   7  ar  
  9   5   8  ar  
 10   6   9  2   
 11   6  10  am  
 12   7  11  ar  
 13   7  12  1   
 14   8  11  ar  
 15   8  26  1   
 16  10  13  1   
 17  10  14  1   
 18  11  27  1   
 19  12  28  1   
 20  12  29  1   
 21  12  30  1   
 22  13  15  1   
 23  13  16  1   
 24  13  31  1   
 25  14  17  1   
 26  14  32  1   
 27  14  33  1   
 28  15  18  2   
 29  15  19  am  
 30  16  20  1   
 31  16  34  1   
 32  16  35  1   
 33  17  19  1   
 34  17  36  1   
 35  17  37  1   
 36  19  21  1   
 37  20  22  1   
 38  20  38  1   
 39  20  39  1   
 40  21  40  1   
 41  21  41  1   
 42  21  42  1   
 43  22  23  1   
 44  22  43  1   
 45  22  44  1   
 46  23  45  1   
 47  23  46  1   
 48  23  47  1   
@<TRIPOS>SUBSTRUCTURE
  1 ****  10 GROUP 4 **** **** 0

# MOE 2024.06 (io_trps.svl 2023.06)
