@<TRIPOS>MOLECULE
NONAME
53 55 1 0 0 
SMALL
USER_CHARGES


@<TRIPOS>ATOM
  1 O        3.4450     0.9400     2.9130 O.3   1 <1>  -0.6800 
  2 C        3.8370     1.5490     1.7380 C.3   1 <1>   0.2000 
  3 C        3.4640     0.6850     0.4920 C.3   1 <1>   0.0000 
  4 C        5.3260     1.8970     1.8180 C.3   1 <1>  -0.1600 
  5 C        4.4280     1.0210    -0.6710 C.3   1 <1>   0.3430 
  6 C        2.0190     1.0680     0.0980 C.3   1 <1>   0.1200 
  7 C        3.5030    -0.8580     0.7250 C.3   1 <1>  -0.0170 
  8 C        5.7850     2.6880     0.5860 C.3   1 <1>   0.3430 
  9 N        4.9150     2.4290    -0.6030 N.4   1 <1>  -0.9590 
 10 O        1.7340     0.6140    -1.1840 O.3   1 <1>  -0.6800 
 11 C        4.8930    -1.4630     0.9010 C.ar  1 <1>  -0.1440 
 12 C        5.5470     2.8850    -1.8760 C.3   1 <1>   0.4860 
 13 C        5.4630    -1.5610     2.1620 C.ar  1 <1>  -0.1500 
 14 C        5.5940    -1.9500    -0.1940 C.ar  1 <1>  -0.1500 
 15 C        5.5140     4.4120    -1.9260 C.ar  1 <1>   0.1670 
 16 C        6.7260    -2.1020     2.3230 C.ar  1 <1>  -0.1500 
 17 C        6.8580    -2.4910    -0.0350 C.ar  1 <1>  -0.1500 
 18 N        4.4570     5.0100    -1.4030 N.ar  1 <1>  -0.6200 
 19 C        6.5480     5.1310    -2.4800 C.ar  1 <1>  -0.1500 
 20 C        7.4270    -2.5630     1.2240 C.ar  1 <1>  -0.1500 
 21 C        4.4600     6.3360    -1.4530 C.ar  1 <1>   0.4770 
 22 C        6.4440     6.5000    -2.4710 C.ar  1 <1>   0.1600 
 23 N        5.4030     7.1120    -1.9550 N.ar  1 <1>  -0.6200 
 24 C        3.2490     7.0420    -0.8620 C.3   1 <1>  -0.0170 
 25 C        3.3420     7.1790     0.6650 C.3   1 <1>  -0.2400 
 26 H        3.6390     1.4990     3.6920 H     1 <1>   0.4000 
 27 H        3.2980     2.4820     1.6960 H     1 <1>   0.0800 
 28 H        5.5280     2.4840     2.6960 H     1 <1>   0.0800 
 29 H        5.9140     1.0020     1.8810 H     1 <1>   0.0800 
 30 H        3.9380     0.8350    -1.6130 H     1 <1>   0.0800 
 31 H        5.2850     0.3740    -0.6170 H     1 <1>   0.0800 
 32 H        1.8780     2.1360     0.0960 H     1 <1>   0.0800 
 33 H        1.3130     0.6270     0.7830 H     1 <1>   0.0800 
 34 H        2.8990    -1.1200     1.5770 H     1 <1>   0.0800 
 35 H        3.0450    -1.3530    -0.1140 H     1 <1>   0.0800 
 36 H        6.8050     2.4180     0.3650 H     1 <1>   0.0800 
 37 H        5.7630     3.7440     0.8090 H     1 <1>   0.0800 
 38 H        4.1000     3.0630    -0.5320 H     1 <1>   0.4500 
 39 H        0.7720     0.6790    -1.3710 H     1 <1>   0.4000 
 40 H        6.5590     2.5240    -1.9490 H     1 <1>   0.0800 
 41 H        4.9830     2.5090    -2.7130 H     1 <1>   0.0800 
 42 H        4.9220    -1.2190     3.0280 H     1 <1>   0.1500 
 43 H        5.1580    -1.9240    -1.1770 H     1 <1>   0.1500 
 44 H        7.1600    -2.1710     3.3060 H     1 <1>   0.1500 
 45 H        7.3970    -2.8660    -0.8880 H     1 <1>   0.1500 
 46 H        7.4120     4.6590    -2.9100 H     1 <1>   0.1500 
 47 H        8.4090    -2.9870     1.3500 H     1 <1>   0.1500 
 48 H        7.2260     7.1100    -2.8940 H     1 <1>   0.1500 
 49 H        3.1650     8.0210    -1.3010 H     1 <1>   0.0800 
 50 H        2.3620     6.4940    -1.1230 H     1 <1>   0.0800 
 51 H        4.2190     7.7430     0.9300 H     1 <1>   0.0800 
 52 H        3.3990     6.2100     1.1270 H     1 <1>   0.0800 
 53 H        2.4760     7.6940     1.0430 H     1 <1>   0.0800 
@<TRIPOS>BOND
  1   1   2  1   
  2   1  26  1   
  3   2   3  1   
  4   2   4  1   
  5   2  27  1   
  6   3   5  1   
  7   3   6  1   
  8   3   7  1   
  9   4   8  1   
 10   4  28  1   
 11   4  29  1   
 12   5   9  1   
 13   5  30  1   
 14   5  31  1   
 15   6  10  1   
 16   6  32  1   
 17   6  33  1   
 18   7  11  1   
 19   7  34  1   
 20   7  35  1   
 21   8   9  1   
 22   8  36  1   
 23   8  37  1   
 24   9  12  1   
 25   9  38  1   
 26  10  39  1   
 27  11  13  ar  
 28  11  14  ar  
 29  12  15  1   
 30  12  40  1   
 31  12  41  1   
 32  13  16  ar  
 33  13  42  1   
 34  14  17  ar  
 35  14  43  1   
 36  15  18  ar  
 37  15  19  ar  
 38  16  20  ar  
 39  16  44  1   
 40  17  20  ar  
 41  17  45  1   
 42  18  21  ar  
 43  19  22  ar  
 44  19  46  1   
 45  20  47  1   
 46  21  23  ar  
 47  21  24  1   
 48  22  23  ar  
 49  22  48  1   
 50  24  25  1   
 51  24  49  1   
 52  24  50  1   
 53  25  51  1   
 54  25  52  1   
 55  25  53  1   
@<TRIPOS>SUBSTRUCTURE
  1 ****   9 GROUP 4 **** **** 0

# MOE 2024.06 (io_trps.svl 2023.06)
