@<TRIPOS>MOLECULE
NONAME
56 58 1 0 0 
SMALL
USER_CHARGES


@<TRIPOS>ATOM
  1 S        0.4250     0.0670     0.4870 S.o2  1 <1>   1.3330 
  2 O        1.7950     0.4000     0.8030 O.2   1 <1>  -0.6500 
  3 O       -0.4590    -0.4060     1.5250 O.2   1 <1>  -0.6500 
  4 N        0.3940    -1.0040    -0.8250 N.am  1 <1>  -0.8490 
  5 C       -0.2890     1.5630    -0.1960 C.3   1 <1>  -0.0550 
  6 C        1.5190    -1.9470    -0.8070 C.3   1 <1>   0.1160 
  7 C       -0.8660    -1.7490    -0.9410 C.3   1 <1>   0.1160 
  8 C       -0.4740     2.6790     0.8560 C.3   1 <1>  -0.0800 
  9 C       -1.0600     3.9460     0.2270 C.3   1 <1>   0.2000 
 10 C        0.8660     3.1310     1.4770 C.3   1 <1>   0.3430 
 11 O       -1.8000     4.6030     1.2030 O.3   1 <1>  -0.6800 
 12 C        0.1730     4.8000    -0.0660 C.3   1 <1>   0.3430 
 13 N        1.0330     4.5650     1.1230 N.4   1 <1>  -0.9590 
 14 C        2.4410     5.0090     0.9640 C.3   1 <1>   0.5230 
 15 C        2.4820     6.5110     0.7770 C.2   1 <1>  -0.1400 
 16 S        3.9450     7.1370     0.0400 S.3   1 <1>  -0.0800 
 17 C        1.6300     7.5200     1.0520 C.2   1 <1>  -0.1500 
 18 C        3.3500     8.7880     0.1220 C.2   1 <1>  -0.1400 
 19 C        2.1240     8.8090     0.6770 C.2   1 <1>  -0.1500 
 20 C        4.2640     9.8790    -0.4240 C.3   1 <1>   0.1000 
 21 C        5.4780    10.0770     0.5000 C.3   1 <1>  -0.1600 
 22 C        3.5090    11.2070    -0.6060 C.3   1 <1>  -0.1600 
 23 C        6.4060    11.1900    -0.0100 C.3   1 <1>  -0.1600 
 24 C        4.4330    12.3160    -1.1290 C.3   1 <1>  -0.1600 
 25 C        5.6430    12.5060    -0.2050 C.3   1 <1>  -0.1600 
 26 H        0.3360     1.9090    -0.9970 H     1 <1>   0.0800 
 27 H       -1.2480     1.3220    -0.6140 H     1 <1>   0.0800 
 28 H        1.4780    -2.5950    -1.6660 H     1 <1>   0.0800 
 29 H        1.4930    -2.5460     0.0880 H     1 <1>   0.0800 
 30 H        2.4530    -1.4110    -0.8380 H     1 <1>   0.0800 
 31 H       -0.8620    -2.3490    -1.8350 H     1 <1>   0.0800 
 32 H       -1.7000    -1.0700    -0.9930 H     1 <1>   0.0800 
 33 H       -1.0020    -2.3950    -0.0880 H     1 <1>   0.0800 
 34 H       -1.1220     2.3010     1.6290 H     1 <1>   0.0800 
 35 H       -1.6820     3.7830    -0.6380 H     1 <1>   0.0800 
 36 H        1.6840     2.5630     1.0690 H     1 <1>   0.0800 
 37 H        0.8530     3.0030     2.5480 H     1 <1>   0.0800 
 38 H       -2.6740     4.1790     1.3400 H     1 <1>   0.4000 
 39 H       -0.0870     5.8390    -0.1840 H     1 <1>   0.0800 
 40 H        0.6640     4.4450    -0.9570 H     1 <1>   0.0800 
 41 H        0.6030     5.1180     1.8780 H     1 <1>   0.4500 
 42 H        3.0200     4.7440     1.8340 H     1 <1>   0.0800 
 43 H        2.8810     4.5300     0.1040 H     1 <1>   0.0800 
 44 H        0.6600     7.4400     1.5110 H     1 <1>   0.1500 
 45 H        1.5310     9.6920     0.8470 H     1 <1>   0.1500 
 46 H        4.6170     9.5630    -1.3910 H     1 <1>   0.0800 
 47 H        5.1310    10.3280     1.4870 H     1 <1>   0.0800 
 48 H        6.0350     9.1600     0.5700 H     1 <1>   0.0800 
 49 H        2.6950    11.0650    -1.2960 H     1 <1>   0.0800 
 50 H        3.0960    11.5160     0.3390 H     1 <1>   0.0800 
 51 H        7.2080    11.3390     0.6910 H     1 <1>   0.0800 
 52 H        6.8410    10.8890    -0.9480 H     1 <1>   0.0800 
 53 H        4.7750    12.0620    -2.1180 H     1 <1>   0.0800 
 54 H        3.8850    13.2400    -1.1980 H     1 <1>   0.0800 
 55 H        6.3030    13.2470    -0.6230 H     1 <1>   0.0800 
 56 H        5.3070    12.8680     0.7520 H     1 <1>   0.0800 
@<TRIPOS>BOND
  1   1   2  2   
  2   1   3  2   
  3   1   4  am  
  4   1   5  1   
  5   4   6  1   
  6   4   7  1   
  7   5   8  1   
  8   5  26  1   
  9   5  27  1   
 10   6  28  1   
 11   6  29  1   
 12   6  30  1   
 13   7  31  1   
 14   7  32  1   
 15   7  33  1   
 16   8   9  1   
 17   8  10  1   
 18   8  34  1   
 19   9  11  1   
 20   9  12  1   
 21   9  35  1   
 22  10  13  1   
 23  10  36  1   
 24  10  37  1   
 25  11  38  1   
 26  12  13  1   
 27  12  39  1   
 28  12  40  1   
 29  13  14  1   
 30  13  41  1   
 31  14  15  1   
 32  14  42  1   
 33  14  43  1   
 34  15  16  1   
 35  15  17  2   
 36  16  18  1   
 37  17  19  1   
 38  17  44  1   
 39  18  19  2   
 40  18  20  1   
 41  19  45  1   
 42  20  21  1   
 43  20  22  1   
 44  20  46  1   
 45  21  23  1   
 46  21  47  1   
 47  21  48  1   
 48  22  24  1   
 49  22  49  1   
 50  22  50  1   
 51  23  25  1   
 52  23  51  1   
 53  23  52  1   
 54  24  25  1   
 55  24  53  1   
 56  24  54  1   
 57  25  55  1   
 58  25  56  1   
@<TRIPOS>SUBSTRUCTURE
  1 ****  14 GROUP 4 **** **** 0

# MOE 2024.06 (io_trps.svl 2023.06)
