@<TRIPOS>MOLECULE
NONAME
59 62 1 0 0 
SMALL
USER_CHARGES


@<TRIPOS>ATOM
  1 O        1.2230    -0.6480    -2.4110 O.2   1 <1>  -0.5700 
  2 C        1.5010    -1.3770    -1.4890 C.2   1 <1>   0.5690 
  3 N        2.4110    -0.9830    -0.5410 N.am  1 <1>  -0.6600 
  4 C        0.7610    -2.7060    -1.4640 C.3   1 <1>  -0.0990 
  5 C        2.7330    -1.7510     0.6990 C.3   1 <1>   0.1400 
  6 C        3.1610     0.3170    -0.6800 C.3   1 <1>   0.2010 
  7 C        1.1930    -3.7720    -0.4550 C.3   1 <1>   0.1200 
  8 C        3.3400    -3.1530     0.4260 C.3   1 <1>   0.2800 
  9 C        2.8560     1.3250     0.4340 C.2   1 <1>   0.5690 
 10 O        2.5780    -3.9050    -0.4840 O.3   1 <1>  -0.5600 
 11 C        4.7320    -3.0050    -0.2140 C.3   1 <1>  -0.1600 
 12 C        3.4430    -3.9570     1.7370 C.3   1 <1>  -0.1600 
 13 O        3.6740     1.4230     1.3210 O.2   1 <1>  -0.5700 
 14 N        1.6980     2.0710     0.4300 N.am  1 <1>  -0.6600 
 15 C        5.4400    -4.3510    -0.3730 C.3   1 <1>   0.1400 
 16 C        4.1740    -5.2880     1.5450 C.3   1 <1>   0.1400 
 17 C        0.6450     1.9440    -0.6170 C.3   1 <1>   0.0600 
 18 C        1.3760     3.0270     1.5260 C.3   1 <1>   0.0600 
 19 N        5.5100    -5.0170     0.9540 N.am  1 <1>  -0.6600 
 20 C        6.6810    -5.4300     1.5560 C.2   1 <1>   0.5440 
 21 O        6.6220    -6.1980     2.4980 O.2   1 <1>  -0.5700 
 22 C        7.9780    -4.9770     1.0950 C.ar  1 <1>   0.0860 
 23 C        8.9420    -5.8930     0.6650 C.ar  1 <1>  -0.1500 
 24 C        8.3010    -3.6130     1.0660 C.ar  1 <1>  -0.1500 
 25 C       10.1650    -5.4440     0.2100 C.ar  1 <1>  -0.1430 
 26 C        9.5290    -3.1670     0.6080 C.ar  1 <1>  -0.1500 
 27 C       10.4490    -4.1050     0.1790 C.ar  1 <1>   0.0830 
 28 C       11.3580    -6.1960    -0.3020 C.3   1 <1>  -0.0170 
 29 O       11.6730    -3.8400    -0.2910 O.3   1 <1>  -0.3630 
 30 C       12.3400    -5.0520    -0.6160 C.3   1 <1>   0.1200 
 31 H        0.8530    -3.1340    -2.4450 H     1 <1>   0.0800 
 32 H       -0.2820    -2.4980    -1.3150 H     1 <1>   0.0800 
 33 H        1.8450    -1.8350     1.2990 H     1 <1>   0.0800 
 34 H        3.4390    -1.1970     1.2920 H     1 <1>   0.0800 
 35 H        2.9600     0.7760    -1.6300 H     1 <1>   0.0800 
 36 H        4.2140     0.1050    -0.6580 H     1 <1>   0.0800 
 37 H        0.7760    -4.7210    -0.7430 H     1 <1>   0.0800 
 38 H        0.8540    -3.5520     0.5410 H     1 <1>   0.0800 
 39 H        5.3450    -2.3650     0.3940 H     1 <1>   0.0800 
 40 H        4.6340    -2.5400    -1.1780 H     1 <1>   0.0800 
 41 H        2.4650    -4.1420     2.1390 H     1 <1>   0.0800 
 42 H        3.9870    -3.3840     2.4670 H     1 <1>   0.0800 
 43 H        6.4190    -4.2080    -0.7930 H     1 <1>   0.0800 
 44 H        4.8810    -4.9770    -1.0490 H     1 <1>   0.0800 
 45 H        3.6180    -5.9270     0.8810 H     1 <1>   0.0800 
 46 H        4.2690    -5.7890     2.4930 H     1 <1>   0.0800 
 47 H        1.0880     1.9030    -1.5970 H     1 <1>   0.0800 
 48 H       -0.0210     2.7890    -0.5850 H     1 <1>   0.0800 
 49 H        0.0770     1.0450    -0.4530 H     1 <1>   0.0800 
 50 H        2.1570     3.0420     2.2670 H     1 <1>   0.0800 
 51 H        0.4560     2.7360     2.0030 H     1 <1>   0.0800 
 52 H        1.2690     4.0180     1.1220 H     1 <1>   0.0800 
 53 H        8.7180    -6.9450     0.6970 H     1 <1>   0.1500 
 54 H        7.5730    -2.9020     1.4140 H     1 <1>   0.1500 
 55 H        9.7800    -2.1220     0.5820 H     1 <1>   0.1500 
 56 H       11.1180    -6.7530    -1.1900 H     1 <1>   0.0800 
 57 H       11.7580    -6.8530     0.4480 H     1 <1>   0.0800 
 58 H       12.5970    -5.0240    -1.6600 H     1 <1>   0.0800 
 59 H       13.2280    -5.1160    -0.0130 H     1 <1>   0.0800 
@<TRIPOS>BOND
  1   1   2  2   
  2   2   3  am  
  3   2   4  1   
  4   3   5  1   
  5   3   6  1   
  6   4   7  1   
  7   4  31  1   
  8   4  32  1   
  9   5   8  1   
 10   5  33  1   
 11   5  34  1   
 12   6   9  1   
 13   6  35  1   
 14   6  36  1   
 15   7  10  1   
 16   7  37  1   
 17   7  38  1   
 18   8  10  1   
 19   8  11  1   
 20   8  12  1   
 21   9  13  2   
 22   9  14  am  
 23  11  15  1   
 24  11  39  1   
 25  11  40  1   
 26  12  16  1   
 27  12  41  1   
 28  12  42  1   
 29  14  17  1   
 30  14  18  1   
 31  15  19  1   
 32  15  43  1   
 33  15  44  1   
 34  16  19  1   
 35  16  45  1   
 36  16  46  1   
 37  17  47  1   
 38  17  48  1   
 39  17  49  1   
 40  18  50  1   
 41  18  51  1   
 42  18  52  1   
 43  19  20  am  
 44  20  21  2   
 45  20  22  1   
 46  22  23  ar  
 47  22  24  ar  
 48  23  25  ar  
 49  23  53  1   
 50  24  26  ar  
 51  24  54  1   
 52  25  27  ar  
 53  25  28  1   
 54  26  27  ar  
 55  26  55  1   
 56  27  29  1   
 57  28  30  1   
 58  28  56  1   
 59  28  57  1   
 60  29  30  1   
 61  30  58  1   
 62  30  59  1   
@<TRIPOS>SUBSTRUCTURE
  1 ****  11 GROUP 4 **** **** 0

# MOE 2024.06 (io_trps.svl 2023.06)
