@<TRIPOS>MOLECULE
NONAME
49 52 1 0 0 
SMALL
USER_CHARGES


@<TRIPOS>ATOM
  1 CL       1.9390    -5.7300    -4.3240 Cl    1 <1>  -0.1770 
  2 C        1.8400    -6.1250    -2.6280 C.ar  1 <1>   0.1770 
  3 C        0.6040    -6.3700    -2.0630 C.ar  1 <1>  -0.1500 
  4 C        2.9990    -6.1900    -1.8800 C.ar  1 <1>  -0.1500 
  5 C        0.5010    -6.7000    -0.7120 C.ar  1 <1>  -0.0230 
  6 C        2.9120    -6.5060    -0.5360 C.ar  1 <1>  -0.1500 
  7 N       -0.7740    -6.9780    -0.1280 N.pl3 1 <1>   0.5930 
  8 C        1.6770    -6.7550     0.0400 C.ar  1 <1>  -0.1500 
  9 N       -1.9530    -6.6680    -0.7340 N.2   1 <1>  -0.7070 
 10 C       -1.0360    -7.6290     1.0370 C.2   1 <1>  -0.3020 
 11 C       -2.8880    -7.0720     0.0630 C.2   1 <1>   0.1390 
 12 C       -2.3760    -7.7060     1.1880 C.2   1 <1>  -0.1810 
 13 C       -3.1940    -8.3650     2.2740 C.3   1 <1>   0.5240 
 14 N       -3.7280    -9.5930     1.6590 N.4   1 <1>  -0.9590 
 15 C       -5.1870    -9.6390     1.3780 C.3   1 <1>   0.3430 
 16 C       -3.3370   -10.9000     2.2260 C.3   1 <1>   0.3430 
 17 C       -5.5280   -11.1300     1.2350 C.3   1 <1>   0.2000 
 18 C       -4.2240   -11.9030     1.4840 C.3   1 <1>  -0.0800 
 19 O       -6.4580   -11.4820     2.2060 O.3   1 <1>  -0.6800 
 20 C       -3.5830   -12.4220     0.1700 C.3   1 <1>   0.0210 
 21 C       -2.8220   -11.3940    -0.6600 C.2   1 <1>   0.1080 
 22 N       -3.3060   -10.2480    -1.0390 N.2   1 <1>  -0.7070 
 23 C       -1.5160   -11.5760    -1.1010 C.2   1 <1>  -0.1500 
 24 N       -2.3100    -9.6710    -1.7560 N.pl3 1 <1>   0.3000 
 25 C       -1.2160   -10.4580    -1.7930 C.2   1 <1>  -0.3320 
 26 C        0.0700   -10.0970    -2.5150 C.3   1 <1>  -0.0600 
 27 H       -0.2730    -6.2990    -2.6820 H     1 <1>   0.1500 
 28 H        3.9490    -5.9940    -2.3450 H     1 <1>   0.1500 
 29 H        3.8080    -6.5540     0.0610 H     1 <1>   0.1500 
 30 H        1.6460    -6.9880     1.0900 H     1 <1>   0.1500 
 31 H       -0.2540    -8.0030     1.6700 H     1 <1>   0.1500 
 32 H       -3.9370    -6.9390    -0.1520 H     1 <1>   0.1500 
 33 H       -3.9900    -7.7150     2.5980 H     1 <1>   0.0800 
 34 H       -2.5640    -8.6050     3.1150 H     1 <1>   0.0800 
 35 H       -3.3100    -9.6140     0.7010 H     1 <1>   0.4500 
 36 H       -5.7550    -9.2100     2.1860 H     1 <1>   0.0800 
 37 H       -5.4040    -9.1200     0.4590 H     1 <1>   0.0800 
 38 H       -2.2890   -11.1030     2.0680 H     1 <1>   0.0800 
 39 H       -3.5580   -10.9230     3.2810 H     1 <1>   0.0800 
 40 H       -5.9650   -11.3380     0.2720 H     1 <1>   0.0800 
 41 H       -4.4100   -12.7620     2.1050 H     1 <1>   0.0800 
 42 H       -6.0820   -11.5230     3.1070 H     1 <1>   0.4000 
 43 H       -4.3410   -12.8670    -0.4510 H     1 <1>   0.0800 
 44 H       -2.8950   -13.2090     0.4220 H     1 <1>   0.0800 
 45 H       -0.8930   -12.4360    -0.9260 H     1 <1>   0.1500 
 46 H       -2.3930    -8.7350    -2.1840 H     1 <1>   0.2700 
 47 H        0.7550   -10.9250    -2.4890 H     1 <1>   0.0800 
 48 H        0.5420    -9.2530    -2.0470 H     1 <1>   0.0800 
 49 H       -0.1330    -9.8580    -3.5450 H     1 <1>   0.0800 
@<TRIPOS>BOND
  1   1   2  1   
  2   2   3  ar  
  3   2   4  ar  
  4   3   5  ar  
  5   3  27  1   
  6   4   6  ar  
  7   4  28  1   
  8   5   7  1   
  9   5   8  ar  
 10   6   8  ar  
 11   6  29  1   
 12   7   9  1   
 13   7  10  1   
 14   8  30  1   
 15   9  11  2   
 16  10  12  2   
 17  10  31  1   
 18  11  12  1   
 19  11  32  1   
 20  12  13  1   
 21  13  14  1   
 22  13  33  1   
 23  13  34  1   
 24  14  15  1   
 25  14  16  1   
 26  14  35  1   
 27  15  17  1   
 28  15  36  1   
 29  15  37  1   
 30  16  18  1   
 31  16  38  1   
 32  16  39  1   
 33  17  18  1   
 34  17  19  1   
 35  17  40  1   
 36  18  20  1   
 37  18  41  1   
 38  19  42  1   
 39  20  21  1   
 40  20  43  1   
 41  20  44  1   
 42  21  22  2   
 43  21  23  1   
 44  22  24  1   
 45  23  25  2   
 46  23  45  1   
 47  24  25  1   
 48  24  46  1   
 49  25  26  1   
 50  26  47  1   
 51  26  48  1   
 52  26  49  1   
@<TRIPOS>SUBSTRUCTURE
  1 ****  24 GROUP 4 **** **** 0

# MOE 2024.06 (io_trps.svl 2023.06)
