@<TRIPOS>MOLECULE
NONAME
49 51 1 0 0 
SMALL
USER_CHARGES


@<TRIPOS>ATOM
  1 O       -0.6370     0.1230    -0.2120 O.2   1 <1>  -0.5700 
  2 C       -1.5910     0.8520    -0.3410 C.2   1 <1>   0.5690 
  3 N       -2.8180     0.3380    -0.6820 N.am  1 <1>  -0.6600 
  4 C       -1.4180     2.3430    -0.0950 C.3   1 <1>  -0.0990 
  5 C       -2.9620    -1.1040    -1.0280 C.3   1 <1>   0.1400 
  6 C       -4.1160     1.0550    -0.5360 C.3   1 <1>   0.1400 
  7 C        0.0480     2.7850     0.0150 C.3   1 <1>   0.0210 
  8 C       -3.7660    -1.8190     0.0800 C.3   1 <1>   0.4230 
  9 C       -4.9200     0.3670     0.5750 C.3   1 <1>  -0.1600 
 10 C        0.1240     4.2820     0.2460 C.2   1 <1>  -0.1810 
 11 N       -3.8260    -3.3330    -0.0800 N.4   1 <1>  -0.9590 
 12 C       -5.1540    -1.1520     0.3240 C.3   1 <1>   0.0000 
 13 C       -0.0790     5.2830    -0.7000 C.2   1 <1>   0.1390 
 14 C        0.3940     4.9440     1.3900 C.2   1 <1>  -0.3020 
 15 C       -4.9130    -3.9920     0.7160 C.3   1 <1>   0.3430 
 16 C       -3.8540    -3.8350    -1.4940 C.3   1 <1>   0.2630 
 17 C       -5.8040    -1.7730     1.5960 C.3   1 <1>  -0.1600 
 18 C       -6.0750    -1.3610    -0.9130 C.3   1 <1>   0.1200 
 19 N        0.0450     6.4710    -0.1940 N.2   1 <1>  -0.7070 
 20 N        0.3430     6.2590     1.1020 N.pl3 1 <1>   0.3000 
 21 C       -5.2600    -3.1690     1.9560 C.3   1 <1>  -0.1600 
 22 O       -7.2270    -0.5970    -0.8270 O.3   1 <1>  -0.6800 
 23 H       -1.8760     2.8800    -0.9040 H     1 <1>   0.0800 
 24 H       -1.9240     2.6020     0.8170 H     1 <1>   0.0800 
 25 H       -3.4550    -1.1750    -1.9800 H     1 <1>   0.0800 
 26 H       -1.9940    -1.5630    -1.1190 H     1 <1>   0.0800 
 27 H       -3.9670     2.0900    -0.2800 H     1 <1>   0.0800 
 28 H       -4.6550     1.0260    -1.4690 H     1 <1>   0.0800 
 29 H        0.5800     2.5320    -0.8850 H     1 <1>   0.0800 
 30 H        0.5220     2.2750     0.8360 H     1 <1>   0.0800 
 31 H       -3.2070    -1.6370     0.9830 H     1 <1>   0.0800 
 32 H       -4.3790     0.5080     1.4950 H     1 <1>   0.0800 
 33 H       -5.8580     0.8820     0.6910 H     1 <1>   0.0800 
 34 H       -2.9380    -3.6650     0.3290 H     1 <1>   0.4500 
 35 H       -0.3140     5.1050    -1.7360 H     1 <1>   0.1500 
 36 H        0.6160     4.5650     2.3710 H     1 <1>   0.1500 
 37 H       -5.8000    -4.0880     0.1120 H     1 <1>   0.0800 
 38 H       -4.6030    -4.9830     1.0100 H     1 <1>   0.0800 
 39 H       -4.7390    -3.4880    -2.0010 H     1 <1>   0.0800 
 40 H       -3.8520    -4.9130    -1.5080 H     1 <1>   0.0800 
 41 H       -2.9880    -3.4910    -2.0360 H     1 <1>   0.0800 
 42 H       -5.6450    -1.1380     2.4520 H     1 <1>   0.0800 
 43 H       -6.8710    -1.8360     1.4700 H     1 <1>   0.0800 
 44 H       -6.3770    -2.3870    -1.0140 H     1 <1>   0.0800 
 45 H       -5.5850    -1.0610    -1.8220 H     1 <1>   0.0800 
 46 H        0.5040     7.0320     1.7590 H     1 <1>   0.2700 
 47 H       -5.9990    -3.6960     2.5350 H     1 <1>   0.0800 
 48 H       -4.3830    -3.0780     2.5740 H     1 <1>   0.0800 
 49 H       -7.7970    -0.8660    -0.0800 H     1 <1>   0.4000 
@<TRIPOS>BOND
  1   1   2  2   
  2   2   3  am  
  3   2   4  1   
  4   3   5  1   
  5   3   6  1   
  6   4   7  1   
  7   4  23  1   
  8   4  24  1   
  9   5   8  1   
 10   5  25  1   
 11   5  26  1   
 12   6   9  1   
 13   6  27  1   
 14   6  28  1   
 15   7  10  1   
 16   7  29  1   
 17   7  30  1   
 18   8  11  1   
 19   8  12  1   
 20   8  31  1   
 21   9  12  1   
 22   9  32  1   
 23   9  33  1   
 24  10  13  1   
 25  10  14  2   
 26  11  15  1   
 27  11  16  1   
 28  11  34  1   
 29  12  17  1   
 30  12  18  1   
 31  13  19  2   
 32  13  35  1   
 33  14  20  1   
 34  14  36  1   
 35  15  21  1   
 36  15  37  1   
 37  15  38  1   
 38  16  39  1   
 39  16  40  1   
 40  16  41  1   
 41  17  21  1   
 42  17  42  1   
 43  17  43  1   
 44  18  22  1   
 45  18  44  1   
 46  18  45  1   
 47  19  20  1   
 48  20  46  1   
 49  21  47  1   
 50  21  48  1   
 51  22  49  1   
@<TRIPOS>SUBSTRUCTURE
  1 ****   3 GROUP 4 **** **** 0

# MOE 2024.06 (io_trps.svl 2023.06)
