@<TRIPOS>MOLECULE
NONAME
39 40 1 0 0 
SMALL
USER_CHARGES


@<TRIPOS>ATOM
  1 S        0.1600     0.2800    -0.4960 S.3   1 <1>  -0.0800 
  2 C       -1.5030     0.7830    -0.6150 C.2   1 <1>  -0.1400 
  3 C        0.3780     1.4100     0.8200 C.2   1 <1>   0.1980 
  4 C       -1.7380     1.7200     0.3190 C.2   1 <1>   0.0460 
  5 C       -2.3590     0.1320    -1.6790 C.3   1 <1>   0.3200 
  6 N       -0.6640     2.0710     1.1230 N.2   1 <1>  -0.5650 
  7 C        1.7480     1.4870     1.4500 C.3   1 <1>  -0.0600 
  8 C       -3.0600     2.4200     0.5870 C.3   1 <1>   0.0210 
  9 N       -2.6590    -1.2470    -1.2630 N.am  1 <1>  -0.7300 
 10 C       -3.0220     3.8800     0.1230 C.3   1 <1>  -0.2400 
 11 C       -3.8960    -1.8010    -1.2150 C.2   1 <1>   0.5690 
 12 O       -4.8720    -1.1900    -1.5770 O.2   1 <1>  -0.5700 
 13 C       -4.0790    -3.2170    -0.6890 C.3   1 <1>   0.1310 
 14 S       -2.4500    -4.0470    -0.3430 S.3   1 <1>  -0.3310 
 15 C       -2.9090    -5.6700     0.2320 C.ar  1 <1>   0.7220 
 16 N       -4.2090    -5.9110     0.2940 N.ar  1 <1>  -0.6200 
 17 N       -1.8920    -6.4580     0.5350 N.ar  1 <1>  -0.6200 
 18 C       -4.5240    -7.1130     0.7200 C.ar  1 <1>   0.1660 
 19 C       -2.2420    -7.6520     0.9570 C.ar  1 <1>   0.1600 
 20 C       -3.5600    -8.0320     1.0680 C.ar  1 <1>  -0.1500 
 21 C       -5.9980    -7.4450     0.8110 C.3   1 <1>  -0.0970 
 22 H       -1.8320     0.1200    -2.6170 H     1 <1>   0.0800 
 23 H       -3.2720     0.6860    -1.8100 H     1 <1>   0.0800 
 24 H        2.0160     0.5300     1.8560 H     1 <1>   0.0800 
 25 H        1.7410     2.2150     2.2410 H     1 <1>   0.0800 
 26 H        2.4720     1.7780     0.7120 H     1 <1>   0.0800 
 27 H       -3.2640     2.3800     1.6420 H     1 <1>   0.0800 
 28 H       -3.8560     1.9050     0.0800 H     1 <1>   0.0800 
 29 H       -1.8600    -1.7810    -0.9080 H     1 <1>   0.3700 
 30 H       -2.2480     4.4110     0.6490 H     1 <1>   0.0800 
 31 H       -3.9650     4.3560     0.3200 H     1 <1>   0.0800 
 32 H       -2.8180     3.9280    -0.9320 H     1 <1>   0.0800 
 33 H       -4.5950    -3.8160    -1.4160 H     1 <1>   0.0800 
 34 H       -4.6330    -3.2010     0.2310 H     1 <1>   0.0800 
 35 H       -1.4580    -8.3420     1.2190 H     1 <1>   0.1500 
 36 H       -3.8190    -9.0140     1.4160 H     1 <1>   0.1500 
 37 H       -6.4810    -6.7610     1.4850 H     1 <1>   0.0800 
 38 H       -6.1480    -8.4470     1.1680 H     1 <1>   0.0800 
 39 H       -6.4500    -7.3510    -0.1600 H     1 <1>   0.0800 
@<TRIPOS>BOND
  1   1   2  1   
  2   1   3  1   
  3   2   4  2   
  4   2   5  1   
  5   3   6  2   
  6   3   7  1   
  7   4   6  1   
  8   4   8  1   
  9   5   9  1   
 10   5  22  1   
 11   5  23  1   
 12   7  24  1   
 13   7  25  1   
 14   7  26  1   
 15   8  10  1   
 16   8  27  1   
 17   8  28  1   
 18   9  11  am  
 19   9  29  1   
 20  10  30  1   
 21  10  31  1   
 22  10  32  1   
 23  11  12  2   
 24  11  13  1   
 25  13  14  1   
 26  13  33  1   
 27  13  34  1   
 28  14  15  1   
 29  15  16  ar  
 30  15  17  ar  
 31  16  18  ar  
 32  17  19  ar  
 33  18  20  ar  
 34  18  21  1   
 35  19  20  ar  
 36  19  35  1   
 37  20  36  1   
 38  21  37  1   
 39  21  38  1   
 40  21  39  1   
@<TRIPOS>SUBSTRUCTURE
  1 ****   9 GROUP 4 **** **** 0

# MOE 2024.06 (io_trps.svl 2023.06)
