@<TRIPOS>MOLECULE
NONAME
52 54 1 0 0 
SMALL
USER_CHARGES


@<TRIPOS>ATOM
  1 CL       1.0070    -0.9640     2.4370 Cl    1 <1>  -0.1770 
  2 C        1.9350    -1.7370     1.1680 C.ar  1 <1>   0.1770 
  3 C        1.3560    -2.7730     0.4140 C.ar  1 <1>   0.4100 
  4 C        3.2100    -1.3340     0.9060 C.ar  1 <1>   0.2110 
  5 N        2.0760    -3.4070    -0.5250 N.ar  1 <1>  -0.6200 
  6 N        0.0710    -3.1460     0.5840 N.pl3 1 <1>  -0.8690 
  7 N        3.8790    -1.9740    -0.0810 N.ar  1 <1>  -0.1790 
  8 C        3.2930    -2.9890    -0.7590 C.ar  1 <1>   0.5280 
  9 C       -0.7620    -3.9950    -0.3440 C.3   1 <1>   0.2090 
 10 C        4.0930    -3.6780    -1.8470 C.3   1 <1>  -0.0970 
 11 C       -1.6420    -5.0980     0.3440 C.3   1 <1>   0.5030 
 12 N       -0.7720    -6.1220     1.0530 N.4   1 <1>  -0.9590 
 13 C       -2.6130    -4.4630     1.3870 C.3   1 <1>  -0.1600 
 14 C       -2.4050    -5.8970    -0.7570 C.3   1 <1>  -0.1600 
 15 C       -0.0890    -5.7090     2.3340 C.3   1 <1>   0.3430 
 16 C        0.2520    -6.7910     0.1710 C.3   1 <1>   0.3430 
 17 C       -3.3930    -3.1920     0.9780 C.3   1 <1>  -0.1600 
 18 C       -3.8860    -5.6000    -1.0480 C.3   1 <1>  -0.1600 
 19 C        0.7660    -6.8500     2.9310 C.3   1 <1>   0.1200 
 20 C        0.9100    -7.9950     0.8830 C.3   1 <1>   0.1200 
 21 C       -4.5730    -3.4090     0.0280 C.3   1 <1>  -0.1600 
 22 C       -4.2260    -4.1260    -1.2790 C.3   1 <1>  -0.1600 
 23 O        0.5510    -8.0460     2.2370 O.3   1 <1>  -0.5600 
 24 H        3.6810    -0.5330     1.4550 H     1 <1>   0.1500 
 25 H       -0.4960    -2.6090     1.2570 H     1 <1>   0.4000 
 26 H        4.8360    -1.7000    -0.3270 H     1 <1>   0.4570 
 27 H       -0.1260    -4.4600    -1.0750 H     1 <1>   0.0800 
 28 H       -1.4040    -3.3380    -0.9020 H     1 <1>   0.0800 
 29 H        3.5050    -4.4510    -2.3090 H     1 <1>   0.0800 
 30 H        4.9780    -4.1300    -1.4360 H     1 <1>   0.0800 
 31 H        4.3740    -2.9740    -2.6090 H     1 <1>   0.0800 
 32 H       -1.3970    -6.8860     1.3470 H     1 <1>   0.4500 
 33 H       -2.0550    -4.1460     2.2450 H     1 <1>   0.0800 
 34 H       -3.3130    -5.2060     1.7260 H     1 <1>   0.0800 
 35 H       -2.3900    -6.9460    -0.5150 H     1 <1>   0.0800 
 36 H       -1.8780    -5.7980    -1.6900 H     1 <1>   0.0800 
 37 H       -0.8220    -5.4300     3.0710 H     1 <1>   0.0800 
 38 H        0.5430    -4.8540     2.1640 H     1 <1>   0.0800 
 39 H        1.0190    -6.0810    -0.0930 H     1 <1>   0.0800 
 40 H       -0.1970    -7.1380    -0.7440 H     1 <1>   0.0800 
 41 H       -2.7410    -2.4430     0.5680 H     1 <1>   0.0800 
 42 H       -3.8010    -2.7600     1.8770 H     1 <1>   0.0800 
 43 H       -4.5050    -5.9970    -0.2610 H     1 <1>   0.0800 
 44 H       -4.1540    -6.1420    -1.9400 H     1 <1>   0.0800 
 45 H        0.5010    -7.0130     3.9620 H     1 <1>   0.0800 
 46 H        1.8150    -6.6090     2.8870 H     1 <1>   0.0800 
 47 H        1.9830    -7.9440     0.8110 H     1 <1>   0.0800 
 48 H        0.5870    -8.9160     0.4290 H     1 <1>   0.0800 
 49 H       -4.9890    -2.4450    -0.2140 H     1 <1>   0.0800 
 50 H       -5.3460    -3.9570     0.5410 H     1 <1>   0.0800 
 51 H       -5.1050    -4.0870    -1.9020 H     1 <1>   0.0800 
 52 H       -3.4460    -3.6150    -1.8140 H     1 <1>   0.0800 
@<TRIPOS>BOND
  1   1   2  1   
  2   2   3  ar  
  3   2   4  ar  
  4   3   5  ar  
  5   3   6  1   
  6   4   7  ar  
  7   4  24  1   
  8   5   8  ar  
  9   6   9  1   
 10   6  25  1   
 11   7   8  ar  
 12   7  26  1   
 13   8  10  1   
 14   9  11  1   
 15   9  27  1   
 16   9  28  1   
 17  10  29  1   
 18  10  30  1   
 19  10  31  1   
 20  11  12  1   
 21  11  13  1   
 22  11  14  1   
 23  12  15  1   
 24  12  16  1   
 25  12  32  1   
 26  13  17  1   
 27  13  33  1   
 28  13  34  1   
 29  14  18  1   
 30  14  35  1   
 31  14  36  1   
 32  15  19  1   
 33  15  37  1   
 34  15  38  1   
 35  16  20  1   
 36  16  39  1   
 37  16  40  1   
 38  17  21  1   
 39  17  41  1   
 40  17  42  1   
 41  18  22  1   
 42  18  43  1   
 43  18  44  1   
 44  19  23  1   
 45  19  45  1   
 46  19  46  1   
 47  20  23  1   
 48  20  47  1   
 49  20  48  1   
 50  21  22  1   
 51  21  49  1   
 52  21  50  1   
 53  22  51  1   
 54  22  52  1   
@<TRIPOS>SUBSTRUCTURE
  1 ****   9 GROUP 4 **** **** 0

# MOE 2024.06 (io_trps.svl 2023.06)
