@<TRIPOS>MOLECULE
NONAME
46 49 1 0 0 
SMALL
USER_CHARGES


@<TRIPOS>ATOM
  1 O       -0.4510     0.3470    -1.1410 O.2   1 <1>  -0.5700 
  2 C       -1.4150     0.8990    -0.6510 C.2   1 <1>   0.5440 
  3 N       -2.5120     0.1460    -0.3110 N.am  1 <1>  -0.6600 
  4 C       -1.3870     2.3200    -0.4130 C.ar  1 <1>   0.0860 
  5 C       -3.7030     0.6470     0.4230 C.3   1 <1>   0.1400 
  6 C       -2.5270    -1.3340    -0.3880 C.3   1 <1>   0.1400 
  7 C       -0.5790     2.8810     0.5790 C.ar  1 <1>   0.0000 
  8 C       -2.1540     3.2280    -1.1210 C.ar  1 <1>  -0.1500 
  9 C       -4.5400    -0.6000     0.7110 C.3   1 <1>   0.2000 
 10 C       -3.5610    -1.7700     0.6520 C.3   1 <1>  -0.0800 
 11 C       -0.6290     4.2360     0.7830 C.ar  1 <1>   0.3970 
 12 C        0.3530     2.4580     1.5430 C.2   1 <1>   0.1080 
 13 C       -2.1150     4.5930    -0.8270 C.ar  1 <1>   0.1660 
 14 O       -5.1380    -0.5370     1.9580 O.3   1 <1>  -0.6800 
 15 C       -4.2340    -3.1110     0.3270 C.3   1 <1>   0.0200 
 16 O        0.1930     4.5230     1.7780 O.3   1 <1>  -0.0190 
 17 N       -1.3730     5.1220     0.1190 N.ar  1 <1>  -0.5670 
 18 N        0.7850     3.4430     2.2360 N.2   1 <1>  -0.4100 
 19 C        0.8050     1.0260     1.7470 C.3   1 <1>  -0.0590 
 20 C       -2.9680     5.5590    -1.6230 C.3   1 <1>  -0.0970 
 21 C       -3.2020    -4.2160     0.2100 C.2   1 <1>  -0.0400 
 22 O       -2.4580    -4.5240     1.2380 O.3   1 <1>  -0.0190 
 23 C       -2.8480    -5.0120    -0.8100 C.2   1 <1>  -0.1500 
 24 N       -1.6200    -5.4800     0.9600 N.2   1 <1>  -0.4100 
 25 C       -1.8330    -5.7950    -0.2670 C.2   1 <1>   0.1080 
 26 C       -1.0760    -6.8720    -1.0120 C.3   1 <1>  -0.0590 
 27 H       -3.3880     1.1200     1.3370 H     1 <1>   0.0800 
 28 H       -4.2560     1.3410    -0.1860 H     1 <1>   0.0800 
 29 H       -2.8250    -1.6280    -1.3800 H     1 <1>   0.0800 
 30 H       -1.5550    -1.7480    -0.1720 H     1 <1>   0.0800 
 31 H       -2.7890     2.8700    -1.9120 H     1 <1>   0.1500 
 32 H       -5.3140    -0.6960    -0.0320 H     1 <1>   0.0800 
 33 H       -3.0440    -1.8510     1.5930 H     1 <1>   0.0800 
 34 H       -4.4640    -0.5510     2.6660 H     1 <1>   0.4000 
 35 H       -4.7800    -3.0370    -0.5970 H     1 <1>   0.0800 
 36 H       -4.9310    -3.3640     1.1070 H     1 <1>   0.0800 
 37 H       -0.0440     0.3880     1.9100 H     1 <1>   0.0800 
 38 H        1.4570     0.9620     2.5990 H     1 <1>   0.0800 
 39 H        1.3380     0.6850     0.8780 H     1 <1>   0.0800 
 40 H       -3.5390     5.0500    -2.3770 H     1 <1>   0.0800 
 41 H       -2.3350     6.2860    -2.1000 H     1 <1>   0.0800 
 42 H       -3.6420     6.0720    -0.9620 H     1 <1>   0.0800 
 43 H       -3.2270    -5.0620    -1.8130 H     1 <1>   0.1500 
 44 H       -1.7600    -7.6170    -1.3730 H     1 <1>   0.0800 
 45 H       -0.3650    -7.3410    -0.3560 H     1 <1>   0.0800 
 46 H       -0.5500    -6.4390    -1.8430 H     1 <1>   0.0800 
@<TRIPOS>BOND
  1   1   2  2   
  2   2   3  am  
  3   2   4  1   
  4   3   5  1   
  5   3   6  1   
  6   4   7  ar  
  7   4   8  ar  
  8   5   9  1   
  9   5  27  1   
 10   5  28  1   
 11   6  10  1   
 12   6  29  1   
 13   6  30  1   
 14   7  11  ar  
 15   7  12  1   
 16   8  13  ar  
 17   8  31  1   
 18   9  10  1   
 19   9  14  1   
 20   9  32  1   
 21  10  15  1   
 22  10  33  1   
 23  11  16  1   
 24  11  17  ar  
 25  12  18  2   
 26  12  19  1   
 27  13  17  ar  
 28  13  20  1   
 29  14  34  1   
 30  15  21  1   
 31  15  35  1   
 32  15  36  1   
 33  16  18  1   
 34  19  37  1   
 35  19  38  1   
 36  19  39  1   
 37  20  40  1   
 38  20  41  1   
 39  20  42  1   
 40  21  22  1   
 41  21  23  2   
 42  22  24  1   
 43  23  25  1   
 44  23  43  1   
 45  24  25  2   
 46  25  26  1   
 47  26  44  1   
 48  26  45  1   
 49  26  46  1   
@<TRIPOS>SUBSTRUCTURE
  1 ****   3 GROUP 4 **** **** 0

# MOE 2024.06 (io_trps.svl 2023.06)
