@<TRIPOS>MOLECULE
NONAME
54 56 1 0 0 
SMALL
USER_CHARGES


@<TRIPOS>ATOM
  1 S       -0.7200     0.1670    -2.0660 S.3   1 <1>  -0.0800 
  2 C       -0.9280    -1.5680    -1.8960 C.2   1 <1>  -0.1400 
  3 C        0.6670     0.1460    -0.9960 C.2   1 <1>  -0.1100 
  4 C        0.0180    -2.0760    -1.0840 C.2   1 <1>  -0.1500 
  5 C       -2.0790    -2.2150    -2.6310 C.3   1 <1>   0.5230 
  6 C        0.9310    -1.1020    -0.5590 C.2   1 <1>   0.0190 
  7 N       -3.2450    -2.1870    -1.7170 N.4   1 <1>  -0.9590 
  8 C        1.9810    -1.4780     0.3360 C.1   1 <1>  -0.0190 
  9 C       -4.1700    -3.3500    -1.9030 C.3   1 <1>   0.3430 
 10 C       -3.9410    -0.8730    -1.6500 C.3   1 <1>   0.3430 
 11 C        2.8510    -1.7860     1.0880 C.1   1 <1>  -0.2000 
 12 C       -5.1650    -3.4510    -0.7310 C.3   1 <1>   0.1400 
 13 C       -4.1090    -0.4660    -0.1800 C.3   1 <1>  -0.1600 
 14 C        3.9400    -2.1580     2.0290 C.3   1 <1>   0.3200 
 15 N       -4.6350    -2.7970     0.5160 N.am  1 <1>  -0.6600 
 16 C       -5.0350    -1.3660     0.6540 C.3   1 <1>   0.1400 
 17 O        5.1350    -1.8830     1.4030 O.3   1 <1>  -0.6800 
 18 C       -3.8510    -3.4020     1.4740 C.2   1 <1>   0.5690 
 19 O       -3.6670    -2.8780     2.5440 O.2   1 <1>  -0.5700 
 20 C       -3.1220    -4.7140     1.1750 C.3   1 <1>  -0.0190 
 21 C       -4.0780    -5.9130     1.3100 C.3   1 <1>   0.0960 
 22 C       -1.8540    -4.9310     2.0270 C.3   1 <1>  -0.2400 
 23 N       -3.8790    -6.8610     0.1930 N.pl3 1 <1>   0.3140 
 24 N       -4.0250    -6.4950    -1.1040 N.2   1 <1>  -0.7070 
 25 C       -3.5460    -8.1610     0.2960 C.2   1 <1>  -0.3020 
 26 C       -3.7870    -7.5810    -1.7790 C.2   1 <1>   0.1390 
 27 C       -3.4790    -8.6560    -0.9570 C.2   1 <1>  -0.1500 
 28 H        1.1580     1.0810    -0.7930 H     1 <1>   0.1500 
 29 H        0.1330    -3.1110    -0.8080 H     1 <1>   0.1500 
 30 H       -1.8150    -3.2360    -2.8550 H     1 <1>   0.0800 
 31 H       -2.2900    -1.6980    -3.5530 H     1 <1>   0.0800 
 32 H       -2.8590    -2.3070    -0.7680 H     1 <1>   0.4500 
 33 H       -3.5980    -4.2630    -1.9370 H     1 <1>   0.0800 
 34 H       -4.7090    -3.2700    -2.8330 H     1 <1>   0.0800 
 35 H       -4.9020    -0.9280    -2.1340 H     1 <1>   0.0800 
 36 H       -3.3560    -0.1190    -2.1520 H     1 <1>   0.0800 
 37 H       -5.4180    -4.4770    -0.5500 H     1 <1>   0.0800 
 38 H       -6.0840    -2.9720    -1.0200 H     1 <1>   0.0800 
 39 H       -4.5120     0.5310    -0.1520 H     1 <1>   0.0800 
 40 H       -3.1430    -0.4160     0.2940 H     1 <1>   0.0800 
 41 H        3.9080    -3.2090     2.2580 H     1 <1>   0.0800 
 42 H        3.8900    -1.5820     2.9380 H     1 <1>   0.0800 
 43 H       -6.0580    -1.2440     0.3380 H     1 <1>   0.0800 
 44 H       -4.9880    -1.0630     1.6880 H     1 <1>   0.0800 
 45 H        5.0560    -2.1140     0.4580 H     1 <1>   0.4000 
 46 H       -2.7800    -4.6380     0.1620 H     1 <1>   0.0800 
 47 H       -5.1020    -5.5900     1.2860 H     1 <1>   0.0800 
 48 H       -3.9190    -6.4230     2.2420 H     1 <1>   0.0800 
 49 H       -2.1080    -5.0090     3.0710 H     1 <1>   0.0800 
 50 H       -1.1800    -4.1010     1.9100 H     1 <1>   0.0800 
 51 H       -1.3450    -5.8310     1.7280 H     1 <1>   0.0800 
 52 H       -3.3810    -8.6580     1.2350 H     1 <1>   0.1500 
 53 H       -3.8260    -7.6410    -2.8550 H     1 <1>   0.1500 
 54 H       -3.2450    -9.6560    -1.2780 H     1 <1>   0.1500 
@<TRIPOS>BOND
  1   1   2  1   
  2   1   3  1   
  3   2   4  2   
  4   2   5  1   
  5   3   6  2   
  6   3  28  1   
  7   4   6  1   
  8   4  29  1   
  9   5   7  1   
 10   5  30  1   
 11   5  31  1   
 12   6   8  1   
 13   7   9  1   
 14   7  10  1   
 15   7  32  1   
 16   8  11  3   
 17   9  12  1   
 18   9  33  1   
 19   9  34  1   
 20  10  13  1   
 21  10  35  1   
 22  10  36  1   
 23  11  14  1   
 24  12  15  1   
 25  12  37  1   
 26  12  38  1   
 27  13  16  1   
 28  13  39  1   
 29  13  40  1   
 30  14  17  1   
 31  14  41  1   
 32  14  42  1   
 33  15  16  1   
 34  15  18  am  
 35  16  43  1   
 36  16  44  1   
 37  17  45  1   
 38  18  19  2   
 39  18  20  1   
 40  20  21  1   
 41  20  22  1   
 42  20  46  1   
 43  21  23  1   
 44  21  47  1   
 45  21  48  1   
 46  22  49  1   
 47  22  50  1   
 48  22  51  1   
 49  23  24  1   
 50  23  25  1   
 51  24  26  2   
 52  25  27  2   
 53  25  52  1   
 54  26  27  1   
 55  26  53  1   
 56  27  54  1   
@<TRIPOS>SUBSTRUCTURE
  1 ****   7 GROUP 4 **** **** 0

# MOE 2024.06 (io_trps.svl 2023.06)
