@<TRIPOS>MOLECULE
NONAME
53 55 1 0 0 
SMALL
USER_CHARGES


@<TRIPOS>ATOM
  1 O       -1.7810     0.4700     2.6550 O.2   1 <1>  -0.5700 
  2 C       -1.7950     0.6630     1.4610 C.2   1 <1>   0.5690 
  3 N       -1.8310    -0.3930     0.5760 N.am  1 <1>  -0.6600 
  4 C       -1.7900     2.1370     1.0280 C.3   1 <1>  -0.0190 
  5 C       -1.9790    -1.7850     1.0960 C.3   1 <1>   0.2840 
  6 C       -1.8710    -0.3050    -0.9130 C.3   1 <1>   0.0600 
  7 C       -3.0660     2.5640     0.2700 C.3   1 <1>  -0.1600 
  8 C       -0.4800     2.5690     0.3220 C.3   1 <1>  -0.1600 
  9 C       -3.4160    -2.2610     0.8980 C.ar  1 <1>  -0.1440 
 10 C       -3.1210     4.0870     0.0270 C.3   1 <1>   0.2000 
 11 C       -0.6680     3.7620    -0.6320 C.3   1 <1>  -0.1600 
 12 C       -3.8090    -3.0970    -0.1810 C.ar  1 <1>   0.0000 
 13 C       -4.3390    -1.8380     1.8180 C.ar  1 <1>  -0.1500 
 14 O       -3.8340     4.3130    -1.1650 O.3   1 <1>  -0.5600 
 15 C       -1.7140     4.7380    -0.0880 C.3   1 <1>   0.2000 
 16 C       -5.1710    -3.4770    -0.2830 C.ar  1 <1>   0.0000 
 17 C       -2.9170    -3.5790    -1.1720 C.ar  1 <1>  -0.1500 
 18 C       -5.6770    -2.2150     1.7220 C.ar  1 <1>  -0.1500 
 19 C       -5.2220     4.2460    -1.0480 C.3   1 <1>   0.0400 
 20 O       -1.7800     5.8140    -0.9480 O.3   1 <1>  -0.6800 
 21 C       -6.0960    -3.0210     0.6920 C.ar  1 <1>   0.0820 
 22 C       -5.5650    -4.3050    -1.3590 C.ar  1 <1>  -0.1500 
 23 C       -3.3330    -4.3780    -2.1990 C.ar  1 <1>  -0.1500 
 24 O       -7.3890    -3.4150     0.5540 O.3   1 <1>  -0.3620 
 25 C       -4.6750    -4.7470    -2.2960 C.ar  1 <1>  -0.1500 
 26 C       -8.3890    -3.0570     1.4820 C.3   1 <1>   0.0400 
 27 H       -1.8170     2.6980     1.9470 H     1 <1>   0.0800 
 28 H       -1.2680    -2.4310     0.6190 H     1 <1>   0.0800 
 29 H       -1.7490    -1.8190     2.1470 H     1 <1>   0.0800 
 30 H       -1.1920    -1.0220    -1.3380 H     1 <1>   0.0800 
 31 H       -1.5860     0.6660    -1.2670 H     1 <1>   0.0800 
 32 H       -2.8670    -0.5200    -1.2610 H     1 <1>   0.0800 
 33 H       -3.9270     2.2670     0.8410 H     1 <1>   0.0800 
 34 H       -3.1100     2.0660    -0.6790 H     1 <1>   0.0800 
 35 H        0.2320     2.8390     1.0840 H     1 <1>   0.0800 
 36 H       -0.0430     1.7520    -0.2230 H     1 <1>   0.0800 
 37 H       -3.6380     4.5730     0.8380 H     1 <1>   0.0800 
 38 H       -0.9970     3.4020    -1.5920 H     1 <1>   0.0800 
 39 H        0.2720     4.2690    -0.7640 H     1 <1>   0.0800 
 40 H       -4.0420    -1.1990     2.6340 H     1 <1>   0.1500 
 41 H       -1.3930     5.1020     0.8720 H     1 <1>   0.0800 
 42 H       -1.8800    -3.3180    -1.1300 H     1 <1>   0.1500 
 43 H       -6.3480    -1.8510     2.4760 H     1 <1>   0.1500 
 44 H       -5.6490     4.4530    -2.0130 H     1 <1>   0.0800 
 45 H       -5.5560     4.9850    -0.3400 H     1 <1>   0.0800 
 46 H       -5.5110     3.2590    -0.7320 H     1 <1>   0.0800 
 47 H       -2.5280     5.6190    -1.5590 H     1 <1>   0.4000 
 48 H       -6.5980    -4.5910    -1.4350 H     1 <1>   0.1500 
 49 H       -2.6400    -4.7340    -2.9420 H     1 <1>   0.1500 
 50 H       -4.9930    -5.3770    -3.1080 H     1 <1>   0.1500 
 51 H       -9.3150    -3.5010     1.1620 H     1 <1>   0.0800 
 52 H       -8.4830    -1.9850     1.4960 H     1 <1>   0.0800 
 53 H       -8.1180    -3.4350     2.4510 H     1 <1>   0.0800 
@<TRIPOS>BOND
  1   1   2  2   
  2   2   3  am  
  3   2   4  1   
  4   3   5  1   
  5   3   6  1   
  6   4   7  1   
  7   4   8  1   
  8   4  27  1   
  9   5   9  1   
 10   5  28  1   
 11   5  29  1   
 12   6  30  1   
 13   6  31  1   
 14   6  32  1   
 15   7  10  1   
 16   7  33  1   
 17   7  34  1   
 18   8  11  1   
 19   8  35  1   
 20   8  36  1   
 21   9  12  ar  
 22   9  13  ar  
 23  10  14  1   
 24  10  15  1   
 25  10  37  1   
 26  11  15  1   
 27  11  38  1   
 28  11  39  1   
 29  12  16  ar  
 30  12  17  ar  
 31  13  18  ar  
 32  13  40  1   
 33  14  19  1   
 34  15  20  1   
 35  15  41  1   
 36  16  21  ar  
 37  16  22  ar  
 38  17  23  ar  
 39  17  42  1   
 40  18  21  ar  
 41  18  43  1   
 42  19  44  1   
 43  19  45  1   
 44  19  46  1   
 45  20  47  1   
 46  21  24  1   
 47  22  25  ar  
 48  22  48  1   
 49  23  25  ar  
 50  23  49  1   
 51  24  26  1   
 52  25  50  1   
 53  26  51  1   
 54  26  52  1   
 55  26  53  1   
@<TRIPOS>SUBSTRUCTURE
  1 ****   3 GROUP 4 **** **** 0

# MOE 2024.06 (io_trps.svl 2023.06)
