@<TRIPOS>MOLECULE
NONAME
52 55 1 0 0 
SMALL
USER_CHARGES


@<TRIPOS>ATOM
  1 O        0.4480    -0.4010     2.2040 O.3   1 <1>  -0.6800 
  2 C        1.1150    -0.6490     1.0170 C.3   1 <1>   0.1200 
  3 C        2.5700    -0.1870     1.1920 C.3   1 <1>   0.3430 
  4 N        3.4340    -0.5150     0.0120 N.4   1 <1>  -0.9590 
  5 C        3.6420    -1.9760    -0.1750 C.3   1 <1>   0.5230 
  6 C        4.7160     0.2310    -0.0210 C.3   1 <1>   0.4380 
  7 C        2.7300    -2.4200    -1.3130 C.2   1 <1>   0.0070 
  8 C        4.4560     1.7300    -0.1610 C.3   1 <1>  -0.1950 
  9 N        2.0120    -1.5920    -2.0120 N.2   1 <1>  -0.5650 
 10 N        2.5870    -3.7120    -1.6960 N.pl3 1 <1>   0.0330 
 11 C        5.5480     2.6940     0.2000 C.3   1 <1>   0.0640 
 12 C        4.2930     2.6170     1.0300 C.3   1 <1>  -0.2000 
 13 C        1.3700    -2.3830    -2.8930 C.2   1 <1>   0.0770 
 14 C        1.7090    -3.6770    -2.7120 C.2   1 <1>  -0.3020 
 15 C        5.7480     3.9610    -0.6190 C.ar  1 <1>  -0.0320 
 16 C        6.8580     2.0990     0.7040 C.ar  1 <1>  -0.0320 
 17 C        5.9260     5.1740     0.0280 C.ar  1 <1>  -0.1500 
 18 C        5.7640     3.9260    -2.0060 C.ar  1 <1>  -0.1500 
 19 C        7.1850     2.1110     2.0520 C.ar  1 <1>  -0.1500 
 20 C        7.7410     1.5250    -0.1990 C.ar  1 <1>  -0.1500 
 21 C        6.1080     6.3380    -0.6980 C.ar  1 <1>  -0.1500 
 22 C        5.9460     5.0880    -2.7350 C.ar  1 <1>  -0.1500 
 23 C        8.3640     1.5360     2.4930 C.ar  1 <1>  -0.1500 
 24 C        8.9210     0.9510     0.2390 C.ar  1 <1>  -0.1500 
 25 C        6.1170     6.2950    -2.0810 C.ar  1 <1>  -0.1500 
 26 C        9.2310     0.9520     1.5870 C.ar  1 <1>  -0.1500 
 27 H       -0.5070    -0.6150     2.1310 H     1 <1>   0.4000 
 28 H        0.6290    -0.0940     0.2320 H     1 <1>   0.0800 
 29 H        1.0490    -1.7050     0.8200 H     1 <1>   0.0800 
 30 H        2.9790    -0.6420     2.0790 H     1 <1>   0.0800 
 31 H        2.5500     0.8790     1.3400 H     1 <1>   0.0800 
 32 H        2.8990    -0.2620    -0.8420 H     1 <1>   0.4500 
 33 H        3.4040    -2.5110     0.7290 H     1 <1>   0.0800 
 34 H        4.6650    -2.1790    -0.4450 H     1 <1>   0.0800 
 35 H        5.3060    -0.0950    -0.8630 H     1 <1>   0.0800 
 36 H        5.2810     0.0430     0.8790 H     1 <1>   0.0800 
 37 H        3.8940     1.9680    -1.0480 H     1 <1>   0.1000 
 38 H        3.0360    -4.5540    -1.3180 H     1 <1>   0.2700 
 39 H        4.3530     2.2060     2.0220 H     1 <1>   0.1000 
 40 H        3.6000     3.4390     0.9730 H     1 <1>   0.1000 
 41 H        0.6870    -1.9790    -3.6250 H     1 <1>   0.1500 
 42 H        1.3780    -4.5520    -3.2450 H     1 <1>   0.1500 
 43 H        5.9250     5.2120     1.1030 H     1 <1>   0.1500 
 44 H        5.6360     2.9950    -2.5280 H     1 <1>   0.1500 
 45 H        6.5300     2.5750     2.7680 H     1 <1>   0.1500 
 46 H        7.5170     1.5340    -1.2510 H     1 <1>   0.1500 
 47 H        6.2450     7.2750    -0.1870 H     1 <1>   0.1500 
 48 H        5.9560     5.0570    -3.8110 H     1 <1>   0.1500 
 49 H        8.6120     1.5490     3.5410 H     1 <1>   0.1500 
 50 H        9.6050     0.5110    -0.4680 H     1 <1>   0.1500 
 51 H        6.2590     7.2000    -2.6460 H     1 <1>   0.1500 
 52 H       10.1510     0.5090     1.9300 H     1 <1>   0.1500 
@<TRIPOS>BOND
  1   1   2  1   
  2   1  27  1   
  3   2   3  1   
  4   2  28  1   
  5   2  29  1   
  6   3   4  1   
  7   3  30  1   
  8   3  31  1   
  9   4   5  1   
 10   4   6  1   
 11   4  32  1   
 12   5   7  1   
 13   5  33  1   
 14   5  34  1   
 15   6   8  1   
 16   6  35  1   
 17   6  36  1   
 18   7   9  2   
 19   7  10  1   
 20   8  11  1   
 21   8  12  1   
 22   8  37  1   
 23   9  13  1   
 24  10  14  1   
 25  10  38  1   
 26  11  12  1   
 27  11  15  1   
 28  11  16  1   
 29  12  39  1   
 30  12  40  1   
 31  13  14  2   
 32  13  41  1   
 33  14  42  1   
 34  15  17  ar  
 35  15  18  ar  
 36  16  19  ar  
 37  16  20  ar  
 38  17  21  ar  
 39  17  43  1   
 40  18  22  ar  
 41  18  44  1   
 42  19  23  ar  
 43  19  45  1   
 44  20  24  ar  
 45  20  46  1   
 46  21  25  ar  
 47  21  47  1   
 48  22  25  ar  
 49  22  48  1   
 50  23  26  ar  
 51  23  49  1   
 52  24  26  ar  
 53  24  50  1   
 54  25  51  1   
 55  26  52  1   
@<TRIPOS>SUBSTRUCTURE
  1 ****   8 GROUP 4 **** **** 0

# MOE 2024.06 (io_trps.svl 2023.06)
