@<TRIPOS>MOLECULE
NONAME
51 53 1 0 0 
SMALL
USER_CHARGES


@<TRIPOS>ATOM
  1 O        0.3230    -0.9100     0.3910 O.3   1 <1>  -0.5600 
  2 C        1.3420    -1.7620    -0.0340 C.3   1 <1>   0.1200 
  3 C       -0.9650    -1.3790     0.1150 C.3   1 <1>   0.1200 
  4 C        1.2310    -3.1280     0.6720 C.3   1 <1>   0.2090 
  5 C       -1.2120    -2.7250     0.8200 C.3   1 <1>   0.2090 
  6 N       -0.1360    -3.7310     0.4810 N.pl3 1 <1>  -0.8380 
  7 C       -0.4390    -4.9870     0.0540 C.ar  1 <1>   0.7710 
  8 N       -1.7050    -5.3090    -0.1810 N.ar  1 <1>  -0.6200 
  9 N        0.5530    -5.8810    -0.1150 N.ar  1 <1>  -0.1790 
 10 C       -1.9710    -6.5240    -0.5980 C.ar  1 <1>   0.4100 
 11 C        0.3210    -7.1490    -0.5350 C.ar  1 <1>   0.2180 
 12 N       -3.2710    -6.7680    -0.8210 N.pl3 1 <1>  -0.8690 
 13 C       -0.9650    -7.4890    -0.7850 C.ar  1 <1>  -0.1500 
 14 C        1.4960    -8.1060    -0.6960 C.3   1 <1>  -0.0170 
 15 C       -3.9450    -7.9980    -1.3320 C.3   1 <1>   0.2090 
 16 C        2.1810    -8.4080     0.6430 C.3   1 <1>  -0.2400 
 17 C       -4.4650    -8.8710    -0.1800 C.3   1 <1>   0.2000 
 18 O       -4.9250   -10.0800    -0.7480 O.3   1 <1>  -0.3630 
 19 C       -5.6240    -8.2130     0.5810 C.3   1 <1>  -0.2400 
 20 C       -4.9720   -11.2530    -0.0610 C.ar  1 <1>   0.0830 
 21 C       -5.3660   -12.3890    -0.7590 C.ar  1 <1>   0.1600 
 22 C       -4.6480   -11.3840     1.2820 C.ar  1 <1>  -0.1500 
 23 N       -5.4560   -13.6090    -0.2510 N.ar  1 <1>  -0.6200 
 24 C       -4.7380   -12.6480     1.8260 C.ar  1 <1>  -0.1500 
 25 C       -5.1390   -13.7090     1.0300 C.ar  1 <1>   0.1600 
 26 H        2.2800    -1.2920     0.2080 H     1 <1>   0.0800 
 27 H        1.2760    -1.8720    -1.1030 H     1 <1>   0.0800 
 28 H       -1.0790    -1.4800    -0.9510 H     1 <1>   0.0800 
 29 H       -1.6650    -0.6420     0.4680 H     1 <1>   0.0800 
 30 H        1.4100    -2.9800     1.7250 H     1 <1>   0.0800 
 31 H        2.0050    -3.7660     0.2900 H     1 <1>   0.0800 
 32 H       -2.1930    -3.0720     0.5460 H     1 <1>   0.0800 
 33 H       -1.2190    -2.5580     1.8830 H     1 <1>   0.0800 
 34 H        1.4820    -5.5630     0.1200 H     1 <1>   0.4570 
 35 H       -3.9090    -5.9880    -0.6300 H     1 <1>   0.4000 
 36 H       -1.2350    -8.4730    -1.1170 H     1 <1>   0.1500 
 37 H        2.2110    -7.6920    -1.3870 H     1 <1>   0.0800 
 38 H        1.1450    -9.0330    -1.1190 H     1 <1>   0.0800 
 39 H       -3.2580    -8.5700    -1.9300 H     1 <1>   0.0800 
 40 H       -4.7690    -7.7080    -1.9620 H     1 <1>   0.0800 
 41 H        2.6140    -7.5240     1.0760 H     1 <1>   0.0800 
 42 H        2.9700    -9.1260     0.4930 H     1 <1>   0.0800 
 43 H        1.4770    -8.8290     1.3410 H     1 <1>   0.0800 
 44 H       -3.6400    -9.0940     0.4730 H     1 <1>   0.0800 
 45 H       -6.4310    -7.9840    -0.0920 H     1 <1>   0.0800 
 46 H       -5.2920    -7.3000     1.0410 H     1 <1>   0.0800 
 47 H       -5.9890    -8.8620     1.3550 H     1 <1>   0.0800 
 48 H       -5.6200   -12.2740    -1.7980 H     1 <1>   0.1500 
 49 H       -4.3430   -10.5580     1.8960 H     1 <1>   0.1500 
 50 H       -4.5010   -12.8150     2.8610 H     1 <1>   0.1500 
 51 H       -5.2040   -14.6890     1.4700 H     1 <1>   0.1500 
@<TRIPOS>BOND
  1   1   2  1   
  2   1   3  1   
  3   2   4  1   
  4   2  26  1   
  5   2  27  1   
  6   3   5  1   
  7   3  28  1   
  8   3  29  1   
  9   4   6  1   
 10   4  30  1   
 11   4  31  1   
 12   5   6  1   
 13   5  32  1   
 14   5  33  1   
 15   6   7  1   
 16   7   8  ar  
 17   7   9  ar  
 18   8  10  ar  
 19   9  11  ar  
 20   9  34  1   
 21  10  12  1   
 22  10  13  ar  
 23  11  13  ar  
 24  11  14  1   
 25  12  15  1   
 26  12  35  1   
 27  13  36  1   
 28  14  16  1   
 29  14  37  1   
 30  14  38  1   
 31  15  17  1   
 32  15  39  1   
 33  15  40  1   
 34  16  41  1   
 35  16  42  1   
 36  16  43  1   
 37  17  18  1   
 38  17  19  1   
 39  17  44  1   
 40  18  20  1   
 41  19  45  1   
 42  19  46  1   
 43  19  47  1   
 44  20  21  ar  
 45  20  22  ar  
 46  21  23  ar  
 47  21  48  1   
 48  22  24  ar  
 49  22  49  1   
 50  23  25  ar  
 51  24  25  ar  
 52  24  50  1   
 53  25  51  1   
@<TRIPOS>SUBSTRUCTURE
  1 ****  10 GROUP 4 **** **** 0

# MOE 2024.06 (io_trps.svl 2023.06)
