@<TRIPOS>MOLECULE
NONAME
32 33 1 0 0 
SMALL
USER_CHARGES


@<TRIPOS>ATOM
  1 S        0.5840     0.5390     0.5520 S.3   1 <1>  -0.0800 
  2 C        1.1480    -0.9150    -0.2310 C.2   1 <1>  -0.1400 
  3 C        0.9750     1.4380    -0.8980 C.2   1 <1>   0.2280 
  4 C        1.5700    -0.5990    -1.4650 C.2   1 <1>   0.0770 
  5 C        1.1060    -2.2130     0.5430 C.3   1 <1>   0.5230 
  6 N        1.4630     0.7300    -1.8360 N.2   1 <1>  -0.5650 
  7 N       -0.1730    -2.9250     0.2830 N.4   1 <1>  -0.9590 
  8 C       -0.1630    -4.3270     0.8020 C.3   1 <1>   0.3430 
  9 C       -1.3880    -2.1880     0.7420 C.3   1 <1>   0.3430 
 10 C       -1.3500    -5.0940     0.1910 C.3   1 <1>   0.2000 
 11 C       -2.6500    -2.9100     0.2580 C.3   1 <1>  -0.1600 
 12 O       -1.2140    -5.0260    -1.1950 O.3   1 <1>  -0.6800 
 13 C       -2.6670    -4.4160     0.6180 C.3   1 <1>  -0.0800 
 14 C       -3.8990    -5.1310     0.0420 C.3   1 <1>   0.1200 
 15 O       -5.0280    -4.5670     0.6070 O.3   1 <1>  -0.6800 
 16 H        0.7800     2.4980    -0.8920 H     1 <1>   0.1500 
 17 H        1.9860    -1.2770    -2.1940 H     1 <1>   0.1500 
 18 H        1.2230    -2.0150     1.5960 H     1 <1>   0.0800 
 19 H        1.9290    -2.8310     0.2220 H     1 <1>   0.0800 
 20 H       -0.2770    -3.0390    -0.7400 H     1 <1>   0.4500 
 21 H        0.7500    -4.8260     0.5220 H     1 <1>   0.0800 
 22 H       -0.2410    -4.3290     1.8770 H     1 <1>   0.0800 
 23 H       -1.3960    -2.1260     1.8180 H     1 <1>   0.0800 
 24 H       -1.3900    -1.1860     0.3440 H     1 <1>   0.0800 
 25 H       -1.3250    -6.1290     0.4900 H     1 <1>   0.0800 
 26 H       -3.5060    -2.4270     0.6970 H     1 <1>   0.0800 
 27 H       -2.7340    -2.7870    -0.8080 H     1 <1>   0.0800 
 28 H       -1.8520    -5.6200    -1.6450 H     1 <1>   0.4000 
 29 H       -2.7310    -4.5040     1.6900 H     1 <1>   0.0800 
 30 H       -3.8920    -6.1790     0.2900 H     1 <1>   0.0800 
 31 H       -3.9620    -5.0100    -1.0270 H     1 <1>   0.0800 
 32 H       -5.8440    -4.9960     0.2780 H     1 <1>   0.4000 
@<TRIPOS>BOND
  1   1   2  1   
  2   1   3  1   
  3   2   4  2   
  4   2   5  1   
  5   3   6  2   
  6   3  16  1   
  7   4   6  1   
  8   4  17  1   
  9   5   7  1   
 10   5  18  1   
 11   5  19  1   
 12   7   8  1   
 13   7   9  1   
 14   7  20  1   
 15   8  10  1   
 16   8  21  1   
 17   8  22  1   
 18   9  11  1   
 19   9  23  1   
 20   9  24  1   
 21  10  12  1   
 22  10  13  1   
 23  10  25  1   
 24  11  13  1   
 25  11  26  1   
 26  11  27  1   
 27  12  28  1   
 28  13  14  1   
 29  13  29  1   
 30  14  15  1   
 31  14  30  1   
 32  14  31  1   
 33  15  32  1   
@<TRIPOS>SUBSTRUCTURE
  1 ****   7 GROUP 4 **** **** 0

# MOE 2024.06 (io_trps.svl 2023.06)
