@<TRIPOS>MOLECULE
NONAME
43 45 1 0 0 
SMALL
USER_CHARGES


@<TRIPOS>ATOM
  1 O       -0.6120    -0.2420     1.0390 O.2   1 <1>  -0.5700 
  2 C       -1.3970     0.5380     0.5680 C.2   1 <1>   0.5690 
  3 N       -2.6950     0.2060     0.3740 N.am  1 <1>  -0.5470 
  4 C       -0.9550     1.9290     0.1760 C.3   1 <1>  -0.0990 
  5 C       -3.6700     1.0820    -0.1070 C.ar  1 <1>   0.1170 
  6 C       -2.0770     2.9450     0.4630 C.3   1 <1>   0.1250 
  7 C       -3.4120     2.4530    -0.1230 C.ar  1 <1>  -0.1430 
  8 C       -4.8820     0.5980    -0.5790 C.ar  1 <1>  -0.1500 
  9 C       -1.6870     4.3580     0.0270 C.2   1 <1>   0.5690 
 10 C       -4.3700     3.3160    -0.6390 C.ar  1 <1>  -0.1500 
 11 C       -5.8320     1.4660    -1.0820 C.ar  1 <1>  -0.1500 
 12 O       -1.0480     4.5130    -0.9870 O.2   1 <1>  -0.5700 
 13 N       -2.0930     5.4040     0.8150 N.am  1 <1>  -0.4940 
 14 C       -5.5730     2.8240    -1.1160 C.ar  1 <1>  -0.1500 
 15 C       -1.9530     6.8020     0.6330 C.2   1 <1>  -0.0880 
 16 N       -0.8900     7.4920     0.1210 N.pl3 1 <1>   0.3140 
 17 C       -2.8850     7.7280     0.9580 C.2   1 <1>  -0.1500 
 18 N       -1.1440     8.8260     0.1080 N.2   1 <1>  -0.7070 
 19 C        0.4210     6.9490    -0.3200 C.3   1 <1>   0.0960 
 20 C       -2.3300     8.9500     0.6070 C.2   1 <1>   0.1080 
 21 C        1.5980     7.8940    -0.0220 C.3   1 <1>  -0.1600 
 22 C       -2.9960    10.2960     0.7690 C.3   1 <1>  -0.0590 
 23 C        2.9380     7.2560    -0.4080 C.3   1 <1>  -0.2400 
 24 H       -2.9380    -0.7640     0.5770 H     1 <1>   0.3700 
 25 H       -0.7240     1.9210    -0.8740 H     1 <1>   0.0800 
 26 H       -0.0650     2.1910     0.7180 H     1 <1>   0.0800 
 27 H       -2.2040     2.9660     1.5310 H     1 <1>   0.0800 
 28 H       -5.0800    -0.4580    -0.5600 H     1 <1>   0.1500 
 29 H       -4.2060     4.3790    -0.6850 H     1 <1>   0.1500 
 30 H       -6.7700     1.0870    -1.4510 H     1 <1>   0.1500 
 31 H       -2.7210     5.1510     1.5790 H     1 <1>   0.3700 
 32 H       -6.3100     3.5010    -1.5160 H     1 <1>   0.1500 
 33 H       -3.8560     7.5810     1.3900 H     1 <1>   0.1500 
 34 H        0.3600     6.7550    -1.3750 H     1 <1>   0.0800 
 35 H        0.5860     6.0190     0.1890 H     1 <1>   0.0800 
 36 H        1.6060     8.1330     1.0270 H     1 <1>   0.0800 
 37 H        1.4710     8.8080    -0.5770 H     1 <1>   0.0800 
 38 H       -3.9720    10.1850     1.2030 H     1 <1>   0.0800 
 39 H       -3.0870    10.7670    -0.1920 H     1 <1>   0.0800 
 40 H       -2.3940    10.9180     1.4060 H     1 <1>   0.0800 
 41 H        3.1010     6.3510     0.1510 H     1 <1>   0.0800 
 42 H        3.7430     7.9390    -0.1970 H     1 <1>   0.0800 
 43 H        2.9540     7.0240    -1.4590 H     1 <1>   0.0800 
@<TRIPOS>BOND
  1   1   2  2   
  2   2   3  am  
  3   2   4  1   
  4   3   5  1   
  5   3  24  1   
  6   4   6  1   
  7   4  25  1   
  8   4  26  1   
  9   5   7  ar  
 10   5   8  ar  
 11   6   7  1   
 12   6   9  1   
 13   6  27  1   
 14   7  10  ar  
 15   8  11  ar  
 16   8  28  1   
 17   9  12  2   
 18   9  13  am  
 19  10  14  ar  
 20  10  29  1   
 21  11  14  ar  
 22  11  30  1   
 23  13  15  1   
 24  13  31  1   
 25  14  32  1   
 26  15  16  1   
 27  15  17  2   
 28  16  18  1   
 29  16  19  1   
 30  17  20  1   
 31  17  33  1   
 32  18  20  2   
 33  19  21  1   
 34  19  34  1   
 35  19  35  1   
 36  20  22  1   
 37  21  23  1   
 38  21  36  1   
 39  21  37  1   
 40  22  38  1   
 41  22  39  1   
 42  22  40  1   
 43  23  41  1   
 44  23  42  1   
 45  23  43  1   
@<TRIPOS>SUBSTRUCTURE
  1 ****   9 GROUP 4 **** **** 0

# MOE 2024.06 (io_trps.svl 2023.06)
