@<TRIPOS>MOLECULE
NONAME
45 46 1 0 0 
SMALL
USER_CHARGES


@<TRIPOS>ATOM
  1 O       -0.9940     0.4580     0.9370 O.2   1 <1>  -0.5700 
  2 C        0.0180    -0.1510     1.1940 C.2   1 <1>   0.5690 
  3 N        1.2790     0.3310     0.9720 N.am  1 <1>  -0.4940 
  4 C       -0.1020    -1.5720     1.7450 C.3   1 <1>   0.2610 
  5 C        1.7860     1.4780     0.3180 C.2   1 <1>  -0.0880 
  6 O        1.1090    -1.9180     2.4070 O.3   1 <1>  -0.2170 
  7 C       -0.1880    -2.6080     0.6250 C.3   1 <1>  -0.0990 
  8 N        1.2190     2.7100     0.2020 N.pl3 1 <1>   0.3140 
  9 C        2.9840     1.5460    -0.3110 C.2   1 <1>  -0.1810 
 10 N        1.8610    -2.7040     1.6610 N.2   1 <1>  -0.5130 
 11 C        1.2190    -3.1280     0.6680 C.2   1 <1>   0.3280 
 12 N        2.0200     3.5540    -0.4850 N.2   1 <1>  -0.7070 
 13 C       -0.0360     3.2060     0.7790 C.3   1 <1>   0.0160 
 14 C        3.0670     2.8540    -0.7880 C.2   1 <1>   0.1080 
 15 C        4.0010     0.4250    -0.4620 C.3   1 <1>   0.0210 
 16 C        1.7130    -4.0580    -0.4440 C.3   1 <1>  -0.0190 
 17 C        4.2140     3.4550    -1.5810 C.3   1 <1>   0.0210 
 18 C        4.7500     0.1810     0.8510 C.3   1 <1>  -0.2400 
 19 C        1.0400    -5.4350    -0.3520 C.3   1 <1>  -0.2400 
 20 C        3.2410    -4.2280    -0.4220 C.3   1 <1>  -0.2400 
 21 C        5.3540     3.9090    -0.6630 C.3   1 <1>  -0.2400 
 22 H        2.0030    -0.3420     1.2540 H     1 <1>   0.3700 
 23 H       -0.9150    -1.6460     2.4430 H     1 <1>   0.0800 
 24 H       -0.4340    -2.1610    -0.3220 H     1 <1>   0.0800 
 25 H       -0.8920    -3.3800     0.8700 H     1 <1>   0.0800 
 26 H       -0.1590     2.8000     1.7640 H     1 <1>   0.0800 
 27 H       -0.8520     2.9040     0.1510 H     1 <1>   0.0800 
 28 H        0.0000     4.2780     0.8320 H     1 <1>   0.0800 
 29 H        4.7050     0.6660    -1.2370 H     1 <1>   0.0800 
 30 H        3.4910    -0.4760    -0.7550 H     1 <1>   0.0800 
 31 H        1.4490    -3.6110    -1.3870 H     1 <1>   0.0800 
 32 H        3.8420     4.3020    -2.1300 H     1 <1>   0.0800 
 33 H        4.5760     2.7390    -2.2950 H     1 <1>   0.0800 
 34 H        5.2480     1.0790     1.1680 H     1 <1>   0.0800 
 35 H        5.4840    -0.5940     0.7190 H     1 <1>   0.0800 
 36 H        4.0680    -0.1230     1.6240 H     1 <1>   0.0800 
 37 H        1.2650    -5.8980     0.5930 H     1 <1>   0.0800 
 38 H        1.3930    -6.0780    -1.1400 H     1 <1>   0.0800 
 39 H       -0.0270    -5.3450    -0.4460 H     1 <1>   0.0800 
 40 H        3.5550    -4.6850     0.5010 H     1 <1>   0.0800 
 41 H        3.7220    -3.2700    -0.5060 H     1 <1>   0.0800 
 42 H        3.5650    -4.8460    -1.2400 H     1 <1>   0.0800 
 43 H        4.9810     4.6240     0.0480 H     1 <1>   0.0800 
 44 H        6.1350     4.3670    -1.2410 H     1 <1>   0.0800 
 45 H        5.7600     3.0700    -0.1290 H     1 <1>   0.0800 
@<TRIPOS>BOND
  1   1   2  2   
  2   2   3  am  
  3   2   4  1   
  4   3   5  1   
  5   3  22  1   
  6   4   6  1   
  7   4   7  1   
  8   4  23  1   
  9   5   8  1   
 10   5   9  2   
 11   6  10  1   
 12   7  11  1   
 13   7  24  1   
 14   7  25  1   
 15   8  12  1   
 16   8  13  1   
 17   9  14  1   
 18   9  15  1   
 19  10  11  2   
 20  11  16  1   
 21  12  14  2   
 22  13  26  1   
 23  13  27  1   
 24  13  28  1   
 25  14  17  1   
 26  15  18  1   
 27  15  29  1   
 28  15  30  1   
 29  16  19  1   
 30  16  20  1   
 31  16  31  1   
 32  17  21  1   
 33  17  32  1   
 34  17  33  1   
 35  18  34  1   
 36  18  35  1   
 37  18  36  1   
 38  19  37  1   
 39  19  38  1   
 40  19  39  1   
 41  20  40  1   
 42  20  41  1   
 43  20  42  1   
 44  21  43  1   
 45  21  44  1   
 46  21  45  1   
@<TRIPOS>SUBSTRUCTURE
  1 ****   3 GROUP 4 **** **** 0

# MOE 2024.06 (io_trps.svl 2023.06)
