@<TRIPOS>MOLECULE
NONAME
50 54 1 0 0 
SMALL
USER_CHARGES


@<TRIPOS>ATOM
  1 O       -1.0010     0.5300     1.5640 O.2   1 <1>  -0.5700 
  2 C       -1.9770     1.1040     1.1210 C.2   1 <1>   0.5440 
  3 N       -3.2260     0.5630     1.3420 N.am  1 <1>  -0.6600 
  4 C       -1.7910     2.3170     0.3560 C.ar  1 <1>   0.0860 
  5 C       -3.4480    -0.5050     2.3570 C.3   1 <1>   0.1400 
  6 C       -4.3870     0.7670     0.4330 C.3   1 <1>   0.1400 
  7 C       -0.8180     2.3760    -0.6380 C.ar  1 <1>   0.1600 
  8 C       -2.5480     3.4630     0.5650 C.ar  1 <1>  -0.1500 
  9 C       -3.7190    -1.8280     1.6400 C.3   1 <1>  -0.1600 
 10 C       -4.6640    -0.5390    -0.3120 C.3   1 <1>  -0.1600 
 11 N       -0.5710     3.4160    -1.4210 N.ar  1 <1>  -0.6200 
 12 C       -2.3000     4.5580    -0.2330 C.ar  1 <1>  -0.1500 
 13 C       -4.8890    -1.7070     0.6580 C.3   1 <1>   0.4600 
 14 C       -1.3140     4.4870    -1.2050 C.ar  1 <1>   0.1670 
 15 O       -6.0360    -1.4430     1.4380 O.3   1 <1>  -0.5600 
 16 C       -5.0810    -3.0170    -0.0950 C.2   1 <1>  -0.3320 
 17 C       -1.0270     5.6790    -2.0930 C.3   1 <1>  -0.0970 
 18 C       -7.2980    -1.7280     0.8820 C.3   1 <1>   0.1200 
 19 N       -4.1370    -3.6730    -0.8380 N.pl3 1 <1>   0.0330 
 20 C       -6.2330    -3.7160    -0.1240 C.2   1 <1>  -0.1810 
 21 C       -7.4610    -3.2320     0.6060 C.3   1 <1>   0.0210 
 22 C       -4.7130    -4.8140    -1.3420 C.ar  1 <1>  -0.1520 
 23 C       -6.0340    -4.8710    -0.9070 C.ar  1 <1>   0.0000 
 24 C       -4.1820    -5.8200    -2.1530 C.ar  1 <1>  -0.1500 
 25 C       -6.8420    -5.9490    -1.2850 C.ar  1 <1>  -0.1500 
 26 C       -4.9880    -6.8740    -2.5190 C.ar  1 <1>  -0.1500 
 27 C       -6.3180    -6.9390    -2.0850 C.ar  1 <1>  -0.1500 
 28 H       -4.2910    -0.2400     2.9710 H     1 <1>   0.0800 
 29 H       -2.5880    -0.6050     2.9980 H     1 <1>   0.0800 
 30 H       -4.1910     1.5470    -0.2800 H     1 <1>   0.0800 
 31 H       -5.2480     1.0490     1.0170 H     1 <1>   0.0800 
 32 H       -0.2110     1.5000    -0.7900 H     1 <1>   0.1500 
 33 H       -3.3010     3.4860     1.3330 H     1 <1>   0.1500 
 34 H       -3.9380    -2.5970     2.3570 H     1 <1>   0.0800 
 35 H       -2.8270    -2.1140     1.1150 H     1 <1>   0.0800 
 36 H       -3.8190    -0.7590    -0.9380 H     1 <1>   0.0800 
 37 H       -5.5140    -0.4260    -0.9570 H     1 <1>   0.0800 
 38 H       -2.8670     5.4620    -0.0990 H     1 <1>   0.1500 
 39 H       -1.1760     5.4040    -3.1210 H     1 <1>   0.0800 
 40 H       -0.0050     5.9840    -1.9630 H     1 <1>   0.0800 
 41 H       -1.6710     6.5060    -1.8570 H     1 <1>   0.0800 
 42 H       -7.4050    -1.1690    -0.0300 H     1 <1>   0.0800 
 43 H       -8.0460    -1.3970     1.5800 H     1 <1>   0.0800 
 44 H       -3.1650    -3.3870    -0.9860 H     1 <1>   0.2700 
 45 H       -8.3380    -3.3990     0.0090 H     1 <1>   0.0800 
 46 H       -7.5660    -3.7670     1.5330 H     1 <1>   0.0800 
 47 H       -3.1600    -5.7650    -2.4810 H     1 <1>   0.1500 
 48 H       -7.8590    -5.9850    -0.9440 H     1 <1>   0.1500 
 49 H       -4.6030    -7.6620    -3.1430 H     1 <1>   0.1500 
 50 H       -6.9260    -7.7730    -2.3840 H     1 <1>   0.1500 
@<TRIPOS>BOND
  1   1   2  2   
  2   2   3  am  
  3   2   4  1   
  4   3   5  1   
  5   3   6  1   
  6   4   7  ar  
  7   4   8  ar  
  8   5   9  1   
  9   5  28  1   
 10   5  29  1   
 11   6  10  1   
 12   6  30  1   
 13   6  31  1   
 14   7  11  ar  
 15   7  32  1   
 16   8  12  ar  
 17   8  33  1   
 18   9  13  1   
 19   9  34  1   
 20   9  35  1   
 21  10  13  1   
 22  10  36  1   
 23  10  37  1   
 24  11  14  ar  
 25  12  14  ar  
 26  12  38  1   
 27  13  15  1   
 28  13  16  1   
 29  14  17  1   
 30  15  18  1   
 31  16  19  1   
 32  16  20  2   
 33  17  39  1   
 34  17  40  1   
 35  17  41  1   
 36  18  21  1   
 37  18  42  1   
 38  18  43  1   
 39  19  22  1   
 40  19  44  1   
 41  20  21  1   
 42  20  23  1   
 43  21  45  1   
 44  21  46  1   
 45  22  23  ar  
 46  22  24  ar  
 47  23  25  ar  
 48  24  26  ar  
 49  24  47  1   
 50  25  27  ar  
 51  25  48  1   
 52  26  27  ar  
 53  26  49  1   
 54  27  50  1   
@<TRIPOS>SUBSTRUCTURE
  1 ****  10 GROUP 4 **** **** 0

# MOE 2024.06 (io_trps.svl 2023.06)
