@<TRIPOS>MOLECULE
NONAME
39 40 1 0 0 
SMALL
USER_CHARGES


@<TRIPOS>ATOM
  1 O       -0.5800     0.3550     1.6210 O.2   1 <1>  -0.5700 
  2 C       -1.3860     0.7810     0.8130 C.2   1 <1>   0.5440 
  3 N       -2.2280    -0.1050     0.1810 N.am  1 <1>  -0.6600 
  4 C       -1.4450     2.2030     0.5420 C.ar  1 <1>   0.0860 
  5 C       -2.5390    -1.4480     0.7780 C.3   1 <1>   0.1400 
  6 C       -2.9820     0.2020    -1.0650 C.3   1 <1>   0.1400 
  7 C       -0.3210     2.9060     0.1160 C.ar  1 <1>  -0.1500 
  8 C       -2.6340     2.9140     0.7020 C.ar  1 <1>  -0.1500 
  9 C       -4.0060    -1.8790     0.5560 C.3   1 <1>   0.2000 
 10 C       -4.4940     0.2400    -0.7900 C.3   1 <1>  -0.1600 
 11 C       -0.3750     4.2600    -0.1650 C.ar  1 <1>  -0.1430 
 12 C       -2.7210     4.2670     0.4270 C.ar  1 <1>  -0.1430 
 13 O       -4.1040    -2.6520    -0.5900 O.3   1 <1>  -0.6800 
 14 C       -4.9330    -0.6660     0.3900 C.3   1 <1>  -0.1860 
 15 C       -1.5820     4.9360    -0.0110 C.ar  1 <1>   0.0830 
 16 C        0.8760     4.9900    -0.6320 C.3   1 <1>  -0.0970 
 17 C       -4.0550     4.9800     0.6100 C.3   1 <1>  -0.0970 
 18 C       -6.3790    -1.0990     0.2730 C.2   1 <1>   0.9060 
 19 O       -1.6450     6.2470    -0.2840 O.3   1 <1>  -0.5330 
 20 O       -7.2220    -0.5390     0.9780 O.co2 1 <1>  -0.9000 
 21 O       -6.6640    -2.0000    -0.5290 O.co2 1 <1>  -0.9000 
 22 H       -1.8740    -2.1890     0.3710 H     1 <1>   0.0800 
 23 H       -2.3650    -1.3930     1.8380 H     1 <1>   0.0800 
 24 H       -2.6570     1.1290    -1.5030 H     1 <1>   0.0800 
 25 H       -2.7790    -0.5830    -1.7740 H     1 <1>   0.0800 
 26 H        0.6020     2.3640     0.0090 H     1 <1>   0.1500 
 27 H       -3.4980     2.3760     1.0520 H     1 <1>   0.1500 
 28 H       -4.3380    -2.4930     1.3760 H     1 <1>   0.0800 
 29 H       -4.8120     1.2480    -0.5980 H     1 <1>   0.0800 
 30 H       -4.9980    -0.0800    -1.6860 H     1 <1>   0.0800 
 31 H       -5.0810    -2.6550    -0.8190 H     1 <1>   0.4000 
 32 H       -4.8590    -0.0900     1.2940 H     1 <1>   0.0800 
 33 H        1.7160     4.3220    -0.6960 H     1 <1>   0.0800 
 34 H        1.1150     5.7780     0.0590 H     1 <1>   0.0800 
 35 H        0.7040     5.4220    -1.6010 H     1 <1>   0.0800 
 36 H       -4.8160     4.2900     0.9300 H     1 <1>   0.0800 
 37 H       -4.3710     5.4180    -0.3200 H     1 <1>   0.0800 
 38 H       -3.9630     5.7480     1.3560 H     1 <1>   0.0800 
 39 H       -2.5260     6.6230    -0.1170 H     1 <1>   0.4500 
@<TRIPOS>BOND
  1   1   2  2   
  2   2   3  am  
  3   2   4  1   
  4   3   5  1   
  5   3   6  1   
  6   4   7  ar  
  7   4   8  ar  
  8   5   9  1   
  9   5  22  1   
 10   5  23  1   
 11   6  10  1   
 12   6  24  1   
 13   6  25  1   
 14   7  11  ar  
 15   7  26  1   
 16   8  12  ar  
 17   8  27  1   
 18   9  13  1   
 19   9  14  1   
 20   9  28  1   
 21  10  14  1   
 22  10  29  1   
 23  10  30  1   
 24  11  15  ar  
 25  11  16  1   
 26  12  15  ar  
 27  12  17  1   
 28  13  31  1   
 29  14  18  1   
 30  14  32  1   
 31  15  19  1   
 32  16  33  1   
 33  16  34  1   
 34  16  35  1   
 35  17  36  1   
 36  17  37  1   
 37  17  38  1   
 38  18  20  ar  
 39  18  21  ar  
 40  19  39  1   
@<TRIPOS>SUBSTRUCTURE
  1 ****   3 GROUP 4 **** **** 0

# MOE 2024.06 (io_trps.svl 2023.06)
