@<TRIPOS>MOLECULE
NONAME
50 53 1 0 0 
SMALL
USER_CHARGES


@<TRIPOS>ATOM
  1 O       -0.4370     1.4700    -1.8190 O.2   1 <1>  -0.5700 
  2 C       -0.4090     2.5490    -1.2730 C.2   1 <1>   0.5690 
  3 N       -1.3060     2.9300    -0.3110 N.am  1 <1>  -0.5090 
  4 C        0.6640     3.5410    -1.7090 C.3   1 <1>   0.1810 
  5 C       -1.3880     4.3500     0.1580 C.3   1 <1>   0.3640 
  6 C       -2.3400     2.0150     0.2310 C.3   1 <1>   0.0490 
  7 O        0.9290     4.4960    -0.7140 O.3   1 <1>  -0.5600 
  8 C       -2.7150     4.9540    -0.3070 C.ar  1 <1>  -0.1440 
  9 C       -0.2060     5.2450    -0.3070 C.3   1 <1>   0.2610 
 10 C       -2.3710     1.7650     1.7070 C.3   1 <1>  -0.2000 
 11 C       -1.9340     0.6820     0.7740 C.3   1 <1>  -0.2000 
 12 C       -3.4800     5.7060     0.5750 C.ar  1 <1>   0.1600 
 13 C       -3.1870     4.7740    -1.5960 C.ar  1 <1>  -0.1500 
 14 C        0.1790     6.2220     0.8110 C.2   1 <1>   0.5690 
 15 N       -4.6440     6.2660     0.2860 N.ar  1 <1>  -0.6200 
 16 C       -4.3960     5.3530    -1.9140 C.ar  1 <1>  -0.1500 
 17 O       -0.6870     6.8170     1.4080 O.2   1 <1>  -0.5700 
 18 N        1.4890     6.4090     1.1050 N.am  1 <1>  -0.7300 
 19 C       -5.0750     6.0770    -0.9500 C.ar  1 <1>   0.1600 
 20 C        2.0350     7.4240     2.0200 C.3   1 <1>   0.3210 
 21 C        2.9800     8.3010     1.2270 C.2   1 <1>  -0.1810 
 22 C        2.6320     9.2460     0.2660 C.2   1 <1>   0.1080 
 23 C        4.3290     8.3460     1.2730 C.2   1 <1>  -0.3020 
 24 N        3.6720     9.8260    -0.2450 N.2   1 <1>  -0.7070 
 25 C        1.2270     9.5950    -0.1760 C.3   1 <1>  -0.0590 
 26 N        4.7220     9.2730     0.3800 N.pl3 1 <1>   0.3140 
 27 C        6.0960     9.6770     0.0670 C.3   1 <1>   0.0160 
 28 H        0.3540     4.0480    -2.6050 H     1 <1>   0.0800 
 29 H        1.5780     3.0110    -1.9060 H     1 <1>   0.0800 
 30 H       -1.3820     4.3280     1.2330 H     1 <1>   0.0800 
 31 H       -3.2740     2.0810    -0.3030 H     1 <1>   0.1000 
 32 H       -0.5160     5.8320    -1.1520 H     1 <1>   0.0800 
 33 H       -1.6240     2.2020     2.3460 H     1 <1>   0.1000 
 34 H       -3.3240     1.6580     2.1940 H     1 <1>   0.1000 
 35 H       -2.5880    -0.1560     0.6130 H     1 <1>   0.1000 
 36 H       -0.8940     0.4070     0.7310 H     1 <1>   0.1000 
 37 H       -3.1180     5.8610     1.5790 H     1 <1>   0.1500 
 38 H       -2.6470     4.2000    -2.3290 H     1 <1>   0.1500 
 39 H       -4.8140     5.2440    -2.8980 H     1 <1>   0.1500 
 40 H        2.1840     5.9210     0.5330 H     1 <1>   0.3700 
 41 H       -6.0200     6.5230    -1.2070 H     1 <1>   0.1500 
 42 H        1.2450     8.0180     2.4470 H     1 <1>   0.0800 
 43 H        2.5680     6.9350     2.8170 H     1 <1>   0.0800 
 44 H        5.0180     7.7840     1.8760 H     1 <1>   0.1500 
 45 H        0.5210     9.4080     0.6110 H     1 <1>   0.0800 
 46 H        0.9660     9.0050    -1.0340 H     1 <1>   0.0800 
 47 H        1.1830    10.6350    -0.4420 H     1 <1>   0.0800 
 48 H        6.7640     9.2980     0.8170 H     1 <1>   0.0800 
 49 H        6.1440    10.7500     0.0440 H     1 <1>   0.0800 
 50 H        6.3620     9.2850    -0.8960 H     1 <1>   0.0800 
@<TRIPOS>BOND
  1   1   2  2   
  2   2   3  am  
  3   2   4  1   
  4   3   5  1   
  5   3   6  1   
  6   4   7  1   
  7   4  28  1   
  8   4  29  1   
  9   5   8  1   
 10   5   9  1   
 11   5  30  1   
 12   6  10  1   
 13   6  11  1   
 14   6  31  1   
 15   7   9  1   
 16   8  12  ar  
 17   8  13  ar  
 18   9  14  1   
 19   9  32  1   
 20  10  11  1   
 21  10  33  1   
 22  10  34  1   
 23  11  35  1   
 24  11  36  1   
 25  12  15  ar  
 26  12  37  1   
 27  13  16  ar  
 28  13  38  1   
 29  14  17  2   
 30  14  18  am  
 31  15  19  ar  
 32  16  19  ar  
 33  16  39  1   
 34  18  20  1   
 35  18  40  1   
 36  19  41  1   
 37  20  21  1   
 38  20  42  1   
 39  20  43  1   
 40  21  22  1   
 41  21  23  2   
 42  22  24  2   
 43  22  25  1   
 44  23  26  1   
 45  23  44  1   
 46  24  26  1   
 47  25  45  1   
 48  25  46  1   
 49  25  47  1   
 50  26  27  1   
 51  27  48  1   
 52  27  49  1   
 53  27  50  1   
@<TRIPOS>SUBSTRUCTURE
  1 ****   9 GROUP 4 **** **** 0

# MOE 2024.06 (io_trps.svl 2023.06)
