@<TRIPOS>MOLECULE
NONAME
54 55 1 0 0 
SMALL
USER_CHARGES


@<TRIPOS>ATOM
  1 O       -0.7090     1.0250    -1.3260 O.3   1 <1>  -0.6800 
  2 C       -0.5420     2.3080    -0.8300 C.3   1 <1>   0.2000 
  3 C       -1.4250     2.5660     0.4330 C.3   1 <1>   0.0000 
  4 C        0.9530     2.5130    -0.5350 C.3   1 <1>   0.3430 
  5 C       -0.7780     3.6780     1.3130 C.3   1 <1>  -0.1600 
  6 C       -1.5300     1.2670     1.2860 C.3   1 <1>   0.1200 
  7 C       -2.8610     2.9730    -0.0110 C.3   1 <1>  -0.1600 
  8 N        1.2530     3.9240    -0.0980 N.4   1 <1>  -0.9590 
  9 C        0.0910     4.6500     0.5120 C.3   1 <1>   0.3430 
 10 O       -2.2320     1.4880     2.4650 O.3   1 <1>  -0.6800 
 11 C       -3.0110     4.3170    -0.7540 C.3   1 <1>  -0.1600 
 12 C        1.8670     4.7220    -1.1990 C.3   1 <1>   0.4860 
 13 C       -4.4720     4.5490    -1.1470 C.3   1 <1>  -0.2400 
 14 C        2.2720     6.0790    -0.6480 C.ar  1 <1>  -0.1430 
 15 C        3.3370     6.1870     0.2480 C.ar  1 <1>  -0.1430 
 16 C        1.5670     7.2210    -1.0270 C.ar  1 <1>  -0.1430 
 17 C        3.6520     7.4250     0.7840 C.ar  1 <1>  -0.1500 
 18 C        4.2030     5.0060     0.6750 C.3   1 <1>  -0.0970 
 19 C        1.9050     8.4460    -0.4760 C.ar  1 <1>  -0.1500 
 20 C        0.4330     7.1930    -2.0480 C.3   1 <1>  -0.0970 
 21 C        2.9380     8.5540     0.4340 C.ar  1 <1>  -0.1430 
 22 C        3.2970     9.9040     1.0290 C.3   1 <1>  -0.0970 
 23 H       -1.6390     0.8690    -1.5970 H     1 <1>   0.4000 
 24 H       -0.8060     2.9740    -1.6290 H     1 <1>   0.0800 
 25 H        1.5260     2.2640    -1.4130 H     1 <1>   0.0800 
 26 H        1.2290     1.8320     0.2530 H     1 <1>   0.0800 
 27 H       -0.1550     3.2460     2.0760 H     1 <1>   0.0800 
 28 H       -1.5470     4.2310     1.8260 H     1 <1>   0.0800 
 29 H       -0.5580     0.8820     1.5450 H     1 <1>   0.0800 
 30 H       -2.0630     0.5020     0.7470 H     1 <1>   0.0800 
 31 H       -3.2660     2.1910    -0.6310 H     1 <1>   0.0800 
 32 H       -3.4940     3.0190     0.8600 H     1 <1>   0.0800 
 33 H        1.9790     3.8900     0.6280 H     1 <1>   0.4500 
 34 H        0.4490     5.4450     1.1490 H     1 <1>   0.0800 
 35 H       -0.5100     5.0940    -0.2630 H     1 <1>   0.0800 
 36 H       -1.7020     1.9760     3.1230 H     1 <1>   0.4000 
 37 H       -2.7060     5.1310    -0.1200 H     1 <1>   0.0800 
 38 H       -2.4190     4.3390    -1.6500 H     1 <1>   0.0800 
 39 H        2.7400     4.2200    -1.5820 H     1 <1>   0.0800 
 40 H        1.1660     4.8380    -2.0070 H     1 <1>   0.0800 
 41 H       -5.1010     4.5650    -0.2740 H     1 <1>   0.0800 
 42 H       -4.8180     3.7710    -1.8050 H     1 <1>   0.0800 
 43 H       -4.5750     5.4930    -1.6540 H     1 <1>   0.0800 
 44 H        4.4670     7.5200     1.4810 H     1 <1>   0.1500 
 45 H        5.1760     5.3520     0.9790 H     1 <1>   0.0800 
 46 H        4.3550     4.3130    -0.1320 H     1 <1>   0.0800 
 47 H        3.7590     4.4980     1.5120 H     1 <1>   0.0800 
 48 H        1.3660     9.3340    -0.7580 H     1 <1>   0.1500 
 49 H        0.0940     8.1900    -2.2690 H     1 <1>   0.0800 
 50 H       -0.4090     6.6390    -1.6770 H     1 <1>   0.0800 
 51 H        0.7710     6.7580    -2.9710 H     1 <1>   0.0800 
 52 H        3.7130     9.7850     2.0140 H     1 <1>   0.0800 
 53 H        2.4250    10.5280     1.1050 H     1 <1>   0.0800 
 54 H        4.0220    10.3960     0.4050 H     1 <1>   0.0800 
@<TRIPOS>BOND
  1   1   2  1   
  2   1  23  1   
  3   2   3  1   
  4   2   4  1   
  5   2  24  1   
  6   3   5  1   
  7   3   6  1   
  8   3   7  1   
  9   4   8  1   
 10   4  25  1   
 11   4  26  1   
 12   5   9  1   
 13   5  27  1   
 14   5  28  1   
 15   6  10  1   
 16   6  29  1   
 17   6  30  1   
 18   7  11  1   
 19   7  31  1   
 20   7  32  1   
 21   8   9  1   
 22   8  12  1   
 23   8  33  1   
 24   9  34  1   
 25   9  35  1   
 26  10  36  1   
 27  11  13  1   
 28  11  37  1   
 29  11  38  1   
 30  12  14  1   
 31  12  39  1   
 32  12  40  1   
 33  13  41  1   
 34  13  42  1   
 35  13  43  1   
 36  14  15  ar  
 37  14  16  ar  
 38  15  17  ar  
 39  15  18  1   
 40  16  19  ar  
 41  16  20  1   
 42  17  21  ar  
 43  17  44  1   
 44  18  45  1   
 45  18  46  1   
 46  18  47  1   
 47  19  21  ar  
 48  19  48  1   
 49  20  49  1   
 50  20  50  1   
 51  20  51  1   
 52  21  22  1   
 53  22  52  1   
 54  22  53  1   
 55  22  54  1   
@<TRIPOS>SUBSTRUCTURE
  1 ****   9 GROUP 4 **** **** 0

# MOE 2024.06 (io_trps.svl 2023.06)
