@<TRIPOS>MOLECULE
NONAME
45 46 1 0 0 
SMALL
USER_CHARGES


@<TRIPOS>ATOM
  1 O       -1.3720    -0.5590     0.9120 O.2   1 <1>  -0.5700 
  2 C       -2.2710     0.2610     0.9330 C.2   1 <1>   0.5440 
  3 N       -3.5500    -0.1470     1.2400 N.am  1 <1>  -0.6600 
  4 C       -1.9660     1.6480     0.6470 C.ar  1 <1>   0.0860 
  5 C       -3.8540    -1.5880     1.5060 C.3   1 <1>   0.3210 
  6 C       -4.7380     0.7680     1.2160 C.3   1 <1>   0.1400 
  7 C       -1.9220     2.6050     1.6590 C.ar  1 <1>  -0.1500 
  8 C       -1.7150     2.0720    -0.6550 C.ar  1 <1>  -0.1500 
  9 C       -4.6070    -2.2110     0.3350 C.2   1 <1>   0.0460 
 10 C       -5.0890     1.3280    -0.1790 C.3   1 <1>   0.1200 
 11 C       -1.6530     3.9330     1.3800 C.ar  1 <1>  -0.1500 
 12 C       -1.4450     3.3980    -0.9390 C.ar  1 <1>  -0.1500 
 13 N       -5.9500    -2.1000     0.2320 N.2   1 <1>  -0.5650 
 14 C       -4.1020    -2.8950    -0.7180 C.2   1 <1>  -0.3320 
 15 O       -4.9910     0.3570    -1.1630 O.3   1 <1>  -0.6800 
 16 C       -1.4150     4.3390     0.0770 C.ar  1 <1>  -0.1430 
 17 C       -6.2300    -2.7190    -0.8680 C.2   1 <1>   0.0360 
 18 N       -5.1490    -3.2260    -1.4950 N.pl3 1 <1>   0.0330 
 19 C       -2.6670    -3.2480    -1.0700 C.3   1 <1>  -0.0600 
 20 C       -1.1180     5.7980    -0.2340 C.3   1 <1>  -0.0170 
 21 C        0.3880     6.0700    -0.1560 C.3   1 <1>  -0.1600 
 22 C        0.7140     7.5360    -0.4640 C.3   1 <1>  -0.2400 
 23 H       -4.4510    -1.6700     2.3960 H     1 <1>   0.0800 
 24 H       -2.9480    -2.1400     1.6760 H     1 <1>   0.0800 
 25 H       -4.5630     1.5920     1.8850 H     1 <1>   0.0800 
 26 H       -5.5990     0.2430     1.5920 H     1 <1>   0.0800 
 27 H       -2.0990     2.2960     2.6740 H     1 <1>   0.1500 
 28 H       -1.7410     1.3440    -1.4480 H     1 <1>   0.1500 
 29 H       -4.4360     2.1390    -0.4470 H     1 <1>   0.0800 
 30 H       -6.1000     1.6960    -0.1770 H     1 <1>   0.0800 
 31 H       -1.6240     4.6500     2.1810 H     1 <1>   0.1500 
 32 H       -1.2560     3.6940    -1.9570 H     1 <1>   0.1500 
 33 H       -5.1610    -0.5330    -0.7580 H     1 <1>   0.4000 
 34 H       -7.2240    -2.8280    -1.2660 H     1 <1>   0.1500 
 35 H       -5.1310    -3.7390    -2.3810 H     1 <1>   0.2700 
 36 H       -1.9890    -2.8750    -0.3240 H     1 <1>   0.0800 
 37 H       -2.4000    -2.8060    -2.0130 H     1 <1>   0.0800 
 38 H       -2.5490    -4.3150    -1.1350 H     1 <1>   0.0800 
 39 H       -1.6380     6.4290     0.4660 H     1 <1>   0.0800 
 40 H       -1.4800     6.0370    -1.2190 H     1 <1>   0.0800 
 41 H        0.9010     5.4350    -0.8580 H     1 <1>   0.0800 
 42 H        0.7440     5.8250     0.8300 H     1 <1>   0.0800 
 43 H        0.3870     7.7940    -1.4560 H     1 <1>   0.0800 
 44 H        1.7760     7.6970    -0.4030 H     1 <1>   0.0800 
 45 H        0.2290     8.1870     0.2420 H     1 <1>   0.0800 
@<TRIPOS>BOND
  1   1   2  2   
  2   2   3  am  
  3   2   4  1   
  4   3   5  1   
  5   3   6  1   
  6   4   7  ar  
  7   4   8  ar  
  8   5   9  1   
  9   5  23  1   
 10   5  24  1   
 11   6  10  1   
 12   6  25  1   
 13   6  26  1   
 14   7  11  ar  
 15   7  27  1   
 16   8  12  ar  
 17   8  28  1   
 18   9  13  1   
 19   9  14  2   
 20  10  15  1   
 21  10  29  1   
 22  10  30  1   
 23  11  16  ar  
 24  11  31  1   
 25  12  16  ar  
 26  12  32  1   
 27  13  17  2   
 28  14  18  1   
 29  14  19  1   
 30  15  33  1   
 31  16  20  1   
 32  17  18  1   
 33  17  34  1   
 34  18  35  1   
 35  19  36  1   
 36  19  37  1   
 37  19  38  1   
 38  20  21  1   
 39  20  39  1   
 40  20  40  1   
 41  21  22  1   
 42  21  41  1   
 43  21  42  1   
 44  22  43  1   
 45  22  44  1   
 46  22  45  1   
@<TRIPOS>SUBSTRUCTURE
  1 ****   2 GROUP 4 **** **** 0

# MOE 2024.06 (io_trps.svl 2023.06)
