@<TRIPOS>MOLECULE
NONAME
47 50 1 0 0 
SMALL
USER_CHARGES


@<TRIPOS>ATOM
  1 O        0.3020    -0.0360     0.1310 O.3   1 <1>  -0.5600 
  2 C        0.9260    -0.1130    -1.1160 C.3   1 <1>   0.3440 
  3 C       -0.7660     0.8660     0.1040 C.3   1 <1>   0.3440 
  4 C        2.4120    -0.4540    -0.9790 C.ar  1 <1>  -0.1440 
  5 C        0.6160     1.2190    -1.8120 C.3   1 <1>  -0.0800 
  6 C       -2.0720     0.1820     0.5060 C.ar  1 <1>  -0.1440 
  7 C       -0.8090     1.4510    -1.3140 C.3   1 <1>  -0.0800 
  8 C        3.0990    -0.2780     0.2180 C.ar  1 <1>  -0.1500 
  9 C        3.0910    -0.9460    -2.0870 C.ar  1 <1>  -0.1500 
 10 C        1.6020     2.3500    -1.4410 C.3   1 <1>  -0.2400 
 11 C       -3.0690     0.9410     1.1140 C.ar  1 <1>  -0.1500 
 12 C       -2.2910    -1.1780     0.2690 C.ar  1 <1>  -0.1500 
 13 C       -1.3310     2.8970    -1.3810 C.3   1 <1>  -0.2400 
 14 C        4.4530    -0.5880     0.3120 C.ar  1 <1>   0.0830 
 15 C        4.4380    -1.2560    -2.0060 C.ar  1 <1>  -0.1500 
 16 C       -4.2510     0.3180     1.4610 C.ar  1 <1>   0.0830 
 17 C       -3.4870    -1.7880     0.6250 C.ar  1 <1>  -0.1500 
 18 O        5.1880    -0.4420     1.4540 O.3   1 <1>  -0.3630 
 19 C        5.1100    -1.0760    -0.8130 C.ar  1 <1>   0.0830 
 20 O       -5.3290     0.8530     2.0450 O.3   1 <1>  -0.3630 
 21 C       -4.4560    -1.0090     1.2230 C.ar  1 <1>   0.0830 
 22 C        4.5740    -0.0270     2.6550 C.3   1 <1>   0.0400 
 23 O        6.4170    -1.3750    -0.7330 O.3   1 <1>  -0.5330 
 24 C       -6.2780    -0.2020     2.1920 C.3   1 <1>   0.4000 
 25 O       -5.6720    -1.3710     1.6460 O.3   1 <1>  -0.3620 
 26 H        0.4360    -0.9090    -1.6490 H     1 <1>   0.0800 
 27 H       -0.5250     1.6380     0.8140 H     1 <1>   0.0800 
 28 H        0.6300     1.0850    -2.8800 H     1 <1>   0.0800 
 29 H       -1.4710     0.8360    -1.9010 H     1 <1>   0.0800 
 30 H        2.5640     0.1020     1.0660 H     1 <1>   0.1500 
 31 H        2.5760    -1.0890    -3.0200 H     1 <1>   0.1500 
 32 H        1.6250     2.5060    -0.3770 H     1 <1>   0.0800 
 33 H        1.3270     3.2700    -1.9240 H     1 <1>   0.0800 
 34 H        2.5970     2.1010    -1.7660 H     1 <1>   0.0800 
 35 H       -2.9420     1.9880     1.3170 H     1 <1>   0.1500 
 36 H       -1.5210    -1.7720    -0.1930 H     1 <1>   0.1500 
 37 H       -0.7790     3.5440    -0.7230 H     1 <1>   0.0800 
 38 H       -2.3670     2.9260    -1.0930 H     1 <1>   0.0800 
 39 H       -1.2510     3.2730    -2.3860 H     1 <1>   0.0800 
 40 H        4.9690    -1.6360    -2.8600 H     1 <1>   0.1500 
 41 H       -3.6630    -2.8330     0.4490 H     1 <1>   0.1500 
 42 H        5.3230    -0.0130     3.4270 H     1 <1>   0.0800 
 43 H        3.7980    -0.7270     2.9110 H     1 <1>   0.0800 
 44 H        4.1720     0.9610     2.5180 H     1 <1>   0.0800 
 45 H        6.7280    -1.1900     0.1760 H     1 <1>   0.4500 
 46 H       -6.4850    -0.3570     3.2360 H     1 <1>   0.0800 
 47 H       -7.1690     0.0350     1.6390 H     1 <1>   0.0800 
@<TRIPOS>BOND
  1   1   2  1   
  2   1   3  1   
  3   2   4  1   
  4   2   5  1   
  5   2  26  1   
  6   3   6  1   
  7   3   7  1   
  8   3  27  1   
  9   4   8  ar  
 10   4   9  ar  
 11   5   7  1   
 12   5  10  1   
 13   5  28  1   
 14   6  11  ar  
 15   6  12  ar  
 16   7  13  1   
 17   7  29  1   
 18   8  14  ar  
 19   8  30  1   
 20   9  15  ar  
 21   9  31  1   
 22  10  32  1   
 23  10  33  1   
 24  10  34  1   
 25  11  16  ar  
 26  11  35  1   
 27  12  17  ar  
 28  12  36  1   
 29  13  37  1   
 30  13  38  1   
 31  13  39  1   
 32  14  18  1   
 33  14  19  ar  
 34  15  19  ar  
 35  15  40  1   
 36  16  20  1   
 37  16  21  ar  
 38  17  21  ar  
 39  17  41  1   
 40  18  22  1   
 41  19  23  1   
 42  20  24  1   
 43  21  25  1   
 44  22  42  1   
 45  22  43  1   
 46  22  44  1   
 47  23  45  1   
 48  24  25  1   
 49  24  46  1   
 50  24  47  1   
@<TRIPOS>SUBSTRUCTURE
  1 ****   1 GROUP 4 **** **** 0

# MOE 2024.06 (io_trps.svl 2023.06)
