@<TRIPOS>MOLECULE
NONAME
57 60 1 0 0 
SMALL
USER_CHARGES


@<TRIPOS>ATOM
  1 O        0.2170     0.5020    -0.5120 O.2   1 <1>  -0.5700 
  2 C       -0.4140     1.3500     0.0910 C.2   1 <1>   0.6900 
  3 N       -1.7830     1.3800     0.0310 N.am  1 <1>  -0.6600 
  4 N        0.2450     2.2690     0.8380 N.am  1 <1>  -0.7300 
  5 C       -2.6160     2.5610     0.4170 C.3   1 <1>   0.1400 
  6 C       -2.5260     0.2570    -0.6200 C.3   1 <1>   0.1400 
  7 C        1.7110     2.2690     1.0580 C.3   1 <1>   0.1400 
  8 C       -3.3370     3.1570    -0.8130 C.3   1 <1>   0.1430 
  9 C       -3.9310     0.6780    -1.0840 C.3   1 <1>  -0.1600 
 10 C        2.4050     3.0690    -0.0430 C.3   1 <1>  -0.0160 
 11 C       -4.4260     4.0790    -0.2910 C.ar  1 <1>   0.1670 
 12 C       -3.8910     2.0570    -1.7600 C.3   1 <1>  -0.1600 
 13 C       -2.4150     4.1450    -1.5790 C.3   1 <1>  -0.1600 
 14 C        3.9050     3.1030     0.1990 C.ar  1 <1>  -0.1440 
 15 N       -5.5570     3.6900     0.2420 N.ar  1 <1>  -0.6200 
 16 C       -4.0810     5.3900    -0.4210 C.ar  1 <1>  -0.1440 
 17 C       -2.7180     5.5550    -1.0440 C.3   1 <1>  -0.0160 
 18 C        4.4970     4.1860     0.8310 C.ar  1 <1>  -0.1500 
 19 C        4.6960     2.0400    -0.2100 C.ar  1 <1>  -0.1500 
 20 C       -6.3700     4.6720     0.6400 C.ar  1 <1>   0.7200 
 21 C       -4.9760     6.3310     0.0190 C.ar  1 <1>   0.1600 
 22 C        5.8630     4.2060     1.0520 C.ar  1 <1>  -0.1500 
 23 C        6.0620     2.0590     0.0100 C.ar  1 <1>  -0.1500 
 24 N       -6.1240     5.9830     0.5510 N.ar  1 <1>  -0.6200 
 25 N       -7.5770     4.2960     1.1980 N.pl3 1 <1>  -0.8380 
 26 C        6.6470     3.1420     0.6410 C.ar  1 <1>  -0.1500 
 27 C       -8.4530     5.2630     1.9140 C.3   1 <1>   0.1290 
 28 C       -8.1060     2.9090     1.0750 C.3   1 <1>   0.1290 
 29 H       -0.3100     2.7840     1.5150 H     1 <1>   0.3700 
 30 H       -2.0280     3.3230     0.8920 H     1 <1>   0.0800 
 31 H       -3.3510     2.2320     1.1320 H     1 <1>   0.0800 
 32 H       -2.5970    -0.5660     0.0700 H     1 <1>   0.0800 
 33 H       -1.9670    -0.0790    -1.4780 H     1 <1>   0.0800 
 34 H        2.0770     1.2550     1.0510 H     1 <1>   0.0800 
 35 H        1.9310     2.6990     2.0200 H     1 <1>   0.0800 
 36 H       -4.5990     0.7060    -0.2400 H     1 <1>   0.0800 
 37 H       -4.3110    -0.0570    -1.7700 H     1 <1>   0.0800 
 38 H        2.0160     4.0710    -0.0630 H     1 <1>   0.0800 
 39 H        2.2070     2.6090    -0.9950 H     1 <1>   0.0800 
 40 H       -3.2570     1.9680    -2.6260 H     1 <1>   0.0800 
 41 H       -4.8740     2.3260    -2.1050 H     1 <1>   0.0800 
 42 H       -2.6670     4.1360    -2.6250 H     1 <1>   0.0800 
 43 H       -1.3750     3.8880    -1.4820 H     1 <1>   0.0800 
 44 H       -2.7260     6.2850    -1.8340 H     1 <1>   0.0800 
 45 H       -2.0050     5.8380    -0.2890 H     1 <1>   0.0800 
 46 H        3.8980     5.0190     1.1550 H     1 <1>   0.1500 
 47 H        4.2480     1.1930    -0.7020 H     1 <1>   0.1500 
 48 H       -4.7510     7.3800    -0.0650 H     1 <1>   0.1500 
 49 H        6.3170     5.0500     1.5420 H     1 <1>   0.1500 
 50 H        6.6680     1.2300    -0.3110 H     1 <1>   0.1500 
 51 H        7.7090     3.1570     0.8120 H     1 <1>   0.1500 
 52 H       -7.8640     6.0350     2.3790 H     1 <1>   0.0800 
 53 H       -9.0130     4.7590     2.6810 H     1 <1>   0.0800 
 54 H       -9.1340     5.7170     1.2150 H     1 <1>   0.0800 
 55 H       -7.7490     2.4470     0.1710 H     1 <1>   0.0800 
 56 H       -9.1810     2.9240     1.0460 H     1 <1>   0.0800 
 57 H       -7.7800     2.3250     1.9180 H     1 <1>   0.0800 
@<TRIPOS>BOND
  1   1   2  2   
  2   2   3  am  
  3   2   4  am  
  4   3   5  1   
  5   3   6  1   
  6   4   7  1   
  7   4  29  1   
  8   5   8  1   
  9   5  30  1   
 10   5  31  1   
 11   6   9  1   
 12   6  32  1   
 13   6  33  1   
 14   7  10  1   
 15   7  34  1   
 16   7  35  1   
 17   8  11  1   
 18   8  12  1   
 19   8  13  1   
 20   9  12  1   
 21   9  36  1   
 22   9  37  1   
 23  10  14  1   
 24  10  38  1   
 25  10  39  1   
 26  11  15  ar  
 27  11  16  ar  
 28  12  40  1   
 29  12  41  1   
 30  13  17  1   
 31  13  42  1   
 32  13  43  1   
 33  14  18  ar  
 34  14  19  ar  
 35  15  20  ar  
 36  16  17  1   
 37  16  21  ar  
 38  17  44  1   
 39  17  45  1   
 40  18  22  ar  
 41  18  46  1   
 42  19  23  ar  
 43  19  47  1   
 44  20  24  ar  
 45  20  25  1   
 46  21  24  ar  
 47  21  48  1   
 48  22  26  ar  
 49  22  49  1   
 50  23  26  ar  
 51  23  50  1   
 52  25  27  1   
 53  25  28  1   
 54  26  51  1   
 55  27  52  1   
 56  27  53  1   
 57  27  54  1   
 58  28  55  1   
 59  28  56  1   
 60  28  57  1   
@<TRIPOS>SUBSTRUCTURE
  1 ****   5 GROUP 4 **** **** 0

# MOE 2024.06 (io_trps.svl 2023.06)
