@<TRIPOS>MOLECULE
NONAME
72 75 1 0 0 
SMALL
USER_CHARGES


@<TRIPOS>ATOM
  1 O       -0.8990    -2.2500    -0.0020 O.2   1 <1>  -0.5700 
  2 C       -0.9020    -2.5770     1.1590 C.2   1 <1>   0.5690 
  3 N       -2.0360    -2.5010     1.9160 N.am  1 <1>  -0.7300 
  4 C        0.4150    -3.1410     1.7240 C.3   1 <1>   0.4040 
  5 C       -3.3200    -1.8900     1.4670 C.3   1 <1>   0.1400 
  6 N        0.8370    -4.4320     1.0500 N.4   1 <1>  -0.9590 
  7 C       -4.1720    -2.9230     0.7040 C.3   1 <1>  -0.0800 
  8 C        0.5130    -5.6310     1.8710 C.3   1 <1>   0.3430 
  9 C        2.2690    -4.4050     0.6310 C.3   1 <1>   0.3430 
 10 C       -5.6650    -2.6140     0.5270 C.3   1 <1>   0.4230 
 11 C       -3.7170    -3.1610    -0.7350 C.3   1 <1>  -0.1600 
 12 C        0.3520    -6.8760     0.9910 C.3   1 <1>  -0.1600 
 13 C        2.4700    -3.5190    -0.6110 C.3   1 <1>  -0.0800 
 14 N       -6.0800    -3.2960    -0.7390 N.4   1 <1>  -0.9590 
 15 C       -6.0330    -1.1430     0.3260 C.3   1 <1>  -0.1600 
 16 C       -4.8850    -3.9080    -1.3710 C.3   1 <1>   0.5660 
 17 C       -0.7930    -6.7320    -0.0250 C.3   1 <1>  -0.1600 
 18 C        1.6310    -3.9910    -1.8120 C.3   1 <1>  -0.2400 
 19 C        3.9530    -3.5170    -1.0010 C.3   1 <1>  -0.2400 
 20 C       -6.7570    -2.3110    -1.6270 C.3   1 <1>   0.3430 
 21 C       -7.1500    -1.1690    -0.7080 C.3   1 <1>  -0.1600 
 22 C       -4.7630    -5.3960    -1.0270 C.ar  1 <1>  -0.1430 
 23 C       -1.1770    -8.0740    -0.6740 C.3   1 <1>   0.1200 
 24 C       -3.6620    -6.0610    -1.5470 C.ar  1 <1>  -0.1500 
 25 C       -5.6300    -6.1110    -0.2000 C.ar  1 <1>  -0.1500 
 26 O       -2.1930    -7.8640    -1.6350 O.3   1 <1>  -0.3620 
 27 C       -3.3720    -7.3630    -1.1920 C.ar  1 <1>   0.0820 
 28 C       -5.3780    -7.4380     0.1120 C.ar  1 <1>  -0.1500 
 29 C       -4.2430    -8.0790    -0.3710 C.ar  1 <1>   0.0820 
 30 O       -3.9400    -9.3720    -0.0670 O.3   1 <1>  -0.3620 
 31 C       -4.9170   -10.2530     0.4430 C.3   1 <1>   0.0400 
 32 H       -2.0200    -2.7510     2.9100 H     1 <1>   0.3700 
 33 H        0.3150    -3.2900     2.7850 H     1 <1>   0.0800 
 34 H        1.1700    -2.3910     1.5680 H     1 <1>   0.0800 
 35 H       -3.8540    -1.5400     2.3350 H     1 <1>   0.0800 
 36 H       -3.1090    -1.0370     0.8400 H     1 <1>   0.0800 
 37 H        0.2930    -4.4820     0.1740 H     1 <1>   0.4500 
 38 H       -4.1200    -3.8500     1.2490 H     1 <1>   0.0800 
 39 H        1.2860    -5.7970     2.6050 H     1 <1>   0.0800 
 40 H       -0.4150    -5.4690     2.3960 H     1 <1>   0.0800 
 41 H        2.8860    -4.0490     1.4400 H     1 <1>   0.0800 
 42 H        2.5920    -5.4030     0.3840 H     1 <1>   0.0800 
 43 H       -6.2290    -3.0090     1.3580 H     1 <1>   0.0800 
 44 H       -2.8010    -3.7190    -0.7820 H     1 <1>   0.0800 
 45 H       -3.5680    -2.2290    -1.2510 H     1 <1>   0.0800 
 46 H        1.2730    -7.1120     0.4870 H     1 <1>   0.0800 
 47 H        0.1290    -7.7040     1.6430 H     1 <1>   0.0800 
 48 H        2.1980    -2.5030    -0.3770 H     1 <1>   0.0800 
 49 H       -6.7330    -4.0550    -0.5280 H     1 <1>   0.4500 
 50 H       -6.3460    -0.6820     1.2480 H     1 <1>   0.0800 
 51 H       -5.2010    -0.5890    -0.0720 H     1 <1>   0.0800 
 52 H       -4.8940    -3.7840    -2.4420 H     1 <1>   0.0800 
 53 H       -0.5120    -6.0480    -0.8060 H     1 <1>   0.0800 
 54 H       -1.6540    -6.3410     0.4910 H     1 <1>   0.0800 
 55 H        1.8340    -5.0230    -2.0430 H     1 <1>   0.0800 
 56 H        1.8700    -3.4020    -2.6810 H     1 <1>   0.0800 
 57 H        0.5780    -3.8710    -1.6310 H     1 <1>   0.0800 
 58 H        4.2840    -4.5050    -1.2730 H     1 <1>   0.0800 
 59 H        4.5620    -3.1620    -0.1880 H     1 <1>   0.0800 
 60 H        4.1160    -2.8660    -1.8430 H     1 <1>   0.0800 
 61 H       -6.0630    -1.9440    -2.3680 H     1 <1>   0.0800 
 62 H       -7.6140    -2.7390    -2.1220 H     1 <1>   0.0800 
 63 H       -7.2370    -0.2380    -1.2440 H     1 <1>   0.0800 
 64 H       -8.0950    -1.3910    -0.2420 H     1 <1>   0.0800 
 65 H       -1.5340    -8.7790     0.0570 H     1 <1>   0.0800 
 66 H       -0.3360    -8.5060    -1.1880 H     1 <1>   0.0800 
 67 H       -2.9780    -5.5700    -2.2190 H     1 <1>   0.1500 
 68 H       -6.5100    -5.6720     0.2310 H     1 <1>   0.1500 
 69 H       -6.0710    -7.9590     0.7470 H     1 <1>   0.1500 
 70 H       -4.4930   -11.2410     0.4670 H     1 <1>   0.0800 
 71 H       -5.7730   -10.2410    -0.2090 H     1 <1>   0.0800 
 72 H       -5.1830    -9.9470     1.4390 H     1 <1>   0.0800 
@<TRIPOS>BOND
  1   1   2  2   
  2   2   3  am  
  3   2   4  1   
  4   3   5  1   
  5   3  32  1   
  6   4   6  1   
  7   4  33  1   
  8   4  34  1   
  9   5   7  1   
 10   5  35  1   
 11   5  36  1   
 12   6   8  1   
 13   6   9  1   
 14   6  37  1   
 15   7  10  1   
 16   7  11  1   
 17   7  38  1   
 18   8  12  1   
 19   8  39  1   
 20   8  40  1   
 21   9  13  1   
 22   9  41  1   
 23   9  42  1   
 24  10  14  1   
 25  10  15  1   
 26  10  43  1   
 27  11  16  1   
 28  11  44  1   
 29  11  45  1   
 30  12  17  1   
 31  12  46  1   
 32  12  47  1   
 33  13  18  1   
 34  13  19  1   
 35  13  48  1   
 36  14  16  1   
 37  14  20  1   
 38  14  49  1   
 39  15  21  1   
 40  15  50  1   
 41  15  51  1   
 42  16  22  1   
 43  16  52  1   
 44  17  23  1   
 45  17  53  1   
 46  17  54  1   
 47  18  55  1   
 48  18  56  1   
 49  18  57  1   
 50  19  58  1   
 51  19  59  1   
 52  19  60  1   
 53  20  21  1   
 54  20  61  1   
 55  20  62  1   
 56  21  63  1   
 57  21  64  1   
 58  22  24  ar  
 59  22  25  ar  
 60  23  26  1   
 61  23  65  1   
 62  23  66  1   
 63  24  27  ar  
 64  24  67  1   
 65  25  28  ar  
 66  25  68  1   
 67  26  27  1   
 68  27  29  ar  
 69  28  29  ar  
 70  28  69  1   
 71  29  30  1   
 72  30  31  1   
 73  31  70  1   
 74  31  71  1   
 75  31  72  1   
@<TRIPOS>SUBSTRUCTURE
  1 ****  11 GROUP 4 **** **** 0

# MOE 2024.06 (io_trps.svl 2023.06)
