@<TRIPOS>MOLECULE
NONAME
51 54 1 0 0 
SMALL
USER_CHARGES


@<TRIPOS>ATOM
  1 O        0.2310    -0.0820    -1.2160 O.2   1 <1>  -0.5700 
  2 C        1.2510     0.4310    -0.7880 C.2   1 <1>   0.5440 
  3 N        1.1430     1.5800    -0.0370 N.am  1 <1>  -0.6600 
  4 C        2.5330    -0.1620    -1.0720 C.ar  1 <1>   0.0860 
  5 C       -0.1660     2.1880     0.2860 C.3   1 <1>   0.1400 
  6 C        2.2010     2.0940     0.8610 C.3   1 <1>   0.1400 
  7 C        2.8070    -1.4940    -0.7140 C.ar  1 <1>   0.4100 
  8 C        3.5350     0.5630    -1.7040 C.ar  1 <1>  -0.1500 
  9 C        0.1510     3.2940     1.2860 C.3   1 <1>  -0.1600 
 10 C        1.4510     2.8510     1.9510 C.3   1 <1>  -0.1600 
 11 N        3.9790    -2.0910    -0.9330 N.ar  1 <1>  -0.6200 
 12 N        1.8510    -2.2560    -0.0870 N.pl3 1 <1>  -0.8690 
 13 C        4.7410    -0.0580    -1.9340 C.ar  1 <1>  -0.1500 
 14 C        4.9070    -1.3710    -1.5310 C.ar  1 <1>   0.1600 
 15 C        1.8160    -3.7270    -0.1380 C.3   1 <1>   0.4330 
 16 C        0.3710    -4.1880    -0.3580 C.ar  1 <1>  -0.1430 
 17 C        2.4230    -4.2570     1.1640 C.3   1 <1>  -0.1600 
 18 C       -0.1910    -5.2230     0.3890 C.ar  1 <1>  -0.1430 
 19 C       -0.3950    -3.5790    -1.3460 C.ar  1 <1>  -0.1500 
 20 C        2.1020    -5.7410     1.3590 C.3   1 <1>  -0.1600 
 21 C       -1.4970    -5.6220     0.1480 C.ar  1 <1>  -0.1500 
 22 C        0.5890    -5.9340     1.4900 C.3   1 <1>  -0.0170 
 23 C       -1.6960    -3.9810    -1.5820 C.ar  1 <1>  -0.1500 
 24 C       -2.2580    -5.0040    -0.8390 C.ar  1 <1>   0.0830 
 25 O       -3.5400    -5.3430    -1.1320 O.3   1 <1>  -0.3620 
 26 C       -4.2080    -6.3630    -0.4260 C.3   1 <1>   0.0400 
 27 H       -0.8000     1.4410     0.7340 H     1 <1>   0.0800 
 28 H       -0.6370     2.5720    -0.6030 H     1 <1>   0.0800 
 29 H        2.8360     2.7660     0.3090 H     1 <1>   0.0800 
 30 H        2.7890     1.2910     1.2750 H     1 <1>   0.0800 
 31 H        3.3610     1.5820    -2.0050 H     1 <1>   0.1500 
 32 H       -0.6470     3.4320     1.9940 H     1 <1>   0.0800 
 33 H        0.3080     4.2140     0.7500 H     1 <1>   0.0800 
 34 H        2.0230     3.6780     2.3310 H     1 <1>   0.0800 
 35 H        1.2350     2.1730     2.7590 H     1 <1>   0.0800 
 36 H        0.8960    -1.8750    -0.1270 H     1 <1>   0.4000 
 37 H        5.5460     0.4630    -2.4200 H     1 <1>   0.1500 
 38 H        5.8540    -1.8510    -1.7120 H     1 <1>   0.1500 
 39 H        2.4030    -4.0800    -0.9690 H     1 <1>   0.0800 
 40 H        2.0270    -3.6970     1.9930 H     1 <1>   0.0800 
 41 H        3.4880    -4.1110     1.1320 H     1 <1>   0.0800 
 42 H        0.0190    -2.7830    -1.9430 H     1 <1>   0.1500 
 43 H        2.5920    -6.1100     2.2430 H     1 <1>   0.0800 
 44 H        2.4650    -6.3020     0.5140 H     1 <1>   0.0800 
 45 H       -1.9110    -6.4150     0.7380 H     1 <1>   0.1500 
 46 H        0.3660    -6.9860     1.4730 H     1 <1>   0.0800 
 47 H        0.2640    -5.5420     2.4380 H     1 <1>   0.0800 
 48 H       -2.2820    -3.5010    -2.3440 H     1 <1>   0.1500 
 49 H       -5.2020    -6.4490    -0.8250 H     1 <1>   0.0800 
 50 H       -4.2530    -6.0950     0.6150 H     1 <1>   0.0800 
 51 H       -3.6770    -7.2880    -0.5650 H     1 <1>   0.0800 
@<TRIPOS>BOND
  1   1   2  2   
  2   2   3  am  
  3   2   4  1   
  4   3   5  1   
  5   3   6  1   
  6   4   7  ar  
  7   4   8  ar  
  8   5   9  1   
  9   5  27  1   
 10   5  28  1   
 11   6  10  1   
 12   6  29  1   
 13   6  30  1   
 14   7  11  ar  
 15   7  12  1   
 16   8  13  ar  
 17   8  31  1   
 18   9  10  1   
 19   9  32  1   
 20   9  33  1   
 21  10  34  1   
 22  10  35  1   
 23  11  14  ar  
 24  12  15  1   
 25  12  36  1   
 26  13  14  ar  
 27  13  37  1   
 28  14  38  1   
 29  15  16  1   
 30  15  17  1   
 31  15  39  1   
 32  16  18  ar  
 33  16  19  ar  
 34  17  20  1   
 35  17  40  1   
 36  17  41  1   
 37  18  21  ar  
 38  18  22  1   
 39  19  23  ar  
 40  19  42  1   
 41  20  22  1   
 42  20  43  1   
 43  20  44  1   
 44  21  24  ar  
 45  21  45  1   
 46  22  46  1   
 47  22  47  1   
 48  23  24  ar  
 49  23  48  1   
 50  24  25  1   
 51  25  26  1   
 52  26  49  1   
 53  26  50  1   
 54  26  51  1   
@<TRIPOS>SUBSTRUCTURE
  1 ****  12 GROUP 4 **** **** 0

# MOE 2024.06 (io_trps.svl 2023.06)
