@<TRIPOS>MOLECULE
NONAME
52 54 1 0 0 
SMALL
USER_CHARGES


@<TRIPOS>ATOM
  1 F        0.8120    -0.5550     0.4680 F     1 <1>  -0.1900 
  2 C        0.5730    -1.8320     0.3330 C.ar  1 <1>   0.1900 
  3 C        0.0140    -2.5210     1.3920 C.ar  1 <1>  -0.1500 
  4 C        0.8880    -2.4460    -0.8630 C.ar  1 <1>  -0.1500 
  5 C       -0.2370    -3.8750     1.2420 C.ar  1 <1>  -0.1500 
  6 C        0.6330    -3.8000    -1.0010 C.ar  1 <1>  -0.1500 
  7 C        0.0700    -4.5180     0.0480 C.ar  1 <1>  -0.1430 
  8 C       -0.2170    -6.0020    -0.1060 C.3   1 <1>  -0.0160 
  9 C       -1.6730    -6.2120    -0.5230 C.3   1 <1>   0.1400 
 10 N       -1.9570    -7.6620    -0.6980 N.am  1 <1>  -0.7300 
 11 C       -2.4930    -8.4510     0.2770 C.2   1 <1>   0.5690 
 12 O       -2.7530    -8.0180     1.3730 O.2   1 <1>  -0.5700 
 13 C       -2.8200    -9.9300     0.0030 C.3   1 <1>   0.4040 
 14 N       -4.2760   -10.2580    -0.3050 N.4   1 <1>  -0.9590 
 15 C       -5.1840    -9.6970     0.7590 C.3   1 <1>   0.4230 
 16 C       -4.3960   -11.7310    -0.5550 C.3   1 <1>   0.2630 
 17 C       -6.4720   -10.4990     0.9880 C.3   1 <1>  -0.1600 
 18 C       -5.7420    -8.3640     0.2530 C.3   1 <1>  -0.1600 
 19 C       -7.4110   -10.1130    -0.1640 C.3   1 <1>  -0.0800 
 20 C       -6.9540    -8.7230    -0.6210 C.3   1 <1>  -0.0800 
 21 C       -8.8950    -9.9920     0.2120 C.3   1 <1>  -0.1600 
 22 C       -8.1640    -7.7910    -0.4780 C.3   1 <1>  -0.1600 
 23 C       -9.3650    -8.7290    -0.4990 C.3   1 <1>   0.2000 
 24 O      -10.4220    -8.1660     0.1770 O.3   1 <1>  -0.6800 
 25 H       -0.2170    -2.0090     2.3080 H     1 <1>   0.1500 
 26 H        1.3230    -1.8750    -1.6630 H     1 <1>   0.1500 
 27 H       -0.6720    -4.4250     2.0590 H     1 <1>   0.1500 
 28 H        0.8760    -4.2890    -1.9290 H     1 <1>   0.1500 
 29 H       -0.0370    -6.4970     0.8330 H     1 <1>   0.0800 
 30 H        0.4420    -6.4220    -0.8440 H     1 <1>   0.0800 
 31 H       -1.8670    -5.6920    -1.4460 H     1 <1>   0.0800 
 32 H       -2.3220    -5.8000     0.2330 H     1 <1>   0.0800 
 33 H       -1.6660    -8.0370    -1.6050 H     1 <1>   0.3700 
 34 H       -2.5200   -10.4800     0.8790 H     1 <1>   0.0800 
 35 H       -2.2010   -10.2600    -0.8120 H     1 <1>   0.0800 
 36 H       -4.5440    -9.7610    -1.1650 H     1 <1>   0.4500 
 37 H       -4.6450    -9.5700     1.6860 H     1 <1>   0.0800 
 38 H       -4.1770   -12.2830     0.3450 H     1 <1>   0.0800 
 39 H       -3.7090   -12.0400    -1.3270 H     1 <1>   0.0800 
 40 H       -5.3950   -11.9780    -0.8760 H     1 <1>   0.0800 
 41 H       -6.3410   -11.5590     1.0950 H     1 <1>   0.0800 
 42 H       -6.8910   -10.1470     1.9150 H     1 <1>   0.0800 
 43 H       -6.0640    -7.8050     1.1140 H     1 <1>   0.0800 
 44 H       -5.0290    -7.7590    -0.2760 H     1 <1>   0.0800 
 45 H       -7.3050   -10.8010    -0.9850 H     1 <1>   0.0800 
 46 H       -6.6670    -8.7780    -1.6590 H     1 <1>   0.0800 
 47 H       -9.0140    -9.8750     1.2740 H     1 <1>   0.0800 
 48 H       -9.4570   -10.8490    -0.1170 H     1 <1>   0.0800 
 49 H       -8.2140    -7.0810    -1.2850 H     1 <1>   0.0800 
 50 H       -8.1330    -7.2660     0.4600 H     1 <1>   0.0800 
 51 H       -9.6720    -8.9440    -1.5100 H     1 <1>   0.0800 
 52 H      -10.1630    -7.9440     1.0910 H     1 <1>   0.4000 
@<TRIPOS>BOND
  1   1   2  1   
  2   2   3  ar  
  3   2   4  ar  
  4   3   5  ar  
  5   3  25  1   
  6   4   6  ar  
  7   4  26  1   
  8   5   7  ar  
  9   5  27  1   
 10   6   7  ar  
 11   6  28  1   
 12   7   8  1   
 13   8   9  1   
 14   8  29  1   
 15   8  30  1   
 16   9  10  1   
 17   9  31  1   
 18   9  32  1   
 19  10  11  am  
 20  10  33  1   
 21  11  12  2   
 22  11  13  1   
 23  13  14  1   
 24  13  34  1   
 25  13  35  1   
 26  14  15  1   
 27  14  16  1   
 28  14  36  1   
 29  15  17  1   
 30  15  18  1   
 31  15  37  1   
 32  16  38  1   
 33  16  39  1   
 34  16  40  1   
 35  17  19  1   
 36  17  41  1   
 37  17  42  1   
 38  18  20  1   
 39  18  43  1   
 40  18  44  1   
 41  19  20  1   
 42  19  21  1   
 43  19  45  1   
 44  20  22  1   
 45  20  46  1   
 46  21  23  1   
 47  21  47  1   
 48  21  48  1   
 49  22  23  1   
 50  22  49  1   
 51  22  50  1   
 52  23  24  1   
 53  23  51  1   
 54  24  52  1   
@<TRIPOS>SUBSTRUCTURE
  1 ****  11 GROUP 4 **** **** 0

# MOE 2024.06 (io_trps.svl 2023.06)
