@<TRIPOS>MOLECULE
NONAME
53 56 1 0 0 
SMALL
USER_CHARGES


@<TRIPOS>ATOM
  1 O       -0.6010    -0.2150     1.5230 O.3   1 <1>  -0.6800 
  2 C        0.3200    -0.8710     0.7170 C.3   1 <1>   0.2000 
  3 C        0.6730    -2.1920     1.4100 C.3   1 <1>  -0.0800 
  4 C        1.6090    -0.0370     0.7230 C.3   1 <1>   0.3430 
  5 C        1.8010    -1.7740     2.3560 C.3   1 <1>   0.3430 
  6 C        1.0530    -3.3320     0.4260 C.3   1 <1>  -0.0170 
  7 N        2.5830    -0.7630     1.5990 N.4   1 <1>  -0.9590 
  8 C        2.5080    -3.3740    -0.0350 C.ar  1 <1>   0.1670 
  9 C        3.4680     0.1090     2.4120 C.3   1 <1>   0.4860 
 10 N        2.9590    -2.3660    -0.7210 N.ar  1 <1>  -0.6200 
 11 C        3.2950    -4.4860     0.3060 C.ar  1 <1>  -0.1500 
 12 C        4.2810     0.9870     1.4910 C.ar  1 <1>  -0.1440 
 13 C        4.2530    -2.4030    -1.1390 C.ar  1 <1>   0.3100 
 14 C        4.6000    -4.5400    -0.0800 C.ar  1 <1>  -0.1500 
 15 C        3.9410     2.3000     1.2660 C.ar  1 <1>   0.1600 
 16 C        5.3930     0.5150     0.8340 C.ar  1 <1>   0.1600 
 17 C        5.1220    -3.4690    -0.8220 C.ar  1 <1>   0.0000 
 18 C        4.7590    -1.3240    -1.8820 C.ar  1 <1>  -0.1500 
 19 N        4.6180     3.0660     0.4520 N.ar  1 <1>  -0.6200 
 20 N        6.0910     1.2630     0.0220 N.ar  1 <1>  -0.6200 
 21 C        6.4620    -3.4110    -1.2520 C.ar  1 <1>  -0.1500 
 22 C        6.0670    -1.2840    -2.2830 C.ar  1 <1>  -0.1500 
 23 C        5.6770     2.5180    -0.1440 C.ar  1 <1>   0.7200 
 24 C        6.9270    -2.3400    -1.9650 C.ar  1 <1>  -0.1500 
 25 N        6.4020     3.3140    -1.0070 N.pl3 1 <1>  -0.8380 
 26 C        7.7780     2.9570    -1.4550 C.3   1 <1>   0.1290 
 27 C        5.9070     4.6420    -1.4660 C.3   1 <1>   0.1290 
 28 H       -1.5090    -0.5550     1.3760 H     1 <1>   0.4000 
 29 H       -0.0960    -0.9780    -0.2710 H     1 <1>   0.0800 
 30 H       -0.1690    -2.5400     1.9840 H     1 <1>   0.0800 
 31 H        1.3980     0.9500     1.0980 H     1 <1>   0.0800 
 32 H        2.0080     0.0360    -0.2760 H     1 <1>   0.0800 
 33 H        2.4100    -2.6130     2.6490 H     1 <1>   0.0800 
 34 H        1.3700    -1.3150     3.2320 H     1 <1>   0.0800 
 35 H        0.4230    -3.2840    -0.4450 H     1 <1>   0.0800 
 36 H        0.8250    -4.2680     0.9050 H     1 <1>   0.0800 
 37 H        3.1590    -1.2970     0.9180 H     1 <1>   0.4500 
 38 H        2.8750     0.7190     3.0740 H     1 <1>   0.0800 
 39 H        4.1310    -0.4950     3.0090 H     1 <1>   0.0800 
 40 H        2.8650    -5.2980     0.8660 H     1 <1>   0.1500 
 41 H        5.2330    -5.3770     0.1610 H     1 <1>   0.1500 
 42 H        3.0910     2.7430     1.7590 H     1 <1>   0.1500 
 43 H        5.7250    -0.5020     0.9680 H     1 <1>   0.1500 
 44 H        4.0940    -0.5170    -2.1280 H     1 <1>   0.1500 
 45 H        7.1200    -4.2280    -1.0110 H     1 <1>   0.1500 
 46 H        6.4460    -0.4440    -2.8410 H     1 <1>   0.1500 
 47 H        7.9530    -2.2940    -2.2910 H     1 <1>   0.1500 
 48 H        8.3870     3.8410    -1.5150 H     1 <1>   0.0800 
 49 H        7.7320     2.4910    -2.4230 H     1 <1>   0.0800 
 50 H        8.2420     2.2770    -0.7620 H     1 <1>   0.0800 
 51 H        6.2840     4.8570    -2.4510 H     1 <1>   0.0800 
 52 H        6.2380     5.4050    -0.7840 H     1 <1>   0.0800 
 53 H        4.8310     4.6530    -1.5070 H     1 <1>   0.0800 
@<TRIPOS>BOND
  1   1   2  1   
  2   1  28  1   
  3   2   3  1   
  4   2   4  1   
  5   2  29  1   
  6   3   5  1   
  7   3   6  1   
  8   3  30  1   
  9   4   7  1   
 10   4  31  1   
 11   4  32  1   
 12   5   7  1   
 13   5  33  1   
 14   5  34  1   
 15   6   8  1   
 16   6  35  1   
 17   6  36  1   
 18   7   9  1   
 19   7  37  1   
 20   8  10  ar  
 21   8  11  ar  
 22   9  12  1   
 23   9  38  1   
 24   9  39  1   
 25  10  13  ar  
 26  11  14  ar  
 27  11  40  1   
 28  12  15  ar  
 29  12  16  ar  
 30  13  17  ar  
 31  13  18  ar  
 32  14  17  ar  
 33  14  41  1   
 34  15  19  ar  
 35  15  42  1   
 36  16  20  ar  
 37  16  43  1   
 38  17  21  ar  
 39  18  22  ar  
 40  18  44  1   
 41  19  23  ar  
 42  20  23  ar  
 43  21  24  ar  
 44  21  45  1   
 45  22  24  ar  
 46  22  46  1   
 47  23  25  1   
 48  24  47  1   
 49  25  26  1   
 50  25  27  1   
 51  26  48  1   
 52  26  49  1   
 53  26  50  1   
 54  27  51  1   
 55  27  52  1   
 56  27  53  1   
@<TRIPOS>SUBSTRUCTURE
  1 ****  16 GROUP 4 **** **** 0

# MOE 2024.06 (io_trps.svl 2023.06)
