@<TRIPOS>MOLECULE
NONAME
48 50 1 0 0 
SMALL
USER_CHARGES


@<TRIPOS>ATOM
  1 CL      -1.0980     4.1240    -2.4880 Cl    1 <1>  -0.1770 
  2 C       -1.8470     2.9680    -1.4150 C.ar  1 <1>   0.1770 
  3 C       -1.2720     2.6830    -0.1790 C.ar  1 <1>   0.0860 
  4 C       -3.0140     2.3590    -1.8380 C.ar  1 <1>  -0.1500 
  5 C       -0.0630     3.3340     0.2680 C.2   1 <1>   0.5440 
  6 C       -1.9120     1.7360     0.6210 C.ar  1 <1>  -0.1500 
  7 C       -3.6360     1.4300    -1.0210 C.ar  1 <1>  -0.1500 
  8 O        0.9740     2.6990     0.2780 O.2   1 <1>  -0.5700 
  9 N       -0.0600     4.6400     0.7200 N.am  1 <1>  -0.6600 
 10 C       -3.0800     1.1190     0.2080 C.ar  1 <1>  -0.1500 
 11 C        1.2120     5.3550     1.0100 C.3   1 <1>   0.1400 
 12 C       -1.2980     5.4240     0.9900 C.3   1 <1>   0.1400 
 13 C        1.2570     6.6690     0.2230 C.3   1 <1>  -0.1600 
 14 C       -1.2590     6.7440     0.2150 C.3   1 <1>  -0.1600 
 15 C        0.0240     7.5470     0.5120 C.3   1 <1>  -0.0190 
 16 C        0.0940     8.8730    -0.2520 C.2   1 <1>   0.5690 
 17 O       -0.6330     9.0590    -1.1960 O.2   1 <1>  -0.5700 
 18 N        0.9960     9.7990     0.1930 N.am  1 <1>  -0.4940 
 19 C        1.2680    11.0840    -0.2900 C.2   1 <1>   0.2040 
 20 O        0.6090    11.6140    -1.2940 O.3   1 <1>  -0.0190 
 21 C        2.1770    11.9910     0.1230 C.2   1 <1>  -0.1810 
 22 N        1.0300    12.8230    -1.5700 N.2   1 <1>  -0.4100 
 23 C        1.9720    13.0720    -0.7330 C.2   1 <1>   0.1080 
 24 C        3.1990    11.9040     1.2450 C.3   1 <1>  -0.0590 
 25 C        2.7360    14.3850    -0.7150 C.3   1 <1>   0.0210 
 26 C        4.0210    14.2930    -1.5440 C.3   1 <1>  -0.2400 
 27 H       -3.4280     2.6090    -2.7980 H     1 <1>   0.1500 
 28 H       -1.4780     1.4850     1.5740 H     1 <1>   0.1500 
 29 H       -4.5450     0.9500    -1.3420 H     1 <1>   0.1500 
 30 H       -3.5570     0.3910     0.8440 H     1 <1>   0.1500 
 31 H        2.0610     4.7510     0.7360 H     1 <1>   0.0800 
 32 H        1.2710     5.5500     2.0670 H     1 <1>   0.0800 
 33 H       -1.3570     5.6250     2.0460 H     1 <1>   0.0800 
 34 H       -2.1770     4.8720     0.7100 H     1 <1>   0.0800 
 35 H        1.2980     6.4390    -0.8280 H     1 <1>   0.0800 
 36 H        2.1590     7.1940     0.4770 H     1 <1>   0.0800 
 37 H       -2.1220     7.3330     0.4720 H     1 <1>   0.0800 
 38 H       -1.3180     6.5300    -0.8390 H     1 <1>   0.0800 
 39 H        0.0180     7.7860     1.5600 H     1 <1>   0.0800 
 40 H        1.5630     9.5160     0.9840 H     1 <1>   0.3700 
 41 H        3.1470    10.9490     1.7350 H     1 <1>   0.0800 
 42 H        3.0110    12.6740     1.9720 H     1 <1>   0.0800 
 43 H        4.1900    12.0320     0.8490 H     1 <1>   0.0800 
 44 H        2.9710    14.6530     0.2990 H     1 <1>   0.0800 
 45 H        2.1050    15.1570    -1.1210 H     1 <1>   0.0800 
 46 H        4.6720    13.5360    -1.1480 H     1 <1>   0.0800 
 47 H        4.5370    15.2370    -1.5350 H     1 <1>   0.0800 
 48 H        3.7800    14.0410    -2.5630 H     1 <1>   0.0800 
@<TRIPOS>BOND
  1   1   2  1   
  2   2   3  ar  
  3   2   4  ar  
  4   3   5  1   
  5   3   6  ar  
  6   4   7  ar  
  7   4  27  1   
  8   5   8  2   
  9   5   9  am  
 10   6  10  ar  
 11   6  28  1   
 12   7  10  ar  
 13   7  29  1   
 14   9  11  1   
 15   9  12  1   
 16  10  30  1   
 17  11  13  1   
 18  11  31  1   
 19  11  32  1   
 20  12  14  1   
 21  12  33  1   
 22  12  34  1   
 23  13  15  1   
 24  13  35  1   
 25  13  36  1   
 26  14  15  1   
 27  14  37  1   
 28  14  38  1   
 29  15  16  1   
 30  15  39  1   
 31  16  17  2   
 32  16  18  am  
 33  18  19  1   
 34  18  40  1   
 35  19  20  1   
 36  19  21  2   
 37  20  22  1   
 38  21  23  1   
 39  21  24  1   
 40  22  23  2   
 41  23  25  1   
 42  24  41  1   
 43  24  42  1   
 44  24  43  1   
 45  25  26  1   
 46  25  44  1   
 47  25  45  1   
 48  26  46  1   
 49  26  47  1   
 50  26  48  1   
@<TRIPOS>SUBSTRUCTURE
  1 ****  15 GROUP 4 **** **** 0

# MOE 2024.06 (io_trps.svl 2023.06)
