@<TRIPOS>MOLECULE
NONAME
55 57 1 0 0 
SMALL
USER_CHARGES


@<TRIPOS>ATOM
  1 S       -3.2910     4.3080     2.1200 S.3   1 <1>  -0.0800 
  2 C       -4.3820     2.9840     1.7560 C.2   1 <1>  -0.1100 
  3 C       -2.1300     3.7270     0.9410 C.2   1 <1>  -0.1100 
  4 C       -3.8710     2.1850     0.7990 C.2   1 <1>  -0.1810 
  5 C       -2.5810     2.6110     0.3390 C.2   1 <1>  -0.1500 
  6 C       -4.5250     0.9370     0.2110 C.3   1 <1>   0.0820 
  7 C       -6.0010     0.7710     0.5640 C.2   1 <1>   0.5690 
  8 O       -6.2990    -0.1790     1.2510 O.2   1 <1>  -0.5700 
  9 N       -6.9530     1.6530     0.1050 N.am  1 <1>  -0.6600 
 10 C       -8.3730     1.5140     0.5390 C.3   1 <1>   0.1400 
 11 C       -6.6400     2.8190    -0.7760 C.3   1 <1>   0.1400 
 12 C       -9.0020     2.8930     0.7510 C.3   1 <1>  -0.1600 
 13 C       -7.9000     3.2900    -1.5010 C.3   1 <1>  -0.1600 
 14 C       -8.9750     3.8000    -0.5080 C.3   1 <1>   0.2800 
 15 O       -8.5370     5.0570    -0.0360 O.3   1 <1>  -0.5600 
 16 C      -10.4080     3.9140    -1.1460 C.3   1 <1>   0.2000 
 17 C       -8.8530     6.1970    -0.7760 C.3   1 <1>   0.1200 
 18 O      -10.3380     4.0280    -2.5460 O.3   1 <1>  -0.6800 
 19 C      -11.1960     5.1300    -0.5700 C.3   1 <1>   0.3000 
 20 C      -10.3750     6.4090    -0.8410 C.3   1 <1>  -0.1600 
 21 N      -11.3110     5.0440     0.9090 N.am  1 <1>  -0.7300 
 22 C      -12.5870     5.2840    -1.2040 C.3   1 <1>  -0.2400 
 23 C      -12.1220     4.4140     1.7970 C.2   1 <1>   0.5690 
 24 O      -11.8130     4.4410     2.9620 O.2   1 <1>  -0.5700 
 25 C      -13.3890     3.6460     1.4330 C.3   1 <1>   0.1310 
 26 S      -12.9820     2.0240     0.6960 S.3   1 <1>  -0.4600 
 27 C      -12.3510     1.0800     2.1120 C.3   1 <1>  -0.0100 
 28 H       -5.3080     2.9450     2.3040 H     1 <1>   0.1500 
 29 H       -1.2210     4.2890     0.8250 H     1 <1>   0.1500 
 30 H       -2.0500     2.0620    -0.4190 H     1 <1>   0.1500 
 31 H       -3.9910     0.0760     0.5680 H     1 <1>   0.0800 
 32 H       -4.4320     0.9480    -0.8580 H     1 <1>   0.0800 
 33 H       -8.9200     0.9680    -0.2110 H     1 <1>   0.0800 
 34 H       -8.4270     0.9570     1.4600 H     1 <1>   0.0800 
 35 H       -6.2500     3.6250    -0.1760 H     1 <1>   0.0800 
 36 H       -5.8970     2.5440    -1.5030 H     1 <1>   0.0800 
 37 H       -8.4740     3.3670     1.5600 H     1 <1>   0.0800 
 38 H      -10.0080     2.7370     1.0840 H     1 <1>   0.0800 
 39 H       -8.2860     2.4610    -2.0680 H     1 <1>   0.0800 
 40 H       -7.6390     4.0570    -2.2040 H     1 <1>   0.0800 
 41 H      -10.9560     3.0070    -0.9630 H     1 <1>   0.0800 
 42 H       -8.3790     7.0380    -0.2970 H     1 <1>   0.0800 
 43 H       -8.4330     6.0910    -1.7600 H     1 <1>   0.0800 
 44 H       -9.8090     4.8080    -2.7920 H     1 <1>   0.4000 
 45 H      -10.6640     7.1840    -0.1530 H     1 <1>   0.0800 
 46 H      -10.5950     6.7870    -1.8230 H     1 <1>   0.0800 
 47 H      -10.4480     5.3870     1.3440 H     1 <1>   0.3700 
 48 H      -12.5020     5.5930    -2.2300 H     1 <1>   0.0800 
 49 H      -13.1670     6.0230    -0.6800 H     1 <1>   0.0800 
 50 H      -13.1040     4.3430    -1.2160 H     1 <1>   0.0800 
 51 H      -14.0010     4.1890     0.7420 H     1 <1>   0.0800 
 52 H      -13.9620     3.4480     2.3190 H     1 <1>   0.0800 
 53 H      -12.0060     0.1300     1.7460 H     1 <1>   0.0800 
 54 H      -13.1580     0.9510     2.8110 H     1 <1>   0.0800 
 55 H      -11.5450     1.6360     2.5580 H     1 <1>   0.0800 
@<TRIPOS>BOND
  1   1   2  1   
  2   1   3  1   
  3   2   4  2   
  4   2  28  1   
  5   3   5  2   
  6   3  29  1   
  7   4   5  1   
  8   4   6  1   
  9   5  30  1   
 10   6   7  1   
 11   6  31  1   
 12   6  32  1   
 13   7   8  2   
 14   7   9  am  
 15   9  10  1   
 16   9  11  1   
 17  10  12  1   
 18  10  33  1   
 19  10  34  1   
 20  11  13  1   
 21  11  35  1   
 22  11  36  1   
 23  12  14  1   
 24  12  37  1   
 25  12  38  1   
 26  13  14  1   
 27  13  39  1   
 28  13  40  1   
 29  14  15  1   
 30  14  16  1   
 31  15  17  1   
 32  16  18  1   
 33  16  19  1   
 34  16  41  1   
 35  17  20  1   
 36  17  42  1   
 37  17  43  1   
 38  18  44  1   
 39  19  20  1   
 40  19  21  1   
 41  19  22  1   
 42  20  45  1   
 43  20  46  1   
 44  21  23  am  
 45  21  47  1   
 46  22  48  1   
 47  22  49  1   
 48  22  50  1   
 49  23  24  2   
 50  23  25  1   
 51  25  26  1   
 52  25  51  1   
 53  25  52  1   
 54  26  27  1   
 55  27  53  1   
 56  27  54  1   
 57  27  55  1   
@<TRIPOS>SUBSTRUCTURE
  1 ****  12 GROUP 4 **** **** 0

# MOE 2024.06 (io_trps.svl 2023.06)
