@<TRIPOS>MOLECULE
NONAME
47 50 1 0 0 
SMALL
USER_CHARGES


@<TRIPOS>ATOM
  1 O        0.3560     0.5750     0.4820 O.3   1 <1>  -0.6800 
  2 C        1.0570    -0.1020    -0.5070 C.3   1 <1>   0.2000 
  3 C        1.3330    -1.5140     0.0030 C.3   1 <1>  -0.0800 
  4 C        2.4590     0.5260    -0.6170 C.3   1 <1>   0.3430 
  5 C        2.4910    -1.2510     0.9680 C.3   1 <1>   0.3430 
  6 C        1.7150    -2.4570    -1.1670 C.3   1 <1>  -0.0170 
  7 N        3.3740    -0.3250     0.2210 N.4   1 <1>  -0.9590 
  8 C        2.7380    -3.5060    -0.7660 C.ar  1 <1>   0.1670 
  9 C        4.2740     0.4550     1.0970 C.3   1 <1>   0.5230 
 10 N        3.9960    -3.1780    -0.8560 N.ar  1 <1>  -0.6200 
 11 C        2.2800    -4.7500    -0.3050 C.ar  1 <1>  -0.1500 
 12 C        4.9890     1.4830     0.2540 C.2   1 <1>  -0.3320 
 13 C        4.9100    -4.1320    -0.5210 C.ar  1 <1>   0.3100 
 14 C        3.1760    -5.6990     0.0790 C.ar  1 <1>  -0.1500 
 15 N        5.9860     1.2180    -0.6200 N.pl3 1 <1>   0.3140 
 16 C        4.7790     2.8190     0.2150 C.2   1 <1>  -0.1500 
 17 C        4.5430    -5.4010    -0.0200 C.ar  1 <1>   0.0000 
 18 C        6.2790    -3.8540    -0.6770 C.ar  1 <1>  -0.1500 
 19 N        6.3980     2.3350    -1.2320 N.2   1 <1>  -0.7070 
 20 C        6.6170    -0.0700    -0.9390 C.3   1 <1>   0.0160 
 21 C        5.6830     3.2910    -0.7250 C.2   1 <1>   0.1390 
 22 C        5.5500    -6.3150     0.3470 C.ar  1 <1>  -0.1500 
 23 C        7.2440    -4.7590    -0.3210 C.ar  1 <1>  -0.1500 
 24 C        6.8740    -6.0010     0.2030 C.ar  1 <1>  -0.1500 
 25 H       -0.6020     0.3670     0.4500 H     1 <1>   0.4000 
 26 H        0.5000    -0.0510    -1.4280 H     1 <1>   0.0800 
 27 H        0.4930    -1.9290     0.5320 H     1 <1>   0.0800 
 28 H        2.4290     1.5440    -0.2650 H     1 <1>   0.0800 
 29 H        2.7960     0.5170    -1.6400 H     1 <1>   0.0800 
 30 H        3.0050    -2.1540     1.2540 H     1 <1>   0.0800 
 31 H        2.1080    -0.7610     1.8500 H     1 <1>   0.0800 
 32 H        2.1320    -1.9010    -1.9890 H     1 <1>   0.0800 
 33 H        0.8290    -2.9390    -1.5430 H     1 <1>   0.0800 
 34 H        3.9350    -0.9250    -0.4050 H     1 <1>   0.4500 
 35 H        3.6940     0.9600     1.8540 H     1 <1>   0.0800 
 36 H        4.9850    -0.1930     1.5850 H     1 <1>   0.0800 
 37 H        1.2230    -4.9460    -0.2560 H     1 <1>   0.1500 
 38 H        2.8650    -6.6640     0.4430 H     1 <1>   0.1500 
 39 H        4.0830     3.4280     0.7660 H     1 <1>   0.1500 
 40 H        6.5560    -2.9090    -1.0960 H     1 <1>   0.1500 
 41 H        6.7530    -0.6410    -0.0410 H     1 <1>   0.0800 
 42 H        7.5760     0.1150    -1.3890 H     1 <1>   0.0800 
 43 H        5.9990    -0.6050    -1.6360 H     1 <1>   0.0800 
 44 H        5.7890     4.3250    -1.0120 H     1 <1>   0.1500 
 45 H        5.2610    -7.2740     0.7410 H     1 <1>   0.1500 
 46 H        8.2900    -4.5340    -0.4430 H     1 <1>   0.1500 
 47 H        7.6420    -6.7030     0.4820 H     1 <1>   0.1500 
@<TRIPOS>BOND
  1   1   2  1   
  2   1  25  1   
  3   2   3  1   
  4   2   4  1   
  5   2  26  1   
  6   3   5  1   
  7   3   6  1   
  8   3  27  1   
  9   4   7  1   
 10   4  28  1   
 11   4  29  1   
 12   5   7  1   
 13   5  30  1   
 14   5  31  1   
 15   6   8  1   
 16   6  32  1   
 17   6  33  1   
 18   7   9  1   
 19   7  34  1   
 20   8  10  ar  
 21   8  11  ar  
 22   9  12  1   
 23   9  35  1   
 24   9  36  1   
 25  10  13  ar  
 26  11  14  ar  
 27  11  37  1   
 28  12  15  1   
 29  12  16  2   
 30  13  17  ar  
 31  13  18  ar  
 32  14  17  ar  
 33  14  38  1   
 34  15  19  1   
 35  15  20  1   
 36  16  21  1   
 37  16  39  1   
 38  17  22  ar  
 39  18  23  ar  
 40  18  40  1   
 41  19  21  2   
 42  20  41  1   
 43  20  42  1   
 44  20  43  1   
 45  21  44  1   
 46  22  24  ar  
 47  22  45  1   
 48  23  24  ar  
 49  23  46  1   
 50  24  47  1   
@<TRIPOS>SUBSTRUCTURE
  1 ****  10 GROUP 4 **** **** 0

# MOE 2024.06 (io_trps.svl 2023.06)
