@<TRIPOS>MOLECULE
NONAME
38 40 1 0 0 
SMALL
USER_CHARGES


@<TRIPOS>ATOM
  1 S       -0.0440     0.1690     0.9530 S.3   1 <1>  -0.0800 
  2 C       -1.1280    -0.6100    -0.1520 C.2   1 <1>   0.4420 
  3 C       -0.1600     1.5790    -0.0430 C.2   1 <1>   0.1980 
  4 N       -1.4850     0.1660    -1.1100 N.2   1 <1>  -0.3380 
  5 N       -1.4580    -1.9170     0.1260 N.am  1 <1>  -0.4940 
  6 N       -0.9280     1.4150    -1.0420 N.2   1 <1>  -0.3380 
  7 C        0.6270     2.8120     0.3590 C.3   1 <1>   0.1640 
  8 C       -2.2890    -2.7820    -0.5240 C.2   1 <1>   0.5690 
  9 C        2.1230     2.5330     0.3860 C.ar  1 <1>  -0.1440 
 10 O       -2.9280    -2.4950    -1.5060 O.2   1 <1>  -0.5700 
 11 C       -2.3980    -4.1980     0.0540 C.3   1 <1>   0.2610 
 12 C        2.8350     2.5880     1.5760 C.ar  1 <1>  -0.1500 
 13 C        2.7880     2.2180    -0.7890 C.ar  1 <1>  -0.1500 
 14 O       -1.6890    -4.3250     1.2610 O.3   1 <1>  -0.5600 
 15 C       -1.7980    -5.2810    -0.8360 C.3   1 <1>  -0.1600 
 16 C        4.1970     2.3340     1.5980 C.ar  1 <1>  -0.1430 
 17 C        4.1470     1.9620    -0.7730 C.ar  1 <1>  -0.1500 
 18 C       -1.4360    -5.6700     1.5160 C.3   1 <1>   0.1200 
 19 C       -1.3600    -6.3530     0.1520 C.3   1 <1>  -0.1600 
 20 C        4.8490     2.0190     0.4170 C.ar  1 <1>  -0.1500 
 21 C        4.9680     2.3930     2.9040 C.3   1 <1>  -0.0970 
 22 H       -1.0270    -2.3330     0.9530 H     1 <1>   0.3700 
 23 H        0.2870     3.1420     1.3220 H     1 <1>   0.0800 
 24 H        0.4280     3.5980    -0.3470 H     1 <1>   0.0800 
 25 H       -3.4310    -4.4170     0.2600 H     1 <1>   0.0800 
 26 H        2.3300     2.8270     2.4960 H     1 <1>   0.1500 
 27 H        2.2490     2.1670    -1.7200 H     1 <1>   0.1500 
 28 H       -0.9460    -4.8860    -1.3620 H     1 <1>   0.0800 
 29 H       -2.5160    -5.6400    -1.5520 H     1 <1>   0.0800 
 30 H        4.6580     1.7170    -1.6880 H     1 <1>   0.1500 
 31 H       -2.2520    -6.0600     2.1020 H     1 <1>   0.0800 
 32 H       -0.5150    -5.7520     2.0670 H     1 <1>   0.0800 
 33 H       -0.3580    -6.6880    -0.0540 H     1 <1>   0.0800 
 34 H       -2.0220    -7.2020     0.1300 H     1 <1>   0.0800 
 35 H        5.9060     1.8170     0.4200 H     1 <1>   0.1500 
 36 H        4.5180     3.1020     3.5750 H     1 <1>   0.0800 
 37 H        5.9850     2.6940     2.7260 H     1 <1>   0.0800 
 38 H        4.9680     1.4240     3.3700 H     1 <1>   0.0800 
@<TRIPOS>BOND
  1   1   2  1   
  2   1   3  1   
  3   2   4  2   
  4   2   5  1   
  5   3   6  2   
  6   3   7  1   
  7   4   6  1   
  8   5   8  am  
  9   5  22  1   
 10   7   9  1   
 11   7  23  1   
 12   7  24  1   
 13   8  10  2   
 14   8  11  1   
 15   9  12  ar  
 16   9  13  ar  
 17  11  14  1   
 18  11  15  1   
 19  11  25  1   
 20  12  16  ar  
 21  12  26  1   
 22  13  17  ar  
 23  13  27  1   
 24  14  18  1   
 25  15  19  1   
 26  15  28  1   
 27  15  29  1   
 28  16  20  ar  
 29  16  21  1   
 30  17  20  ar  
 31  17  30  1   
 32  18  19  1   
 33  18  31  1   
 34  18  32  1   
 35  19  33  1   
 36  19  34  1   
 37  20  35  1   
 38  21  36  1   
 39  21  37  1   
 40  21  38  1   
@<TRIPOS>SUBSTRUCTURE
  1 ****   1 GROUP 4 **** **** 0

# MOE 2024.06 (io_trps.svl 2023.06)
