@<TRIPOS>MOLECULE
NONAME
31 30 1 0 0 
SMALL
USER_CHARGES


@<TRIPOS>ATOM
  1 O       -0.3920    -0.5710     0.6640 O.co2 1 <1>  -0.9000 
  2 C       -0.8190    -1.2500    -0.2750 C.2   1 <1>   0.9060 
  3 O       -0.0840    -1.9260    -1.0020 O.co2 1 <1>  -0.9000 
  4 C       -2.3060    -1.2540    -0.5470 C.3   1 <1>  -0.2660 
  5 C       -3.0270    -2.4060     0.1810 C.3   1 <1>  -0.1600 
  6 C       -4.5390    -2.4680    -0.1220 C.3   1 <1>  -0.0800 
  7 C       -5.2960    -1.3050     0.5660 C.3   1 <1>  -0.1600 
  8 C       -5.0760    -3.8500     0.3120 C.3   1 <1>  -0.1600 
  9 C       -6.3420    -0.6560    -0.3540 C.3   1 <1>  -0.1600 
 10 C       -6.5510    -4.0930    -0.0450 C.3   1 <1>  -0.1600 
 11 C       -7.0950     0.4620     0.3720 C.3   1 <1>  -0.2400 
 12 C       -6.9700    -5.5260     0.2940 C.3   1 <1>  -0.2400 
 13 H       -2.4390    -1.3490    -1.6070 H     1 <1>   0.0800 
 14 H       -2.6880    -0.3010    -0.2420 H     1 <1>   0.0800 
 15 H       -2.8640    -2.3130     1.2420 H     1 <1>   0.0800 
 16 H       -2.5560    -3.3220    -0.1350 H     1 <1>   0.0800 
 17 H       -4.6510    -2.3890    -1.1900 H     1 <1>   0.0800 
 18 H       -4.6030    -0.5400     0.8660 H     1 <1>   0.0800 
 19 H       -5.7650    -1.6570     1.4680 H     1 <1>   0.0800 
 20 H       -4.9420    -3.9650     1.3740 H     1 <1>   0.0800 
 21 H       -4.4850    -4.6090    -0.1710 H     1 <1>   0.0800 
 22 H       -7.0470    -1.3920    -0.6970 H     1 <1>   0.0800 
 23 H       -5.8460    -0.2460    -1.2170 H     1 <1>   0.0800 
 24 H       -6.6990    -3.9190    -1.0970 H     1 <1>   0.0800 
 25 H       -7.1780    -3.4110     0.5030 H     1 <1>   0.0800 
 26 H       -7.6140     0.0710     1.2290 H     1 <1>   0.0800 
 27 H       -7.8140     0.9110    -0.2900 H     1 <1>   0.0800 
 28 H       -6.4080     1.2230     0.6990 H     1 <1>   0.0800 
 29 H       -6.3780    -6.2310    -0.2610 H     1 <1>   0.0800 
 30 H       -8.0060    -5.6750     0.0440 H     1 <1>   0.0800 
 31 H       -6.8400    -5.7150     1.3450 H     1 <1>   0.0800 
@<TRIPOS>BOND
  1   1   2  ar  
  2   2   3  ar  
  3   2   4  1   
  4   4   5  1   
  5   4  13  1   
  6   4  14  1   
  7   5   6  1   
  8   5  15  1   
  9   5  16  1   
 10   6   7  1   
 11   6   8  1   
 12   6  17  1   
 13   7   9  1   
 14   7  18  1   
 15   7  19  1   
 16   8  10  1   
 17   8  20  1   
 18   8  21  1   
 19   9  11  1   
 20   9  22  1   
 21   9  23  1   
 22  10  12  1   
 23  10  24  1   
 24  10  25  1   
 25  11  26  1   
 26  11  27  1   
 27  11  28  1   
 28  12  29  1   
 29  12  30  1   
 30  12  31  1   
@<TRIPOS>SUBSTRUCTURE
  1 ****   6 GROUP 4 **** **** 0

# MOE 2024.06 (io_trps.svl 2023.06)
