@<TRIPOS>MOLECULE
NONAME
55 59 1 0 0 
SMALL
USER_CHARGES


@<TRIPOS>ATOM
  1 O       -1.1280     0.8900     1.5860 O.2   1 <1>  -0.5700 
  2 C       -2.0960     1.4790     1.1250 C.2   1 <1>   0.7160 
  3 N       -3.3190     0.8340     1.2040 N.am  1 <1>  -0.6600 
  4 C       -1.9040     2.8040     0.5290 C.2   1 <1>   0.2030 
  5 C       -4.5820     1.3150     0.5980 C.3   1 <1>   0.1400 
  6 C       -3.4940    -0.4910     1.8300 C.3   1 <1>   0.1400 
  7 N       -2.8270     3.6730     0.1470 N.2   1 <1>  -0.7070 
  8 C       -0.6340     3.3400     0.2880 C.2   1 <1>  -0.1500 
  9 C       -5.5920     0.1710     0.7680 C.3   1 <1>  -0.0800 
 10 C       -4.7900    -1.0570     1.2510 C.3   1 <1>  -0.0800 
 11 N       -2.1450     4.7280    -0.3230 N.pl3 1 <1>   0.3000 
 12 C       -0.8050     4.5710    -0.2510 C.2   1 <1>  -0.1520 
 13 C       -6.5210    -0.0800    -0.4500 C.3   1 <1>   0.4240 
 14 C       -4.5330    -2.0750     0.1270 C.3   1 <1>  -0.1600 
 15 C        0.1340     5.5720    -0.6900 C.2   1 <1>  -0.1520 
 16 O       -5.7960     0.0400    -1.6240 O.3   1 <1>  -0.6800 
 17 C       -7.6820     0.9360    -0.4640 C.ar  1 <1>  -0.1430 
 18 C       -7.0010    -1.5430    -0.4400 C.3   1 <1>  -0.1600 
 19 C       -5.8470    -2.5720    -0.5110 C.3   1 <1>  -0.1600 
 20 N        1.3620     5.8010    -0.1200 N.pl3 1 <1>   0.0480 
 21 C       -0.0190     6.4610    -1.7190 C.2   1 <1>  -0.1500 
 22 C       -7.7080     2.0130    -1.3470 C.ar  1 <1>  -0.1500 
 23 C       -8.7380     0.8100     0.4360 C.ar  1 <1>  -0.1500 
 24 C        1.9530     6.8220    -0.7950 C.2   1 <1>  -0.3020 
 25 C        1.9420     5.1210     1.0510 C.3   1 <1>   0.0160 
 26 C        1.1290     7.2490    -1.7850 C.2   1 <1>  -0.1500 
 27 C       -8.7530     2.9210    -1.3400 C.ar  1 <1>  -0.1500 
 28 C       -9.7850     1.7150     0.4450 C.ar  1 <1>  -0.1500 
 29 C       -9.7950     2.7720    -0.4450 C.ar  1 <1>  -0.1500 
 30 H       -4.9240     2.2010     1.1060 H     1 <1>   0.0800 
 31 H       -4.4030     1.5640    -0.4340 H     1 <1>   0.0800 
 32 H       -2.6500    -1.1300     1.6280 H     1 <1>   0.0800 
 33 H       -3.5870    -0.3580     2.8950 H     1 <1>   0.0800 
 34 H        0.2880     2.8300     0.5010 H     1 <1>   0.1500 
 35 H       -6.2220     0.4520     1.5920 H     1 <1>   0.0800 
 36 H       -5.3300    -1.5620     2.0340 H     1 <1>   0.0800 
 37 H       -2.6020     5.5700    -0.6880 H     1 <1>   0.2700 
 38 H       -3.9130    -1.6150    -0.6240 H     1 <1>   0.0800 
 39 H       -3.9850    -2.9170     0.5130 H     1 <1>   0.0800 
 40 H       -5.1090    -0.6500    -1.6150 H     1 <1>   0.4000 
 41 H       -7.5410    -1.7200     0.4720 H     1 <1>   0.0800 
 42 H       -7.6920    -1.7010    -1.2490 H     1 <1>   0.0800 
 43 H       -6.1660    -3.4730    -0.0150 H     1 <1>   0.0800 
 44 H       -5.6570    -2.8290    -1.5400 H     1 <1>   0.0800 
 45 H       -0.8590     6.5560    -2.3830 H     1 <1>   0.1500 
 46 H       -6.9100     2.1580    -2.0550 H     1 <1>   0.1500 
 47 H       -8.7590     0.0050     1.1470 H     1 <1>   0.1500 
 48 H        2.9290     7.1950    -0.5380 H     1 <1>   0.1500 
 49 H        2.7470     5.7110     1.4480 H     1 <1>   0.0800 
 50 H        2.3150     4.1590     0.7530 H     1 <1>   0.0800 
 51 H        1.1850     5.0000     1.8040 H     1 <1>   0.0800 
 52 H        1.3060     8.0390    -2.4950 H     1 <1>   0.1500 
 53 H       -8.7520     3.7420    -2.0350 H     1 <1>   0.1500 
 54 H      -10.5930     1.5970     1.1460 H     1 <1>   0.1500 
 55 H      -10.6080     3.4770    -0.4400 H     1 <1>   0.1500 
@<TRIPOS>BOND
  1   1   2  2   
  2   2   3  am  
  3   2   4  1   
  4   3   5  1   
  5   3   6  1   
  6   4   7  2   
  7   4   8  1   
  8   5   9  1   
  9   5  30  1   
 10   5  31  1   
 11   6  10  1   
 12   6  32  1   
 13   6  33  1   
 14   7  11  1   
 15   8  12  2   
 16   8  34  1   
 17   9  10  1   
 18   9  13  1   
 19   9  35  1   
 20  10  14  1   
 21  10  36  1   
 22  11  12  1   
 23  11  37  1   
 24  12  15  1   
 25  13  16  1   
 26  13  17  1   
 27  13  18  1   
 28  14  19  1   
 29  14  38  1   
 30  14  39  1   
 31  15  20  1   
 32  15  21  2   
 33  16  40  1   
 34  17  22  ar  
 35  17  23  ar  
 36  18  19  1   
 37  18  41  1   
 38  18  42  1   
 39  19  43  1   
 40  19  44  1   
 41  20  24  1   
 42  20  25  1   
 43  21  26  1   
 44  21  45  1   
 45  22  27  ar  
 46  22  46  1   
 47  23  28  ar  
 48  23  47  1   
 49  24  26  2   
 50  24  48  1   
 51  25  49  1   
 52  25  50  1   
 53  25  51  1   
 54  26  52  1   
 55  27  29  ar  
 56  27  53  1   
 57  28  29  ar  
 58  28  54  1   
 59  29  55  1   
@<TRIPOS>SUBSTRUCTURE
  1 ****   5 GROUP 4 **** **** 0

# MOE 2024.06 (io_trps.svl 2023.06)
