@<TRIPOS>MOLECULE
NONAME
57 59 1 0 0 
SMALL
USER_CHARGES


@<TRIPOS>ATOM
  1 O        0.7610    -0.2120     0.4410 O.2   1 <1>  -0.5700 
  2 C        1.9070    -0.5730     0.5990 C.2   1 <1>   0.5440 
  3 N        2.0800    -1.8890     0.8620 N.am  1 <1>  -0.8000 
  4 C        3.0210     0.3590     0.5280 C.ar  1 <1>   0.0860 
  5 C        4.3330    -0.0640     0.2970 C.ar  1 <1>  -0.1500 
  6 C        2.8170     1.7310     0.6890 C.ar  1 <1>  -0.1500 
  7 C        5.3820     0.8350     0.2440 C.ar  1 <1>  -0.1500 
  8 C        3.8600     2.6380     0.6360 C.ar  1 <1>  -0.1500 
  9 C        5.1590     2.1910     0.4140 C.ar  1 <1>   0.0830 
 10 O        6.2380     3.0040     0.3480 O.3   1 <1>  -0.3630 
 11 C        6.1290     4.3970     0.4890 C.3   1 <1>   0.1200 
 12 C        7.5370     4.9740     0.3430 C.3   1 <1>  -0.1600 
 13 C        7.5230     6.4960     0.4700 C.3   1 <1>   0.3430 
 14 N        8.9080     7.0290     0.3720 N.4   1 <1>  -0.9590 
 15 C        8.9750     8.4440     0.9030 C.3   1 <1>   0.3430 
 16 C        9.4280     6.9850    -1.0320 C.3   1 <1>   0.3430 
 17 C       10.4070     8.9700     1.1390 C.3   1 <1>   0.2090 
 18 C       10.8950     6.5490    -1.0720 C.3   1 <1>  -0.1600 
 19 N       11.2770     8.7490    -0.0500 N.pl3 1 <1>  -0.8380 
 20 C       11.8400     7.3890    -0.2090 C.3   1 <1>   0.2090 
 21 C       12.0380     9.8220    -0.5110 C.ar  1 <1>   0.1000 
 22 C       13.1150    10.3650     0.2000 C.ar  1 <1>  -0.1430 
 23 C       11.6980    10.3740    -1.7400 C.ar  1 <1>  -0.1500 
 24 C       13.8090    11.4410    -0.3300 C.ar  1 <1>  -0.1500 
 25 C       13.5620     9.8130     1.5470 C.3   1 <1>  -0.0970 
 26 C       12.3960    11.4450    -2.2620 C.ar  1 <1>  -0.1500 
 27 C       13.4550    11.9820    -1.5540 C.ar  1 <1>  -0.1500 
 28 H        1.2520    -2.4810     0.9320 H     1 <1>   0.3700 
 29 H        2.9650    -2.3010     1.1500 H     1 <1>   0.3700 
 30 H        4.5370    -1.1080     0.1500 H     1 <1>   0.1500 
 31 H        1.8140     2.0860     0.8600 H     1 <1>   0.1500 
 32 H        6.3850     0.4890     0.0660 H     1 <1>   0.1500 
 33 H        3.6380     3.6790     0.7700 H     1 <1>   0.1500 
 34 H        5.7170     4.6060     1.4620 H     1 <1>   0.0800 
 35 H        5.4730     4.7630    -0.2840 H     1 <1>   0.0800 
 36 H        7.9180     4.6820    -0.6190 H     1 <1>   0.0800 
 37 H        8.1570     4.5530     1.1150 H     1 <1>   0.0800 
 38 H        7.1010     6.7590     1.4270 H     1 <1>   0.0800 
 39 H        6.9050     6.9290    -0.3020 H     1 <1>   0.0800 
 40 H        9.5290     6.4470     0.9450 H     1 <1>   0.4500 
 41 H        8.4410     8.5050     1.8360 H     1 <1>   0.0800 
 42 H        8.4870     9.1080     0.2080 H     1 <1>   0.0800 
 43 H        9.3430     7.9620    -1.4800 H     1 <1>   0.0800 
 44 H        8.8480     6.2990    -1.6260 H     1 <1>   0.0800 
 45 H       10.8360     8.4890     2.0000 H     1 <1>   0.0800 
 46 H       10.3580    10.0260     1.3490 H     1 <1>   0.0800 
 47 H       11.2280     6.6350    -2.0910 H     1 <1>   0.0800 
 48 H       10.9860     5.5110    -0.8060 H     1 <1>   0.0800 
 49 H       12.8100     7.4440    -0.6760 H     1 <1>   0.0800 
 50 H       11.9670     6.9340     0.7590 H     1 <1>   0.0800 
 51 H       10.8770     9.9570    -2.2900 H     1 <1>   0.1500 
 52 H       14.6370    11.8710     0.2060 H     1 <1>   0.1500 
 53 H       13.6500     8.7440     1.5040 H     1 <1>   0.0800 
 54 H       12.8530    10.0810     2.3070 H     1 <1>   0.0800 
 55 H       14.5210    10.2120     1.8250 H     1 <1>   0.0800 
 56 H       12.1200    11.8620    -3.2140 H     1 <1>   0.1500 
 57 H       14.0030    12.8180    -1.9530 H     1 <1>   0.1500 
@<TRIPOS>BOND
  1   1   2  2   
  2   2   3  am  
  3   2   4  1   
  4   3  28  1   
  5   3  29  1   
  6   4   5  ar  
  7   4   6  ar  
  8   5   7  ar  
  9   5  30  1   
 10   6   8  ar  
 11   6  31  1   
 12   7   9  ar  
 13   7  32  1   
 14   8   9  ar  
 15   8  33  1   
 16   9  10  1   
 17  10  11  1   
 18  11  12  1   
 19  11  34  1   
 20  11  35  1   
 21  12  13  1   
 22  12  36  1   
 23  12  37  1   
 24  13  14  1   
 25  13  38  1   
 26  13  39  1   
 27  14  15  1   
 28  14  16  1   
 29  14  40  1   
 30  15  17  1   
 31  15  41  1   
 32  15  42  1   
 33  16  18  1   
 34  16  43  1   
 35  16  44  1   
 36  17  19  1   
 37  17  45  1   
 38  17  46  1   
 39  18  20  1   
 40  18  47  1   
 41  18  48  1   
 42  19  20  1   
 43  19  21  1   
 44  20  49  1   
 45  20  50  1   
 46  21  22  ar  
 47  21  23  ar  
 48  22  24  ar  
 49  22  25  1   
 50  23  26  ar  
 51  23  51  1   
 52  24  27  ar  
 53  24  52  1   
 54  25  53  1   
 55  25  54  1   
 56  25  55  1   
 57  26  27  ar  
 58  26  56  1   
 59  27  57  1   
@<TRIPOS>SUBSTRUCTURE
  1 ****  12 GROUP 4 **** **** 0

# MOE 2024.06 (io_trps.svl 2023.06)
