@<TRIPOS>MOLECULE
NONAME
49 50 1 0 0 
SMALL
USER_CHARGES


@<TRIPOS>ATOM
  1 S       -0.2090     0.5140    -0.7780 S.o2  1 <1>   1.3330 
  2 O        0.0650     1.6170    -1.6720 O.2   1 <1>  -0.6500 
  3 O       -1.0940    -0.5540    -1.1650 O.2   1 <1>  -0.6500 
  4 N        1.2860    -0.1610    -0.3390 N.am  1 <1>  -0.8490 
  5 C       -0.7870     1.2410     0.7630 C.3   1 <1>  -0.0550 
  6 C        1.1470    -1.4570     0.3490 C.3   1 <1>   0.1160 
  7 C        2.1470    -0.3630    -1.5140 C.3   1 <1>   0.1160 
  8 C       -0.2050     2.6310     1.1250 C.3   1 <1>  -0.0800 
  9 C       -0.7360     3.7650     0.2280 C.3   1 <1>   0.2000 
 10 C        1.3320     2.7290     1.0410 C.3   1 <1>   0.3430 
 11 O       -1.2640     4.7530     1.0520 O.3   1 <1>  -0.6800 
 12 C        0.5060     4.3290    -0.4730 C.3   1 <1>   0.3430 
 13 N        1.6440     4.0660     0.4630 N.4   1 <1>  -0.9590 
 14 C        1.7460     5.1180     1.5230 C.3   1 <1>   0.4860 
 15 C        2.0170     6.4640     0.8960 C.ar  1 <1>  -0.1440 
 16 C        1.0160     7.3950     0.7500 C.ar  1 <1>   0.1600 
 17 C        3.2670     6.8220     0.4480 C.ar  1 <1>   0.1600 
 18 N        1.2250     8.5590     0.1940 N.ar  1 <1>  -0.6200 
 19 N        3.5000     7.9800    -0.1110 N.ar  1 <1>  -0.6200 
 20 C        2.4660     8.8150    -0.2200 C.ar  1 <1>   0.7200 
 21 N        2.7000    10.0440    -0.8050 N.pl3 1 <1>  -0.8380 
 22 C        4.0780    10.4960    -1.1530 C.3   1 <1>   0.1290 
 23 C        1.6550    11.1070    -0.8370 C.3   1 <1>   0.1290 
 24 H       -1.8560     1.3350     0.7090 H     1 <1>   0.0800 
 25 H       -0.5850     0.5590     1.5650 H     1 <1>   0.0800 
 26 H        2.1140    -1.8200     0.6560 H     1 <1>   0.0800 
 27 H        0.6970    -2.1870    -0.3050 H     1 <1>   0.0800 
 28 H        0.5310    -1.3600     1.2260 H     1 <1>   0.0800 
 29 H        3.0920    -0.7860    -1.2190 H     1 <1>   0.0800 
 30 H        2.3390     0.5760    -2.0050 H     1 <1>   0.0800 
 31 H        1.6710    -1.0260    -2.2190 H     1 <1>   0.0800 
 32 H       -0.4860     2.8270     2.1460 H     1 <1>   0.0800 
 33 H       -1.4890     3.4660    -0.4830 H     1 <1>   0.0800 
 34 H        1.7170     1.9750     0.3780 H     1 <1>   0.0800 
 35 H        1.7890     2.5970     2.0090 H     1 <1>   0.0800 
 36 H       -2.2130     4.5860     1.2430 H     1 <1>   0.4000 
 37 H        0.3880     5.3740    -0.7080 H     1 <1>   0.0800 
 38 H        0.6680     3.7870    -1.3910 H     1 <1>   0.0800 
 39 H        2.5190     4.0410    -0.0760 H     1 <1>   0.4500 
 40 H        0.8280     5.1650     2.0870 H     1 <1>   0.0800 
 41 H        2.5450     4.8760     2.2050 H     1 <1>   0.0800 
 42 H        0.0150     7.1840     1.0910 H     1 <1>   0.1500 
 43 H        4.1030     6.1500     0.5450 H     1 <1>   0.1500 
 44 H        4.0410    11.2900    -1.8770 H     1 <1>   0.0800 
 45 H        4.6450     9.6840    -1.5760 H     1 <1>   0.0800 
 46 H        4.5770    10.8460    -0.2670 H     1 <1>   0.0800 
 47 H        1.8820    11.8340    -1.5960 H     1 <1>   0.0800 
 48 H        1.6090    11.5960     0.1200 H     1 <1>   0.0800 
 49 H        0.6920    10.6820    -1.0590 H     1 <1>   0.0800 
@<TRIPOS>BOND
  1   1   2  2   
  2   1   3  2   
  3   1   4  am  
  4   1   5  1   
  5   4   6  1   
  6   4   7  1   
  7   5   8  1   
  8   5  24  1   
  9   5  25  1   
 10   6  26  1   
 11   6  27  1   
 12   6  28  1   
 13   7  29  1   
 14   7  30  1   
 15   7  31  1   
 16   8   9  1   
 17   8  10  1   
 18   8  32  1   
 19   9  11  1   
 20   9  12  1   
 21   9  33  1   
 22  10  13  1   
 23  10  34  1   
 24  10  35  1   
 25  11  36  1   
 26  12  13  1   
 27  12  37  1   
 28  12  38  1   
 29  13  14  1   
 30  13  39  1   
 31  14  15  1   
 32  14  40  1   
 33  14  41  1   
 34  15  16  ar  
 35  15  17  ar  
 36  16  18  ar  
 37  16  42  1   
 38  17  19  ar  
 39  17  43  1   
 40  18  20  ar  
 41  19  20  ar  
 42  20  21  1   
 43  21  22  1   
 44  21  23  1   
 45  22  44  1   
 46  22  45  1   
 47  22  46  1   
 48  23  47  1   
 49  23  48  1   
 50  23  49  1   
@<TRIPOS>SUBSTRUCTURE
  1 ****  13 GROUP 4 **** **** 0

# MOE 2024.06 (io_trps.svl 2023.06)
