@<TRIPOS>MOLECULE
NONAME
43 45 1 0 0 
SMALL
USER_CHARGES


@<TRIPOS>ATOM
  1 CL      -2.8280     1.7290     1.9810 Cl    1 <1>  -0.1770 
  2 C       -1.4870     2.2750     1.0010 C.ar  1 <1>   0.1770 
  3 C       -1.5480     2.1960    -0.3840 C.ar  1 <1>  -0.1440 
  4 C       -0.3780     2.7860     1.6570 C.ar  1 <1>  -0.1500 
  5 C       -0.4410     2.6620    -1.0810 C.ar  1 <1>   0.1900 
  6 C       -2.7690     1.6130    -1.1010 C.3   1 <1>   0.0440 
  7 C        0.7110     3.2400     0.9300 C.ar  1 <1>  -0.1500 
  8 F       -0.4360     2.6290    -2.3870 F     1 <1>  -0.1900 
  9 C        0.6800     3.1780    -0.4530 C.ar  1 <1>  -0.1500 
 10 C       -2.7980     0.0900    -1.0280 C.2   1 <1>   0.5690 
 11 O       -1.8260    -0.5110    -1.4180 O.2   1 <1>  -0.5700 
 12 N       -3.8960    -0.5820    -0.5570 N.am  1 <1>  -0.6600 
 13 C       -5.1920    -0.0080    -0.1110 C.3   1 <1>   0.1400 
 14 C       -3.8950    -2.0560    -0.3870 C.3   1 <1>   0.1400 
 15 C       -6.0780    -1.2170     0.1850 C.3   1 <1>   0.2000 
 16 C       -5.1140    -2.3610     0.4830 C.3   1 <1>  -0.0800 
 17 O       -6.9050    -0.9880     1.2720 O.3   1 <1>  -0.6800 
 18 C       -5.7200    -3.7490     0.2300 C.3   1 <1>   0.0210 
 19 C       -4.6840    -4.8380     0.4270 C.2   1 <1>   0.1080 
 20 N       -4.0890    -5.0450     1.5600 N.2   1 <1>  -0.7070 
 21 C       -4.2490    -5.7130    -0.5630 C.2   1 <1>  -0.1500 
 22 N       -3.2480    -6.0690     1.3210 N.pl3 1 <1>   0.3000 
 23 C       -3.3270    -6.4910     0.0410 C.2   1 <1>  -0.3320 
 24 C       -2.5020    -7.6270    -0.5340 C.3   1 <1>  -0.0600 
 25 H       -0.3720     2.8260     2.7310 H     1 <1>   0.1500 
 26 H       -2.7630     1.8860    -2.1390 H     1 <1>   0.0800 
 27 H       -3.6560     2.0370    -0.6750 H     1 <1>   0.0800 
 28 H        1.5750     3.6360     1.4360 H     1 <1>   0.1500 
 29 H        1.5110     3.5220    -1.0420 H     1 <1>   0.1500 
 30 H       -5.0370     0.5730     0.7810 H     1 <1>   0.0800 
 31 H       -5.6250     0.5990    -0.8860 H     1 <1>   0.0800 
 32 H       -3.9830    -2.5190    -1.3550 H     1 <1>   0.0800 
 33 H       -2.9850    -2.3900     0.0830 H     1 <1>   0.0800 
 34 H       -6.6940    -1.4330    -0.6720 H     1 <1>   0.0800 
 35 H       -4.7880    -2.3020     1.5080 H     1 <1>   0.0800 
 36 H       -6.3750    -0.9400     2.0920 H     1 <1>   0.4000 
 37 H       -6.1110    -3.8070    -0.7690 H     1 <1>   0.0800 
 38 H       -6.5310    -3.9170     0.9170 H     1 <1>   0.0800 
 39 H       -4.5900    -5.7410    -1.5820 H     1 <1>   0.1500 
 40 H       -2.6360    -6.4540     2.0500 H     1 <1>   0.2700 
 41 H       -2.7450    -7.7720    -1.5710 H     1 <1>   0.0800 
 42 H       -2.7050    -8.5410    -0.0040 H     1 <1>   0.0800 
 43 H       -1.4530    -7.4010    -0.4560 H     1 <1>   0.0800 
@<TRIPOS>BOND
  1   1   2  1   
  2   2   3  ar  
  3   2   4  ar  
  4   3   5  ar  
  5   3   6  1   
  6   4   7  ar  
  7   4  25  1   
  8   5   8  1   
  9   5   9  ar  
 10   6  10  1   
 11   6  26  1   
 12   6  27  1   
 13   7   9  ar  
 14   7  28  1   
 15   9  29  1   
 16  10  11  2   
 17  10  12  am  
 18  12  13  1   
 19  12  14  1   
 20  13  15  1   
 21  13  30  1   
 22  13  31  1   
 23  14  16  1   
 24  14  32  1   
 25  14  33  1   
 26  15  16  1   
 27  15  17  1   
 28  15  34  1   
 29  16  18  1   
 30  16  35  1   
 31  17  36  1   
 32  18  19  1   
 33  18  37  1   
 34  18  38  1   
 35  19  20  2   
 36  19  21  1   
 37  20  22  1   
 38  21  23  2   
 39  21  39  1   
 40  22  23  1   
 41  22  40  1   
 42  23  24  1   
 43  24  41  1   
 44  24  42  1   
 45  24  43  1   
@<TRIPOS>SUBSTRUCTURE
  1 ****  12 GROUP 4 **** **** 0

# MOE 2024.06 (io_trps.svl 2023.06)
