@<TRIPOS>MOLECULE
NONAME
59 62 1 0 0 
SMALL
USER_CHARGES


@<TRIPOS>ATOM
  1 O        2.7370    -1.5160    -2.7600 O.2   1 <1>  -0.5700 
  2 C        2.1700    -2.2480    -1.9760 C.2   1 <1>   0.7160 
  3 N        2.9710    -2.8950    -1.0930 N.am  1 <1>  -0.7300 
  4 C        0.7350    -2.3850    -1.9620 C.2   1 <1>  -0.0860 
  5 C        3.2500    -2.3760     0.2640 C.3   1 <1>   0.3000 
  6 C       -0.0760    -3.4090    -1.6140 C.2   1 <1>  -0.0400 
  7 C       -0.1970    -1.4210    -2.3200 C.2   1 <1>   0.1080 
  8 C        3.9960    -1.0160     0.1640 C.3   1 <1>   0.2000 
  9 C        4.1800    -3.3940     0.9520 C.3   1 <1>  -0.1600 
 10 C        1.9300    -2.2650     1.0430 C.3   1 <1>  -0.2400 
 11 O       -1.3450    -3.0970    -1.7230 O.3   1 <1>  -0.0190 
 12 C        0.2530    -4.8150    -1.1500 C.3   1 <1>  -0.0600 
 13 N       -1.3870    -1.8620    -2.1630 N.2   1 <1>  -0.4100 
 14 C        0.1060    -0.0260    -2.8290 C.3   1 <1>  -0.0590 
 15 O        4.2680    -0.5090     1.4380 O.3   1 <1>  -0.6800 
 16 C        5.3330    -1.1800    -0.5900 C.3   1 <1>   0.1200 
 17 C        5.6590    -3.3350     0.4830 C.3   1 <1>   0.2800 
 18 O        5.7730    -2.5210    -0.6550 O.3   1 <1>  -0.5600 
 19 C        6.6250    -2.8390     1.5860 C.3   1 <1>  -0.1600 
 20 C        6.1500    -4.7200     0.0350 C.3   1 <1>  -0.1600 
 21 C        8.1110    -3.0840     1.2980 C.3   1 <1>   0.3430 
 22 C        7.5790    -4.6990    -0.5310 C.3   1 <1>   0.3430 
 23 N        8.3010    -3.4650    -0.1210 N.4   1 <1>  -0.9590 
 24 C        9.7130    -3.3680    -0.5820 C.3   1 <1>   0.5240 
 25 C       10.1070    -1.8930    -0.6440 C.2   1 <1>   0.1080 
 26 N        9.2400    -0.9350    -0.8210 N.2   1 <1>  -0.7070 
 27 C       11.4040    -1.4070    -0.5170 C.2   1 <1>  -0.1500 
 28 N        9.9760     0.1980    -0.8210 N.pl3 1 <1>   0.3000 
 29 C       11.2830    -0.0680    -0.6340 C.2   1 <1>  -0.3020 
 30 H        3.8840    -3.0730    -1.5230 H     1 <1>   0.3700 
 31 H        3.3890    -0.2820    -0.3370 H     1 <1>   0.0800 
 32 H        3.7730    -4.3810     0.8240 H     1 <1>   0.0800 
 33 H        4.1570    -3.2100     2.0110 H     1 <1>   0.0800 
 34 H        2.1140    -1.9960     2.0670 H     1 <1>   0.0800 
 35 H        1.4130    -3.2070     1.0410 H     1 <1>   0.0800 
 36 H        1.2910    -1.5120     0.6170 H     1 <1>   0.0800 
 37 H        1.3120    -4.9870    -1.1470 H     1 <1>   0.0800 
 38 H       -0.2080    -5.5280    -1.8100 H     1 <1>   0.0800 
 39 H       -0.1300    -4.9690    -0.1570 H     1 <1>   0.0800 
 40 H        0.7530     0.4860    -2.1420 H     1 <1>   0.0800 
 41 H       -0.8050     0.5350    -2.9360 H     1 <1>   0.0800 
 42 H        0.5890    -0.0870    -3.7880 H     1 <1>   0.0800 
 43 H        3.4440    -0.2030     1.8670 H     1 <1>   0.4000 
 44 H        6.1060    -0.5760    -0.1470 H     1 <1>   0.0800 
 45 H        5.1990    -0.8560    -1.6080 H     1 <1>   0.0800 
 46 H        6.4760    -1.7960     1.7890 H     1 <1>   0.0800 
 47 H        6.4010    -3.3500     2.5050 H     1 <1>   0.0800 
 48 H        6.1220    -5.3930     0.8730 H     1 <1>   0.0800 
 49 H        5.4860    -5.1230    -0.7100 H     1 <1>   0.0800 
 50 H        8.4810    -3.8700     1.9360 H     1 <1>   0.0800 
 51 H        8.6630    -2.1820     1.5130 H     1 <1>   0.0800 
 52 H        7.5250    -4.7270    -1.6070 H     1 <1>   0.0800 
 53 H        8.1110    -5.5740    -0.1960 H     1 <1>   0.0800 
 54 H        7.8350    -2.6830    -0.6300 H     1 <1>   0.4500 
 55 H       10.3670    -3.9020     0.0850 H     1 <1>   0.0800 
 56 H        9.8040    -3.7840    -1.5710 H     1 <1>   0.0800 
 57 H       12.3030    -1.9800    -0.3620 H     1 <1>   0.1500 
 58 H        9.5630     1.1320    -0.9520 H     1 <1>   0.2700 
 59 H       12.0400     0.6960    -0.5990 H     1 <1>   0.1500 
@<TRIPOS>BOND
  1   1   2  2   
  2   2   3  am  
  3   2   4  1   
  4   3   5  1   
  5   3  30  1   
  6   4   6  2   
  7   4   7  1   
  8   5   8  1   
  9   5   9  1   
 10   5  10  1   
 11   6  11  1   
 12   6  12  1   
 13   7  13  2   
 14   7  14  1   
 15   8  15  1   
 16   8  16  1   
 17   8  31  1   
 18   9  17  1   
 19   9  32  1   
 20   9  33  1   
 21  10  34  1   
 22  10  35  1   
 23  10  36  1   
 24  11  13  1   
 25  12  37  1   
 26  12  38  1   
 27  12  39  1   
 28  14  40  1   
 29  14  41  1   
 30  14  42  1   
 31  15  43  1   
 32  16  18  1   
 33  16  44  1   
 34  16  45  1   
 35  17  18  1   
 36  17  19  1   
 37  17  20  1   
 38  19  21  1   
 39  19  46  1   
 40  19  47  1   
 41  20  22  1   
 42  20  48  1   
 43  20  49  1   
 44  21  23  1   
 45  21  50  1   
 46  21  51  1   
 47  22  23  1   
 48  22  52  1   
 49  22  53  1   
 50  23  24  1   
 51  23  54  1   
 52  24  25  1   
 53  24  55  1   
 54  24  56  1   
 55  25  26  2   
 56  25  27  1   
 57  26  28  1   
 58  27  29  2   
 59  27  57  1   
 60  28  29  1   
 61  28  58  1   
 62  29  59  1   
@<TRIPOS>SUBSTRUCTURE
  1 ****  18 GROUP 4 **** **** 0

# MOE 2024.06 (io_trps.svl 2023.06)
