@<TRIPOS>MOLECULE
NONAME
38 40 1 0 0 
SMALL
USER_CHARGES


@<TRIPOS>ATOM
  1 O       -2.1620     1.0410    -1.8110 O.2   1 <1>  -0.5700 
  2 C       -1.8660     1.0120    -0.6280 C.2   1 <1>   0.7160 
  3 N       -1.8780    -0.1920     0.0150 N.am  1 <1>  -0.7300 
  4 C       -1.5190     2.2140     0.1130 C.2   1 <1>   0.2030 
  5 C       -2.2880    -1.4900    -0.5620 C.3   1 <1>   0.2200 
  6 N       -1.2570     2.2630     1.4090 N.2   1 <1>  -0.7070 
  7 C       -1.4190     3.4910    -0.4560 C.2   1 <1>  -0.1500 
  8 C       -3.6930    -1.8210    -0.0880 C.3   1 <1>  -0.0800 
  9 C       -1.4610    -2.6230     0.0450 C.3   1 <1>   0.1200 
 10 N       -0.9870     3.5640     1.6560 N.pl3 1 <1>   0.3000 
 11 C       -1.0880     4.3320     0.5450 C.2   1 <1>  -0.0680 
 12 C       -3.4130    -2.4760     1.2640 C.3   1 <1>   0.1200 
 13 C       -4.4080    -2.7760    -1.0620 C.3   1 <1>  -0.0160 
 14 O       -2.1730    -3.1070     1.1480 O.3   1 <1>  -0.5600 
 15 N       -0.8720     5.7150     0.4850 N.pl3 1 <1>  -0.8840 
 16 C       -5.8240    -3.0770    -0.5980 C.ar  1 <1>  -0.1440 
 17 C       -6.1670    -4.2840    -0.0220 C.ar  1 <1>  -0.1500 
 18 C       -6.8410    -2.1530    -0.7270 C.ar  1 <1>  -0.1500 
 19 C       -7.4720    -4.5010     0.3880 C.ar  1 <1>   0.1600 
 20 C       -8.1140    -2.4690    -0.2840 C.ar  1 <1>   0.1600 
 21 N       -8.4540    -3.6210     0.2730 N.ar  1 <1>  -0.6200 
 22 H       -1.6580    -0.1720     1.0150 H     1 <1>   0.3700 
 23 H       -2.2010    -1.4600    -1.6350 H     1 <1>   0.0800 
 24 H       -1.5820     3.7150    -1.4940 H     1 <1>   0.1500 
 25 H       -4.2870    -0.9310     0.0270 H     1 <1>   0.0800 
 26 H       -0.4860    -2.2970     0.3610 H     1 <1>   0.0800 
 27 H       -1.3630    -3.4340    -0.6540 H     1 <1>   0.0800 
 28 H       -0.7090     3.9130     2.5790 H     1 <1>   0.2700 
 29 H       -4.1540    -3.1990     1.5520 H     1 <1>   0.0800 
 30 H       -3.3250    -1.7290     2.0350 H     1 <1>   0.0800 
 31 H       -3.8540    -3.6940    -1.1570 H     1 <1>   0.0800 
 32 H       -4.4550    -2.3220    -2.0370 H     1 <1>   0.0800 
 33 H       -1.3320     6.2740     1.2130 H     1 <1>   0.4000 
 34 H       -1.0610     6.1300    -0.4360 H     1 <1>   0.4000 
 35 H       -5.4320    -5.0570     0.1130 H     1 <1>   0.1500 
 36 H       -6.6550    -1.1910    -1.1680 H     1 <1>   0.1500 
 37 H       -7.7210    -5.4480     0.8350 H     1 <1>   0.1500 
 38 H       -8.8940    -1.7350    -0.3920 H     1 <1>   0.1500 
@<TRIPOS>BOND
  1   1   2  2   
  2   2   3  am  
  3   2   4  1   
  4   3   5  1   
  5   3  22  1   
  6   4   6  2   
  7   4   7  1   
  8   5   8  1   
  9   5   9  1   
 10   5  23  1   
 11   6  10  1   
 12   7  11  2   
 13   7  24  1   
 14   8  12  1   
 15   8  13  1   
 16   8  25  1   
 17   9  14  1   
 18   9  26  1   
 19   9  27  1   
 20  10  11  1   
 21  10  28  1   
 22  11  15  1   
 23  12  14  1   
 24  12  29  1   
 25  12  30  1   
 26  13  16  1   
 27  13  31  1   
 28  13  32  1   
 29  15  33  1   
 30  15  34  1   
 31  16  17  ar  
 32  16  18  ar  
 33  17  19  ar  
 34  17  35  1   
 35  18  20  ar  
 36  18  36  1   
 37  19  21  ar  
 38  19  37  1   
 39  20  21  ar  
 40  20  38  1   
@<TRIPOS>SUBSTRUCTURE
  1 ****   8 GROUP 4 **** **** 0

# MOE 2024.06 (io_trps.svl 2023.06)
