@<TRIPOS>MOLECULE
NONAME
45 47 1 0 0 
SMALL
USER_CHARGES


@<TRIPOS>ATOM
  1 F       -1.7920    -4.3080    -3.2210 F     1 <1>  -0.3400 
  2 C       -2.7260    -3.9470    -2.3540 C.3   1 <1>   1.3000 
  3 F       -2.9990    -2.6640    -2.5570 F     1 <1>  -0.3400 
  4 F       -3.8210    -4.6530    -2.6190 F     1 <1>  -0.3400 
  5 O       -2.2780    -4.1770    -1.0340 O.3   1 <1>  -0.3630 
  6 C       -3.1720    -4.0170    -0.0370 C.ar  1 <1>   0.0830 
  7 C       -3.8030    -5.1320     0.4910 C.ar  1 <1>  -0.1500 
  8 C       -3.4480    -2.7550     0.4640 C.ar  1 <1>  -0.1500 
  9 C       -4.7330    -4.9890     1.5100 C.ar  1 <1>  -0.1440 
 10 C       -4.3710    -2.6100     1.4840 C.ar  1 <1>  -0.1500 
 11 C       -5.0130    -3.7220     2.0040 C.ar  1 <1>  -0.1500 
 12 C       -5.4430    -6.2050     2.0760 C.3   1 <1>   0.4870 
 13 N       -6.2860    -6.7910     1.0080 N.4   1 <1>  -0.9590 
 14 C       -7.3250    -5.8770     0.4320 C.3   1 <1>   0.3430 
 15 C       -6.9620    -8.0640     1.3380 C.3   1 <1>   0.3430 
 16 C       -8.5500    -6.7630     0.1450 C.3   1 <1>   0.2000 
 17 C       -8.0210    -8.1970     0.2410 C.3   1 <1>  -0.0800 
 18 O       -9.5140    -6.5690     1.1290 O.3   1 <1>  -0.6800 
 19 C       -7.4460    -8.6490    -1.1310 C.3   1 <1>  -0.0170 
 20 C       -6.0920    -9.3420    -1.0630 C.ar  1 <1>   0.1670 
 21 N       -5.0330    -8.5490    -0.9280 N.ar  1 <1>  -0.6200 
 22 C       -6.0250   -10.7240    -1.1460 C.ar  1 <1>  -0.1500 
 23 C       -3.8590    -9.1690    -0.9080 C.ar  1 <1>   0.1600 
 24 C       -4.7980   -11.3500    -1.1020 C.ar  1 <1>  -0.1500 
 25 C       -3.6910   -10.5400    -0.9840 C.ar  1 <1>  -0.1500 
 26 H       -3.5550    -6.1010     0.0930 H     1 <1>   0.1500 
 27 H       -2.9430    -1.8910     0.0650 H     1 <1>   0.1500 
 28 H       -4.5860    -1.6290     1.8740 H     1 <1>   0.1500 
 29 H       -5.7270    -3.5810     2.7990 H     1 <1>   0.1500 
 30 H       -6.0510    -5.9180     2.9180 H     1 <1>   0.0800 
 31 H       -4.7120    -6.9240     2.4080 H     1 <1>   0.0800 
 32 H       -5.6470    -7.0480     0.2270 H     1 <1>   0.4500 
 33 H       -7.5900    -5.0900     1.1190 H     1 <1>   0.0800 
 34 H       -6.9540    -5.4420    -0.4810 H     1 <1>   0.0800 
 35 H       -6.2720    -8.8940     1.3410 H     1 <1>   0.0800 
 36 H       -7.4380    -7.9930     2.3020 H     1 <1>   0.0800 
 37 H       -9.0070    -6.5310    -0.8030 H     1 <1>   0.0800 
 38 H       -8.7900    -8.8880     0.5400 H     1 <1>   0.0800 
 39 H       -9.2430    -6.8770     2.0140 H     1 <1>   0.4000 
 40 H       -7.3310    -7.8070    -1.7930 H     1 <1>   0.0800 
 41 H       -8.1580    -9.3010    -1.6060 H     1 <1>   0.0800 
 42 H       -6.9180   -11.3150    -1.2520 H     1 <1>   0.1500 
 43 H       -2.9760    -8.5560    -0.8290 H     1 <1>   0.1500 
 44 H       -4.7080   -12.4220    -1.1660 H     1 <1>   0.1500 
 45 H       -2.7040   -10.9670    -0.9580 H     1 <1>   0.1500 
@<TRIPOS>BOND
  1   1   2  1   
  2   2   3  1   
  3   2   4  1   
  4   2   5  1   
  5   5   6  1   
  6   6   7  ar  
  7   6   8  ar  
  8   7   9  ar  
  9   7  26  1   
 10   8  10  ar  
 11   8  27  1   
 12   9  11  ar  
 13   9  12  1   
 14  10  11  ar  
 15  10  28  1   
 16  11  29  1   
 17  12  13  1   
 18  12  30  1   
 19  12  31  1   
 20  13  14  1   
 21  13  15  1   
 22  13  32  1   
 23  14  16  1   
 24  14  33  1   
 25  14  34  1   
 26  15  17  1   
 27  15  35  1   
 28  15  36  1   
 29  16  17  1   
 30  16  18  1   
 31  16  37  1   
 32  17  19  1   
 33  17  38  1   
 34  18  39  1   
 35  19  20  1   
 36  19  40  1   
 37  19  41  1   
 38  20  21  ar  
 39  20  22  ar  
 40  21  23  ar  
 41  22  24  ar  
 42  22  42  1   
 43  23  25  ar  
 44  23  43  1   
 45  24  25  ar  
 46  24  44  1   
 47  25  45  1   
@<TRIPOS>SUBSTRUCTURE
  1 ****  13 GROUP 4 **** **** 0

# MOE 2024.06 (io_trps.svl 2023.06)
