@<TRIPOS>MOLECULE
NONAME
44 47 1 0 0 
SMALL
USER_CHARGES


@<TRIPOS>ATOM
  1 CL       1.9070    -0.5870    -2.2380 Cl    1 <1>  -0.1400 
  2 C        1.6470    -1.7880    -0.9920 C.2   1 <1>   0.1400 
  3 C        2.1780    -1.6300     0.2500 C.2   1 <1>  -0.0410 
  4 C        0.8730    -2.9200    -1.3120 C.2   1 <1>  -0.1500 
  5 N        1.9520    -2.5960     1.2030 N.am  1 <1>  -0.5390 
  6 C        0.6350    -3.8830    -0.3590 C.2   1 <1>   0.0290 
  7 C        1.2070    -3.7200     0.9470 C.2   1 <1>   0.6160 
  8 C       -0.1400    -5.0570    -0.6480 C.2   1 <1>   0.6160 
  9 O        1.0760    -4.5070     1.8700 O.2   1 <1>  -0.5700 
 10 O        0.1620    -5.7180    -1.6260 O.2   1 <1>  -0.5700 
 11 N       -1.2510    -5.4430     0.0790 N.am  1 <1>  -0.6600 
 12 C       -1.8210    -6.8110    -0.1060 C.3   1 <1>   0.1400 
 13 C       -1.9180    -4.5680     1.0870 C.3   1 <1>   0.1400 
 14 C       -2.8830    -6.8140    -1.2130 C.3   1 <1>   0.1400 
 15 C       -3.4510    -4.5530     0.9850 C.3   1 <1>  -0.1600 
 16 N       -4.1440    -6.1430    -0.7700 N.am  1 <1>  -0.6600 
 17 C       -4.0090    -4.6980    -0.4360 C.3   1 <1>   0.1400 
 18 C       -5.3490    -6.7840    -0.6110 C.2   1 <1>   0.6300 
 19 O       -6.3480    -6.1870    -0.2830 O.2   1 <1>  -0.5700 
 20 C       -5.4610    -8.2850    -0.8470 C.3   1 <1>  -0.1000 
 21 C       -6.3150    -9.1360     0.0730 C.3   1 <1>   0.0000 
 22 C       -4.8130    -9.2640     0.0370 C.3   1 <1>  -0.2000 
 23 C       -7.1540    -9.9550     1.0250 C.3   1 <1>  -0.2000 
 24 C       -7.8240    -9.0580     0.0850 C.3   1 <1>  -0.2000 
 25 H        2.7750    -0.7720     0.5130 H     1 <1>   0.1500 
 26 H        0.4820    -3.0130    -2.3110 H     1 <1>   0.1500 
 27 H        2.3390    -2.5460     2.1490 H     1 <1>   0.3700 
 28 H       -2.2430    -7.1700     0.8160 H     1 <1>   0.0800 
 29 H       -1.0290    -7.4860    -0.3840 H     1 <1>   0.0800 
 30 H       -1.5740    -3.5570     0.9590 H     1 <1>   0.0800 
 31 H       -1.6270    -4.8850     2.0750 H     1 <1>   0.0800 
 32 H       -3.0750    -7.8300    -1.5010 H     1 <1>   0.0800 
 33 H       -2.4920    -6.3100    -2.0810 H     1 <1>   0.0800 
 34 H       -3.7920    -3.6170     1.3870 H     1 <1>   0.0800 
 35 H       -3.8680    -5.3210     1.6120 H     1 <1>   0.0800 
 36 H       -3.3730    -4.2080    -1.1530 H     1 <1>   0.0800 
 37 H       -4.9770    -4.2270    -0.4850 H     1 <1>   0.0800 
 38 H       -5.5670    -8.5010    -1.8930 H     1 <1>   0.1000 
 39 H       -4.2830    -8.9360     0.9130 H     1 <1>   0.1000 
 40 H       -4.4150   -10.1810    -0.3570 H     1 <1>   0.1000 
 41 H       -7.0940    -9.7030     2.0690 H     1 <1>   0.1000 
 42 H       -7.1830   -11.0180     0.8690 H     1 <1>   0.1000 
 43 H       -8.3370    -9.4440    -0.7770 H     1 <1>   0.1000 
 44 H       -8.2560    -8.1330     0.4270 H     1 <1>   0.1000 
@<TRIPOS>BOND
  1   1   2  1   
  2   2   3  2   
  3   2   4  1   
  4   3   5  1   
  5   3  25  1   
  6   4   6  2   
  7   4  26  1   
  8   5   7  am  
  9   5  27  1   
 10   6   7  1   
 11   6   8  1   
 12   7   9  2   
 13   8  10  2   
 14   8  11  am  
 15  11  12  1   
 16  11  13  1   
 17  12  14  1   
 18  12  28  1   
 19  12  29  1   
 20  13  15  1   
 21  13  30  1   
 22  13  31  1   
 23  14  16  1   
 24  14  32  1   
 25  14  33  1   
 26  15  17  1   
 27  15  34  1   
 28  15  35  1   
 29  16  17  1   
 30  16  18  am  
 31  17  36  1   
 32  17  37  1   
 33  18  19  2   
 34  18  20  1   
 35  20  21  1   
 36  20  22  1   
 37  20  38  1   
 38  21  22  1   
 39  21  23  1   
 40  21  24  1   
 41  22  39  1   
 42  22  40  1   
 43  23  24  1   
 44  23  41  1   
 45  23  42  1   
 46  24  43  1   
 47  24  44  1   
@<TRIPOS>SUBSTRUCTURE
  1 ****  11 GROUP 4 **** **** 0

# MOE 2024.06 (io_trps.svl 2023.06)
