@<TRIPOS>MOLECULE
NONAME
50 52 1 0 0 
SMALL
USER_CHARGES


@<TRIPOS>ATOM
  1 O       -0.6390     1.2710    -1.1180 O.2   1 <1>  -0.5700 
  2 C       -0.6610     2.4470    -0.8380 C.2   1 <1>   0.5690 
  3 N       -1.5310     2.9990     0.0690 N.am  1 <1>  -0.6600 
  4 C        0.3330     3.3580    -1.5530 C.3   1 <1>   0.1810 
  5 C       -1.5100     4.4760     0.3460 C.3   1 <1>   0.3640 
  6 C       -2.4790     2.2210     0.9150 C.3   1 <1>   0.2200 
  7 O        0.7220     4.4380    -0.7460 O.3   1 <1>  -0.5600 
  8 C       -2.8530     5.0830    -0.0710 C.ar  1 <1>  -0.1440 
  9 C       -0.3540     5.2650    -0.3320 C.3   1 <1>   0.2610 
 10 C       -1.7080     1.2990     1.8580 C.3   1 <1>  -0.2400 
 11 C       -3.4890     1.4530     0.0610 C.3   1 <1>  -0.2400 
 12 C       -3.4120     4.8050    -1.3130 C.ar  1 <1>  -0.1500 
 13 C       -3.5290     5.9320     0.7930 C.ar  1 <1>  -0.1500 
 14 C        0.1560     6.3570     0.6190 C.2   1 <1>   0.5690 
 15 C       -4.6240     5.3630    -1.6800 C.ar  1 <1>  -0.1500 
 16 C       -4.7410     6.4910     0.4270 C.ar  1 <1>  -0.1500 
 17 O       -0.6210     7.1480     1.1020 O.2   1 <1>  -0.5700 
 18 N        1.4810     6.4300     0.8960 N.am  1 <1>  -0.7300 
 19 C       -5.2900     6.2060    -0.8100 C.ar  1 <1>  -0.1500 
 20 C        2.1440     7.4400     1.7470 C.3   1 <1>   0.3200 
 21 C        2.9510     8.3920     0.8810 C.2   1 <1>   0.0060 
 22 N        4.2430     8.3440     0.7850 N.2   1 <1>  -0.5650 
 23 N        2.3850     9.3720     0.1330 N.pl3 1 <1>   0.0480 
 24 C        4.5390     9.3420    -0.0680 C.2   1 <1>   0.0770 
 25 C        3.4200     9.9780    -0.4750 C.2   1 <1>  -0.3020 
 26 C        0.9600     9.7240    -0.0170 C.3   1 <1>   0.0160 
 27 H       -0.1020     3.7370    -2.4590 H     1 <1>   0.0800 
 28 H        1.2170     2.7960    -1.7960 H     1 <1>   0.0800 
 29 H       -1.4020     4.5950     1.4110 H     1 <1>   0.0800 
 30 H       -3.0410     2.9090     1.5250 H     1 <1>   0.0800 
 31 H       -0.7300     5.7550    -1.2110 H     1 <1>   0.0800 
 32 H       -1.1850     0.5380     1.3070 H     1 <1>   0.0800 
 33 H       -2.3900     0.8140     2.5320 H     1 <1>   0.0800 
 34 H       -1.0020     1.8660     2.4370 H     1 <1>   0.0800 
 35 H       -3.0080     0.6830    -0.5140 H     1 <1>   0.0800 
 36 H       -4.0030     2.1240    -0.6010 H     1 <1>   0.0800 
 37 H       -4.2170     0.9850     0.6970 H     1 <1>   0.0800 
 38 H       -2.9110     4.1450    -1.9990 H     1 <1>   0.1500 
 39 H       -3.1130     6.1730     1.7580 H     1 <1>   0.1500 
 40 H       -5.0500     5.1390    -2.6430 H     1 <1>   0.1500 
 41 H       -5.2570     7.1490     1.1050 H     1 <1>   0.1500 
 42 H        2.1140     5.7970     0.3960 H     1 <1>   0.3700 
 43 H       -6.2330     6.6400    -1.0940 H     1 <1>   0.1500 
 44 H        1.4160     7.9880     2.3190 H     1 <1>   0.0800 
 45 H        2.8050     6.9410     2.4340 H     1 <1>   0.0800 
 46 H        5.5580     9.5520    -0.3480 H     1 <1>   0.1500 
 47 H        3.3110    10.8070    -1.1490 H     1 <1>   0.1500 
 48 H        0.8740    10.7210    -0.4070 H     1 <1>   0.0800 
 49 H        0.4710     9.6730     0.9390 H     1 <1>   0.0800 
 50 H        0.4940     9.0310    -0.6930 H     1 <1>   0.0800 
@<TRIPOS>BOND
  1   1   2  2   
  2   2   3  am  
  3   2   4  1   
  4   3   5  1   
  5   3   6  1   
  6   4   7  1   
  7   4  27  1   
  8   4  28  1   
  9   5   8  1   
 10   5   9  1   
 11   5  29  1   
 12   6  10  1   
 13   6  11  1   
 14   6  30  1   
 15   7   9  1   
 16   8  12  ar  
 17   8  13  ar  
 18   9  14  1   
 19   9  31  1   
 20  10  32  1   
 21  10  33  1   
 22  10  34  1   
 23  11  35  1   
 24  11  36  1   
 25  11  37  1   
 26  12  15  ar  
 27  12  38  1   
 28  13  16  ar  
 29  13  39  1   
 30  14  17  2   
 31  14  18  am  
 32  15  19  ar  
 33  15  40  1   
 34  16  19  ar  
 35  16  41  1   
 36  18  20  1   
 37  18  42  1   
 38  19  43  1   
 39  20  21  1   
 40  20  44  1   
 41  20  45  1   
 42  21  22  2   
 43  21  23  1   
 44  22  24  1   
 45  23  25  1   
 46  23  26  1   
 47  24  25  2   
 48  24  46  1   
 49  25  47  1   
 50  26  48  1   
 51  26  49  1   
 52  26  50  1   
@<TRIPOS>SUBSTRUCTURE
  1 ****   9 GROUP 4 **** **** 0

# MOE 2024.06 (io_trps.svl 2023.06)
