@<TRIPOS>MOLECULE
NONAME
46 48 1 0 0 
SMALL
USER_CHARGES


@<TRIPOS>ATOM
  1 O       -0.9290     0.1880     0.8260 O.2   1 <1>  -0.5700 
  2 C       -1.4780     1.0310     0.1540 C.2   1 <1>   0.5690 
  3 N       -2.7140     0.7950    -0.4070 N.am  1 <1>  -0.6600 
  4 C       -0.7560     2.3660    -0.0440 C.3   1 <1>  -0.0190 
  5 C       -3.3780    -0.5390    -0.2380 C.3   1 <1>   0.1400 
  6 C       -3.4960     1.7920    -1.1960 C.3   1 <1>   0.1400 
  7 C        0.7020     2.3630     0.3930 C.3   1 <1>   0.1200 
  8 C       -1.3220     3.5220     0.7780 C.3   1 <1>  -0.1600 
  9 C       -4.7420    -0.4430     0.4640 C.3   1 <1>   0.1400 
 10 C       -4.5690     2.4270    -0.3050 C.3   1 <1>  -0.1600 
 11 O        1.0020     3.7030     0.6010 O.3   1 <1>  -0.5600 
 12 C       -0.0960     4.3520     1.1560 C.3   1 <1>   0.1200 
 13 N       -5.7650     0.1930    -0.4240 N.am  1 <1>  -0.6600 
 14 C       -5.9070     1.6740    -0.2830 C.3   1 <1>   0.1400 
 15 C       -6.5870    -0.5020    -1.2850 C.2   1 <1>   0.5690 
 16 O       -7.3620     0.0720    -2.0160 O.2   1 <1>  -0.5700 
 17 C       -6.5560    -2.0190    -1.4000 C.3   1 <1>   0.0810 
 18 C       -7.4790    -2.6820    -0.3940 C.2   1 <1>  -0.0400 
 19 O       -7.1620    -2.7150     0.8720 O.3   1 <1>  -0.0190 
 20 C       -8.6600    -3.3020    -0.5390 C.2   1 <1>  -0.1500 
 21 N       -8.0640    -3.3260     1.5830 N.2   1 <1>  -0.4100 
 22 C       -8.9810    -3.6890     0.7590 C.2   1 <1>   0.1080 
 23 C      -10.2370    -4.4320     1.1570 C.3   1 <1>  -0.0590 
 24 H       -0.7580     2.6180    -1.0870 H     1 <1>   0.0800 
 25 H       -2.7530    -1.1920     0.3450 H     1 <1>   0.0800 
 26 H       -3.4990    -0.9970    -1.2030 H     1 <1>   0.0800 
 27 H       -3.9480     1.3150    -2.0500 H     1 <1>   0.0800 
 28 H       -2.8500     2.5630    -1.5730 H     1 <1>   0.0800 
 29 H        1.3610     1.9590    -0.3550 H     1 <1>   0.0800 
 30 H        0.8410     1.8450     1.3280 H     1 <1>   0.0800 
 31 H       -1.7940     3.1610     1.6750 H     1 <1>   0.0800 
 32 H       -2.0280     4.1070     0.2170 H     1 <1>   0.0800 
 33 H       -4.6390     0.1190     1.3770 H     1 <1>   0.0800 
 34 H       -5.0570    -1.4310     0.7410 H     1 <1>   0.0800 
 35 H       -4.7700     3.4200    -0.6650 H     1 <1>   0.0800 
 36 H       -4.1970     2.5320     0.6980 H     1 <1>   0.0800 
 37 H        0.0400     4.3900     2.2240 H     1 <1>   0.0800 
 38 H       -0.1380     5.3500     0.7540 H     1 <1>   0.0800 
 39 H       -6.5150     2.0550    -1.0860 H     1 <1>   0.0800 
 40 H       -6.4270     1.8890     0.6360 H     1 <1>   0.0800 
 41 H       -5.5580    -2.3920    -1.2850 H     1 <1>   0.0800 
 42 H       -6.8830    -2.2830    -2.3890 H     1 <1>   0.0800 
 43 H       -9.2460    -3.4740    -1.4230 H     1 <1>   0.1500 
 44 H      -10.2750    -5.3800     0.6530 H     1 <1>   0.0800 
 45 H      -11.1020    -3.8540     0.8910 H     1 <1>   0.0800 
 46 H      -10.2430    -4.6010     2.2180 H     1 <1>   0.0800 
@<TRIPOS>BOND
  1   1   2  2   
  2   2   3  am  
  3   2   4  1   
  4   3   5  1   
  5   3   6  1   
  6   4   7  1   
  7   4   8  1   
  8   4  24  1   
  9   5   9  1   
 10   5  25  1   
 11   5  26  1   
 12   6  10  1   
 13   6  27  1   
 14   6  28  1   
 15   7  11  1   
 16   7  29  1   
 17   7  30  1   
 18   8  12  1   
 19   8  31  1   
 20   8  32  1   
 21   9  13  1   
 22   9  33  1   
 23   9  34  1   
 24  10  14  1   
 25  10  35  1   
 26  10  36  1   
 27  11  12  1   
 28  12  37  1   
 29  12  38  1   
 30  13  14  1   
 31  13  15  am  
 32  14  39  1   
 33  14  40  1   
 34  15  16  2   
 35  15  17  1   
 36  17  18  1   
 37  17  41  1   
 38  17  42  1   
 39  18  19  1   
 40  18  20  2   
 41  19  21  1   
 42  20  22  1   
 43  20  43  1   
 44  21  22  2   
 45  22  23  1   
 46  23  44  1   
 47  23  45  1   
 48  23  46  1   
@<TRIPOS>SUBSTRUCTURE
  1 ****   9 GROUP 4 **** **** 0

# MOE 2024.06 (io_trps.svl 2023.06)
