@<TRIPOS>MOLECULE
NONAME
39 41 1 0 0 
SMALL
USER_CHARGES


@<TRIPOS>ATOM
  1 O       -0.4940     0.2660    -0.2580 O.2   1 <1>  -0.5700 
  2 C       -1.5150     0.8520     0.0450 C.2   1 <1>   0.5440 
  3 N       -2.6470     0.1140     0.3030 N.am  1 <1>  -0.6600 
  4 C       -1.5160     2.2980     0.0990 C.ar  1 <1>   0.0860 
  5 C       -4.0370     0.6300     0.2090 C.3   1 <1>   0.1400 
  6 C       -2.6430    -1.3710     0.2560 C.3   1 <1>   0.1400 
  7 C       -0.9050     3.0310    -0.9150 C.ar  1 <1>   0.1600 
  8 C       -2.1030     3.0170     1.1330 C.ar  1 <1>  -0.1500 
  9 C       -4.8760    -0.5820    -0.1910 C.3   1 <1>   0.2000 
 10 C       -4.1110    -1.7880     0.3460 C.3   1 <1>  -0.0800 
 11 N       -0.8570     4.3530    -0.9960 N.ar  1 <1>  -0.6200 
 12 C       -2.0590     4.3930     1.0730 C.ar  1 <1>  -0.1500 
 13 O       -6.1450    -0.5300     0.3620 O.3   1 <1>  -0.6800 
 14 C       -4.4240    -3.0910    -0.4040 C.3   1 <1>   0.0210 
 15 C       -1.4350     5.0040    -0.0010 C.ar  1 <1>   0.1600 
 16 C       -3.5440    -4.2230     0.0880 C.2   1 <1>   0.1080 
 17 N       -3.5190    -4.6070     1.3260 N.2   1 <1>  -0.7070 
 18 C       -2.6700    -4.9560    -0.7080 C.2   1 <1>  -0.1500 
 19 N       -2.6190    -5.6090     1.3530 N.pl3 1 <1>   0.3000 
 20 C       -2.0890    -5.8370     0.1330 C.2   1 <1>  -0.3320 
 21 C       -1.0440    -6.8980    -0.1590 C.3   1 <1>  -0.0600 
 22 H       -4.3430     0.9980     1.1720 H     1 <1>   0.0800 
 23 H       -4.1120     1.4070    -0.5320 H     1 <1>   0.0800 
 24 H       -2.2050    -1.6930    -0.6740 H     1 <1>   0.0800 
 25 H       -2.0700    -1.7770     1.0730 H     1 <1>   0.0800 
 26 H       -0.4280     2.4790    -1.7080 H     1 <1>   0.1500 
 27 H       -2.5700     2.5070     1.9580 H     1 <1>   0.1500 
 28 H       -4.9710    -0.6190    -1.2630 H     1 <1>   0.0800 
 29 H       -4.3340    -1.9220     1.3900 H     1 <1>   0.0800 
 30 H       -2.5010     4.9910     1.8490 H     1 <1>   0.1500 
 31 H       -6.1050    -0.7110     1.3210 H     1 <1>   0.4000 
 32 H       -4.2740    -2.9560    -1.4600 H     1 <1>   0.0800 
 33 H       -5.4530    -3.3600    -0.2440 H     1 <1>   0.0800 
 34 H       -1.4070     6.0810    -0.0420 H     1 <1>   0.1500 
 35 H       -2.5100    -4.8260    -1.7640 H     1 <1>   0.1500 
 36 H       -2.3880    -6.1130     2.2170 H     1 <1>   0.2700 
 37 H       -0.7830    -6.8820    -1.2020 H     1 <1>   0.0800 
 38 H       -1.4260    -7.8730     0.0840 H     1 <1>   0.0800 
 39 H       -0.1560    -6.7130     0.4180 H     1 <1>   0.0800 
@<TRIPOS>BOND
  1   1   2  2   
  2   2   3  am  
  3   2   4  1   
  4   3   5  1   
  5   3   6  1   
  6   4   7  ar  
  7   4   8  ar  
  8   5   9  1   
  9   5  22  1   
 10   5  23  1   
 11   6  10  1   
 12   6  24  1   
 13   6  25  1   
 14   7  11  ar  
 15   7  26  1   
 16   8  12  ar  
 17   8  27  1   
 18   9  10  1   
 19   9  13  1   
 20   9  28  1   
 21  10  14  1   
 22  10  29  1   
 23  11  15  ar  
 24  12  15  ar  
 25  12  30  1   
 26  13  31  1   
 27  14  16  1   
 28  14  32  1   
 29  14  33  1   
 30  15  34  1   
 31  16  17  2   
 32  16  18  1   
 33  17  19  1   
 34  18  20  2   
 35  18  35  1   
 36  19  20  1   
 37  19  36  1   
 38  20  21  1   
 39  21  37  1   
 40  21  38  1   
 41  21  39  1   
@<TRIPOS>SUBSTRUCTURE
  1 ****   6 GROUP 4 **** **** 0

# MOE 2024.06 (io_trps.svl 2023.06)
