@<TRIPOS>MOLECULE
NONAME
60 61 1 0 0 
SMALL
USER_CHARGES


@<TRIPOS>ATOM
  1 S        0.0800     0.2780     1.3890 S.o2  1 <1>   1.3330 
  2 O       -1.2470    -0.2890     1.4250 O.2   1 <1>  -0.6500 
  3 O        0.8170     0.5230     2.6080 O.2   1 <1>  -0.6500 
  4 N        1.0460    -0.6680     0.3610 N.am  1 <1>  -0.8490 
  5 C        0.0180     1.8470     0.5140 C.3   1 <1>  -0.0550 
  6 C        0.2750    -1.3400    -0.6940 C.3   1 <1>   0.1160 
  7 C        1.8130    -1.6740     1.1060 C.3   1 <1>   0.1160 
  8 C        1.4040     2.5100     0.3690 C.3   1 <1>  -0.1600 
  9 C        1.3160     3.8740    -0.3140 C.3   1 <1>   0.3430 
 10 N        2.6420     4.5660    -0.2540 N.4   1 <1>  -0.9590 
 11 C        2.4760     6.0110    -0.5720 C.3   1 <1>   0.3430 
 12 C        3.6510     3.9130    -1.1380 C.3   1 <1>   0.3430 
 13 C        3.8110     6.7400    -0.4090 C.3   1 <1>  -0.1600 
 14 C        5.0050     4.6060    -0.9880 C.3   1 <1>  -0.1600 
 15 C        4.9220     6.1150    -1.2670 C.3   1 <1>   0.4230 
 16 N        6.2350     6.7680    -0.9700 N.4   1 <1>  -0.9590 
 17 C        6.2800     8.2700    -1.1200 C.3   1 <1>   0.3430 
 18 C        7.4330     6.1970    -1.6900 C.3   1 <1>   0.3430 
 19 C        7.5950     8.8430    -0.5350 C.3   1 <1>   0.1100 
 20 C        8.7500     6.8010    -1.1400 C.3   1 <1>   0.1100 
 21 N        8.5020     7.7720    -0.0480 N.3   1 <1>  -0.8100 
 22 C        9.7830     8.3190     0.4560 C.3   1 <1>   0.1100 
 23 C        9.6140     9.0370     1.8010 C.3   1 <1>   0.1200 
 24 O       10.8510     9.4930     2.2280 O.3   1 <1>  -0.6800 
 25 H       -0.6340     2.5060     1.0570 H     1 <1>   0.0800 
 26 H       -0.4120     1.6880    -0.4560 H     1 <1>   0.0800 
 27 H       -0.2880    -0.6200    -1.2630 H     1 <1>   0.0800 
 28 H       -0.4140    -2.0510    -0.2640 H     1 <1>   0.0800 
 29 H        0.9380    -1.8600    -1.3640 H     1 <1>   0.0800 
 30 H        2.4670    -1.1940     1.8150 H     1 <1>   0.0800 
 31 H        2.4190    -2.2590     0.4350 H     1 <1>   0.0800 
 32 H        1.1480    -2.3310     1.6440 H     1 <1>   0.0800 
 33 H        2.0360     1.8460    -0.1940 H     1 <1>   0.0800 
 34 H        1.8220     2.6270     1.3550 H     1 <1>   0.0800 
 35 H        0.5780     4.4690     0.2010 H     1 <1>   0.0800 
 36 H        0.9980     3.7560    -1.3380 H     1 <1>   0.0800 
 37 H        2.9610     4.4820     0.7240 H     1 <1>   0.4500 
 38 H        1.7450     6.4510     0.0900 H     1 <1>   0.0800 
 39 H        2.1190     6.1230    -1.5840 H     1 <1>   0.0800 
 40 H        3.3230     3.9650    -2.1650 H     1 <1>   0.0800 
 41 H        3.7560     2.8720    -0.8750 H     1 <1>   0.0800 
 42 H        4.0880     6.7290     0.6310 H     1 <1>   0.0800 
 43 H        3.6470     7.7600    -0.7040 H     1 <1>   0.0800 
 44 H        5.6740     4.1380    -1.6870 H     1 <1>   0.0800 
 45 H        5.3770     4.4280     0.0060 H     1 <1>   0.0800 
 46 H        4.6830     6.2640    -2.3090 H     1 <1>   0.0800 
 47 H        6.4920     6.6380     0.0240 H     1 <1>   0.4500 
 48 H        5.4570     8.7300    -0.6000 H     1 <1>   0.0800 
 49 H        6.2060     8.5420    -2.1610 H     1 <1>   0.0800 
 50 H        7.3650     6.3960    -2.7460 H     1 <1>   0.0800 
 51 H        7.4790     5.1300    -1.5580 H     1 <1>   0.0800 
 52 H        7.3460     9.5050     0.2770 H     1 <1>   0.0800 
 53 H        8.0900     9.4340    -1.2890 H     1 <1>   0.0800 
 54 H        9.2850     7.2800    -1.9450 H     1 <1>   0.0800 
 55 H        9.3720     6.0010    -0.7740 H     1 <1>   0.0800 
 56 H       10.2040     9.0010    -0.2650 H     1 <1>   0.0800 
 57 H       10.4770     7.5070     0.6020 H     1 <1>   0.0800 
 58 H        9.2210     8.3720     2.5500 H     1 <1>   0.0800 
 59 H        8.9770     9.8970     1.7030 H     1 <1>   0.0800 
 60 H       11.4140     8.7550     2.5330 H     1 <1>   0.4000 
@<TRIPOS>BOND
  1   1   2  2   
  2   1   3  2   
  3   1   4  am  
  4   1   5  1   
  5   4   6  1   
  6   4   7  1   
  7   5   8  1   
  8   5  25  1   
  9   5  26  1   
 10   6  27  1   
 11   6  28  1   
 12   6  29  1   
 13   7  30  1   
 14   7  31  1   
 15   7  32  1   
 16   8   9  1   
 17   8  33  1   
 18   8  34  1   
 19   9  10  1   
 20   9  35  1   
 21   9  36  1   
 22  10  11  1   
 23  10  12  1   
 24  10  37  1   
 25  11  13  1   
 26  11  38  1   
 27  11  39  1   
 28  12  14  1   
 29  12  40  1   
 30  12  41  1   
 31  13  15  1   
 32  13  42  1   
 33  13  43  1   
 34  14  15  1   
 35  14  44  1   
 36  14  45  1   
 37  15  16  1   
 38  15  46  1   
 39  16  17  1   
 40  16  18  1   
 41  16  47  1   
 42  17  19  1   
 43  17  48  1   
 44  17  49  1   
 45  18  20  1   
 46  18  50  1   
 47  18  51  1   
 48  19  21  1   
 49  19  52  1   
 50  19  53  1   
 51  20  21  1   
 52  20  54  1   
 53  20  55  1   
 54  21  22  1   
 55  22  23  1   
 56  22  56  1   
 57  22  57  1   
 58  23  24  1   
 59  23  58  1   
 60  23  59  1   
 61  24  60  1   
@<TRIPOS>SUBSTRUCTURE
  1 ****  14 GROUP 4 **** **** 0

# MOE 2024.06 (io_trps.svl 2023.06)
