@<TRIPOS>MOLECULE
NONAME
47 50 1 0 0 
SMALL
USER_CHARGES


@<TRIPOS>ATOM
  1 O       -0.7010     0.3900    -0.1730 O.2   1 <1>  -0.5700 
  2 C       -1.8000     0.8580    -0.3560 C.2   1 <1>   0.5690 
  3 N       -2.8960     0.0460    -0.4810 N.am  1 <1>  -0.6600 
  4 C       -1.9570     2.3750    -0.4360 C.3   1 <1>  -0.0190 
  5 C       -4.3030     0.4610    -0.7150 C.3   1 <1>   0.1400 
  6 C       -2.8050    -1.4270    -0.3360 C.3   1 <1>   0.1400 
  7 C       -0.6870     3.1590    -0.8280 C.3   1 <1>  -0.0160 
  8 C       -2.4310     3.0000     0.8890 C.3   1 <1>  -0.0160 
  9 C       -5.0780    -0.8460    -0.8810 C.3   1 <1>   0.2000 
 10 C       -4.2470    -1.9020    -0.1580 C.3   1 <1>  -0.0800 
 11 C       -0.9040     4.4920    -0.1530 C.ar  1 <1>  -0.1440 
 12 C       -1.8790     4.4020     0.8100 C.ar  1 <1>  -0.1440 
 13 O       -6.3420    -0.7620    -0.3210 O.3   1 <1>  -0.6800 
 14 C       -4.4940    -3.3290    -0.6700 C.3   1 <1>   0.0210 
 15 C       -0.2600     5.6910    -0.3980 C.ar  1 <1>  -0.1500 
 16 C       -2.2400     5.5080     1.5570 C.ar  1 <1>  -0.1500 
 17 C       -3.5610    -4.3160     0.0030 C.2   1 <1>   0.1080 
 18 C       -0.6160     6.8060     0.3450 C.ar  1 <1>  -0.1500 
 19 C       -1.6010     6.7150     1.3180 C.ar  1 <1>  -0.1500 
 20 N       -3.5180    -4.4780     1.2890 N.2   1 <1>  -0.7070 
 21 C       -2.6530    -5.1340    -0.6610 C.2   1 <1>  -0.1500 
 22 N       -2.5710    -5.4160     1.4820 N.pl3 1 <1>   0.3000 
 23 C       -2.0310    -5.8280     0.3150 C.2   1 <1>  -0.3320 
 24 C       -0.9370    -6.8730     0.2050 C.3   1 <1>  -0.0600 
 25 H       -2.6920     2.6060    -1.1840 H     1 <1>   0.0800 
 26 H       -4.6600     1.0080     0.1390 H     1 <1>   0.0800 
 27 H       -4.3800     1.0590    -1.6060 H     1 <1>   0.0800 
 28 H       -2.3680    -1.8400    -1.2300 H     1 <1>   0.0800 
 29 H       -2.1960    -1.6970     0.5120 H     1 <1>   0.0800 
 30 H       -0.5940     3.2560    -1.8950 H     1 <1>   0.0800 
 31 H        0.2020     2.7080    -0.4230 H     1 <1>   0.0800 
 32 H       -1.9910     2.4910     1.7290 H     1 <1>   0.0800 
 33 H       -3.5020     2.9980     0.9730 H     1 <1>   0.0800 
 34 H       -5.1830    -1.0740    -1.9280 H     1 <1>   0.0800 
 35 H       -4.4570    -1.8680     0.8970 H     1 <1>   0.0800 
 36 H       -6.2810    -0.7670     0.6540 H     1 <1>   0.4000 
 37 H       -4.3490    -3.3710    -1.7340 H     1 <1>   0.0800 
 38 H       -5.5080    -3.6150    -0.4590 H     1 <1>   0.0800 
 39 H        0.5040     5.7560    -1.1520 H     1 <1>   0.1500 
 40 H       -3.0020     5.4340     2.3110 H     1 <1>   0.1500 
 41 H       -0.1240     7.7460     0.1660 H     1 <1>   0.1500 
 42 H       -1.8700     7.5850     1.8910 H     1 <1>   0.1500 
 43 H       -2.4980    -5.1830    -1.7240 H     1 <1>   0.1500 
 44 H       -2.3170    -5.7510     2.4190 H     1 <1>   0.2700 
 45 H       -0.6770    -7.0280    -0.8270 H     1 <1>   0.0800 
 46 H       -1.2730    -7.8080     0.6170 H     1 <1>   0.0800 
 47 H       -0.0590    -6.5500     0.7340 H     1 <1>   0.0800 
@<TRIPOS>BOND
  1   1   2  2   
  2   2   3  am  
  3   2   4  1   
  4   3   5  1   
  5   3   6  1   
  6   4   7  1   
  7   4   8  1   
  8   4  25  1   
  9   5   9  1   
 10   5  26  1   
 11   5  27  1   
 12   6  10  1   
 13   6  28  1   
 14   6  29  1   
 15   7  11  1   
 16   7  30  1   
 17   7  31  1   
 18   8  12  1   
 19   8  32  1   
 20   8  33  1   
 21   9  10  1   
 22   9  13  1   
 23   9  34  1   
 24  10  14  1   
 25  10  35  1   
 26  11  12  ar  
 27  11  15  ar  
 28  12  16  ar  
 29  13  36  1   
 30  14  17  1   
 31  14  37  1   
 32  14  38  1   
 33  15  18  ar  
 34  15  39  1   
 35  16  19  ar  
 36  16  40  1   
 37  17  20  2   
 38  17  21  1   
 39  18  19  ar  
 40  18  41  1   
 41  19  42  1   
 42  20  22  1   
 43  21  23  2   
 44  21  43  1   
 45  22  23  1   
 46  22  44  1   
 47  23  24  1   
 48  24  45  1   
 49  24  46  1   
 50  24  47  1   
@<TRIPOS>SUBSTRUCTURE
  1 ****   3 GROUP 4 **** **** 0

# MOE 2024.06 (io_trps.svl 2023.06)
