@<TRIPOS>MOLECULE
NONAME
52 54 1 0 0 
SMALL
USER_CHARGES


@<TRIPOS>ATOM
  1 O        0.5630     0.1340     1.0010 O.3   1 <1>  -0.6800 
  2 C        1.3440    -0.2560    -0.0800 C.3   1 <1>   0.2000 
  3 C        2.0490    -1.5590     0.2900 C.3   1 <1>  -0.0800 
  4 C        2.5040     0.7330    -0.1880 C.3   1 <1>   0.3430 
  5 C        3.2000    -1.0950     1.2010 C.3   1 <1>   0.3430 
  6 C        2.5470    -2.2990    -0.9720 C.3   1 <1>  -0.0160 
  7 N        3.3900     0.3760     0.9660 N.4   1 <1>  -0.9590 
  8 C        3.3780    -3.5300    -0.6440 C.ar  1 <1>   0.1670 
  9 C        4.8120     0.8190     0.9480 C.3   1 <1>   0.4230 
 10 N        4.6600    -3.3190    -0.3790 N.ar  1 <1>  -0.6200 
 11 C        2.7840    -4.7920    -0.6410 C.ar  1 <1>   0.1600 
 12 C        4.8880     2.3430     1.0300 C.3   1 <1>  -0.1600 
 13 C        5.5660     0.3170    -0.2890 C.3   1 <1>  -0.1600 
 14 C        5.3010    -4.4530    -0.1270 C.ar  1 <1>   0.1600 
 15 N        3.4230    -5.9160    -0.3740 N.ar  1 <1>  -0.6200 
 16 C        6.3450     2.8080     1.0460 C.3   1 <1>   0.3430 
 17 C        7.0170     0.7930    -0.2560 C.3   1 <1>   0.3430 
 18 C        4.7030    -5.7080    -0.1230 C.ar  1 <1>   0.1600 
 19 N        7.0670     2.2810    -0.1530 N.4   1 <1>  -0.9590 
 20 C        8.4910     2.7350    -0.1730 C.3   1 <1>   0.3430 
 21 C        8.5740     4.2290    -0.4930 C.3   1 <1>  -0.1600 
 22 C       10.0340     4.6740    -0.6340 C.3   1 <1>  -0.2400 
 23 H       -0.2970    -0.3390     1.0150 H     1 <1>   0.4000 
 24 H        0.7320    -0.3010    -0.9670 H     1 <1>   0.0800 
 25 H        1.3920    -2.2190     0.8310 H     1 <1>   0.0800 
 26 H        2.1510     1.7500    -0.1320 H     1 <1>   0.0800 
 27 H        3.0170     0.5770    -1.1210 H     1 <1>   0.0800 
 28 H        4.1040    -1.6410     1.0030 H     1 <1>   0.0800 
 29 H        2.9260    -1.2610     2.2310 H     1 <1>   0.0800 
 30 H        3.1430    -1.6500    -1.5890 H     1 <1>   0.0800 
 31 H        1.6980    -2.6000    -1.5620 H     1 <1>   0.0800 
 32 H        2.9140     0.8130     1.7720 H     1 <1>   0.4500 
 33 H        5.2990     0.4150     1.8230 H     1 <1>   0.0800 
 34 H        1.7370    -4.8820    -0.8700 H     1 <1>   0.1500 
 35 H        4.3860     2.8030     0.1980 H     1 <1>   0.0800 
 36 H        4.4170     2.6810     1.9370 H     1 <1>   0.0800 
 37 H        5.5730    -0.7570    -0.3090 H     1 <1>   0.0800 
 38 H        5.1110     0.6680    -1.1970 H     1 <1>   0.0800 
 39 H        6.3540    -4.3950     0.0880 H     1 <1>   0.1500 
 40 H        6.8290     2.4590     1.9440 H     1 <1>   0.0800 
 41 H        6.3730     3.8870     1.0510 H     1 <1>   0.0800 
 42 H        7.5220     0.4690    -1.1550 H     1 <1>   0.0800 
 43 H        7.5250     0.3520     0.5870 H     1 <1>   0.0800 
 44 H        5.3070    -6.5710     0.0960 H     1 <1>   0.1500 
 45 H        6.6360     2.6810    -1.0000 H     1 <1>   0.4500 
 46 H        8.9630     2.5370     0.7770 H     1 <1>   0.0800 
 47 H        9.0330     2.1950    -0.9330 H     1 <1>   0.0800 
 48 H        8.0660     4.4350    -1.4200 H     1 <1>   0.0800 
 49 H        8.1220     4.8120     0.2890 H     1 <1>   0.0800 
 50 H       10.5250     4.1400    -1.4300 H     1 <1>   0.0800 
 51 H       10.5770     4.5080     0.2810 H     1 <1>   0.0800 
 52 H       10.0770     5.7260    -0.8620 H     1 <1>   0.0800 
@<TRIPOS>BOND
  1   1   2  1   
  2   1  23  1   
  3   2   3  1   
  4   2   4  1   
  5   2  24  1   
  6   3   5  1   
  7   3   6  1   
  8   3  25  1   
  9   4   7  1   
 10   4  26  1   
 11   4  27  1   
 12   5   7  1   
 13   5  28  1   
 14   5  29  1   
 15   6   8  1   
 16   6  30  1   
 17   6  31  1   
 18   7   9  1   
 19   7  32  1   
 20   8  10  ar  
 21   8  11  ar  
 22   9  12  1   
 23   9  13  1   
 24   9  33  1   
 25  10  14  ar  
 26  11  15  ar  
 27  11  34  1   
 28  12  16  1   
 29  12  35  1   
 30  12  36  1   
 31  13  17  1   
 32  13  37  1   
 33  13  38  1   
 34  14  18  ar  
 35  14  39  1   
 36  15  18  ar  
 37  16  19  1   
 38  16  40  1   
 39  16  41  1   
 40  17  19  1   
 41  17  42  1   
 42  17  43  1   
 43  18  44  1   
 44  19  20  1   
 45  19  45  1   
 46  20  21  1   
 47  20  46  1   
 48  20  47  1   
 49  21  22  1   
 50  21  48  1   
 51  21  49  1   
 52  22  50  1   
 53  22  51  1   
 54  22  52  1   
@<TRIPOS>SUBSTRUCTURE
  1 ****  13 GROUP 4 **** **** 0

# MOE 2024.06 (io_trps.svl 2023.06)
