@<TRIPOS>MOLECULE
NONAME
56 59 1 0 0 
SMALL
USER_CHARGES


@<TRIPOS>ATOM
  1 O        0.2380     0.3580    -0.0780 O.2   1 <1>  -0.5700 
  2 C       -0.6850     0.7240    -0.7630 C.2   1 <1>   0.5690 
  3 N       -1.6140    -0.1470    -1.2190 N.am  1 <1>  -0.7300 
  4 C       -0.7970     2.2210    -1.0810 C.3   1 <1>   0.0610 
  5 C       -1.9110    -1.4350    -0.5550 C.3   1 <1>   0.2840 
  6 C       -0.4700     3.0380     0.1990 C.3   1 <1>   0.4230 
  7 C       -2.2380     2.7370    -1.3860 C.3   1 <1>  -0.1600 
  8 C        0.1810     2.5020    -2.2610 C.3   1 <1>  -0.1600 
  9 C       -3.0870    -1.2350     0.4010 C.ar  1 <1>   0.1660 
 10 N       -1.1400     4.3180    -0.1140 N.4   1 <1>  -0.9590 
 11 C       -1.3040     2.5710     1.4140 C.3   1 <1>  -0.1600 
 12 C       -2.4920     3.7700    -0.2820 C.3   1 <1>   0.4230 
 13 C        0.4210     3.9580    -2.6990 C.3   1 <1>  -0.2400 
 14 N       -4.1340    -0.5500    -0.0560 N.ar  1 <1>  -0.6200 
 15 C       -3.0100    -1.7630     1.6820 C.ar  1 <1>  -0.1500 
 16 C       -0.9970     5.4370     0.8590 C.3   1 <1>   0.5240 
 17 C       -2.7220     3.0260     1.0410 C.3   1 <1>  -0.1600 
 18 C       -5.1450    -0.4180     0.7900 C.ar  1 <1>   0.1600 
 19 C       -4.0650    -1.6020     2.5540 C.ar  1 <1>  -0.1500 
 20 C       -1.7610     6.6210     0.3190 C.2   1 <1>  -0.1810 
 21 C       -5.1600    -0.9120     2.0830 C.ar  1 <1>  -0.1500 
 22 C       -2.9520     7.1140     0.7000 C.2   1 <1>  -0.0400 
 23 C       -1.3790     7.4690    -0.7230 C.2   1 <1>   0.1080 
 24 O       -3.2290     8.1260    -0.0740 O.3   1 <1>  -0.0190 
 25 C       -3.9470     6.7380     1.7810 C.3   1 <1>  -0.0600 
 26 N       -2.2860     8.3480    -0.9390 N.2   1 <1>  -0.4100 
 27 C       -0.0920     7.4350    -1.5210 C.3   1 <1>  -0.0590 
 28 H       -2.4340     0.1930    -1.7250 H     1 <1>   0.3700 
 29 H       -2.1780    -2.1640    -1.3000 H     1 <1>   0.0800 
 30 H       -1.0450    -1.7900    -0.0240 H     1 <1>   0.0800 
 31 H        0.5870     3.1160     0.3950 H     1 <1>   0.0800 
 32 H       -2.9960     1.9750    -1.3520 H     1 <1>   0.0800 
 33 H       -2.3040     3.2080    -2.3500 H     1 <1>   0.0800 
 34 H        1.1430     2.0810    -2.0110 H     1 <1>   0.0800 
 35 H       -0.1680     1.9510    -3.1200 H     1 <1>   0.0800 
 36 H       -0.8220     4.6440    -1.0310 H     1 <1>   0.4500 
 37 H       -1.2610     1.5120     1.5990 H     1 <1>   0.0800 
 38 H       -0.9620     3.0600     2.3100 H     1 <1>   0.0800 
 39 H       -3.2480     4.5010    -0.5260 H     1 <1>   0.0800 
 40 H        0.9180     4.5190    -1.9280 H     1 <1>   0.0800 
 41 H       -0.4920     4.4470    -2.9890 H     1 <1>   0.0800 
 42 H        1.0700     3.9590    -3.5590 H     1 <1>   0.0800 
 43 H       -2.1340    -2.3000     2.0000 H     1 <1>   0.1500 
 44 H       -1.3950     5.1580     1.8200 H     1 <1>   0.0800 
 45 H        0.0410     5.6980     0.9800 H     1 <1>   0.0800 
 46 H       -3.1340     3.6780     1.7880 H     1 <1>   0.0800 
 47 H       -3.3910     2.1900     0.9160 H     1 <1>   0.0800 
 48 H       -6.0120     0.1120     0.4350 H     1 <1>   0.1500 
 49 H       -4.0380    -2.0020     3.5530 H     1 <1>   0.1500 
 50 H       -6.0210    -0.7620     2.7090 H     1 <1>   0.1500 
 51 H       -3.5690     5.9480     2.4010 H     1 <1>   0.0800 
 52 H       -4.8730     6.4270     1.3330 H     1 <1>   0.0800 
 53 H       -4.1410     7.5960     2.4020 H     1 <1>   0.0800 
 54 H        0.6880     6.9280    -0.9850 H     1 <1>   0.0800 
 55 H        0.2320     8.4430    -1.7140 H     1 <1>   0.0800 
 56 H       -0.2600     6.9510    -2.4650 H     1 <1>   0.0800 
@<TRIPOS>BOND
  1   1   2  2   
  2   2   3  am  
  3   2   4  1   
  4   3   5  1   
  5   3  28  1   
  6   4   6  1   
  7   4   7  1   
  8   4   8  1   
  9   5   9  1   
 10   5  29  1   
 11   5  30  1   
 12   6  10  1   
 13   6  11  1   
 14   6  31  1   
 15   7  12  1   
 16   7  32  1   
 17   7  33  1   
 18   8  13  1   
 19   8  34  1   
 20   8  35  1   
 21   9  14  ar  
 22   9  15  ar  
 23  10  12  1   
 24  10  16  1   
 25  10  36  1   
 26  11  17  1   
 27  11  37  1   
 28  11  38  1   
 29  12  17  1   
 30  12  39  1   
 31  13  40  1   
 32  13  41  1   
 33  13  42  1   
 34  14  18  ar  
 35  15  19  ar  
 36  15  43  1   
 37  16  20  1   
 38  16  44  1   
 39  16  45  1   
 40  17  46  1   
 41  17  47  1   
 42  18  21  ar  
 43  18  48  1   
 44  19  21  ar  
 45  19  49  1   
 46  20  22  2   
 47  20  23  1   
 48  21  50  1   
 49  22  24  1   
 50  22  25  1   
 51  23  26  2   
 52  23  27  1   
 53  24  26  1   
 54  25  51  1   
 55  25  52  1   
 56  25  53  1   
 57  27  54  1   
 58  27  55  1   
 59  27  56  1   
@<TRIPOS>SUBSTRUCTURE
  1 ****  12 GROUP 4 **** **** 0

# MOE 2024.06 (io_trps.svl 2023.06)
