@<TRIPOS>MOLECULE
NONAME
50 53 1 0 0 
SMALL
USER_CHARGES


@<TRIPOS>ATOM
  1 O        0.3890     0.9920    -0.7830 O.2   1 <1>  -0.5700 
  2 C       -0.2150     1.7940    -0.1100 C.2   1 <1>   0.5690 
  3 N       -1.5760     1.7150     0.0520 N.am  1 <1>  -0.6600 
  4 C        0.5720     2.9110     0.5630 C.3   1 <1>  -0.0990 
  5 C       -2.4210     2.6850     0.8200 C.3   1 <1>   0.1400 
  6 C       -2.3640     0.5990    -0.5430 C.3   1 <1>   0.1400 
  7 C        2.0910     2.8220     0.3550 C.3   1 <1>  -0.0160 
  8 C       -3.4890     3.3200    -0.0930 C.3   1 <1>   0.1440 
  9 C       -3.4440     1.1600    -1.4760 C.3   1 <1>  -0.1600 
 10 C        2.7880     3.9820     1.0480 C.ar  1 <1>  -0.1440 
 11 C       -4.4010     4.2340     0.7050 C.ar  1 <1>   0.1660 
 12 C       -4.3240     2.2140    -0.7770 C.3   1 <1>  -0.1600 
 13 C       -2.8680     4.2970    -1.1290 C.3   1 <1>  -0.1600 
 14 C        3.1280     3.8910     2.3900 C.ar  1 <1>  -0.1500 
 15 C        3.0870     5.1410     0.3450 C.ar  1 <1>  -0.1500 
 16 N       -4.9730     3.9310     1.8460 N.ar  1 <1>  -0.6200 
 17 C       -4.5670     5.4400     0.0880 C.ar  1 <1>  -0.1440 
 18 C       -3.8000     5.5190    -1.2070 C.3   1 <1>  -0.0170 
 19 C        3.7600     4.9460     3.0240 C.ar  1 <1>  -0.1500 
 20 C        3.7200     6.2000     0.9740 C.ar  1 <1>  -0.1500 
 21 C       -5.7180     4.9040     2.3500 C.ar  1 <1>   0.7200 
 22 C       -5.3740     6.3680     0.7030 C.ar  1 <1>   0.1600 
 23 C        4.0540     6.0970     2.3150 C.ar  1 <1>   0.0820 
 24 N       -5.9640     6.1050     1.8470 N.ar  1 <1>  -0.6200 
 25 N       -6.3210     4.6290     3.5070 N.pl3 1 <1>  -0.9000 
 26 O        4.6680     7.1130     2.9400 O.3   1 <1>  -0.5330 
 27 H        0.3700     2.8830     1.6170 H     1 <1>   0.0800 
 28 H        0.2280     3.8510     0.1750 H     1 <1>   0.0800 
 29 H       -1.8290     3.4600     1.2710 H     1 <1>   0.0800 
 30 H       -2.9120     2.1540     1.6170 H     1 <1>   0.0800 
 31 H       -2.8240     0.0360     0.2510 H     1 <1>   0.0800 
 32 H       -1.7260    -0.0710    -1.0940 H     1 <1>   0.0800 
 33 H        2.3160     2.8370    -0.6970 H     1 <1>   0.0800 
 34 H        2.4570     1.8900     0.7500 H     1 <1>   0.0800 
 35 H       -4.0620     0.3510    -1.8210 H     1 <1>   0.0800 
 36 H       -2.9630     1.5840    -2.3390 H     1 <1>   0.0800 
 37 H       -5.0050     2.6510    -1.4860 H     1 <1>   0.0800 
 38 H       -4.9160     1.7200    -0.0250 H     1 <1>   0.0800 
 39 H       -2.7230     3.8490    -2.0950 H     1 <1>   0.0800 
 40 H       -1.9110     4.6330    -0.7720 H     1 <1>   0.0800 
 41 H        2.9040     2.9970     2.9460 H     1 <1>   0.1500 
 42 H        2.8300     5.2210    -0.6970 H     1 <1>   0.1500 
 43 H       -4.4800     5.4270    -2.0360 H     1 <1>   0.0800 
 44 H       -3.2440     6.4370    -1.2880 H     1 <1>   0.0800 
 45 H        4.0270     4.8830     4.0630 H     1 <1>   0.1500 
 46 H        3.9480     7.0910     0.4210 H     1 <1>   0.1500 
 47 H       -5.5360     7.3320     0.2530 H     1 <1>   0.1500 
 48 H       -7.1100     5.2290     3.7330 H     1 <1>   0.4000 
 49 H       -6.4180     3.6420     3.7220 H     1 <1>   0.4000 
 50 H        4.8450     7.8690     2.3540 H     1 <1>   0.4500 
@<TRIPOS>BOND
  1   1   2  2   
  2   2   3  am  
  3   2   4  1   
  4   3   5  1   
  5   3   6  1   
  6   4   7  1   
  7   4  27  1   
  8   4  28  1   
  9   5   8  1   
 10   5  29  1   
 11   5  30  1   
 12   6   9  1   
 13   6  31  1   
 14   6  32  1   
 15   7  10  1   
 16   7  33  1   
 17   7  34  1   
 18   8  11  1   
 19   8  12  1   
 20   8  13  1   
 21   9  12  1   
 22   9  35  1   
 23   9  36  1   
 24  10  14  ar  
 25  10  15  ar  
 26  11  16  ar  
 27  11  17  ar  
 28  12  37  1   
 29  12  38  1   
 30  13  18  1   
 31  13  39  1   
 32  13  40  1   
 33  14  19  ar  
 34  14  41  1   
 35  15  20  ar  
 36  15  42  1   
 37  16  21  ar  
 38  17  18  1   
 39  17  22  ar  
 40  18  43  1   
 41  18  44  1   
 42  19  23  ar  
 43  19  45  1   
 44  20  23  ar  
 45  20  46  1   
 46  21  24  ar  
 47  21  25  1   
 48  22  24  ar  
 49  22  47  1   
 50  23  26  1   
 51  25  48  1   
 52  25  49  1   
 53  26  50  1   
@<TRIPOS>SUBSTRUCTURE
  1 ****   5 GROUP 4 **** **** 0

# MOE 2024.06 (io_trps.svl 2023.06)
