@<TRIPOS>MOLECULE
NONAME
43 44 1 0 0 
SMALL
USER_CHARGES


@<TRIPOS>ATOM
  1 F       -0.0910     3.3910    -2.2730 F     1 <1>  -0.1900 
  2 C       -1.0920     2.9910    -1.5330 C.ar  1 <1>   0.1900 
  3 C       -0.8840     2.7420    -0.1840 C.ar  1 <1>  -0.1440 
  4 C       -2.3270     2.8480    -2.1370 C.ar  1 <1>  -0.1500 
  5 C       -1.9800     2.3550     0.5750 C.ar  1 <1>  -0.1500 
  6 C        0.5010     2.9170     0.4430 C.3   1 <1>   0.3940 
  7 C       -3.4050     2.4510    -1.3640 C.ar  1 <1>  -0.1500 
  8 C       -3.2290     2.2080    -0.0100 C.ar  1 <1>  -0.1500 
  9 N        0.8030     1.7910     1.3940 N.3   1 <1>  -0.8100 
 10 C        0.5970     4.3710     0.9790 C.2   1 <1>   0.5690 
 11 C        0.8040     0.4830     0.7210 C.3   1 <1>   0.0300 
 12 C        2.0780     1.9800     2.1030 C.3   1 <1>   0.0300 
 13 O        0.4290     4.6280     2.1520 O.2   1 <1>  -0.5700 
 14 N        0.8660     5.3520     0.0610 N.am  1 <1>  -0.4930 
 15 C        1.0500     6.7410     0.2680 C.2   1 <1>   0.0630 
 16 C        1.0340     7.4790     1.4530 C.2   1 <1>   0.1390 
 17 C        1.2900     7.6560    -0.6940 C.2   1 <1>  -0.3020 
 18 N        1.2490     8.7450     1.2490 N.2   1 <1>  -0.7070 
 19 N        1.4060     8.8580    -0.0830 N.pl3 1 <1>   0.3140 
 20 C        1.6710    10.1730    -0.7280 C.3   1 <1>   0.1760 
 21 C        0.5430    10.5390    -1.7030 C.3   1 <1>  -0.2400 
 22 C        3.0320    10.1660    -1.4390 C.3   1 <1>  -0.2400 
 23 H       -2.4430     3.0470    -3.1870 H     1 <1>   0.1500 
 24 H       -1.8550     2.1680     1.6300 H     1 <1>   0.1500 
 25 H        1.2350     2.8460    -0.3390 H     1 <1>   0.0800 
 26 H       -4.3770     2.3320    -1.8100 H     1 <1>   0.1500 
 27 H       -4.0660     1.9050     0.5940 H     1 <1>   0.1500 
 28 H       -0.1570     0.2850     0.2770 H     1 <1>   0.0800 
 29 H        1.0010    -0.2960     1.4380 H     1 <1>   0.0800 
 30 H        1.5580     0.4510    -0.0470 H     1 <1>   0.0800 
 31 H        2.0420     2.8630     2.7190 H     1 <1>   0.0800 
 32 H        2.8940     2.0680     1.4060 H     1 <1>   0.0800 
 33 H        2.2620     1.1420     2.7530 H     1 <1>   0.0800 
 34 H        0.8810     5.0680    -0.9180 H     1 <1>   0.3700 
 35 H        0.8640     7.0530     2.4270 H     1 <1>   0.1500 
 36 H        1.3820     7.5280    -1.7540 H     1 <1>   0.1500 
 37 H        1.6990    10.9100     0.0560 H     1 <1>   0.0800 
 38 H        0.4920     9.8350    -2.5130 H     1 <1>   0.0800 
 39 H        0.7130    11.5190    -2.1110 H     1 <1>   0.0800 
 40 H       -0.3990    10.5490    -1.1820 H     1 <1>   0.0800 
 41 H        3.0410     9.4530    -2.2440 H     1 <1>   0.0800 
 42 H        3.8090     9.9190    -0.7370 H     1 <1>   0.0800 
 43 H        3.2410    11.1400    -1.8440 H     1 <1>   0.0800 
@<TRIPOS>BOND
  1   1   2  1   
  2   2   3  ar  
  3   2   4  ar  
  4   3   5  ar  
  5   3   6  1   
  6   4   7  ar  
  7   4  23  1   
  8   5   8  ar  
  9   5  24  1   
 10   6   9  1   
 11   6  10  1   
 12   6  25  1   
 13   7   8  ar  
 14   7  26  1   
 15   8  27  1   
 16   9  11  1   
 17   9  12  1   
 18  10  13  2   
 19  10  14  am  
 20  11  28  1   
 21  11  29  1   
 22  11  30  1   
 23  12  31  1   
 24  12  32  1   
 25  12  33  1   
 26  14  15  1   
 27  14  34  1   
 28  15  16  1   
 29  15  17  2   
 30  16  18  2   
 31  16  35  1   
 32  17  19  1   
 33  17  36  1   
 34  18  19  1   
 35  19  20  1   
 36  20  21  1   
 37  20  22  1   
 38  20  37  1   
 39  21  38  1   
 40  21  39  1   
 41  21  40  1   
 42  22  41  1   
 43  22  42  1   
 44  22  43  1   
@<TRIPOS>SUBSTRUCTURE
  1 ****  14 GROUP 4 **** **** 0

# MOE 2024.06 (io_trps.svl 2023.06)
