@<TRIPOS>MOLECULE
NONAME
44 46 1 0 0 
SMALL
USER_CHARGES


@<TRIPOS>ATOM
  1 F       -0.4580    -1.5640    -1.6430 F     1 <1>  -0.1900 
  2 C       -1.5760    -1.8000    -1.0160 C.ar  1 <1>   0.1900 
  3 C       -1.7870    -3.0100    -0.3620 C.ar  1 <1>  -0.1440 
  4 C       -2.5190    -0.7920    -1.0580 C.ar  1 <1>  -0.1500 
  5 C       -3.0360    -3.1950     0.2550 C.ar  1 <1>  -0.1440 
  6 C       -0.7030    -4.1020    -0.3290 C.3   1 <1>   1.1640 
  7 C       -3.7330    -0.9840    -0.4310 C.ar  1 <1>  -0.1500 
  8 C       -3.9840    -2.1780     0.2180 C.ar  1 <1>  -0.1500 
  9 C       -3.4410    -4.4740     0.9880 C.3   1 <1>   0.4860 
 10 F        0.5050    -3.7830    -0.7580 F     1 <1>  -0.3400 
 11 F       -0.5390    -4.5730     0.9000 F     1 <1>  -0.3400 
 12 F       -1.0930    -5.1500    -1.0520 F     1 <1>  -0.3400 
 13 N       -3.7220    -5.5660     0.0090 N.4   1 <1>  -0.9590 
 14 C       -4.8860    -5.2180    -0.8720 C.3   1 <1>   0.3430 
 15 C       -4.0970    -6.8200     0.7400 C.3   1 <1>   0.3430 
 16 C       -6.0980    -5.9110    -0.2470 C.3   1 <1>   0.2000 
 17 C       -5.5090    -7.2150     0.2800 C.3   1 <1>  -0.0800 
 18 O       -6.5220    -5.1550     0.8420 O.3   1 <1>  -0.6800 
 19 C       -5.4700    -8.3100    -0.8060 C.3   1 <1>  -0.0160 
 20 C       -4.6820    -9.5190    -0.3280 C.ar  1 <1>  -0.1430 
 21 C       -3.4600    -9.8600    -0.8750 C.ar  1 <1>  -0.1500 
 22 C       -5.1470   -10.3370     0.6830 C.ar  1 <1>  -0.1500 
 23 C       -2.7740   -10.9590    -0.3850 C.ar  1 <1>   0.1600 
 24 C       -4.3800   -11.4120     1.1010 C.ar  1 <1>   0.1600 
 25 N       -3.2020   -11.7330     0.5960 N.ar  1 <1>  -0.6200 
 26 H       -2.3020     0.1280    -1.5750 H     1 <1>   0.1500 
 27 H       -4.4780    -0.2040    -0.4490 H     1 <1>   0.1500 
 28 H       -4.9420    -2.3020     0.7010 H     1 <1>   0.1500 
 29 H       -4.3260    -4.2820     1.5740 H     1 <1>   0.0800 
 30 H       -2.6600    -4.7750     1.6680 H     1 <1>   0.0800 
 31 H       -2.8830    -5.7280    -0.5670 H     1 <1>   0.4500 
 32 H       -5.0450    -4.1560    -0.9530 H     1 <1>   0.0800 
 33 H       -4.7210    -5.6210    -1.8570 H     1 <1>   0.0800 
 34 H       -3.3880    -7.6090     0.5480 H     1 <1>   0.0800 
 35 H       -4.1180    -6.6330     1.8020 H     1 <1>   0.0800 
 36 H       -6.9190    -6.0320    -0.9350 H     1 <1>   0.0800 
 37 H       -6.0770    -7.5900     1.1140 H     1 <1>   0.0800 
 38 H       -7.4050    -5.4500     1.1560 H     1 <1>   0.4000 
 39 H       -5.0270    -7.9360    -1.7130 H     1 <1>   0.0800 
 40 H       -6.4730    -8.6210    -1.0430 H     1 <1>   0.0800 
 41 H       -3.0290    -9.2940    -1.6800 H     1 <1>   0.1500 
 42 H       -6.0970   -10.1580     1.1530 H     1 <1>   0.1500 
 43 H       -1.8230   -11.2150    -0.8220 H     1 <1>   0.1500 
 44 H       -4.7560   -12.0410     1.8910 H     1 <1>   0.1500 
@<TRIPOS>BOND
  1   1   2  1   
  2   2   3  ar  
  3   2   4  ar  
  4   3   5  ar  
  5   3   6  1   
  6   4   7  ar  
  7   4  26  1   
  8   5   8  ar  
  9   5   9  1   
 10   6  10  1   
 11   6  11  1   
 12   6  12  1   
 13   7   8  ar  
 14   7  27  1   
 15   8  28  1   
 16   9  13  1   
 17   9  29  1   
 18   9  30  1   
 19  13  14  1   
 20  13  15  1   
 21  13  31  1   
 22  14  16  1   
 23  14  32  1   
 24  14  33  1   
 25  15  17  1   
 26  15  34  1   
 27  15  35  1   
 28  16  17  1   
 29  16  18  1   
 30  16  36  1   
 31  17  19  1   
 32  17  37  1   
 33  18  38  1   
 34  19  20  1   
 35  19  39  1   
 36  19  40  1   
 37  20  21  ar  
 38  20  22  ar  
 39  21  23  ar  
 40  21  41  1   
 41  22  24  ar  
 42  22  42  1   
 43  23  25  ar  
 44  23  43  1   
 45  24  25  ar  
 46  24  44  1   
@<TRIPOS>SUBSTRUCTURE
  1 ****  13 GROUP 4 **** **** 0

# MOE 2024.06 (io_trps.svl 2023.06)
