@<TRIPOS>MOLECULE
NONAME
46 49 1 0 0 
SMALL
USER_CHARGES


@<TRIPOS>ATOM
  1 O       -0.2630     0.2640     0.5180 O.2   1 <1>  -0.5700 
  2 C       -1.3110     0.8790     0.5910 C.2   1 <1>   0.5440 
  3 N       -2.4920     0.1740     0.5180 N.am  1 <1>  -0.6600 
  4 C       -1.2960     2.3200     0.7340 C.ar  1 <1>   0.0860 
  5 C       -3.7940     0.7600     0.1090 C.3   1 <1>   0.1400 
  6 C       -2.5190    -1.3030     0.3760 C.3   1 <1>   0.1400 
  7 C       -0.5220     3.1130    -0.1000 C.ar  1 <1>  -0.1500 
  8 C       -2.0710     2.9570     1.7300 C.ar  1 <1>  -0.1500 
  9 C       -4.5460    -0.3920    -0.5560 C.3   1 <1>   0.2000 
 10 C       -3.9770    -1.6570     0.0780 C.3   1 <1>  -0.0800 
 11 C       -0.5340     4.4960     0.0340 C.ar  1 <1>   0.2270 
 12 C       -2.0890     4.3240     1.8760 C.ar  1 <1>  -0.1500 
 13 O       -5.9110    -0.3100    -0.3280 O.3   1 <1>  -0.6800 
 14 C       -4.1380    -2.9040    -0.8050 C.3   1 <1>   0.0210 
 15 N        0.1330     5.4420    -0.6840 N.2   1 <1>  -0.5650 
 16 C       -1.3100     5.0920     1.0100 C.ar  1 <1>  -0.1520 
 17 C       -3.4790    -4.1090    -0.1640 C.2   1 <1>   0.1080 
 18 C       -0.2260     6.5580    -0.1570 C.2   1 <1>   0.0070 
 19 N       -1.0980     6.4220     0.8740 N.pl3 1 <1>   0.0330 
 20 N       -3.8760    -4.6100     0.9640 N.2   1 <1>  -0.7070 
 21 C       -2.3890    -4.7940    -0.6900 C.2   1 <1>  -0.1500 
 22 C        0.2680     7.9090    -0.6290 C.3   1 <1>  -0.0600 
 23 N       -3.0420    -5.6430     1.1890 N.pl3 1 <1>   0.3000 
 24 C       -2.1310    -5.7730     0.2020 C.2   1 <1>  -0.3320 
 25 C       -1.0520    -6.8400     0.1720 C.3   1 <1>  -0.0600 
 26 H       -4.3180     1.1000     0.9840 H     1 <1>   0.0800 
 27 H       -3.6500     1.5720    -0.5820 H     1 <1>   0.0800 
 28 H       -1.8770    -1.5900    -0.4400 H     1 <1>   0.0800 
 29 H       -2.1760    -1.7800     1.2790 H     1 <1>   0.0800 
 30 H        0.0970     2.6710    -0.8590 H     1 <1>   0.1500 
 31 H       -2.6530     2.3380     2.3900 H     1 <1>   0.1500 
 32 H       -4.3760    -0.3700    -1.6190 H     1 <1>   0.0800 
 33 H       -4.4560    -1.8350     1.0250 H     1 <1>   0.0800 
 34 H       -2.6820     4.8000     2.6380 H     1 <1>   0.1500 
 35 H       -6.1100    -0.5180     0.6060 H     1 <1>   0.4000 
 36 H       -3.7050    -2.7320    -1.7730 H     1 <1>   0.0800 
 37 H       -5.1840    -3.1160    -0.9390 H     1 <1>   0.0800 
 38 H       -1.5100     7.1690     1.4380 H     1 <1>   0.2700 
 39 H       -1.8800    -4.5700    -1.6100 H     1 <1>   0.1500 
 40 H        0.9480     7.7790    -1.4520 H     1 <1>   0.0800 
 41 H        0.7850     8.4120     0.1670 H     1 <1>   0.0800 
 42 H       -0.5590     8.5110    -0.9580 H     1 <1>   0.0800 
 43 H       -3.1200    -6.2360     2.0230 H     1 <1>   0.2700 
 44 H       -0.4530    -6.7350    -0.7150 H     1 <1>   0.0800 
 45 H       -1.4970    -7.8200     0.1700 H     1 <1>   0.0800 
 46 H       -0.4120    -6.7460     1.0310 H     1 <1>   0.0800 
@<TRIPOS>BOND
  1   1   2  2   
  2   2   3  am  
  3   2   4  1   
  4   3   5  1   
  5   3   6  1   
  6   4   7  ar  
  7   4   8  ar  
  8   5   9  1   
  9   5  26  1   
 10   5  27  1   
 11   6  10  1   
 12   6  28  1   
 13   6  29  1   
 14   7  11  ar  
 15   7  30  1   
 16   8  12  ar  
 17   8  31  1   
 18   9  10  1   
 19   9  13  1   
 20   9  32  1   
 21  10  14  1   
 22  10  33  1   
 23  11  15  1   
 24  11  16  ar  
 25  12  16  ar  
 26  12  34  1   
 27  13  35  1   
 28  14  17  1   
 29  14  36  1   
 30  14  37  1   
 31  15  18  2   
 32  16  19  1   
 33  17  20  2   
 34  17  21  1   
 35  18  19  1   
 36  18  22  1   
 37  19  38  1   
 38  20  23  1   
 39  21  24  2   
 40  21  39  1   
 41  22  40  1   
 42  22  41  1   
 43  22  42  1   
 44  23  24  1   
 45  23  43  1   
 46  24  25  1   
 47  25  44  1   
 48  25  45  1   
 49  25  46  1   
@<TRIPOS>SUBSTRUCTURE
  1 ****   3 GROUP 4 **** **** 0

# MOE 2024.06 (io_trps.svl 2023.06)
