@<TRIPOS>MOLECULE
NONAME
50 52 1 0 0 
SMALL
USER_CHARGES


@<TRIPOS>ATOM
  1 F        1.4610     2.1440    -2.6380 F     1 <1>  -0.1900 
  2 C        1.1900     3.1110    -1.8060 C.ar  1 <1>   0.1900 
  3 C        2.1880     3.6330    -1.0360 C.ar  1 <1>  -0.1500 
  4 C       -0.1220     3.5730    -1.7430 C.ar  1 <1>  -0.1500 
  5 C        1.9110     4.6800    -0.1450 C.ar  1 <1>   0.3100 
  6 C       -0.4170     4.5880    -0.8710 C.ar  1 <1>  -0.1500 
  7 N        2.9470     5.1860     0.5710 N.ar  1 <1>  -0.6200 
  8 C        0.5790     5.1650    -0.0490 C.ar  1 <1>   0.0000 
  9 C        2.6620     6.1300     1.4130 C.ar  1 <1>   0.4100 
 10 C        0.3250     6.2030     0.8770 C.ar  1 <1>  -0.1440 
 11 N        3.7260     6.6220     2.1010 N.pl3 1 <1>  -0.8690 
 12 C        1.3780     6.6650     1.6020 C.ar  1 <1>  -0.1500 
 13 C       -1.0690     6.7810     1.0730 C.3   1 <1>  -0.0970 
 14 C        4.3230     7.9680     1.7960 C.3   1 <1>   0.2090 
 15 C        4.7160     8.2000     0.2910 C.3   1 <1>   0.5030 
 16 N        5.1950     6.8850    -0.2870 N.4   1 <1>  -0.9590 
 17 C        5.8350     9.2650     0.1930 C.3   1 <1>  -0.1600 
 18 C        3.4920     8.7140    -0.5190 C.3   1 <1>  -0.1600 
 19 C        6.4490     6.3500     0.3300 C.3   1 <1>   0.2630 
 20 C        5.2910     6.7890    -1.7770 C.3   1 <1>   0.2630 
 21 C        5.3730    10.6650     0.6380 C.3   1 <1>  -0.1600 
 22 C        3.0040    10.1110    -0.0970 C.3   1 <1>  -0.1600 
 23 C        4.1470    11.1310    -0.1570 C.3   1 <1>  -0.1600 
 24 H        3.1870     3.2490    -1.1000 H     1 <1>   0.1500 
 25 H       -0.8700     3.1250    -2.3730 H     1 <1>   0.1500 
 26 H       -1.4280     4.9490    -0.8110 H     1 <1>   0.1500 
 27 H        4.4000     5.8930     2.3510 H     1 <1>   0.4000 
 28 H        1.2660     7.4400     2.3380 H     1 <1>   0.1500 
 29 H       -1.4280     7.2070     0.1540 H     1 <1>   0.0800 
 30 H       -1.0640     7.5510     1.8230 H     1 <1>   0.0800 
 31 H       -1.7470     6.0090     1.3910 H     1 <1>   0.0800 
 32 H        5.2060     8.0760     2.4020 H     1 <1>   0.0800 
 33 H        3.6440     8.7290     2.1310 H     1 <1>   0.0800 
 34 H        4.4320     6.2340     0.0110 H     1 <1>   0.4500 
 35 H        6.1700     9.3370    -0.8260 H     1 <1>   0.0800 
 36 H        6.6770     8.9880     0.8010 H     1 <1>   0.0800 
 37 H        2.6720     8.0240    -0.4490 H     1 <1>   0.0800 
 38 H        3.7490     8.8060    -1.5570 H     1 <1>   0.0800 
 39 H        7.2940     6.9580     0.0510 H     1 <1>   0.0800 
 40 H        6.6240     5.3410    -0.0060 H     1 <1>   0.0800 
 41 H        6.3660     6.3400     1.4040 H     1 <1>   0.0800 
 42 H        5.9800     7.5240    -2.1580 H     1 <1>   0.0800 
 43 H        4.3250     6.9470    -2.2270 H     1 <1>   0.0800 
 44 H        5.6350     5.8090    -2.0650 H     1 <1>   0.0800 
 45 H        6.1750    11.3700     0.4900 H     1 <1>   0.0800 
 46 H        5.1390    10.6680     1.6890 H     1 <1>   0.0800 
 47 H        2.5820    10.0930     0.8920 H     1 <1>   0.0800 
 48 H        2.2180    10.4280    -0.7630 H     1 <1>   0.0800 
 49 H        4.4300    11.2860    -1.1850 H     1 <1>   0.0800 
 50 H        3.8060    12.0770     0.2280 H     1 <1>   0.0800 
@<TRIPOS>BOND
  1   1   2  1   
  2   2   3  ar  
  3   2   4  ar  
  4   3   5  ar  
  5   3  24  1   
  6   4   6  ar  
  7   4  25  1   
  8   5   7  ar  
  9   5   8  ar  
 10   6   8  ar  
 11   6  26  1   
 12   7   9  ar  
 13   8  10  ar  
 14   9  11  1   
 15   9  12  ar  
 16  10  12  ar  
 17  10  13  1   
 18  11  14  1   
 19  11  27  1   
 20  12  28  1   
 21  13  29  1   
 22  13  30  1   
 23  13  31  1   
 24  14  15  1   
 25  14  32  1   
 26  14  33  1   
 27  15  16  1   
 28  15  17  1   
 29  15  18  1   
 30  16  19  1   
 31  16  20  1   
 32  16  34  1   
 33  17  21  1   
 34  17  35  1   
 35  17  36  1   
 36  18  22  1   
 37  18  37  1   
 38  18  38  1   
 39  19  39  1   
 40  19  40  1   
 41  19  41  1   
 42  20  42  1   
 43  20  43  1   
 44  20  44  1   
 45  21  23  1   
 46  21  45  1   
 47  21  46  1   
 48  22  23  1   
 49  22  47  1   
 50  22  48  1   
 51  23  49  1   
 52  23  50  1   
@<TRIPOS>SUBSTRUCTURE
  1 ****   7 GROUP 4 **** **** 0

# MOE 2024.06 (io_trps.svl 2023.06)
