@<TRIPOS>MOLECULE
NONAME
54 57 1 0 0 
SMALL
USER_CHARGES


@<TRIPOS>ATOM
  1 O       -0.4240    -2.1060    -0.2410 O.2   1 <1>  -0.5700 
  2 C       -1.6200    -2.1280    -0.4430 C.2   1 <1>   0.6900 
  3 N       -2.4570    -1.1920     0.0830 N.am  1 <1>  -0.6600 
  4 N       -2.1100    -3.0840    -1.2350 N.am  1 <1>  -0.8000 
  5 C       -3.8870    -1.4500     0.4420 C.3   1 <1>   0.2810 
  6 C       -1.9480     0.0210     0.7560 C.3   1 <1>   0.1400 
  7 C       -4.8490    -1.8920    -0.6920 C.2   1 <1>   0.5690 
  8 C       -4.3310    -0.1410     1.1000 C.3   1 <1>  -0.1600 
  9 C       -3.0590     0.4400     1.7120 C.3   1 <1>  -0.1600 
 10 O       -4.5330    -1.6790    -1.8440 O.2   1 <1>  -0.5700 
 11 N       -6.0350    -2.5350    -0.4040 N.am  1 <1>  -0.6600 
 12 C       -6.5180    -2.9190     0.9530 C.3   1 <1>   0.1400 
 13 C       -6.9510    -2.9970    -1.4860 C.3   1 <1>   0.1400 
 14 C       -6.5890    -4.4450     1.0360 C.3   1 <1>  -0.1600 
 15 C       -7.0370    -4.5240    -1.4430 C.3   1 <1>  -0.1600 
 16 C       -7.4870    -5.0340    -0.0620 C.3   1 <1>   0.4240 
 17 O       -8.7690    -4.5130     0.1990 O.3   1 <1>  -0.5600 
 18 C       -7.4690    -6.5770     0.0000 C.ar  1 <1>  -0.1430 
 19 C       -9.8630    -5.2020    -0.3240 C.3   1 <1>   0.1200 
 20 C       -8.6390    -7.3030     0.2010 C.ar  1 <1>  -0.1430 
 21 C       -6.2750    -7.2740    -0.1520 C.ar  1 <1>  -0.1500 
 22 C       -9.9550    -6.5660     0.3520 C.3   1 <1>  -0.0170 
 23 C       -8.6120    -8.6870     0.2610 C.ar  1 <1>  -0.1500 
 24 C       -6.2470    -8.6550    -0.0950 C.ar  1 <1>  -0.1500 
 25 C       -7.4110    -9.3730     0.1130 C.ar  1 <1>   0.0830 
 26 O       -7.2980   -10.7240     0.1590 O.3   1 <1>  -0.3630 
 27 C       -8.4200   -11.5460     0.3880 C.3   1 <1>   0.0400 
 28 H       -1.4230    -3.6270    -1.7510 H     1 <1>   0.3700 
 29 H       -2.9540    -2.8370    -1.7620 H     1 <1>   0.3700 
 30 H       -3.8690    -2.2260     1.1840 H     1 <1>   0.0800 
 31 H       -1.0280    -0.1790     1.2800 H     1 <1>   0.0800 
 32 H       -1.7790     0.7830     0.0140 H     1 <1>   0.0800 
 33 H       -4.7020     0.5240     0.3390 H     1 <1>   0.0800 
 34 H       -5.1030    -0.2950     1.8320 H     1 <1>   0.0800 
 35 H       -2.8760    -0.0050     2.6750 H     1 <1>   0.0800 
 36 H       -3.1060     1.5090     1.8230 H     1 <1>   0.0800 
 37 H       -5.8770    -2.5450     1.7280 H     1 <1>   0.0800 
 38 H       -7.4980    -2.4990     1.1080 H     1 <1>   0.0800 
 39 H       -7.9260    -2.5670    -1.3320 H     1 <1>   0.0800 
 40 H       -6.5990    -2.6810    -2.4530 H     1 <1>   0.0800 
 41 H       -6.9710    -4.7420     1.9960 H     1 <1>   0.0800 
 42 H       -5.5920    -4.8350     0.9510 H     1 <1>   0.0800 
 43 H       -6.0650    -4.9180    -1.6750 H     1 <1>   0.0800 
 44 H       -7.7060    -4.8770    -2.2040 H     1 <1>   0.0800 
 45 H      -10.7460    -4.6210    -0.1220 H     1 <1>   0.0800 
 46 H       -9.7440    -5.3040    -1.3880 H     1 <1>   0.0800 
 47 H       -5.3510    -6.7490    -0.3170 H     1 <1>   0.1500 
 48 H      -10.1790    -6.4350     1.3960 H     1 <1>   0.0800 
 49 H      -10.7520    -7.1300    -0.0980 H     1 <1>   0.0800 
 50 H       -9.5300    -9.2180     0.4230 H     1 <1>   0.1500 
 51 H       -5.3200    -9.1870    -0.2120 H     1 <1>   0.1500 
 52 H       -8.0880   -12.5690     0.3900 H     1 <1>   0.0800 
 53 H       -9.1310   -11.3950    -0.4050 H     1 <1>   0.0800 
 54 H       -8.8460   -11.2970     1.3430 H     1 <1>   0.0800 
@<TRIPOS>BOND
  1   1   2  2   
  2   2   3  am  
  3   2   4  am  
  4   3   5  1   
  5   3   6  1   
  6   4  28  1   
  7   4  29  1   
  8   5   7  1   
  9   5   8  1   
 10   5  30  1   
 11   6   9  1   
 12   6  31  1   
 13   6  32  1   
 14   7  10  2   
 15   7  11  am  
 16   8   9  1   
 17   8  33  1   
 18   8  34  1   
 19   9  35  1   
 20   9  36  1   
 21  11  12  1   
 22  11  13  1   
 23  12  14  1   
 24  12  37  1   
 25  12  38  1   
 26  13  15  1   
 27  13  39  1   
 28  13  40  1   
 29  14  16  1   
 30  14  41  1   
 31  14  42  1   
 32  15  16  1   
 33  15  43  1   
 34  15  44  1   
 35  16  17  1   
 36  16  18  1   
 37  17  19  1   
 38  18  20  ar  
 39  18  21  ar  
 40  19  22  1   
 41  19  45  1   
 42  19  46  1   
 43  20  22  1   
 44  20  23  ar  
 45  21  24  ar  
 46  21  47  1   
 47  22  48  1   
 48  22  49  1   
 49  23  25  ar  
 50  23  50  1   
 51  24  25  ar  
 52  24  51  1   
 53  25  26  1   
 54  26  27  1   
 55  27  52  1   
 56  27  53  1   
 57  27  54  1   
@<TRIPOS>SUBSTRUCTURE
  1 ****  14 GROUP 4 **** **** 0

# MOE 2024.06 (io_trps.svl 2023.06)
