@<TRIPOS>MOLECULE
NONAME
51 53 1 0 0 
SMALL
USER_CHARGES


@<TRIPOS>ATOM
  1 O        0.0980    -0.4740    -0.2770 O.3   1 <1>  -0.3630 
  2 C       -0.0800    -1.7960    -0.0180 C.ar  1 <1>   0.0820 
  3 C        1.2820     0.0230    -0.8590 C.3   1 <1>   0.0400 
  4 C       -1.2560    -2.1730     0.6200 C.ar  1 <1>  -0.1440 
  5 C        0.8560    -2.7670    -0.3610 C.ar  1 <1>  -0.1500 
  6 C       -1.4820    -3.5090     0.8950 C.ar  1 <1>  -0.1500 
  7 C       -2.2880    -1.1270     1.0190 C.3   1 <1>  -0.0960 
  8 C        0.6310    -4.1060    -0.0830 C.ar  1 <1>  -0.1430 
  9 C       -0.5570    -4.4800     0.5390 C.ar  1 <1>  -0.1430 
 10 C        1.7090    -5.1140    -0.4660 C.3   1 <1>  -0.0970 
 11 C       -0.8900    -5.9290     0.8390 C.3   1 <1>   0.4860 
 12 N       -1.3130    -6.5860    -0.4290 N.4   1 <1>  -0.9590 
 13 C       -2.6340    -6.0470    -0.8900 C.3   1 <1>   0.3430 
 14 C       -1.4880    -8.0590    -0.2360 C.3   1 <1>   0.3430 
 15 C       -3.6790    -7.0560    -0.4080 C.3   1 <1>   0.2000 
 16 C       -2.9450    -8.3840    -0.5870 C.3   1 <1>  -0.0800 
 17 O       -3.9190    -6.8270     0.9450 O.3   1 <1>  -0.6800 
 18 C       -3.4990    -9.5870     0.2010 C.3   1 <1>  -0.0170 
 19 C       -2.5840   -10.7880     0.0290 C.ar  1 <1>  -0.1430 
 20 C       -1.7670   -11.2360     1.0480 C.ar  1 <1>  -0.1500 
 21 C       -2.5190   -11.4910    -1.1590 C.ar  1 <1>  -0.1500 
 22 C       -0.9320   -12.3200     0.8300 C.ar  1 <1>   0.1600 
 23 C       -1.6480   -12.5620    -1.2740 C.ar  1 <1>   0.1600 
 24 N       -0.8470   -12.9830    -0.3100 N.ar  1 <1>  -0.6200 
 25 H        1.1930     1.0910    -0.9380 H     1 <1>   0.0800 
 26 H        1.3970    -0.4060    -1.8390 H     1 <1>   0.0800 
 27 H        2.1140    -0.2280    -0.2260 H     1 <1>   0.0800 
 28 H        1.7700    -2.4850    -0.8460 H     1 <1>   0.1500 
 29 H       -2.3940    -3.7900     1.3950 H     1 <1>   0.1500 
 30 H       -3.1350    -1.5740     1.5060 H     1 <1>   0.0800 
 31 H       -2.6310    -0.6020     0.1450 H     1 <1>   0.0800 
 32 H       -1.8420    -0.4170     1.6910 H     1 <1>   0.0800 
 33 H        2.6420    -4.6130    -0.6570 H     1 <1>   0.0800 
 34 H        1.4300    -5.6440    -1.3590 H     1 <1>   0.0800 
 35 H        1.8810    -5.8160     0.3300 H     1 <1>   0.0800 
 36 H       -1.6840    -5.9830     1.5680 H     1 <1>   0.0800 
 37 H       -0.0210    -6.4190     1.2440 H     1 <1>   0.0800 
 38 H       -0.5940    -6.3650    -1.1280 H     1 <1>   0.4500 
 39 H       -2.8370    -5.0600    -0.5090 H     1 <1>   0.0800 
 40 H       -2.6490    -6.0140    -1.9660 H     1 <1>   0.0800 
 41 H       -0.8120    -8.6230    -0.8600 H     1 <1>   0.0800 
 42 H       -1.3070    -8.3180     0.7940 H     1 <1>   0.0800 
 43 H       -4.6070    -6.9850    -0.9510 H     1 <1>   0.0800 
 44 H       -2.9670    -8.6350    -1.6340 H     1 <1>   0.0800 
 45 H       -4.7620    -7.2400     1.2300 H     1 <1>   0.4000 
 46 H       -4.4850    -9.8360    -0.1530 H     1 <1>   0.0800 
 47 H       -3.5770    -9.3550     1.2490 H     1 <1>   0.0800 
 48 H       -1.7680   -10.7640     2.0140 H     1 <1>   0.1500 
 49 H       -3.1350   -11.2240    -1.9980 H     1 <1>   0.1500 
 50 H       -0.3020   -12.6610     1.6350 H     1 <1>   0.1500 
 51 H       -1.6080   -13.1010    -2.2060 H     1 <1>   0.1500 
@<TRIPOS>BOND
  1   1   2  1   
  2   1   3  1   
  3   2   4  ar  
  4   2   5  ar  
  5   3  25  1   
  6   3  26  1   
  7   3  27  1   
  8   4   6  ar  
  9   4   7  1   
 10   5   8  ar  
 11   5  28  1   
 12   6   9  ar  
 13   6  29  1   
 14   7  30  1   
 15   7  31  1   
 16   7  32  1   
 17   8   9  ar  
 18   8  10  1   
 19   9  11  1   
 20  10  33  1   
 21  10  34  1   
 22  10  35  1   
 23  11  12  1   
 24  11  36  1   
 25  11  37  1   
 26  12  13  1   
 27  12  14  1   
 28  12  38  1   
 29  13  15  1   
 30  13  39  1   
 31  13  40  1   
 32  14  16  1   
 33  14  41  1   
 34  14  42  1   
 35  15  16  1   
 36  15  17  1   
 37  15  43  1   
 38  16  18  1   
 39  16  44  1   
 40  17  45  1   
 41  18  19  1   
 42  18  46  1   
 43  18  47  1   
 44  19  20  ar  
 45  19  21  ar  
 46  20  22  ar  
 47  20  48  1   
 48  21  23  ar  
 49  21  49  1   
 50  22  24  ar  
 51  22  50  1   
 52  23  24  ar  
 53  23  51  1   
@<TRIPOS>SUBSTRUCTURE
  1 ****  12 GROUP 4 **** **** 0

# MOE 2024.06 (io_trps.svl 2023.06)
