@<TRIPOS>MOLECULE
NONAME
41 42 1 0 0 
SMALL
USER_CHARGES


@<TRIPOS>ATOM
  1 S       -0.1510    -0.0010     0.4680 S.o2  1 <1>   1.3330 
  2 O        0.1510    -0.7400     1.6730 O.2   1 <1>  -0.6500 
  3 O       -0.8830     1.2420     0.5610 O.2   1 <1>  -0.6500 
  4 N       -1.0030    -1.0390    -0.5720 N.am  1 <1>  -0.8490 
  5 C        1.3550     0.3190    -0.4530 C.3   1 <1>  -0.0550 
  6 C       -2.4550    -0.9140    -0.4140 C.3   1 <1>   0.1160 
  7 C       -0.6060    -2.4450    -0.4420 C.3   1 <1>   0.1160 
  8 C        2.3180     1.2980     0.2490 C.3   1 <1>  -0.0800 
  9 C        3.4510     1.7030    -0.6780 C.3   1 <1>   0.2200 
 10 C        3.0850     0.6260     1.3890 C.3   1 <1>   0.1200 
 11 N        4.0200     2.9910    -0.2190 N.am  1 <1>  -0.7300 
 12 C        4.4660     0.5820    -0.4610 C.3   1 <1>   0.1200 
 13 O        4.2150     0.0480     0.8080 O.3   1 <1>  -0.5600 
 14 C        4.0590     4.1510    -0.9390 C.2   1 <1>   0.5440 
 15 O        3.5680     4.1330    -2.0510 O.2   1 <1>  -0.5700 
 16 C        4.6480     5.3750    -0.4160 C.ar  1 <1>   0.0860 
 17 C        5.4640     5.4420     0.7190 C.ar  1 <1>   0.1900 
 18 C        4.4130     6.5960    -1.0580 C.ar  1 <1>  -0.1500 
 19 F        5.7540     4.3600     1.3900 F     1 <1>  -0.1900 
 20 C        6.0090     6.6200     1.1970 C.ar  1 <1>  -0.1500 
 21 C        4.9490     7.7870    -0.5970 C.ar  1 <1>  -0.1500 
 22 C        5.7480     7.8040     0.5330 C.ar  1 <1>  -0.1500 
 23 H        1.8610    -0.6070    -0.6430 H     1 <1>   0.0800 
 24 H        1.0740     0.7390    -1.4000 H     1 <1>   0.0800 
 25 H       -2.9630    -1.5740    -1.0960 H     1 <1>   0.0800 
 26 H       -2.7640     0.0950    -0.6310 H     1 <1>   0.0800 
 27 H       -2.7440    -1.1540     0.5960 H     1 <1>   0.0800 
 28 H       -1.1060    -3.0410    -1.1860 H     1 <1>   0.0800 
 29 H       -0.8600    -2.8200     0.5370 H     1 <1>   0.0800 
 30 H        0.4560    -2.5470    -0.5830 H     1 <1>   0.0800 
 31 H        1.7640     2.1570     0.5900 H     1 <1>   0.0800 
 32 H        3.1480     1.7720    -1.7100 H     1 <1>   0.0800 
 33 H        2.5280    -0.1350     1.9040 H     1 <1>   0.0800 
 34 H        3.4260     1.3590     2.1000 H     1 <1>   0.0800 
 35 H        4.4970     2.9550     0.6860 H     1 <1>   0.3700 
 36 H        5.4820     0.9330    -0.5100 H     1 <1>   0.0800 
 37 H        4.3180    -0.2060    -1.1780 H     1 <1>   0.0800 
 38 H        3.7940     6.6110    -1.9400 H     1 <1>   0.1500 
 39 H        6.6290     6.6080     2.0760 H     1 <1>   0.1500 
 40 H        4.7430     8.7060    -1.1200 H     1 <1>   0.1500 
 41 H        6.1640     8.7310     0.8900 H     1 <1>   0.1500 
@<TRIPOS>BOND
  1   1   2  2   
  2   1   3  2   
  3   1   4  am  
  4   1   5  1   
  5   4   6  1   
  6   4   7  1   
  7   5   8  1   
  8   5  23  1   
  9   5  24  1   
 10   6  25  1   
 11   6  26  1   
 12   6  27  1   
 13   7  28  1   
 14   7  29  1   
 15   7  30  1   
 16   8   9  1   
 17   8  10  1   
 18   8  31  1   
 19   9  11  1   
 20   9  12  1   
 21   9  32  1   
 22  10  13  1   
 23  10  33  1   
 24  10  34  1   
 25  11  14  am  
 26  11  35  1   
 27  12  13  1   
 28  12  36  1   
 29  12  37  1   
 30  14  15  2   
 31  14  16  1   
 32  16  17  ar  
 33  16  18  ar  
 34  17  19  1   
 35  17  20  ar  
 36  18  21  ar  
 37  18  38  1   
 38  20  22  ar  
 39  20  39  1   
 40  21  22  ar  
 41  21  40  1   
 42  22  41  1   
@<TRIPOS>SUBSTRUCTURE
  1 ****   9 GROUP 4 **** **** 0

# MOE 2024.06 (io_trps.svl 2023.06)
