@<TRIPOS>MOLECULE
NONAME
31 32 1 0 0 
SMALL
USER_CHARGES


@<TRIPOS>ATOM
  1 F       -0.9700    -0.3780     1.8180 F     1 <1>  -0.1900 
  2 C       -1.9410    -0.9940     1.1800 C.ar  1 <1>   0.1900 
  3 C       -2.5510    -0.4890     0.0360 C.ar  1 <1>   0.3920 
  4 C       -2.3700    -2.2000     1.6690 C.ar  1 <1>   0.1600 
  5 O       -2.2470     0.6810    -0.5730 O.3   1 <1>  -0.3630 
  6 N       -3.5170    -1.1590    -0.5550 N.ar  1 <1>  -0.6200 
  7 N       -3.3350    -2.8790     1.0830 N.ar  1 <1>  -0.6200 
  8 C       -1.2830     1.6010    -0.1110 C.3   1 <1>   0.0400 
  9 C       -3.8540    -2.3100    -0.0020 C.ar  1 <1>   0.7200 
 10 N       -4.8580    -2.9440    -0.6520 N.pl3 1 <1>  -0.8690 
 11 C       -5.0400    -4.4050    -0.8020 C.3   1 <1>   0.2890 
 12 C       -5.5090    -5.0300     0.5190 C.3   1 <1>   0.0960 
 13 C       -3.7540    -5.0200    -1.3650 C.3   1 <1>  -0.2400 
 14 N       -5.7850    -6.4630     0.3450 N.pl3 1 <1>   0.3140 
 15 N       -6.7560    -6.9290    -0.4310 N.2   1 <1>  -0.7070 
 16 C       -5.1380    -7.5000     0.8840 C.2   1 <1>   0.0360 
 17 C       -6.6260    -8.2080    -0.3000 C.2   1 <1>   0.3660 
 18 N       -5.6360    -8.6200     0.5020 N.2   1 <1>  -0.5650 
 19 H       -1.9140    -2.6110     2.5520 H     1 <1>   0.1500 
 20 H       -1.2790     2.4430    -0.7810 H     1 <1>   0.0800 
 21 H       -0.3160     1.1300    -0.1150 H     1 <1>   0.0800 
 22 H       -1.5520     1.9260     0.8780 H     1 <1>   0.0800 
 23 H       -5.1120    -2.4120    -1.4850 H     1 <1>   0.4000 
 24 H       -5.8260    -4.5530    -1.5250 H     1 <1>   0.0800 
 25 H       -6.4140    -4.5510     0.8410 H     1 <1>   0.0800 
 26 H       -4.7620    -4.9220     1.2800 H     1 <1>   0.0800 
 27 H       -2.9600    -4.9830    -0.6420 H     1 <1>   0.0800 
 28 H       -3.4510    -4.4930    -2.2510 H     1 <1>   0.0800 
 29 H       -3.9210    -6.0480    -1.6320 H     1 <1>   0.0800 
 30 H       -4.3030    -7.3870     1.5520 H     1 <1>   0.1500 
 31 H       -7.2630    -8.9220    -0.7980 H     1 <1>   0.1500 
@<TRIPOS>BOND
  1   1   2  1   
  2   2   3  ar  
  3   2   4  ar  
  4   3   5  1   
  5   3   6  ar  
  6   4   7  ar  
  7   4  19  1   
  8   5   8  1   
  9   6   9  ar  
 10   7   9  ar  
 11   8  20  1   
 12   8  21  1   
 13   8  22  1   
 14   9  10  1   
 15  10  11  1   
 16  10  23  1   
 17  11  12  1   
 18  11  13  1   
 19  11  24  1   
 20  12  14  1   
 21  12  25  1   
 22  12  26  1   
 23  13  27  1   
 24  13  28  1   
 25  13  29  1   
 26  14  15  1   
 27  14  16  1   
 28  15  17  2   
 29  16  18  2   
 30  16  30  1   
 31  17  18  1   
 32  17  31  1   
@<TRIPOS>SUBSTRUCTURE
  1 ****   9 GROUP 4 **** **** 0

# MOE 2024.06 (io_trps.svl 2023.06)
