@<TRIPOS>MOLECULE
NONAME
41 42 1 0 0 
SMALL
USER_CHARGES


@<TRIPOS>ATOM
  1 O        0.0840    -0.5120     1.3690 O.2   1 <1>  -0.5700 
  2 C        0.0320    -1.3830     0.5240 C.2   1 <1>   0.7800 
  3 O        1.1070    -1.7340    -0.1860 O.3   1 <1>  -0.4300 
  4 N       -1.1240    -2.0570     0.2600 N.am  1 <1>  -0.6600 
  5 C        2.4040    -1.1860    -0.0980 C.3   1 <1>   0.2800 
  6 C       -2.4000    -1.8070     0.9710 C.3   1 <1>   0.1400 
  7 C       -1.2650    -3.1880    -0.6760 C.3   1 <1>   0.1400 
  8 C        2.3780     0.3010    -0.4700 C.3   1 <1>  -0.2400 
  9 C        3.2310    -1.9500    -1.1330 C.3   1 <1>  -0.2400 
 10 C        2.9900    -1.4320     1.2980 C.3   1 <1>  -0.2400 
 11 C       -3.3950    -2.8290     0.4000 C.3   1 <1>   0.2800 
 12 C       -2.5070    -3.9260    -0.1850 C.3   1 <1>  -0.1600 
 13 O       -4.0850    -2.2590    -0.6760 O.3   1 <1>  -0.5600 
 14 C       -4.4620    -3.3280     1.3780 C.3   1 <1>  -0.1600 
 15 C       -5.4650    -2.2750    -0.4800 C.3   1 <1>   0.2000 
 16 C       -5.7080    -3.3990     0.5200 C.3   1 <1>  -0.1600 
 17 C       -6.1650    -2.4470    -1.8360 C.3   1 <1>   0.1200 
 18 O       -7.5390    -2.5910    -1.6620 O.3   1 <1>  -0.6800 
 19 H       -2.2430    -1.9770     2.0220 H     1 <1>   0.0800 
 20 H       -2.7380    -0.7980     0.8130 H     1 <1>   0.0800 
 21 H       -1.4270    -2.8000    -1.6680 H     1 <1>   0.0800 
 22 H       -0.3920    -3.8180    -0.6660 H     1 <1>   0.0800 
 23 H        3.3810     0.6800    -0.5370 H     1 <1>   0.0800 
 24 H        1.8630     0.8780     0.2760 H     1 <1>   0.0800 
 25 H        1.8950     0.4400    -1.4200 H     1 <1>   0.0800 
 26 H        4.2450    -1.5950    -1.1370 H     1 <1>   0.0800 
 27 H        2.8180    -1.8100    -2.1160 H     1 <1>   0.0800 
 28 H        3.2390    -3.0000    -0.9020 H     1 <1>   0.0800 
 29 H        4.0240    -1.1390     1.3180 H     1 <1>   0.0800 
 30 H        2.9250    -2.4740     1.5530 H     1 <1>   0.0800 
 31 H        2.4750    -0.8530     2.0420 H     1 <1>   0.0800 
 32 H       -2.2080    -4.6100     0.5880 H     1 <1>   0.0800 
 33 H       -2.9940    -4.4740    -0.9710 H     1 <1>   0.0800 
 34 H       -4.2100    -4.2740     1.8240 H     1 <1>   0.0800 
 35 H       -4.6010    -2.6030     2.1620 H     1 <1>   0.0800 
 36 H       -5.7310    -1.3250    -0.0490 H     1 <1>   0.0800 
 37 H       -6.6110    -3.2480     1.0840 H     1 <1>   0.0800 
 38 H       -5.7550    -4.3440     0.0070 H     1 <1>   0.0800 
 39 H       -5.7980    -3.3210    -2.3450 H     1 <1>   0.0800 
 40 H       -5.9990    -1.5770    -2.4470 H     1 <1>   0.0800 
 41 H       -7.7420    -3.4240    -1.1970 H     1 <1>   0.4000 
@<TRIPOS>BOND
  1   1   2  2   
  2   2   3  1   
  3   2   4  am  
  4   3   5  1   
  5   4   6  1   
  6   4   7  1   
  7   5   8  1   
  8   5   9  1   
  9   5  10  1   
 10   6  11  1   
 11   6  19  1   
 12   6  20  1   
 13   7  12  1   
 14   7  21  1   
 15   7  22  1   
 16   8  23  1   
 17   8  24  1   
 18   8  25  1   
 19   9  26  1   
 20   9  27  1   
 21   9  28  1   
 22  10  29  1   
 23  10  30  1   
 24  10  31  1   
 25  11  12  1   
 26  11  13  1   
 27  11  14  1   
 28  12  32  1   
 29  12  33  1   
 30  13  15  1   
 31  14  16  1   
 32  14  34  1   
 33  14  35  1   
 34  15  16  1   
 35  15  17  1   
 36  15  36  1   
 37  16  37  1   
 38  16  38  1   
 39  17  18  1   
 40  17  39  1   
 41  17  40  1   
 42  18  41  1   
@<TRIPOS>SUBSTRUCTURE
  1 ****   4 GROUP 4 **** **** 0

# MOE 2024.06 (io_trps.svl 2023.06)
