@<TRIPOS>MOLECULE
NONAME
53 57 1 0 0 
SMALL
USER_CHARGES


@<TRIPOS>ATOM
  1 O       -0.8400     0.2140    -0.5320 O.2   1 <1>  -0.5700 
  2 C       -1.7750     0.9490    -0.7330 C.2   1 <1>   0.5690 
  3 N       -2.9240     0.4790    -1.3210 N.am  1 <1>  -0.6600 
  4 C       -1.6810     2.3970    -0.2870 C.3   1 <1>  -0.0990 
  5 C       -4.2260     1.2190    -1.3870 C.3   1 <1>   0.1400 
  6 C       -3.0120    -0.9380    -1.8130 C.3   1 <1>   0.1400 
  7 C       -0.2910     2.8100     0.2210 C.3   1 <1>   0.0200 
  8 C       -5.3350     0.4910    -0.5800 C.3   1 <1>   0.4230 
  9 C       -4.2720    -1.6590    -1.2850 C.3   1 <1>   0.3430 
 10 C       -0.2680     4.2600     0.6810 C.2   1 <1>   0.0060 
 11 N       -4.9140    -0.9020    -0.1520 N.4   1 <1>  -0.9590 
 12 C       -6.6620     0.4540    -1.3740 C.3   1 <1>   0.1200 
 13 N       -1.2980     5.0340     0.7400 N.2   1 <1>  -0.5650 
 14 N        0.8850     4.8570     1.0800 N.pl3 1 <1>   0.0330 
 15 C       -6.0480    -1.6070     0.5250 C.3   1 <1>   0.5180 
 16 O       -7.6520    -0.2330    -0.6600 O.3   1 <1>  -0.5600 
 17 C       -0.8080     6.2180     1.2040 C.ar  1 <1>   0.2270 
 18 C        0.5530     6.1260     1.4220 C.ar  1 <1>  -0.1520 
 19 C       -5.6380    -3.0420     0.8770 C.3   1 <1>  -0.1950 
 20 C       -7.3380    -1.5570    -0.3220 C.3   1 <1>   0.1200 
 21 C       -1.4730     7.4150     1.4630 C.ar  1 <1>  -0.1500 
 22 C        1.2880     7.2130     1.9000 C.ar  1 <1>  -0.1500 
 23 C       -6.0550    -3.6420     2.1840 C.3   1 <1>  -0.2000 
 24 C       -4.6090    -3.3300     1.9280 C.3   1 <1>  -0.2000 
 25 C       -0.7580     8.4950     1.9350 C.ar  1 <1>  -0.1500 
 26 C        0.6220     8.3920     2.1530 C.ar  1 <1>  -0.1500 
 27 H       -1.9400     3.0320    -1.1140 H     1 <1>   0.0800 
 28 H       -2.3910     2.5580     0.5030 H     1 <1>   0.0800 
 29 H       -4.1310     2.2240    -1.0170 H     1 <1>   0.0800 
 30 H       -4.5160     1.2990    -2.4210 H     1 <1>   0.0800 
 31 H       -3.0200    -0.9420    -2.8900 H     1 <1>   0.0800 
 32 H       -2.1460    -1.4990    -1.5070 H     1 <1>   0.0800 
 33 H        0.4290     2.6760    -0.5670 H     1 <1>   0.0800 
 34 H       -0.0080     2.1800     1.0470 H     1 <1>   0.0800 
 35 H       -5.5210     1.0770     0.3060 H     1 <1>   0.0800 
 36 H       -3.9860    -2.6470    -0.9630 H     1 <1>   0.0800 
 37 H       -4.9760    -1.7720    -2.0930 H     1 <1>   0.0800 
 38 H       -4.1660    -0.7810     0.5440 H     1 <1>   0.4500 
 39 H       -6.5360    -0.0250    -2.3300 H     1 <1>   0.0800 
 40 H       -7.0220     1.4540    -1.5410 H     1 <1>   0.0800 
 41 H        1.8180     4.4410     1.1200 H     1 <1>   0.2700 
 42 H       -6.2580    -1.0960     1.4510 H     1 <1>   0.0800 
 43 H       -5.6970    -3.7100     0.0340 H     1 <1>   0.1000 
 44 H       -8.1630    -1.9530     0.2450 H     1 <1>   0.0800 
 45 H       -7.2370    -2.1320    -1.2250 H     1 <1>   0.0800 
 46 H       -2.5310     7.4660     1.2870 H     1 <1>   0.1500 
 47 H        2.3470     7.1250     2.0650 H     1 <1>   0.1500 
 48 H       -6.5770    -3.0490     2.9160 H     1 <1>   0.1000 
 49 H       -6.3520    -4.6780     2.2170 H     1 <1>   0.1000 
 50 H       -3.9320    -4.1580     1.7920 H     1 <1>   0.1000 
 51 H       -4.1640    -2.5330     2.5000 H     1 <1>   0.1000 
 52 H       -1.2550     9.4270     2.1400 H     1 <1>   0.1500 
 53 H        1.1580     9.2500     2.5220 H     1 <1>   0.1500 
@<TRIPOS>BOND
  1   1   2  2   
  2   2   3  am  
  3   2   4  1   
  4   3   5  1   
  5   3   6  1   
  6   4   7  1   
  7   4  27  1   
  8   4  28  1   
  9   5   8  1   
 10   5  29  1   
 11   5  30  1   
 12   6   9  1   
 13   6  31  1   
 14   6  32  1   
 15   7  10  1   
 16   7  33  1   
 17   7  34  1   
 18   8  11  1   
 19   8  12  1   
 20   8  35  1   
 21   9  11  1   
 22   9  36  1   
 23   9  37  1   
 24  10  13  2   
 25  10  14  1   
 26  11  15  1   
 27  11  38  1   
 28  12  16  1   
 29  12  39  1   
 30  12  40  1   
 31  13  17  1   
 32  14  18  1   
 33  14  41  1   
 34  15  19  1   
 35  15  20  1   
 36  15  42  1   
 37  16  20  1   
 38  17  18  ar  
 39  17  21  ar  
 40  18  22  ar  
 41  19  23  1   
 42  19  24  1   
 43  19  43  1   
 44  20  44  1   
 45  20  45  1   
 46  21  25  ar  
 47  21  46  1   
 48  22  26  ar  
 49  22  47  1   
 50  23  24  1   
 51  23  48  1   
 52  23  49  1   
 53  24  50  1   
 54  24  51  1   
 55  25  26  ar  
 56  25  52  1   
 57  26  53  1   
@<TRIPOS>SUBSTRUCTURE
  1 ****   4 GROUP 4 **** **** 0

# MOE 2024.06 (io_trps.svl 2023.06)
