@<TRIPOS>MOLECULE
NONAME
45 47 1 0 0 
SMALL
USER_CHARGES


@<TRIPOS>ATOM
  1 CL       1.9970     3.9020     2.5060 Cl    1 <1>  -0.1770 
  2 C        0.8650     2.9560     1.5650 C.ar  1 <1>   0.1770 
  3 C        1.3100     2.0640     0.5960 C.ar  1 <1>  -0.1440 
  4 C       -0.4820     3.1300     1.8250 C.ar  1 <1>  -0.1500 
  5 C        0.3580     1.3410    -0.1150 C.ar  1 <1>  -0.1500 
  6 C        2.7990     1.8870     0.3060 C.3   1 <1>   0.3640 
  7 C       -1.4160     2.4020     1.1090 C.ar  1 <1>  -0.1500 
  8 C       -0.9930     1.5080     0.1410 C.ar  1 <1>  -0.1500 
  9 N        3.1050     0.4360     0.2620 N.am  1 <1>  -0.7300 
 10 C        3.2180     2.5900    -1.0090 C.3   1 <1>   0.2610 
 11 C        3.9110    -0.1310    -0.6630 C.2   1 <1>   0.5690 
 12 O        4.4920     2.1240    -1.4380 O.3   1 <1>  -0.5600 
 13 C        3.2330     4.1030    -0.7960 C.2   1 <1>   0.5690 
 14 O        4.1310    -1.3150    -0.6430 O.2   1 <1>  -0.5700 
 15 C        4.5250     0.7480    -1.7580 C.3   1 <1>   0.1810 
 16 O        2.2100     4.7280    -0.9460 O.2   1 <1>  -0.5700 
 17 N        4.3970     4.7050    -0.4340 N.am  1 <1>  -0.7300 
 18 C        4.5660     6.1320    -0.1320 C.3   1 <1>   0.2200 
 19 C        5.5970     6.7250    -1.0980 C.3   1 <1>  -0.1600 
 20 C        5.0130     6.2780     1.3270 C.3   1 <1>  -0.1600 
 21 C        5.8960     8.1940    -0.7590 C.3   1 <1>  -0.1600 
 22 C        5.3100     7.7460     1.6730 C.3   1 <1>  -0.1600 
 23 C        6.3350     8.3390     0.7020 C.3   1 <1>   0.2000 
 24 O        6.4730     9.6780     0.9820 O.3   1 <1>  -0.6800 
 25 H       -0.7940     3.8300     2.5790 H     1 <1>   0.1500 
 26 H        0.6610     0.6400    -0.8740 H     1 <1>   0.1500 
 27 H        3.3810     2.3080     1.1050 H     1 <1>   0.0800 
 28 H       -2.4670     2.5320     1.3040 H     1 <1>   0.1500 
 29 H       -1.7190     0.9420    -0.4170 H     1 <1>   0.1500 
 30 H        2.7020    -0.1540     0.9930 H     1 <1>   0.3700 
 31 H        2.5070     2.3710    -1.7840 H     1 <1>   0.0800 
 32 H        3.9890     0.6010    -2.6780 H     1 <1>   0.0800 
 33 H        5.5520     0.4690    -1.9050 H     1 <1>   0.0800 
 34 H        5.2500     4.1400    -0.4450 H     1 <1>   0.3700 
 35 H        3.6250     6.6430    -0.2630 H     1 <1>   0.0800 
 36 H        6.5110     6.1600    -1.0420 H     1 <1>   0.0800 
 37 H        5.2180     6.6620    -2.1040 H     1 <1>   0.0800 
 38 H        4.2350     5.9120     1.9750 H     1 <1>   0.0800 
 39 H        5.9000     5.6920     1.4930 H     1 <1>   0.0800 
 40 H        5.0070     8.7770    -0.9300 H     1 <1>   0.0800 
 41 H        6.6760     8.5590    -1.4040 H     1 <1>   0.0800 
 42 H        5.6930     7.8050     2.6770 H     1 <1>   0.0800 
 43 H        4.3930     8.3060     1.6210 H     1 <1>   0.0800 
 44 H        7.2970     7.8740     0.8480 H     1 <1>   0.0800 
 45 H        5.6190    10.1330     0.8580 H     1 <1>   0.4000 
@<TRIPOS>BOND
  1   1   2  1   
  2   2   3  ar  
  3   2   4  ar  
  4   3   5  ar  
  5   3   6  1   
  6   4   7  ar  
  7   4  25  1   
  8   5   8  ar  
  9   5  26  1   
 10   6   9  1   
 11   6  10  1   
 12   6  27  1   
 13   7   8  ar  
 14   7  28  1   
 15   8  29  1   
 16   9  11  am  
 17   9  30  1   
 18  10  12  1   
 19  10  13  1   
 20  10  31  1   
 21  11  14  2   
 22  11  15  1   
 23  12  15  1   
 24  13  16  2   
 25  13  17  am  
 26  15  32  1   
 27  15  33  1   
 28  17  18  1   
 29  17  34  1   
 30  18  19  1   
 31  18  20  1   
 32  18  35  1   
 33  19  21  1   
 34  19  36  1   
 35  19  37  1   
 36  20  22  1   
 37  20  38  1   
 38  20  39  1   
 39  21  23  1   
 40  21  40  1   
 41  21  41  1   
 42  22  23  1   
 43  22  42  1   
 44  22  43  1   
 45  23  24  1   
 46  23  44  1   
 47  24  45  1   
@<TRIPOS>SUBSTRUCTURE
  1 ****  13 GROUP 4 **** **** 0

# MOE 2024.06 (io_trps.svl 2023.06)
