@<TRIPOS>MOLECULE
NONAME
29 30 1 0 0 
SMALL
USER_CHARGES


@<TRIPOS>ATOM
  1 O      -10.7130     2.7690     0.0890 O.3   1 <1>  -0.6800 
  2 C      -10.3000     1.4660     0.2990 C.3   1 <1>   0.1200 
  3 C       -8.7980     1.4000     0.0340 C.3   1 <1>  -0.0650 
  4 C       -8.2580    -0.0190     0.2660 C.3   1 <1>  -0.1950 
  5 C       -6.9630    -0.5460    -0.2800 C.3   1 <1>  -0.1900 
  6 C       -8.2770    -1.0120    -0.8480 C.3   1 <1>  -0.2000 
  7 C       -6.1820    -1.4890     0.6560 C.3   1 <1>  -0.0650 
  8 C       -6.0560     0.3000    -1.1950 C.3   1 <1>  -0.0650 
  9 C       -4.7630    -1.7510     0.1440 C.3   1 <1>   0.3430 
 10 C       -4.7880     0.7200    -0.4490 C.3   1 <1>   0.3430 
 11 N       -3.9920    -0.4710     0.0060 N.4   1 <1>  -0.9060 
 12 H      -11.6750     2.8580     0.2380 H     1 <1>   0.4000 
 13 H      -10.8370     0.8230    -0.3780 H     1 <1>   0.0800 
 14 H      -10.5260     1.1970     1.3170 H     1 <1>   0.0800 
 15 H       -8.2970     2.0810     0.7000 H     1 <1>   0.0800 
 16 H       -8.6240     1.7140    -0.9790 H     1 <1>   0.0800 
 17 H       -8.5520    -0.3860     1.2370 H     1 <1>   0.1000 
 18 H       -8.5770    -0.6780    -1.8270 H     1 <1>   0.1000 
 19 H       -8.6430    -2.0020    -0.6350 H     1 <1>   0.1000 
 20 H       -6.7020    -2.4270     0.7490 H     1 <1>   0.0800 
 21 H       -6.1240    -1.0590     1.6400 H     1 <1>   0.0800 
 22 H       -6.5640     1.1780    -1.5470 H     1 <1>   0.0800 
 23 H       -5.7820    -0.2700    -2.0660 H     1 <1>   0.0800 
 24 H       -4.8380    -2.2290    -0.8200 H     1 <1>   0.0800 
 25 H       -4.2500    -2.4250     0.8120 H     1 <1>   0.0800 
 26 H       -5.0880     1.2980     0.4110 H     1 <1>   0.0800 
 27 H       -4.1830     1.3510    -1.0800 H     1 <1>   0.0800 
 28 H       -3.2170    -0.6260    -0.6510 H     1 <1>   0.4500 
 29 H       -3.5620    -0.2420     0.9110 H     1 <1>   0.4500 
@<TRIPOS>BOND
  1   1   2  1   
  2   1  12  1   
  3   2   3  1   
  4   2  13  1   
  5   2  14  1   
  6   3   4  1   
  7   3  15  1   
  8   3  16  1   
  9   4   5  1   
 10   4   6  1   
 11   4  17  1   
 12   5   6  1   
 13   5   7  1   
 14   5   8  1   
 15   6  18  1   
 16   6  19  1   
 17   7   9  1   
 18   7  20  1   
 19   7  21  1   
 20   8  10  1   
 21   8  22  1   
 22   8  23  1   
 23   9  11  1   
 24   9  24  1   
 25   9  25  1   
 26  10  11  1   
 27  10  26  1   
 28  10  27  1   
 29  11  28  1   
 30  11  29  1   
@<TRIPOS>SUBSTRUCTURE
  1 ****   5 GROUP 4 **** **** 0

# MOE 2024.06 (io_trps.svl 2023.06)
