@<TRIPOS>MOLECULE
NONAME
46 47 1 0 0 
SMALL
USER_CHARGES


@<TRIPOS>ATOM
  1 O       -0.7140    -0.0580    -1.2960 O.2   1 <1>  -0.5700 
  2 C       -1.4250     0.6820    -0.6380 C.2   1 <1>   0.5440 
  3 N       -2.1330     0.1630     0.4230 N.am  1 <1>  -0.6600 
  4 C       -1.4980     2.0800    -1.0020 C.ar  1 <1>   0.0860 
  5 C       -2.1160    -1.3010     0.7200 C.3   1 <1>   0.3210 
  6 C       -3.0220     0.9880     1.3040 C.3   1 <1>   0.1400 
  7 C       -0.9020     3.0940    -0.2410 C.ar  1 <1>   0.0820 
  8 C       -2.2010     2.4580    -2.1460 C.ar  1 <1>  -0.1500 
  9 C       -3.4410    -1.9440     0.3240 C.2   1 <1>   0.0460 
 10 C       -4.2560     1.5780     0.5910 C.3   1 <1>   0.1200 
 11 O       -0.2010     2.8240     0.8780 O.3   1 <1>  -0.3630 
 12 C       -1.0390     4.4260    -0.6000 C.ar  1 <1>  -0.1500 
 13 C       -2.3260     3.7860    -2.5110 C.ar  1 <1>  -0.1500 
 14 N       -4.4990    -1.9350     1.1640 N.2   1 <1>  -0.5650 
 15 C       -3.7630    -2.5500    -0.8440 C.2   1 <1>  -0.3320 
 16 O       -4.8470     0.6550    -0.2590 O.3   1 <1>  -0.6800 
 17 C        1.0250     2.1330     0.7540 C.3   1 <1>   0.1200 
 18 C       -1.7470     4.7740    -1.7350 C.ar  1 <1>  -0.1500 
 19 C       -5.4300    -2.5360     0.4980 C.2   1 <1>   0.0360 
 20 N       -5.0470    -2.9340    -0.7310 N.pl3 1 <1>   0.0330 
 21 C       -2.9380    -2.7770    -2.0990 C.3   1 <1>  -0.0600 
 22 C        1.1730     1.2040     1.9600 C.3   1 <1>  -0.1600 
 23 C        2.4710     0.3940     1.8810 C.3   1 <1>  -0.2400 
 24 H       -1.9470    -1.4540     1.7700 H     1 <1>   0.0800 
 25 H       -1.3160    -1.7870     0.1910 H     1 <1>   0.0800 
 26 H       -2.4490     1.7910     1.7320 H     1 <1>   0.0800 
 27 H       -3.3670     0.3840     2.1260 H     1 <1>   0.0800 
 28 H       -2.6590     1.6900    -2.7450 H     1 <1>   0.1500 
 29 H       -3.9920     2.4420     0.0100 H     1 <1>   0.0800 
 30 H       -4.9900     1.8720     1.3210 H     1 <1>   0.0800 
 31 H       -0.5850     5.1840     0.0120 H     1 <1>   0.1500 
 32 H       -2.8770     4.0500    -3.3980 H     1 <1>   0.1500 
 33 H       -4.6630    -0.2600     0.0780 H     1 <1>   0.4000 
 34 H        1.8140     2.8630     0.7280 H     1 <1>   0.0800 
 35 H        1.0360     1.5690    -0.1630 H     1 <1>   0.0800 
 36 H       -1.8480     5.8090    -2.0150 H     1 <1>   0.1500 
 37 H       -6.4260    -2.7080     0.8700 H     1 <1>   0.1500 
 38 H       -5.6180    -3.4130    -1.4330 H     1 <1>   0.2700 
 39 H       -1.9490    -2.3710    -1.9830 H     1 <1>   0.0800 
 40 H       -3.4020    -2.2890    -2.9380 H     1 <1>   0.0800 
 41 H       -2.8530    -3.8290    -2.3060 H     1 <1>   0.0800 
 42 H        0.3380     0.5270     1.9870 H     1 <1>   0.0800 
 43 H        1.1720     1.7910     2.8620 H     1 <1>   0.0800 
 44 H        2.4780    -0.2130     0.9920 H     1 <1>   0.0800 
 45 H        2.5530    -0.2530     2.7360 H     1 <1>   0.0800 
 46 H        3.3250     1.0480     1.8620 H     1 <1>   0.0800 
@<TRIPOS>BOND
  1   1   2  2   
  2   2   3  am  
  3   2   4  1   
  4   3   5  1   
  5   3   6  1   
  6   4   7  ar  
  7   4   8  ar  
  8   5   9  1   
  9   5  24  1   
 10   5  25  1   
 11   6  10  1   
 12   6  26  1   
 13   6  27  1   
 14   7  11  1   
 15   7  12  ar  
 16   8  13  ar  
 17   8  28  1   
 18   9  14  1   
 19   9  15  2   
 20  10  16  1   
 21  10  29  1   
 22  10  30  1   
 23  11  17  1   
 24  12  18  ar  
 25  12  31  1   
 26  13  18  ar  
 27  13  32  1   
 28  14  19  2   
 29  15  20  1   
 30  15  21  1   
 31  16  33  1   
 32  17  22  1   
 33  17  34  1   
 34  17  35  1   
 35  18  36  1   
 36  19  20  1   
 37  19  37  1   
 38  20  38  1   
 39  21  39  1   
 40  21  40  1   
 41  21  41  1   
 42  22  23  1   
 43  22  42  1   
 44  22  43  1   
 45  23  44  1   
 46  23  45  1   
 47  23  46  1   
@<TRIPOS>SUBSTRUCTURE
  1 ****   3 GROUP 4 **** **** 0

# MOE 2024.06 (io_trps.svl 2023.06)
