@<TRIPOS>MOLECULE
NONAME
48 49 1 0 0 
SMALL
USER_CHARGES


@<TRIPOS>ATOM
  1 CL      -3.7560    -1.3590     2.3070 Cl    1 <1>  -0.1770 
  2 C       -3.4020    -0.1680     1.0740 C.ar  1 <1>   0.1770 
  3 C       -3.8190    -0.3740    -0.2360 C.ar  1 <1>   0.0820 
  4 C       -2.6980     0.9680     1.4260 C.ar  1 <1>  -0.1500 
  5 O       -4.5150    -1.4820    -0.5720 O.3   1 <1>  -0.3630 
  6 C       -3.5310     0.5810    -1.2010 C.ar  1 <1>  -0.1500 
  7 C       -2.4090     1.9150     0.4570 C.ar  1 <1>  -0.1500 
  8 C       -3.8140    -2.4580    -1.3290 C.3   1 <1>   0.1810 
  9 C       -2.8250     1.7210    -0.8510 C.ar  1 <1>  -0.1500 
 10 C       -4.7410    -3.6000    -1.7400 C.2   1 <1>   0.5690 
 11 O       -4.9120    -3.7670    -2.9240 O.2   1 <1>  -0.5700 
 12 N       -5.3770    -4.4030    -0.8230 N.am  1 <1>  -0.6600 
 13 C       -6.1260    -5.5970    -1.3590 C.3   1 <1>   0.3210 
 14 C       -5.2860    -4.1970     0.6660 C.3   1 <1>   0.1400 
 15 C       -6.8600    -6.4400    -0.3130 C.2   1 <1>   0.0460 
 16 C       -6.2870    -3.1600     1.2340 C.3   1 <1>   0.3430 
 17 N       -8.0260    -6.0310     0.2360 N.2   1 <1>  -0.5650 
 18 C       -6.4990    -7.6490     0.1800 C.2   1 <1>  -0.3320 
 19 N       -7.6490    -3.2070     0.6140 N.4   1 <1>  -0.9590 
 20 C       -8.3550    -7.0020     1.0260 C.2   1 <1>   0.0360 
 21 N       -7.4660    -8.0150     1.0400 N.pl3 1 <1>   0.0330 
 22 C       -5.2920    -8.5300    -0.1040 C.3   1 <1>  -0.0600 
 23 C       -7.7390    -2.3630    -0.6150 C.3   1 <1>   0.2630 
 24 C       -8.7120    -2.8470     1.5900 C.3   1 <1>   0.2630 
 25 H       -2.3790     1.1110     2.4440 H     1 <1>   0.1500 
 26 H       -3.8590     0.4410    -2.2160 H     1 <1>   0.1500 
 27 H       -1.8610     2.8050     0.7200 H     1 <1>   0.1500 
 28 H       -3.0010    -2.8340    -0.7360 H     1 <1>   0.0800 
 29 H       -3.4180    -1.9870    -2.2120 H     1 <1>   0.0800 
 30 H       -2.6000     2.4640    -1.5990 H     1 <1>   0.1500 
 31 H       -5.4280    -6.2240    -1.8830 H     1 <1>   0.0800 
 32 H       -6.8480    -5.2600    -2.0830 H     1 <1>   0.0800 
 33 H       -4.2920    -3.8750     0.9200 H     1 <1>   0.0800 
 34 H       -5.4250    -5.1300     1.1810 H     1 <1>   0.0800 
 35 H       -5.8810    -2.1710     1.1140 H     1 <1>   0.0800 
 36 H       -6.3680    -3.3360     2.2940 H     1 <1>   0.0800 
 37 H       -7.8010    -4.2030     0.3330 H     1 <1>   0.4500 
 38 H       -9.2500    -7.0280     1.6250 H     1 <1>   0.1500 
 39 H       -7.5270    -8.8850     1.5800 H     1 <1>   0.2700 
 40 H       -4.6130    -8.0480    -0.7840 H     1 <1>   0.0800 
 41 H       -5.6080    -9.4600    -0.5440 H     1 <1>   0.0800 
 42 H       -4.7620    -8.7420     0.8080 H     1 <1>   0.0800 
 43 H       -7.5150    -1.3350    -0.3820 H     1 <1>   0.0800 
 44 H       -8.7300    -2.4190    -1.0330 H     1 <1>   0.0800 
 45 H       -7.0410    -2.7050    -1.3600 H     1 <1>   0.0800 
 46 H       -8.5870    -1.8300     1.9240 H     1 <1>   0.0800 
 47 H       -8.6690    -3.5030     2.4440 H     1 <1>   0.0800 
 48 H       -9.6830    -2.9460     1.1330 H     1 <1>   0.0800 
@<TRIPOS>BOND
  1   1   2  1   
  2   2   3  ar  
  3   2   4  ar  
  4   3   5  1   
  5   3   6  ar  
  6   4   7  ar  
  7   4  25  1   
  8   5   8  1   
  9   6   9  ar  
 10   6  26  1   
 11   7   9  ar  
 12   7  27  1   
 13   8  10  1   
 14   8  28  1   
 15   8  29  1   
 16   9  30  1   
 17  10  11  2   
 18  10  12  am  
 19  12  13  1   
 20  12  14  1   
 21  13  15  1   
 22  13  31  1   
 23  13  32  1   
 24  14  16  1   
 25  14  33  1   
 26  14  34  1   
 27  15  17  1   
 28  15  18  2   
 29  16  19  1   
 30  16  35  1   
 31  16  36  1   
 32  17  20  2   
 33  18  21  1   
 34  18  22  1   
 35  19  23  1   
 36  19  24  1   
 37  19  37  1   
 38  20  21  1   
 39  20  38  1   
 40  21  39  1   
 41  22  40  1   
 42  22  41  1   
 43  22  42  1   
 44  23  43  1   
 45  23  44  1   
 46  23  45  1   
 47  24  46  1   
 48  24  47  1   
 49  24  48  1   
@<TRIPOS>SUBSTRUCTURE
  1 ****  14 GROUP 4 **** **** 0

# MOE 2024.06 (io_trps.svl 2023.06)
