@<TRIPOS>MOLECULE
NONAME
51 53 1 0 0 
SMALL
USER_CHARGES


@<TRIPOS>ATOM
  1 O       -0.0460     0.8000    -0.1050 O.2   1 <1>  -0.5700 
  2 C       -0.1490     1.9960     0.0360 C.2   1 <1>   0.5690 
  3 N       -1.3320     2.6270     0.3370 N.am  1 <1>  -0.6600 
  4 C        1.1240     2.8220    -0.1550 C.3   1 <1>   0.1810 
  5 C       -1.3770     4.1210     0.5120 C.3   1 <1>   0.3640 
  6 C       -2.5790     1.9160     0.7450 C.3   1 <1>   0.2200 
  7 O        1.0800     4.0640     0.5000 O.3   1 <1>  -0.5600 
  8 C       -2.4950     4.7150    -0.3500 C.ar  1 <1>  -0.1440 
  9 C       -0.0500     4.8430     0.1570 C.3   1 <1>   0.2610 
 10 C       -2.3420     1.1260     2.0330 C.3   1 <1>  -0.2400 
 11 C       -3.1100     1.0270    -0.3800 C.3   1 <1>  -0.2400 
 12 C       -2.6420     4.3570    -1.6840 C.ar  1 <1>  -0.1500 
 13 C       -3.3740     5.6380     0.1990 C.ar  1 <1>  -0.1500 
 14 C        0.0420     6.2420     0.7970 C.2   1 <1>   0.5690 
 15 C       -3.6500     4.9110    -2.4540 C.ar  1 <1>  -0.1500 
 16 C       -4.3820     6.1920    -0.5700 C.ar  1 <1>  -0.1500 
 17 O       -0.6900     6.5040     1.7280 O.2   1 <1>  -0.5700 
 18 N        0.9350     7.1810     0.3250 N.am  1 <1>  -0.6600 
 19 C       -4.5210     5.8290    -1.8970 C.ar  1 <1>  -0.1500 
 20 C        1.0200     8.5400     0.9330 C.3   1 <1>   0.1400 
 21 C        2.0030     6.9090    -0.6800 C.3   1 <1>   0.1400 
 22 C        2.3720     8.6950     1.6320 C.3   1 <1>  -0.1600 
 23 C        3.3690     7.0340    -0.0040 C.3   1 <1>  -0.1600 
 24 C        3.5150     8.4040     0.6580 C.3   1 <1>   0.2000 
 25 O        4.7000     8.4240     1.3570 O.3   1 <1>  -0.6800 
 26 H        1.2890     2.9910    -1.2030 H     1 <1>   0.0800 
 27 H        1.9600     2.2760     0.2430 H     1 <1>   0.0800 
 28 H       -1.5990     4.3040     1.5490 H     1 <1>   0.0800 
 29 H       -3.3420     2.6470     0.9570 H     1 <1>   0.0800 
 30 H       -0.0290     4.9800    -0.9070 H     1 <1>   0.0800 
 31 H       -1.6450     0.3240     1.8690 H     1 <1>   0.0800 
 32 H       -3.2680     0.7010     2.3730 H     1 <1>   0.0800 
 33 H       -1.9620     1.7750     2.8010 H     1 <1>   0.0800 
 34 H       -2.4400     0.2120    -0.5830 H     1 <1>   0.0800 
 35 H       -3.2500     1.6030    -1.2750 H     1 <1>   0.0800 
 36 H       -4.0590     0.6130    -0.0950 H     1 <1>   0.0800 
 37 H       -1.9750     3.6390    -2.1290 H     1 <1>   0.1500 
 38 H       -3.2750     5.9370     1.2300 H     1 <1>   0.1500 
 39 H       -3.7570     4.6250    -3.4860 H     1 <1>   0.1500 
 40 H       -5.0570     6.9080    -0.1340 H     1 <1>   0.1500 
 41 H       -5.3050     6.2610    -2.4950 H     1 <1>   0.1500 
 42 H        0.9180     9.2800     0.1570 H     1 <1>   0.0800 
 43 H        0.2260     8.6950     1.6430 H     1 <1>   0.0800 
 44 H        1.9090     5.9280    -1.1060 H     1 <1>   0.0800 
 45 H        1.9230     7.6270    -1.4790 H     1 <1>   0.0800 
 46 H        2.4040     8.0120     2.4630 H     1 <1>   0.0800 
 47 H        2.4630     9.6980     2.0070 H     1 <1>   0.0800 
 48 H        4.1420     6.9070    -0.7400 H     1 <1>   0.0800 
 49 H        3.4580     6.2520     0.7290 H     1 <1>   0.0800 
 50 H        3.5660     9.1750    -0.0930 H     1 <1>   0.0800 
 51 H        4.6780     7.7490     2.0620 H     1 <1>   0.4000 
@<TRIPOS>BOND
  1   1   2  2   
  2   2   3  am  
  3   2   4  1   
  4   3   5  1   
  5   3   6  1   
  6   4   7  1   
  7   4  26  1   
  8   4  27  1   
  9   5   8  1   
 10   5   9  1   
 11   5  28  1   
 12   6  10  1   
 13   6  11  1   
 14   6  29  1   
 15   7   9  1   
 16   8  12  ar  
 17   8  13  ar  
 18   9  14  1   
 19   9  30  1   
 20  10  31  1   
 21  10  32  1   
 22  10  33  1   
 23  11  34  1   
 24  11  35  1   
 25  11  36  1   
 26  12  15  ar  
 27  12  37  1   
 28  13  16  ar  
 29  13  38  1   
 30  14  17  2   
 31  14  18  am  
 32  15  19  ar  
 33  15  39  1   
 34  16  19  ar  
 35  16  40  1   
 36  18  20  1   
 37  18  21  1   
 38  19  41  1   
 39  20  22  1   
 40  20  42  1   
 41  20  43  1   
 42  21  23  1   
 43  21  44  1   
 44  21  45  1   
 45  22  24  1   
 46  22  46  1   
 47  22  47  1   
 48  23  24  1   
 49  23  48  1   
 50  23  49  1   
 51  24  25  1   
 52  24  50  1   
 53  25  51  1   
@<TRIPOS>SUBSTRUCTURE
  1 ****   9 GROUP 4 **** **** 0

# MOE 2024.06 (io_trps.svl 2023.06)
