@<TRIPOS>MOLECULE
NONAME
51 52 1 0 0 
SMALL
USER_CHARGES


@<TRIPOS>ATOM
  1 O       -2.0880     0.4060     1.6740 O.2   1 <1>  -0.5700 
  2 C       -2.3350     0.4050     0.4980 C.2   1 <1>   0.4230 
  3 C       -3.5040    -0.2420    -0.0310 C.ar  1 <1>   0.0860 
  4 C       -1.3170     1.0610    -0.4140 C.3   1 <1>  -0.1790 
  5 C       -4.3500     0.2480    -1.0260 C.ar  1 <1>   0.1660 
  6 C       -3.8680    -1.4770     0.4840 C.ar  1 <1>   0.1600 
  7 N       -5.3730    -0.4370    -1.4750 N.ar  1 <1>  -0.6200 
  8 C       -4.1750     1.6240    -1.6500 C.3   1 <1>  -0.0960 
  9 N       -4.8950    -2.1730     0.0590 N.ar  1 <1>  -0.6200 
 10 C       -5.5860    -1.6160    -0.9230 C.ar  1 <1>   0.7200 
 11 N       -6.6450    -2.2780    -1.4170 N.pl3 1 <1>  -0.8690 
 12 C       -6.8340    -3.7650    -1.3530 C.3   1 <1>   0.2090 
 13 C       -7.6310    -4.3560    -0.1240 C.3   1 <1>   0.5030 
 14 N       -8.5690    -3.3750     0.5630 N.4   1 <1>  -0.9590 
 15 C       -8.5270    -5.5210    -0.6220 C.3   1 <1>  -0.1600 
 16 C       -6.6700    -4.9430     0.9460 C.3   1 <1>  -0.1600 
 17 C       -9.4820    -2.6650    -0.3760 C.3   1 <1>   0.3430 
 18 C       -7.8690    -2.3590     1.4250 C.3   1 <1>   0.2630 
 19 C       -7.7440    -6.7510    -1.1120 C.3   1 <1>  -0.1600 
 20 C       -5.8890    -6.1940     0.5040 C.3   1 <1>  -0.1600 
 21 C      -10.7470    -2.2450     0.3630 C.3   1 <1>  -0.2400 
 22 C       -6.8270    -7.2870    -0.0120 C.3   1 <1>  -0.1600 
 23 H       -1.4070     0.6930    -1.4190 H     1 <1>   0.0800 
 24 H       -0.3270     0.8380    -0.0590 H     1 <1>   0.0800 
 25 H       -1.4490     2.1270    -0.4030 H     1 <1>   0.0800 
 26 H       -3.2710    -1.8930     1.2800 H     1 <1>   0.1500 
 27 H       -3.8310     2.3360    -0.9230 H     1 <1>   0.0800 
 28 H       -5.1160     1.9780    -2.0330 H     1 <1>   0.0800 
 29 H       -3.4780     1.5730    -2.4660 H     1 <1>   0.0800 
 30 H       -6.9740    -1.8310    -2.2760 H     1 <1>   0.4000 
 31 H       -5.8670    -4.2310    -1.4070 H     1 <1>   0.0800 
 32 H       -7.3400    -4.0540    -2.2570 H     1 <1>   0.0800 
 33 H       -9.1530    -3.9470     1.1810 H     1 <1>   0.4500 
 34 H       -9.1580    -5.1980    -1.4300 H     1 <1>   0.0800 
 35 H       -9.1660    -5.8460     0.1810 H     1 <1>   0.0800 
 36 H       -7.2390    -5.2140     1.8180 H     1 <1>   0.0800 
 37 H       -5.9450    -4.2090     1.2440 H     1 <1>   0.0800 
 38 H       -9.7590    -3.3090    -1.1930 H     1 <1>   0.0800 
 39 H       -8.9870    -1.7990    -0.7880 H     1 <1>   0.0800 
 40 H       -7.2800    -1.6910     0.8210 H     1 <1>   0.0800 
 41 H       -7.2200    -2.8370     2.1380 H     1 <1>   0.0800 
 42 H       -8.5880    -1.7710     1.9700 H     1 <1>   0.0800 
 43 H       -7.1570    -6.5070    -1.9820 H     1 <1>   0.0800 
 44 H       -8.4360    -7.5260    -1.4000 H     1 <1>   0.0800 
 45 H       -5.3290    -6.5780     1.3410 H     1 <1>   0.0800 
 46 H       -5.1740    -5.9430    -0.2610 H     1 <1>   0.0800 
 47 H      -11.2470    -3.1000     0.7820 H     1 <1>   0.0800 
 48 H      -11.4200    -1.7770    -0.3340 H     1 <1>   0.0800 
 49 H      -10.5330    -1.5320     1.1370 H     1 <1>   0.0800 
 50 H       -6.2460    -8.1110    -0.3930 H     1 <1>   0.0800 
 51 H       -7.4230    -7.6630     0.8030 H     1 <1>   0.0800 
@<TRIPOS>BOND
  1   1   2  2   
  2   2   3  1   
  3   2   4  1   
  4   3   5  ar  
  5   3   6  ar  
  6   4  23  1   
  7   4  24  1   
  8   4  25  1   
  9   5   7  ar  
 10   5   8  1   
 11   6   9  ar  
 12   6  26  1   
 13   7  10  ar  
 14   8  27  1   
 15   8  28  1   
 16   8  29  1   
 17   9  10  ar  
 18  10  11  1   
 19  11  12  1   
 20  11  30  1   
 21  12  13  1   
 22  12  31  1   
 23  12  32  1   
 24  13  14  1   
 25  13  15  1   
 26  13  16  1   
 27  14  17  1   
 28  14  18  1   
 29  14  33  1   
 30  15  19  1   
 31  15  34  1   
 32  15  35  1   
 33  16  20  1   
 34  16  36  1   
 35  16  37  1   
 36  17  21  1   
 37  17  38  1   
 38  17  39  1   
 39  18  40  1   
 40  18  41  1   
 41  18  42  1   
 42  19  22  1   
 43  19  43  1   
 44  19  44  1   
 45  20  22  1   
 46  20  45  1   
 47  20  46  1   
 48  21  47  1   
 49  21  48  1   
 50  21  49  1   
 51  22  50  1   
 52  22  51  1   
@<TRIPOS>SUBSTRUCTURE
  1 ****   9 GROUP 4 **** **** 0

# MOE 2024.06 (io_trps.svl 2023.06)
