@<TRIPOS>MOLECULE
NONAME
48 50 1 0 0 
SMALL
USER_CHARGES


@<TRIPOS>ATOM
  1 S        0.7340    -0.4990    -1.5960 S.o2  1 <1>   1.4470 
  2 O        0.5650    -0.2350    -3.0040 O.2   1 <1>  -0.6500 
  3 O        1.8460    -1.3160    -1.1540 O.2   1 <1>  -0.6500 
  4 N        1.0330     1.0030    -0.8650 N.am  1 <1>  -0.8490 
  5 C       -0.8340    -1.0350    -0.8550 C.ar  1 <1>  -0.0090 
  6 C        1.1460     0.9830     0.6220 C.3   1 <1>   0.2760 
  7 C        1.9350     1.8590    -1.6600 C.3   1 <1>   0.1960 
  8 C       -0.9180    -2.1960    -0.0970 C.ar  1 <1>  -0.1500 
  9 C       -1.9890    -0.2770    -1.0000 C.ar  1 <1>  -0.1500 
 10 C        0.8740     2.3690     1.2290 C.3   1 <1>   0.1200 
 11 C        2.4760     0.4060     1.1850 C.3   1 <1>   0.3430 
 12 C        3.0060     2.6390    -0.8810 C.3   1 <1>  -0.0800 
 13 C       -2.1040    -2.5720     0.5050 C.ar  1 <1>  -0.1500 
 14 C       -3.1770    -0.6530    -0.3980 C.ar  1 <1>  -0.1500 
 15 O        2.0400     3.1340     1.2680 O.3   1 <1>  -0.5600 
 16 N        3.6150     0.3970     0.2060 N.4   1 <1>  -0.9590 
 17 C        2.4170     3.7010     0.0590 C.3   1 <1>   0.1200 
 18 C        4.0740     1.7650    -0.1970 C.3   1 <1>   0.3430 
 19 C       -3.2640    -1.8110     0.3740 C.ar  1 <1>   0.0860 
 20 C        4.7490    -0.4220     0.7200 C.3   1 <1>   0.2630 
 21 C       -4.4970    -2.2150     1.0280 C.2   1 <1>   0.5440 
 22 O       -4.4600    -2.8120     2.0850 O.2   1 <1>  -0.5700 
 23 N       -5.7130    -1.9390     0.4650 N.am  1 <1>  -0.7300 
 24 C       -7.0330    -2.2900     1.0540 C.3   1 <1>   0.0600 
 25 H        0.3540     0.3620     1.0020 H     1 <1>   0.0800 
 26 H        2.4480     1.2610    -2.3980 H     1 <1>   0.0800 
 27 H        1.3250     2.5560    -2.2100 H     1 <1>   0.0800 
 28 H       -0.0470    -2.8200     0.0260 H     1 <1>   0.1500 
 29 H       -1.9560     0.6250    -1.5920 H     1 <1>   0.1500 
 30 H        0.5520     2.2530     2.2490 H     1 <1>   0.0800 
 31 H        0.1030     2.8950     0.6920 H     1 <1>   0.0800 
 32 H        2.2820    -0.6070     1.4950 H     1 <1>   0.0800 
 33 H        2.7550     0.9610     2.0660 H     1 <1>   0.0800 
 34 H        3.5350     3.2070    -1.6250 H     1 <1>   0.0800 
 35 H       -2.1450    -3.4750     1.0940 H     1 <1>   0.1500 
 36 H       -4.0480    -0.0330    -0.5210 H     1 <1>   0.1500 
 37 H        3.2300    -0.0950    -0.6260 H     1 <1>   0.4500 
 38 H        1.5720     4.2060    -0.3810 H     1 <1>   0.0800 
 39 H        3.1660     4.4410     0.2860 H     1 <1>   0.0800 
 40 H        4.4460     2.2890     0.6690 H     1 <1>   0.0800 
 41 H        4.8980     1.6540    -0.8830 H     1 <1>   0.0800 
 42 H        5.1550     0.0180     1.6170 H     1 <1>   0.0800 
 43 H        5.5300    -0.4850    -0.0200 H     1 <1>   0.0800 
 44 H        4.4140    -1.4220     0.9450 H     1 <1>   0.0800 
 45 H       -5.7430    -1.5580    -0.4820 H     1 <1>   0.3700 
 46 H       -6.9120    -2.6630     2.0570 H     1 <1>   0.0800 
 47 H       -7.5070    -3.0490     0.4570 H     1 <1>   0.0800 
 48 H       -7.6610    -1.4170     1.0850 H     1 <1>   0.0800 
@<TRIPOS>BOND
  1   1   2  2   
  2   1   3  2   
  3   1   4  am  
  4   1   5  1   
  5   4   6  1   
  6   4   7  1   
  7   5   8  ar  
  8   5   9  ar  
  9   6  10  1   
 10   6  11  1   
 11   6  25  1   
 12   7  12  1   
 13   7  26  1   
 14   7  27  1   
 15   8  13  ar  
 16   8  28  1   
 17   9  14  ar  
 18   9  29  1   
 19  10  15  1   
 20  10  30  1   
 21  10  31  1   
 22  11  16  1   
 23  11  32  1   
 24  11  33  1   
 25  12  17  1   
 26  12  18  1   
 27  12  34  1   
 28  13  19  ar  
 29  13  35  1   
 30  14  19  ar  
 31  14  36  1   
 32  15  17  1   
 33  16  18  1   
 34  16  20  1   
 35  16  37  1   
 36  17  38  1   
 37  17  39  1   
 38  18  40  1   
 39  18  41  1   
 40  19  21  1   
 41  20  42  1   
 42  20  43  1   
 43  20  44  1   
 44  21  22  2   
 45  21  23  am  
 46  23  24  1   
 47  23  45  1   
 48  24  46  1   
 49  24  47  1   
 50  24  48  1   
@<TRIPOS>SUBSTRUCTURE
  1 ****   5 GROUP 4 **** **** 0

# MOE 2024.06 (io_trps.svl 2023.06)
