@<TRIPOS>MOLECULE
NONAME
44 45 1 0 0 
SMALL
USER_CHARGES


@<TRIPOS>ATOM
  1 S        0.2560     0.6180    -1.0310 S.o2  1 <1>   1.3330 
  2 O       -0.7220     1.5470    -1.5530 O.2   1 <1>  -0.6500 
  3 O        0.3040    -0.7320    -1.5480 O.2   1 <1>  -0.6500 
  4 N        0.0020     0.5200     0.6450 N.am  1 <1>  -0.8490 
  5 C        1.8930     1.3330    -1.1900 C.3   1 <1>  -0.0550 
  6 C       -1.0600    -0.4310     0.9800 C.3   1 <1>   0.1160 
  7 C       -0.2790     1.8190     1.2690 C.3   1 <1>   0.1160 
  8 C        3.0470     0.4070    -0.7430 C.3   1 <1>  -0.0800 
  9 C        4.4400     0.9860    -0.9380 C.3   1 <1>   0.2200 
 10 C        3.0490     0.0400     0.7460 C.3   1 <1>   0.1200 
 11 N        4.4680     2.4020    -0.5050 N.am  1 <1>  -0.7300 
 12 C        5.2380     0.1470     0.0500 C.3   1 <1>   0.1200 
 13 O        4.3870    -0.0660     1.1360 O.3   1 <1>  -0.5600 
 14 C        4.4710     3.4930    -1.3230 C.2   1 <1>   0.6160 
 15 O        4.6650     3.3080    -2.5100 O.2   1 <1>  -0.5700 
 16 C        4.2530     4.8240    -0.8190 C.2   1 <1>   0.0290 
 17 C        3.4550     5.0210     0.3570 C.2   1 <1>   0.6160 
 18 C        4.7760     5.9340    -1.4400 C.2   1 <1>  -0.1500 
 19 O        2.8970     4.1280     0.9820 O.2   1 <1>  -0.5700 
 20 N        3.2810     6.2960     0.8250 N.am  1 <1>  -0.5390 
 21 C        4.5560     7.2270    -0.9220 C.2   1 <1>  -0.1500 
 22 C        3.8120     7.3940     0.2070 C.2   1 <1>  -0.0290 
 23 C        3.5310     8.7460     0.8290 C.3   1 <1>  -0.1020 
 24 H        2.0530     1.5820    -2.2210 H     1 <1>   0.0800 
 25 H        1.9220     2.2490    -0.6360 H     1 <1>   0.0800 
 26 H       -1.1840    -0.4930     2.0470 H     1 <1>   0.0800 
 27 H       -0.8060    -1.4120     0.6140 H     1 <1>   0.0800 
 28 H       -1.9910    -0.1260     0.5310 H     1 <1>   0.0800 
 29 H       -0.3730     1.7040     2.3360 H     1 <1>   0.0800 
 30 H       -1.1950     2.2350     0.8810 H     1 <1>   0.0800 
 31 H        0.5240     2.5110     1.0780 H     1 <1>   0.0800 
 32 H        2.9840    -0.5110    -1.3020 H     1 <1>   0.0800 
 33 H        4.8030     0.8830    -1.9480 H     1 <1>   0.0800 
 34 H        2.5490    -0.8950     0.9320 H     1 <1>   0.0800 
 35 H        2.6020     0.8150     1.3450 H     1 <1>   0.0800 
 36 H        4.1910     2.5380     0.4760 H     1 <1>   0.3700 
 37 H        6.1360     0.6370     0.3830 H     1 <1>   0.0800 
 38 H        5.4770    -0.8130    -0.3720 H     1 <1>   0.0800 
 39 H        5.3670     5.8330    -2.3360 H     1 <1>   0.1500 
 40 H        2.7120     6.3710     1.6690 H     1 <1>   0.3700 
 41 H        4.9880     8.0670    -1.4390 H     1 <1>   0.1500 
 42 H        3.9160     8.7770     1.8330 H     1 <1>   0.0800 
 43 H        2.4710     8.9260     0.8550 H     1 <1>   0.0800 
 44 H        3.9960     9.5300     0.2600 H     1 <1>   0.0800 
@<TRIPOS>BOND
  1   1   2  2   
  2   1   3  2   
  3   1   4  am  
  4   1   5  1   
  5   4   6  1   
  6   4   7  1   
  7   5   8  1   
  8   5  24  1   
  9   5  25  1   
 10   6  26  1   
 11   6  27  1   
 12   6  28  1   
 13   7  29  1   
 14   7  30  1   
 15   7  31  1   
 16   8   9  1   
 17   8  10  1   
 18   8  32  1   
 19   9  11  1   
 20   9  12  1   
 21   9  33  1   
 22  10  13  1   
 23  10  34  1   
 24  10  35  1   
 25  11  14  am  
 26  11  36  1   
 27  12  13  1   
 28  12  37  1   
 29  12  38  1   
 30  14  15  2   
 31  14  16  1   
 32  16  17  1   
 33  16  18  2   
 34  17  19  2   
 35  17  20  am  
 36  18  21  1   
 37  18  39  1   
 38  20  22  1   
 39  20  40  1   
 40  21  22  2   
 41  21  41  1   
 42  22  23  1   
 43  23  42  1   
 44  23  43  1   
 45  23  44  1   
@<TRIPOS>SUBSTRUCTURE
  1 ****  11 GROUP 4 **** **** 0

# MOE 2024.06 (io_trps.svl 2023.06)
