@<TRIPOS>MOLECULE
NONAME
41 43 1 0 0 
SMALL
USER_CHARGES


@<TRIPOS>ATOM
  1 F       -0.2520     0.6420    -0.6750 F     1 <1>  -0.1900 
  2 C       -1.5390     0.8590    -0.5730 C.ar  1 <1>   0.1900 
  3 C       -2.0540     1.9420     0.1470 C.ar  1 <1>   0.0830 
  4 C       -2.3660    -0.0400    -1.2190 C.ar  1 <1>  -0.1500 
  5 O       -1.3460     2.8920     0.8230 O.3   1 <1>  -0.3630 
  6 C       -3.4310     2.0860     0.1930 C.ar  1 <1>  -0.1500 
  7 C       -3.7360     0.1340    -1.1540 C.ar  1 <1>  -0.1500 
  8 C        0.0610     2.8800     0.9170 C.3   1 <1>   0.0400 
  9 C       -4.2990     1.1960    -0.4440 C.ar  1 <1>   0.0530 
 10 C       -5.7250     1.3930    -0.3740 C.2   1 <1>   0.0870 
 11 O       -6.2080     2.6020    -0.5100 O.3   1 <1>  -0.0190 
 12 C       -6.7870     0.5590    -0.1910 C.2   1 <1>  -0.0860 
 13 N       -7.5100     2.6440    -0.4440 N.2   1 <1>  -0.4100 
 14 C       -7.8850     1.4290    -0.2550 C.2   1 <1>   0.3720 
 15 C       -6.8460    -0.8560     0.0360 C.2   1 <1>   0.7160 
 16 N       -9.2340     1.0640    -0.1180 N.pl3 1 <1>  -0.8210 
 17 O       -5.8370    -1.5100     0.2270 O.2   1 <1>  -0.5700 
 18 N       -8.0500    -1.4910     0.0420 N.am  1 <1>  -0.5790 
 19 C      -10.1030     1.5980    -1.2050 C.3   1 <1>   0.1290 
 20 C       -9.7790     1.4100     1.2230 C.3   1 <1>   0.1290 
 21 C       -8.3180    -2.9140     0.2860 C.3   1 <1>   0.0490 
 22 C       -9.4750    -3.5370    -0.4200 C.3   1 <1>  -0.2000 
 23 C       -9.5470    -3.2700     1.0530 C.3   1 <1>  -0.2000 
 24 H       -1.9420    -0.8640    -1.7640 H     1 <1>   0.1500 
 25 H       -3.8410     2.9140     0.7420 H     1 <1>   0.1500 
 26 H       -4.3790    -0.5650    -1.6590 H     1 <1>   0.1500 
 27 H        0.3630     3.7190     1.5170 H     1 <1>   0.0800 
 28 H        0.4790     2.9700    -0.0700 H     1 <1>   0.0800 
 29 H        0.3740     1.9650     1.3870 H     1 <1>   0.0800 
 30 H       -8.8660    -0.8730    -0.0700 H     1 <1>   0.3700 
 31 H       -9.6510     1.4060    -2.1630 H     1 <1>   0.0800 
 32 H      -10.2310     2.6620    -1.0920 H     1 <1>   0.0800 
 33 H      -11.0670     1.1190    -1.1760 H     1 <1>   0.0800 
 34 H       -9.1480     0.9990     1.9930 H     1 <1>   0.0800 
 35 H      -10.7700     1.0050     1.3360 H     1 <1>   0.0800 
 36 H       -9.8170     2.4800     1.3420 H     1 <1>   0.0800 
 37 H       -7.4240    -3.5000     0.4350 H     1 <1>   0.1000 
 38 H       -9.3890    -4.5580    -0.7490 H     1 <1>   0.1000 
 39 H      -10.0580    -2.9320    -1.0930 H     1 <1>   0.1000 
 40 H      -10.1820    -2.4790     1.4120 H     1 <1>   0.1000 
 41 H       -9.5090    -4.1090     1.7250 H     1 <1>   0.1000 
@<TRIPOS>BOND
  1   1   2  1   
  2   2   3  ar  
  3   2   4  ar  
  4   3   5  1   
  5   3   6  ar  
  6   4   7  ar  
  7   4  24  1   
  8   5   8  1   
  9   6   9  ar  
 10   6  25  1   
 11   7   9  ar  
 12   7  26  1   
 13   8  27  1   
 14   8  28  1   
 15   8  29  1   
 16   9  10  1   
 17  10  11  1   
 18  10  12  2   
 19  11  13  1   
 20  12  14  1   
 21  12  15  1   
 22  13  14  2   
 23  14  16  1   
 24  15  17  2   
 25  15  18  am  
 26  16  19  1   
 27  16  20  1   
 28  18  21  1   
 29  18  30  1   
 30  19  31  1   
 31  19  32  1   
 32  19  33  1   
 33  20  34  1   
 34  20  35  1   
 35  20  36  1   
 36  21  22  1   
 37  21  23  1   
 38  21  37  1   
 39  22  23  1   
 40  22  38  1   
 41  22  39  1   
 42  23  40  1   
 43  23  41  1   
@<TRIPOS>SUBSTRUCTURE
  1 ****  10 GROUP 4 **** **** 0

# MOE 2024.06 (io_trps.svl 2023.06)
