@<TRIPOS>MOLECULE
NONAME
50 53 1 0 0 
SMALL
USER_CHARGES


@<TRIPOS>ATOM
  1 S        0.8030     1.0740    -0.6660 S.3   1 <1>  -0.0800 
  2 C        1.1370     2.0680     0.7130 C.2   1 <1>   0.4420 
  3 C        0.9780    -0.3020     0.3750 C.2   1 <1>   0.1980 
  4 N        1.3330     1.3770     1.7750 N.2   1 <1>  -0.3380 
  5 N        1.1520     3.4290     0.4960 N.am  1 <1>  -0.4940 
  6 N        1.2420     0.0270     1.5760 N.2   1 <1>  -0.3380 
  7 C        0.7990    -1.6980    -0.2090 C.3   1 <1>   0.3800 
  8 C        1.3790     4.4490     1.3780 C.2   1 <1>   0.5690 
  9 O        1.3800    -1.8050    -1.4730 O.3   1 <1>  -0.5600 
 10 C       -0.6550    -2.0920    -0.4350 C.3   1 <1>  -0.1600 
 11 O        1.5580     4.2820     2.5580 O.2   1 <1>  -0.5700 
 12 C        1.4050     5.8800     0.8250 C.3   1 <1>   0.1710 
 13 C        0.8210    -2.8720    -2.1700 C.3   1 <1>   0.1200 
 14 C       -0.5730    -3.0870    -1.5830 C.3   1 <1>  -0.1600 
 15 N        2.6900     6.3140     0.2130 N.3   1 <1>  -0.8100 
 16 C        3.7800     6.3010     1.2120 C.3   1 <1>   0.2530 
 17 C        3.0460     5.5770    -1.0090 C.3   1 <1>   0.0300 
 18 C        5.0430     6.9500     0.6610 C.ar  1 <1>  -0.1440 
 19 C        5.0140     8.2640     0.2220 C.ar  1 <1>  -0.1500 
 20 C        6.2300     6.2380     0.5930 C.ar  1 <1>  -0.1500 
 21 C        6.1520     8.8810    -0.2890 C.ar  1 <1>  -0.0230 
 22 C        7.3730     6.8370     0.0930 C.ar  1 <1>  -0.1500 
 23 N        6.0990    10.2280    -0.7500 N.pl3 1 <1>   0.5930 
 24 C        7.3350     8.1490    -0.3430 C.ar  1 <1>  -0.1500 
 25 N        5.3760    11.2080    -0.1480 N.2   1 <1>  -0.7070 
 26 C        6.7360    10.7370    -1.8350 C.2   1 <1>  -0.3020 
 27 C        5.5770    12.2770    -0.8510 C.2   1 <1>   0.1390 
 28 C        6.4240    12.0450    -1.9270 C.2   1 <1>  -0.1500 
 29 H        1.0210     3.7070    -0.4710 H     1 <1>   0.3700 
 30 H        1.2820    -2.4190     0.4280 H     1 <1>   0.0800 
 31 H       -1.2230    -1.2280    -0.7320 H     1 <1>   0.0800 
 32 H       -1.0910    -2.5140     0.4530 H     1 <1>   0.0800 
 33 H        1.1730     6.5480     1.6360 H     1 <1>   0.0800 
 34 H        0.6200     5.9880     0.1000 H     1 <1>   0.0800 
 35 H        1.4460    -3.7360    -2.0230 H     1 <1>   0.0800 
 36 H        0.7870    -2.6160    -3.2160 H     1 <1>   0.0800 
 37 H       -1.3360    -2.9050    -2.3190 H     1 <1>   0.0800 
 38 H       -0.6650    -4.1000    -1.2300 H     1 <1>   0.0800 
 39 H        3.9890     5.2890     1.5170 H     1 <1>   0.0800 
 40 H        3.4710     6.8510     2.0850 H     1 <1>   0.0800 
 41 H        2.2170     5.5740    -1.6950 H     1 <1>   0.0800 
 42 H        3.3300     4.5650    -0.7770 H     1 <1>   0.0800 
 43 H        3.8760     6.0600    -1.4980 H     1 <1>   0.0800 
 44 H        4.0910     8.8170     0.2730 H     1 <1>   0.1500 
 45 H        6.2700     5.2170     0.9300 H     1 <1>   0.1500 
 46 H        8.2930     6.2800     0.0470 H     1 <1>   0.1500 
 47 H        8.2330     8.6040    -0.7220 H     1 <1>   0.1500 
 48 H        7.3600    10.1360    -2.4680 H     1 <1>   0.1500 
 49 H        5.1330    13.2310    -0.6200 H     1 <1>   0.1500 
 50 H        6.7390    12.7720    -2.6550 H     1 <1>   0.1500 
@<TRIPOS>BOND
  1   1   2  1   
  2   1   3  1   
  3   2   4  2   
  4   2   5  1   
  5   3   6  2   
  6   3   7  1   
  7   4   6  1   
  8   5   8  am  
  9   5  29  1   
 10   7   9  1   
 11   7  10  1   
 12   7  30  1   
 13   8  11  2   
 14   8  12  1   
 15   9  13  1   
 16  10  14  1   
 17  10  31  1   
 18  10  32  1   
 19  12  15  1   
 20  12  33  1   
 21  12  34  1   
 22  13  14  1   
 23  13  35  1   
 24  13  36  1   
 25  14  37  1   
 26  14  38  1   
 27  15  16  1   
 28  15  17  1   
 29  16  18  1   
 30  16  39  1   
 31  16  40  1   
 32  17  41  1   
 33  17  42  1   
 34  17  43  1   
 35  18  19  ar  
 36  18  20  ar  
 37  19  21  ar  
 38  19  44  1   
 39  20  22  ar  
 40  20  45  1   
 41  21  23  1   
 42  21  24  ar  
 43  22  24  ar  
 44  22  46  1   
 45  23  25  1   
 46  23  26  1   
 47  24  47  1   
 48  25  27  2   
 49  26  28  2   
 50  26  48  1   
 51  27  28  1   
 52  27  49  1   
 53  28  50  1   
@<TRIPOS>SUBSTRUCTURE
  1 ****  17 GROUP 4 **** **** 0

# MOE 2024.06 (io_trps.svl 2023.06)
