@<TRIPOS>MOLECULE
NONAME
40 42 1 0 0 
SMALL
USER_CHARGES


@<TRIPOS>ATOM
  1 O       -0.4380     0.3840    -0.4070 O.2   1 <1>  -0.5700 
  2 C       -1.4600     0.9670    -0.1070 C.2   1 <1>   0.5440 
  3 N       -2.6060     0.2330     0.0910 N.am  1 <1>  -0.6600 
  4 C       -1.4470     2.4030     0.0140 C.ar  1 <1>   0.0860 
  5 C       -3.9890     0.7480    -0.1030 C.3   1 <1>   0.1400 
  6 C       -2.5980    -1.2520     0.0480 C.3   1 <1>   0.1400 
  7 C       -2.0940     3.0760     1.0320 C.ar  1 <1>   0.1600 
  8 C       -0.7740     3.2060    -0.8860 C.ar  1 <1>   0.1600 
  9 C       -4.8020    -0.4730    -0.5300 C.3   1 <1>   0.2000 
 10 C       -4.0700    -1.6690     0.0710 C.3   1 <1>  -0.0800 
 11 N       -2.1110     4.3880     1.1350 N.ar  1 <1>  -0.6200 
 12 N       -0.7670     4.5210    -0.8140 N.ar  1 <1>  -0.6200 
 13 O       -6.1010    -0.4160    -0.0540 O.3   1 <1>  -0.6800 
 14 C       -4.3480    -2.9850    -0.6720 C.3   1 <1>   0.0200 
 15 C       -1.4420     5.0400     0.1980 C.ar  1 <1>   0.4770 
 16 C       -3.5270    -4.1170    -0.0850 C.2   1 <1>  -0.0400 
 17 C       -1.4410     6.5460     0.2900 C.3   1 <1>  -0.0970 
 18 O       -3.6890    -4.4610     1.1650 O.3   1 <1>  -0.0190 
 19 C       -2.5800    -4.9080    -0.6120 C.2   1 <1>  -0.1500 
 20 N       -2.8960    -5.4350     1.5050 N.2   1 <1>  -0.4100 
 21 C       -2.2170    -5.7260     0.4540 C.2   1 <1>   0.1080 
 22 C       -1.1660    -6.8120     0.3950 C.3   1 <1>  -0.0590 
 23 H       -4.3570     1.1380     0.8300 H     1 <1>   0.0800 
 24 H       -4.0140     1.5080    -0.8640 H     1 <1>   0.0800 
 25 H       -2.1200    -1.5750    -0.8630 H     1 <1>   0.0800 
 26 H       -2.0610    -1.6560     0.8900 H     1 <1>   0.0800 
 27 H       -2.6110     2.5100     1.7870 H     1 <1>   0.1500 
 28 H       -0.2270     2.7400    -1.6890 H     1 <1>   0.1500 
 29 H       -4.8350    -0.5300    -1.6050 H     1 <1>   0.0800 
 30 H       -4.3500    -1.7790     1.1040 H     1 <1>   0.0800 
 31 H       -6.1160    -0.4710     0.9210 H     1 <1>   0.4000 
 32 H       -4.1090    -2.8780    -1.7150 H     1 <1>   0.0800 
 33 H       -5.3920    -3.2310    -0.5920 H     1 <1>   0.0800 
 34 H       -2.1070     6.8790     1.0650 H     1 <1>   0.0800 
 35 H       -1.7580     6.9640    -0.6460 H     1 <1>   0.0800 
 36 H       -0.4470     6.8880     0.5100 H     1 <1>   0.0800 
 37 H       -2.1720    -4.9330    -1.6050 H     1 <1>   0.1500 
 38 H       -1.4370    -7.5420    -0.3450 H     1 <1>   0.0800 
 39 H       -1.0860    -7.2980     1.3510 H     1 <1>   0.0800 
 40 H       -0.2140    -6.3840     0.1410 H     1 <1>   0.0800 
@<TRIPOS>BOND
  1   1   2  2   
  2   2   3  am  
  3   2   4  1   
  4   3   5  1   
  5   3   6  1   
  6   4   7  ar  
  7   4   8  ar  
  8   5   9  1   
  9   5  23  1   
 10   5  24  1   
 11   6  10  1   
 12   6  25  1   
 13   6  26  1   
 14   7  11  ar  
 15   7  27  1   
 16   8  12  ar  
 17   8  28  1   
 18   9  10  1   
 19   9  13  1   
 20   9  29  1   
 21  10  14  1   
 22  10  30  1   
 23  11  15  ar  
 24  12  15  ar  
 25  13  31  1   
 26  14  16  1   
 27  14  32  1   
 28  14  33  1   
 29  15  17  1   
 30  16  18  1   
 31  16  19  2   
 32  17  34  1   
 33  17  35  1   
 34  17  36  1   
 35  18  20  1   
 36  19  21  1   
 37  19  37  1   
 38  20  21  2   
 39  21  22  1   
 40  22  38  1   
 41  22  39  1   
 42  22  40  1   
@<TRIPOS>SUBSTRUCTURE
  1 ****   3 GROUP 4 **** **** 0

# MOE 2024.06 (io_trps.svl 2023.06)
