@<TRIPOS>MOLECULE
NONAME
46 48 1 0 0 
SMALL
USER_CHARGES


@<TRIPOS>ATOM
  1 O        3.2030    -2.0020     2.0970 O.2   1 <1>  -0.5700 
  2 C        2.6280    -1.6720     1.0760 C.2   1 <1>   0.5440 
  3 N        2.8640    -0.3950     0.6090 N.am  1 <1>  -0.6600 
  4 C        1.8230    -2.6360     0.3630 C.ar  1 <1>   0.0860 
  5 C        3.4450     0.6420     1.5470 C.3   1 <1>   0.2200 
  6 C        2.8760    -0.1220    -0.8650 C.3   1 <1>   0.1400 
  7 C        0.5470    -2.3250    -0.1490 C.ar  1 <1>   0.4100 
  8 C        2.3060    -3.9220     0.1580 C.ar  1 <1>  -0.1500 
  9 C        2.9270     2.0600     1.2550 C.3   1 <1>   0.1200 
 10 C        4.9920     0.5950     1.5580 C.3   1 <1>   0.3430 
 11 C        3.9280     0.9060    -1.3240 C.3   1 <1>  -0.0800 
 12 N       -0.1790    -3.1730    -0.8720 N.ar  1 <1>  -0.6200 
 13 N       -0.0420    -1.0980     0.0840 N.pl3 1 <1>  -0.8690 
 14 C        1.5370    -4.8030    -0.5670 C.ar  1 <1>  -0.1500 
 15 O        3.7080     2.7000     0.2930 O.3   1 <1>  -0.5600 
 16 N        5.5360    -0.1500     0.3740 N.4   1 <1>  -0.9590 
 17 C        3.4850     2.3480    -1.0300 C.3   1 <1>   0.1200 
 18 C        5.3870     0.6390    -0.8900 C.3   1 <1>   0.3430 
 19 C        0.3180    -4.3780    -1.0610 C.ar  1 <1>   0.1600 
 20 C       -1.4740    -0.8060    -0.1950 C.3   1 <1>   0.1290 
 21 C        7.0110    -0.4330     0.6150 C.3   1 <1>   0.2370 
 22 C        7.8900     0.8180     0.7080 C.2   1 <1>   0.9060 
 23 O        8.0240     1.3500     1.8120 O.co2 1 <1>  -0.9000 
 24 O        8.3140     1.2990    -0.3470 O.co2 1 <1>  -0.9000 
 25 H        3.1120     0.4100     2.5440 H     1 <1>   0.0800 
 26 H        3.0580    -1.0450    -1.3880 H     1 <1>   0.0800 
 27 H        1.8990     0.2190    -1.1610 H     1 <1>   0.0800 
 28 H        3.2590    -4.2200     0.5610 H     1 <1>   0.1500 
 29 H        3.0120     2.6510     2.1500 H     1 <1>   0.0800 
 30 H        1.8950     2.0550     0.9500 H     1 <1>   0.0800 
 31 H        5.3050     0.0970     2.4600 H     1 <1>   0.0800 
 32 H        5.3980     1.5940     1.5890 H     1 <1>   0.0800 
 33 H        3.9340     0.8490    -2.3980 H     1 <1>   0.0800 
 34 H        0.3830    -0.5200     0.8150 H     1 <1>   0.4000 
 35 H        1.8720    -5.8090    -0.7510 H     1 <1>   0.1500 
 36 H        4.9910    -1.0180     0.3210 H     1 <1>   0.4500 
 37 H        2.4440     2.5010    -1.2610 H     1 <1>   0.0800 
 38 H        4.0650     3.0310    -1.6290 H     1 <1>   0.0800 
 39 H        5.9010     1.5830    -0.7840 H     1 <1>   0.0800 
 40 H        5.8850     0.1030    -1.6820 H     1 <1>   0.0800 
 41 H       -0.2770    -5.0680    -1.6360 H     1 <1>   0.1500 
 42 H       -2.0970    -1.3820     0.4680 H     1 <1>   0.0800 
 43 H       -1.7120    -1.0700    -1.2110 H     1 <1>   0.0800 
 44 H       -1.6730     0.2410    -0.0510 H     1 <1>   0.0800 
 45 H        7.1320    -0.9740     1.5360 H     1 <1>   0.0800 
 46 H        7.4020    -1.0330    -0.1850 H     1 <1>   0.0800 
@<TRIPOS>BOND
  1   1   2  2   
  2   2   3  am  
  3   2   4  1   
  4   3   5  1   
  5   3   6  1   
  6   4   7  ar  
  7   4   8  ar  
  8   5   9  1   
  9   5  10  1   
 10   5  25  1   
 11   6  11  1   
 12   6  26  1   
 13   6  27  1   
 14   7  12  ar  
 15   7  13  1   
 16   8  14  ar  
 17   8  28  1   
 18   9  15  1   
 19   9  29  1   
 20   9  30  1   
 21  10  16  1   
 22  10  31  1   
 23  10  32  1   
 24  11  17  1   
 25  11  18  1   
 26  11  33  1   
 27  12  19  ar  
 28  13  20  1   
 29  13  34  1   
 30  14  19  ar  
 31  14  35  1   
 32  15  17  1   
 33  16  18  1   
 34  16  21  1   
 35  16  36  1   
 36  17  37  1   
 37  17  38  1   
 38  18  39  1   
 39  18  40  1   
 40  19  41  1   
 41  20  42  1   
 42  20  43  1   
 43  20  44  1   
 44  21  22  1   
 45  21  45  1   
 46  21  46  1   
 47  22  23  ar  
 48  22  24  ar  
@<TRIPOS>SUBSTRUCTURE
  1 ****   3 GROUP 4 **** **** 0

# MOE 2024.06 (io_trps.svl 2023.06)
