@<TRIPOS>MOLECULE
NONAME
45 46 1 0 0 
SMALL
USER_CHARGES


@<TRIPOS>ATOM
  1 F       -0.4870    -2.0810     2.4000 F     1 <1>  -0.1900 
  2 C       -1.4060    -1.7510     1.5250 C.ar  1 <1>   0.1900 
  3 C       -1.8900    -2.7130     0.6420 C.ar  1 <1>   0.0820 
  4 C       -1.8390    -0.4420     1.5310 C.ar  1 <1>  -0.1500 
  5 O       -1.3520    -3.9610     0.7370 O.3   1 <1>  -0.3630 
  6 C       -2.8890    -2.3310    -0.2730 C.ar  1 <1>   0.0860 
  7 C       -2.8020    -0.0610     0.6150 C.ar  1 <1>  -0.1500 
  8 C       -1.2240    -4.8410    -0.3600 C.3   1 <1>   0.0400 
  9 C       -3.5330    -3.2250    -1.2080 C.2   1 <1>   0.5440 
 10 C       -3.3100    -0.9970    -0.2680 C.ar  1 <1>  -0.1500 
 11 O       -3.2630    -3.1320    -2.3920 O.2   1 <1>  -0.5700 
 12 N       -4.4580    -4.1600    -0.8010 N.am  1 <1>  -0.6600 
 13 C       -5.0550    -5.1340    -1.7820 C.3   1 <1>   0.1400 
 14 C       -4.8660    -4.3270     0.6340 C.3   1 <1>   0.1400 
 15 C       -5.4890    -6.4170    -1.0640 C.3   1 <1>   0.2000 
 16 C       -6.3250    -4.7840     0.7030 C.3   1 <1>  -0.1600 
 17 O       -5.9270    -7.3800    -1.9580 O.3   1 <1>  -0.6800 
 18 C       -6.5440    -6.1880     0.0520 C.3   1 <1>  -0.1060 
 19 C       -6.2490    -7.3310     1.0390 C.2   1 <1>   0.9060 
 20 C       -8.0390    -6.3000    -0.3980 C.3   1 <1>  -0.1600 
 21 O       -5.8590    -7.0860     2.1860 O.co2 1 <1>  -0.9000 
 22 O       -6.3590    -8.4960     0.6250 O.co2 1 <1>  -0.9000 
 23 C       -8.4850    -5.4290    -1.5890 C.3   1 <1>  -0.1600 
 24 C       -9.9810    -5.6080    -1.8620 C.3   1 <1>  -0.2400 
 25 H       -1.4280     0.2610     2.2330 H     1 <1>   0.1500 
 26 H       -3.1530     0.9570     0.5910 H     1 <1>   0.1500 
 27 H       -0.4320    -5.5340    -0.1400 H     1 <1>   0.0800 
 28 H       -0.9810    -4.2790    -1.2460 H     1 <1>   0.0800 
 29 H       -2.1430    -5.3830    -0.4870 H     1 <1>   0.0800 
 30 H       -4.0610    -0.6980    -0.9800 H     1 <1>   0.1500 
 31 H       -5.8990    -4.6730    -2.2590 H     1 <1>   0.0800 
 32 H       -4.3250    -5.3840    -2.5320 H     1 <1>   0.0800 
 33 H       -4.2340    -5.0590     1.1100 H     1 <1>   0.0800 
 34 H       -4.7630    -3.3970     1.1640 H     1 <1>   0.0800 
 35 H       -4.5970    -6.8260    -0.6170 H     1 <1>   0.0800 
 36 H       -6.6430    -4.8040     1.7310 H     1 <1>   0.0800 
 37 H       -6.9140    -4.0290     0.2210 H     1 <1>   0.0800 
 38 H       -6.2070    -8.1450    -1.3920 H     1 <1>   0.4000 
 39 H       -8.2440    -7.3260    -0.6530 H     1 <1>   0.0800 
 40 H       -8.6570    -6.0740     0.4540 H     1 <1>   0.0800 
 41 H       -8.2910    -4.3890    -1.4030 H     1 <1>   0.0800 
 42 H       -7.9400    -5.7180    -2.4700 H     1 <1>   0.0800 
 43 H      -10.5570    -5.3080    -1.0040 H     1 <1>   0.0800 
 44 H      -10.1970    -6.6380    -2.0830 H     1 <1>   0.0800 
 45 H      -10.2760    -5.0070    -2.7030 H     1 <1>   0.0800 
@<TRIPOS>BOND
  1   1   2  1   
  2   2   3  ar  
  3   2   4  ar  
  4   3   5  1   
  5   3   6  ar  
  6   4   7  ar  
  7   4  25  1   
  8   5   8  1   
  9   6   9  1   
 10   6  10  ar  
 11   7  10  ar  
 12   7  26  1   
 13   8  27  1   
 14   8  28  1   
 15   8  29  1   
 16   9  11  2   
 17   9  12  am  
 18  10  30  1   
 19  12  13  1   
 20  12  14  1   
 21  13  15  1   
 22  13  31  1   
 23  13  32  1   
 24  14  16  1   
 25  14  33  1   
 26  14  34  1   
 27  15  17  1   
 28  15  18  1   
 29  15  35  1   
 30  16  18  1   
 31  16  36  1   
 32  16  37  1   
 33  17  38  1   
 34  18  19  1   
 35  18  20  1   
 36  19  21  ar  
 37  19  22  ar  
 38  20  23  1   
 39  20  39  1   
 40  20  40  1   
 41  23  24  1   
 42  23  41  1   
 43  23  42  1   
 44  24  43  1   
 45  24  44  1   
 46  24  45  1   
@<TRIPOS>SUBSTRUCTURE
  1 ****  12 GROUP 4 **** **** 0

# MOE 2024.06 (io_trps.svl 2023.06)
