@<TRIPOS>MOLECULE
NONAME
46 48 1 0 0 
SMALL
USER_CHARGES


@<TRIPOS>ATOM
  1 S       -0.5860    -0.5170     0.8890 S.3   1 <1>  -0.0800 
  2 C        0.8720    -0.8070    -0.0510 C.2   1 <1>   0.4620 
  3 C       -1.2830    -1.9580     0.2230 C.2   1 <1>  -0.1100 
  4 N        0.8140    -1.8690    -0.7680 N.2   1 <1>  -0.5650 
  5 N        1.9290     0.0670     0.0340 N.pl3 1 <1>  -0.8220 
  6 C       -0.4110    -2.5400    -0.6270 C.2   1 <1>   0.1410 
  7 C        1.9980     1.2010     0.9840 C.3   1 <1>   0.4330 
  8 C        3.2670    -0.2900    -0.4780 C.3   1 <1>   0.2090 
  9 C       -0.6640    -3.7660    -1.3710 C.2   1 <1>   0.7160 
 10 C        1.0550     2.3450     0.6020 C.ar  1 <1>  -0.1440 
 11 C        3.4610     1.6440     0.9430 C.3   1 <1>  -0.1600 
 12 C        4.2350     0.4200     0.4590 C.3   1 <1>  -0.1600 
 13 O       -1.6990    -4.3910    -1.2600 O.2   1 <1>  -0.5700 
 14 N        0.2600    -4.2590    -2.2250 N.am  1 <1>  -0.8000 
 15 C        0.4500     3.0980     1.5960 C.ar  1 <1>  -0.1500 
 16 C        0.7800     2.6440    -0.7250 C.ar  1 <1>  -0.1500 
 17 C       -0.4120     4.1320     1.2720 C.ar  1 <1>  -0.1500 
 18 C       -0.0810     3.6740    -1.0540 C.ar  1 <1>  -0.1500 
 19 C       -0.6800     4.4290    -0.0560 C.ar  1 <1>  -0.1430 
 20 C       -1.6170     5.5640    -0.4170 C.3   1 <1>   0.4860 
 21 N       -0.8970     6.8560    -0.2230 N.4   1 <1>  -0.9590 
 22 C       -1.8250     8.0210    -0.3180 C.3   1 <1>   0.2630 
 23 C        0.2510     6.9930    -1.1740 C.3   1 <1>   0.2630 
 24 H       -2.2760    -2.2370     0.5260 H     1 <1>   0.1500 
 25 H        1.7630     0.8340     1.9690 H     1 <1>   0.0800 
 26 H        3.3680     0.0820    -1.4830 H     1 <1>   0.0800 
 27 H        3.4200    -1.3570    -0.4700 H     1 <1>   0.0800 
 28 H        3.7950     1.9850     1.9060 H     1 <1>   0.0800 
 29 H        3.5730     2.4430     0.2330 H     1 <1>   0.0800 
 30 H        5.1520     0.6820    -0.0380 H     1 <1>   0.0800 
 31 H        4.4560    -0.2290     1.2880 H     1 <1>   0.0800 
 32 H        0.0790    -5.1100    -2.7530 H     1 <1>   0.3700 
 33 H        1.1410    -3.7630    -2.3660 H     1 <1>   0.3700 
 34 H        0.6440     2.8760     2.6320 H     1 <1>   0.1500 
 35 H        1.2360     2.0590    -1.5080 H     1 <1>   0.1500 
 36 H       -0.8720     4.6890     2.0700 H     1 <1>   0.1500 
 37 H       -0.2780     3.8680    -2.0940 H     1 <1>   0.1500 
 38 H       -2.4840     5.5210     0.2220 H     1 <1>   0.0800 
 39 H       -1.9400     5.4640    -1.4400 H     1 <1>   0.0800 
 40 H       -0.5010     6.8110     0.7280 H     1 <1>   0.4500 
 41 H       -2.2580     8.0780    -1.3040 H     1 <1>   0.0800 
 42 H       -1.2940     8.9390    -0.1230 H     1 <1>   0.0800 
 43 H       -2.6210     7.9280     0.4040 H     1 <1>   0.0800 
 44 H       -0.1010     6.9930    -2.1930 H     1 <1>   0.0800 
 45 H        0.9410     6.1720    -1.0490 H     1 <1>   0.0800 
 46 H        0.7820     7.9130    -0.9910 H     1 <1>   0.0800 
@<TRIPOS>BOND
  1   1   2  1   
  2   1   3  1   
  3   2   4  2   
  4   2   5  1   
  5   3   6  2   
  6   3  24  1   
  7   4   6  1   
  8   5   7  1   
  9   5   8  1   
 10   6   9  1   
 11   7  10  1   
 12   7  11  1   
 13   7  25  1   
 14   8  12  1   
 15   8  26  1   
 16   8  27  1   
 17   9  13  2   
 18   9  14  am  
 19  10  15  ar  
 20  10  16  ar  
 21  11  12  1   
 22  11  28  1   
 23  11  29  1   
 24  12  30  1   
 25  12  31  1   
 26  14  32  1   
 27  14  33  1   
 28  15  17  ar  
 29  15  34  1   
 30  16  18  ar  
 31  16  35  1   
 32  17  19  ar  
 33  17  36  1   
 34  18  19  ar  
 35  18  37  1   
 36  19  20  1   
 37  20  21  1   
 38  20  38  1   
 39  20  39  1   
 40  21  22  1   
 41  21  23  1   
 42  21  40  1   
 43  22  41  1   
 44  22  42  1   
 45  22  43  1   
 46  23  44  1   
 47  23  45  1   
 48  23  46  1   
@<TRIPOS>SUBSTRUCTURE
  1 ****  10 GROUP 4 **** **** 0

# MOE 2024.06 (io_trps.svl 2023.06)
