@<TRIPOS>MOLECULE
NONAME
59 61 1 0 0 
SMALL
USER_CHARGES


@<TRIPOS>ATOM
  1 O       -0.8960    -0.0780     0.0370 O.2   1 <1>  -0.5700 
  2 C       -0.3260     0.9720     0.2520 C.2   1 <1>   0.5690 
  3 N       -1.0640     2.0680     0.6660 N.am  1 <1>  -0.6600 
  4 C        1.2210     1.0030    -0.0060 C.3   1 <1>   0.3410 
  5 C       -2.5260     1.9440     0.9620 C.3   1 <1>   0.1400 
  6 C       -0.5350     3.4580     0.8220 C.3   1 <1>   0.1400 
  7 O        1.8520     1.9400     0.8860 O.3   1 <1>  -0.3630 
  8 C        1.4910     1.4440    -1.4540 C.3   1 <1>  -0.2400 
  9 C        1.8360    -0.4030     0.1910 C.3   1 <1>  -0.2400 
 10 C       -3.3590     2.7900    -0.0410 C.3   1 <1>   0.0000 
 11 C       -1.6450     4.5210     0.7450 C.3   1 <1>  -0.1600 
 12 C        3.1920     1.9960     1.1030 C.ar  1 <1>   0.0820 
 13 C       -4.8150     2.9450     0.4420 C.3   1 <1>   0.2000 
 14 C       -2.6830     4.1590    -0.3280 C.3   1 <1>  -0.1600 
 15 C       -3.5610     1.9920    -1.3400 C.3   1 <1>  -0.1600 
 16 C        4.0060     2.9240     0.4460 C.ar  1 <1>  -0.1430 
 17 C        3.7360     1.1390     2.0480 C.ar  1 <1>  -0.1500 
 18 O       -4.8830     3.2340     1.8070 O.3   1 <1>  -0.5600 
 19 C       -5.5000     1.6150     0.1150 C.3   1 <1>  -0.1600 
 20 C       -4.7160     1.0210    -1.0630 C.3   1 <1>  -0.1600 
 21 C        5.3780     2.9130     0.6890 C.ar  1 <1>  -0.1430 
 22 C        3.4110     3.9580    -0.5070 C.3   1 <1>  -0.0970 
 23 C        5.0940     1.1440     2.2960 C.ar  1 <1>  -0.1500 
 24 C       -6.1210     3.6870     2.2520 C.3   1 <1>   0.0400 
 25 C        5.9100     2.0220     1.6090 C.ar  1 <1>  -0.1500 
 26 C        6.3320     3.8650    -0.0230 C.3   1 <1>  -0.0970 
 27 H       -2.8410     0.9160     0.9420 H     1 <1>   0.0800 
 28 H       -2.6840     2.2940     1.9670 H     1 <1>   0.0800 
 29 H       -0.0170     3.5400     1.7620 H     1 <1>   0.0800 
 30 H        0.1660     3.6510     0.0320 H     1 <1>   0.0800 
 31 H        1.0060     0.7630    -2.1300 H     1 <1>   0.0800 
 32 H        2.5440     1.4320    -1.6640 H     1 <1>   0.0800 
 33 H        1.0920     2.4240    -1.6330 H     1 <1>   0.0800 
 34 H        1.3750    -1.1020    -0.4820 H     1 <1>   0.0800 
 35 H        1.6560    -0.7470     1.1920 H     1 <1>   0.0800 
 36 H        2.8900    -0.4060    -0.0190 H     1 <1>   0.0800 
 37 H       -2.1300     4.6020     1.7030 H     1 <1>   0.0800 
 38 H       -1.2040     5.4770     0.5270 H     1 <1>   0.0800 
 39 H       -5.2900     3.7390    -0.1090 H     1 <1>   0.0800 
 40 H       -2.1710     4.1160    -1.2730 H     1 <1>   0.0800 
 41 H       -3.4190     4.9410    -0.3960 H     1 <1>   0.0800 
 42 H       -3.8550     2.6570    -2.1340 H     1 <1>   0.0800 
 43 H       -2.6680     1.4720    -1.6410 H     1 <1>   0.0800 
 44 H        3.0940     0.4700     2.5900 H     1 <1>   0.1500 
 45 H       -5.4360     0.9500     0.9590 H     1 <1>   0.0800 
 46 H       -6.5300     1.7710    -0.1470 H     1 <1>   0.0800 
 47 H       -4.3230     0.0560    -0.7890 H     1 <1>   0.0800 
 48 H       -5.3370     0.9070    -1.9350 H     1 <1>   0.0800 
 49 H        3.8510     4.9230    -0.3360 H     1 <1>   0.0800 
 50 H        2.3550     4.0650    -0.3560 H     1 <1>   0.0800 
 51 H        3.5930     3.6680    -1.5250 H     1 <1>   0.0800 
 52 H        5.5140     0.4690     3.0200 H     1 <1>   0.1500 
 53 H       -6.0420     3.8950     3.3040 H     1 <1>   0.0800 
 54 H       -6.8630     2.9240     2.0910 H     1 <1>   0.0800 
 55 H       -6.3810     4.5880     1.7240 H     1 <1>   0.0800 
 56 H        6.9680     2.0100     1.8040 H     1 <1>   0.1500 
 57 H        7.3550     3.5840     0.1480 H     1 <1>   0.0800 
 58 H        6.1900     4.8660     0.3420 H     1 <1>   0.0800 
 59 H        6.1550     3.8470    -1.0830 H     1 <1>   0.0800 
@<TRIPOS>BOND
  1   1   2  2   
  2   2   3  am  
  3   2   4  1   
  4   3   5  1   
  5   3   6  1   
  6   4   7  1   
  7   4   8  1   
  8   4   9  1   
  9   5  10  1   
 10   5  27  1   
 11   5  28  1   
 12   6  11  1   
 13   6  29  1   
 14   6  30  1   
 15   7  12  1   
 16   8  31  1   
 17   8  32  1   
 18   8  33  1   
 19   9  34  1   
 20   9  35  1   
 21   9  36  1   
 22  10  13  1   
 23  10  14  1   
 24  10  15  1   
 25  11  14  1   
 26  11  37  1   
 27  11  38  1   
 28  12  16  ar  
 29  12  17  ar  
 30  13  18  1   
 31  13  19  1   
 32  13  39  1   
 33  14  40  1   
 34  14  41  1   
 35  15  20  1   
 36  15  42  1   
 37  15  43  1   
 38  16  21  ar  
 39  16  22  1   
 40  17  23  ar  
 41  17  44  1   
 42  18  24  1   
 43  19  20  1   
 44  19  45  1   
 45  19  46  1   
 46  20  47  1   
 47  20  48  1   
 48  21  25  ar  
 49  21  26  1   
 50  22  49  1   
 51  22  50  1   
 52  22  51  1   
 53  23  25  ar  
 54  23  52  1   
 55  24  53  1   
 56  24  54  1   
 57  24  55  1   
 58  25  56  1   
 59  26  57  1   
 60  26  58  1   
 61  26  59  1   
@<TRIPOS>SUBSTRUCTURE
  1 ****   3 GROUP 4 **** **** 0

# MOE 2024.06 (io_trps.svl 2023.06)
