@<TRIPOS>MOLECULE
NONAME
48 51 1 0 0 
SMALL
USER_CHARGES


@<TRIPOS>ATOM
  1 O        1.6930    -0.4730    -0.3420 O.2   1 <1>  -0.5700 
  2 C        0.9760    -1.4530    -0.3920 C.2   1 <1>   0.7160 
  3 N       -0.2190    -1.3450    -1.0340 N.am  1 <1>  -0.4900 
  4 C        1.2650    -2.7180     0.1710 C.2   1 <1>  -0.0860 
  5 C       -1.0950    -2.4100    -1.1190 C.2   1 <1>   0.4490 
  6 C        0.3570    -3.7230     0.0380 C.2   1 <1>  -0.0260 
  7 C        2.3130    -3.2850     0.8930 C.2   1 <1>   0.1390 
  8 N       -0.8500    -3.5680    -0.6130 N.2   1 <1>  -0.5760 
  9 C       -2.4460    -2.1900    -1.8160 C.3   1 <1>   0.4040 
 10 N        0.8830    -4.8080     0.6550 N.pl3 1 <1>   0.3140 
 11 N        2.0920    -4.5290     1.1880 N.2   1 <1>  -0.7070 
 12 N       -3.5520    -1.7450    -0.8810 N.4   1 <1>  -0.9590 
 13 C        0.2880    -6.1450     0.7720 C.3   1 <1>   0.0160 
 14 C       -3.7410    -2.7360     0.2280 C.3   1 <1>   0.3430 
 15 C       -4.8240    -1.5150    -1.6280 C.3   1 <1>   0.3430 
 16 C       -4.7950    -2.2280     1.2000 C.3   1 <1>  -0.1600 
 17 C       -5.8930    -0.9810    -0.6840 C.3   1 <1>  -0.1600 
 18 C       -6.1150    -1.9300     0.4950 C.3   1 <1>   0.4180 
 19 O       -6.8880    -1.2680     1.4490 O.3   1 <1>  -0.5600 
 20 C       -6.7890    -3.2290     0.0510 C.2   1 <1>  -0.2880 
 21 C       -8.2770    -1.2350     1.2570 C.3   1 <1>   0.1200 
 22 C       -8.0270    -3.5770     0.4070 C.2   1 <1>  -0.2760 
 23 C       -8.8610    -2.6530     1.2760 C.3   1 <1>  -0.0220 
 24 C       -8.7050    -4.8780     0.0130 C.3   1 <1>  -0.1020 
 25 H       -0.3740    -0.4310    -1.4530 H     1 <1>   0.3700 
 26 H        3.2070    -2.7520     1.1750 H     1 <1>   0.1500 
 27 H       -2.7280    -3.1230    -2.2740 H     1 <1>   0.0800 
 28 H       -2.3160    -1.4660    -2.6010 H     1 <1>   0.0800 
 29 H       -3.2810    -0.8560    -0.4380 H     1 <1>   0.4500 
 30 H       -0.4580    -6.2760     0.0120 H     1 <1>   0.0800 
 31 H       -0.1550    -6.2460     1.7450 H     1 <1>   0.0800 
 32 H        1.0610    -6.8820     0.6520 H     1 <1>   0.0800 
 33 H       -2.8160    -2.8840     0.7630 H     1 <1>   0.0800 
 34 H       -4.0470    -3.6880    -0.1750 H     1 <1>   0.0800 
 35 H       -5.1650    -2.4410    -2.0660 H     1 <1>   0.0800 
 36 H       -4.6650    -0.8040    -2.4230 H     1 <1>   0.0800 
 37 H       -4.4320    -1.3410     1.6880 H     1 <1>   0.0800 
 38 H       -4.9650    -2.9740     1.9570 H     1 <1>   0.0800 
 39 H       -6.8100    -0.8740    -1.2350 H     1 <1>   0.0800 
 40 H       -5.6030    -0.0100    -0.3230 H     1 <1>   0.0800 
 41 H       -6.1810    -3.8580    -0.5710 H     1 <1>   0.1500 
 42 H       -8.4850    -0.7540     0.3180 H     1 <1>   0.0800 
 43 H       -8.7060    -0.6450     2.0490 H     1 <1>   0.0800 
 44 H       -9.8730    -2.6110     0.9150 H     1 <1>   0.0800 
 45 H       -8.8820    -3.0240     2.2860 H     1 <1>   0.0800 
 46 H       -8.9740    -5.4350     0.8940 H     1 <1>   0.0800 
 47 H       -8.0500    -5.4850    -0.5850 H     1 <1>   0.0800 
 48 H       -9.5970    -4.6770    -0.5540 H     1 <1>   0.0800 
@<TRIPOS>BOND
  1   1   2  2   
  2   2   3  am  
  3   2   4  1   
  4   3   5  1   
  5   3  25  1   
  6   4   6  2   
  7   4   7  1   
  8   5   8  2   
  9   5   9  1   
 10   6   8  1   
 11   6  10  1   
 12   7  11  2   
 13   7  26  1   
 14   9  12  1   
 15   9  27  1   
 16   9  28  1   
 17  10  11  1   
 18  10  13  1   
 19  12  14  1   
 20  12  15  1   
 21  12  29  1   
 22  13  30  1   
 23  13  31  1   
 24  13  32  1   
 25  14  16  1   
 26  14  33  1   
 27  14  34  1   
 28  15  17  1   
 29  15  35  1   
 30  15  36  1   
 31  16  18  1   
 32  16  37  1   
 33  16  38  1   
 34  17  18  1   
 35  17  39  1   
 36  17  40  1   
 37  18  19  1   
 38  18  20  1   
 39  19  21  1   
 40  20  22  2   
 41  20  41  1   
 42  21  23  1   
 43  21  42  1   
 44  21  43  1   
 45  22  23  1   
 46  22  24  1   
 47  23  44  1   
 48  23  45  1   
 49  24  46  1   
 50  24  47  1   
 51  24  48  1   
@<TRIPOS>SUBSTRUCTURE
  1 ****  14 GROUP 4 **** **** 0

# MOE 2024.06 (io_trps.svl 2023.06)
