@<TRIPOS>MOLECULE
NONAME
33 34 1 0 0 
SMALL
USER_CHARGES


@<TRIPOS>ATOM
  1 S       -0.3750     0.3980    -1.0100 S.o2  1 <1>   1.4470 
  2 O       -0.1470    -0.7310    -1.8850 O.2   1 <1>  -0.6500 
  3 O       -0.7520     1.6650    -1.6000 O.2   1 <1>  -0.6500 
  4 N       -1.6130    -0.0190     0.0670 N.am  1 <1>  -0.8490 
  5 C        1.0660     0.6750     0.0610 C.ar  1 <1>  -0.0090 
  6 C       -1.3260    -1.2380     0.8660 C.3   1 <1>   0.1960 
  7 C       -2.9160    -0.0230    -0.6130 C.3   1 <1>   0.1960 
  8 C        1.1400     1.8060     0.8700 C.ar  1 <1>  -0.1500 
  9 C        2.1170    -0.2380     0.1160 C.ar  1 <1>  -0.1500 
 10 C       -2.1290    -2.4510     0.4040 C.3   1 <1>  -0.1860 
 11 C       -3.9910    -0.6960     0.2400 C.3   1 <1>  -0.1600 
 12 C        2.2370     2.0050     1.6900 C.ar  1 <1>   0.1900 
 13 C        3.2000    -0.0020     0.9460 C.ar  1 <1>   0.1900 
 14 C       -1.6410    -3.6850     1.1370 C.2   1 <1>   0.9060 
 15 C       -3.6370    -2.1620     0.5320 C.3   1 <1>   0.2000 
 16 F        2.2790     3.0760     2.4350 F     1 <1>  -0.1900 
 17 C        3.2900     1.1150     1.7500 C.ar  1 <1>  -0.1500 
 18 F        4.1770    -0.8670     0.9670 F     1 <1>  -0.1900 
 19 O       -0.4260    -3.8920     1.1750 O.co2 1 <1>  -0.9000 
 20 O       -2.4520    -4.4410     1.6880 O.co2 1 <1>  -0.9000 
 21 O       -4.0600    -2.4290     1.8140 O.3   1 <1>  -0.6800 
 22 H       -0.2760    -1.4730     0.8410 H     1 <1>   0.0800 
 23 H       -1.5810    -1.0420     1.8950 H     1 <1>   0.0800 
 24 H       -3.2040     0.9920    -0.8270 H     1 <1>   0.0800 
 25 H       -2.8350    -0.5500    -1.5510 H     1 <1>   0.0800 
 26 H        0.3430     2.5290     0.8600 H     1 <1>   0.1500 
 27 H        2.0920    -1.1350    -0.4820 H     1 <1>   0.1500 
 28 H       -1.8940    -2.6220    -0.6290 H     1 <1>   0.0800 
 29 H       -4.9330    -0.6580    -0.2730 H     1 <1>   0.0800 
 30 H       -4.0850    -0.1400     1.1570 H     1 <1>   0.0800 
 31 H       -4.1750    -2.8250    -0.1240 H     1 <1>   0.0800 
 32 H        4.1360     1.2820     2.3890 H     1 <1>   0.1500 
 33 H       -3.6360    -3.3090     2.0520 H     1 <1>   0.4000 
@<TRIPOS>BOND
  1   1   2  2   
  2   1   3  2   
  3   1   4  am  
  4   1   5  1   
  5   4   6  1   
  6   4   7  1   
  7   5   8  ar  
  8   5   9  ar  
  9   6  10  1   
 10   6  22  1   
 11   6  23  1   
 12   7  11  1   
 13   7  24  1   
 14   7  25  1   
 15   8  12  ar  
 16   8  26  1   
 17   9  13  ar  
 18   9  27  1   
 19  10  14  1   
 20  10  15  1   
 21  10  28  1   
 22  11  15  1   
 23  11  29  1   
 24  11  30  1   
 25  12  16  1   
 26  12  17  ar  
 27  13  17  ar  
 28  13  18  1   
 29  14  19  ar  
 30  14  20  ar  
 31  15  21  1   
 32  15  31  1   
 33  17  32  1   
 34  21  33  1   
@<TRIPOS>SUBSTRUCTURE
  1 ****   6 GROUP 4 **** **** 0

# MOE 2024.06 (io_trps.svl 2023.06)
