@<TRIPOS>MOLECULE
NONAME
49 51 1 0 0 
SMALL
USER_CHARGES


@<TRIPOS>ATOM
  1 O       -1.3550    -0.3410     1.4260 O.2   1 <1>  -0.5700 
  2 C       -2.2380     0.3290     0.9230 C.2   1 <1>   0.5440 
  3 N       -2.2160     1.7000     1.1060 N.am  1 <1>  -0.6600 
  4 C       -3.2770    -0.3330     0.1680 C.ar  1 <1>   0.0860 
  5 C       -1.0110     2.3890     1.6470 C.3   1 <1>   0.0600 
  6 C       -3.4220     2.5660     0.9930 C.3   1 <1>   0.0600 
  7 C       -3.8600    -1.5020     0.6480 C.ar  1 <1>   0.1600 
  8 C       -3.7380     0.1370    -1.0580 C.ar  1 <1>  -0.1500 
  9 N       -4.8280    -2.1870     0.0640 N.ar  1 <1>  -0.6200 
 10 C       -4.7390    -0.5650    -1.6830 C.ar  1 <1>  -0.1500 
 11 C       -5.2690    -1.7140    -1.0980 C.ar  1 <1>   0.4100 
 12 N       -6.2850    -2.4060    -1.7240 N.pl3 1 <1>  -0.8380 
 13 C       -6.4080    -3.8790    -1.5690 C.3   1 <1>   0.2090 
 14 C       -7.5370    -1.7180    -2.1260 C.3   1 <1>   0.2090 
 15 C       -7.4900    -4.2000    -0.5350 C.3   1 <1>  -0.1600 
 16 C       -8.6310    -2.0120    -1.0970 C.3   1 <1>  -0.1600 
 17 C       -8.8360    -3.5280    -0.8870 C.3   1 <1>  -0.0800 
 18 C       -9.9500    -3.8340     0.1440 C.3   1 <1>   0.3430 
 19 O       -9.6040    -3.2350     1.3540 O.3   1 <1>  -0.6800 
 20 C      -10.2180    -5.3450     0.3000 C.ar  1 <1>   0.1660 
 21 N      -10.6030    -5.9780    -0.8060 N.ar  1 <1>  -0.6200 
 22 C      -10.0650    -5.9910     1.5230 C.ar  1 <1>  -0.1500 
 23 C      -10.8330    -7.2750    -0.6900 C.ar  1 <1>   0.1600 
 24 C      -10.3060    -7.3440     1.6290 C.ar  1 <1>  -0.1500 
 25 C      -10.7010    -7.9960     0.4820 C.ar  1 <1>  -0.1500 
 26 H       -0.1360     1.7730     1.5210 H     1 <1>   0.0800 
 27 H       -1.1470     2.5850     2.6960 H     1 <1>   0.0800 
 28 H       -0.8530     3.3160     1.1260 H     1 <1>   0.0800 
 29 H       -4.3170     1.9730     0.9250 H     1 <1>   0.0800 
 30 H       -3.3410     3.1870     0.1180 H     1 <1>   0.0800 
 31 H       -3.5020     3.1950     1.8630 H     1 <1>   0.0800 
 32 H       -3.4920    -1.8890     1.5830 H     1 <1>   0.1500 
 33 H       -3.3100     1.0200    -1.4980 H     1 <1>   0.1500 
 34 H       -5.1180    -0.2490    -2.6350 H     1 <1>   0.1500 
 35 H       -5.4660    -4.3000    -1.2590 H     1 <1>   0.0800 
 36 H       -6.6680    -4.3120    -2.5190 H     1 <1>   0.0800 
 37 H       -7.8370    -2.0730    -3.0980 H     1 <1>   0.0800 
 38 H       -7.3790    -0.6560    -2.1870 H     1 <1>   0.0800 
 39 H       -7.1370    -3.8670     0.4240 H     1 <1>   0.0800 
 40 H       -7.6090    -5.2680    -0.4900 H     1 <1>   0.0800 
 41 H       -9.5510    -1.5630    -1.4260 H     1 <1>   0.0800 
 42 H       -8.3490    -1.5400    -0.1720 H     1 <1>   0.0800 
 43 H       -9.1620    -3.9380    -1.8280 H     1 <1>   0.0800 
 44 H      -10.8670    -3.3730    -0.1770 H     1 <1>   0.0800 
 45 H       -8.6400    -3.3290     1.4770 H     1 <1>   0.4000 
 46 H       -9.7620    -5.4480     2.4000 H     1 <1>   0.1500 
 47 H      -11.1450    -7.7940    -1.5810 H     1 <1>   0.1500 
 48 H      -10.1940    -7.8640     2.5640 H     1 <1>   0.1500 
 49 H      -10.9070    -9.0510     0.4950 H     1 <1>   0.1500 
@<TRIPOS>BOND
  1   1   2  2   
  2   2   3  am  
  3   2   4  1   
  4   3   5  1   
  5   3   6  1   
  6   4   7  ar  
  7   4   8  ar  
  8   5  26  1   
  9   5  27  1   
 10   5  28  1   
 11   6  29  1   
 12   6  30  1   
 13   6  31  1   
 14   7   9  ar  
 15   7  32  1   
 16   8  10  ar  
 17   8  33  1   
 18   9  11  ar  
 19  10  11  ar  
 20  10  34  1   
 21  11  12  1   
 22  12  13  1   
 23  12  14  1   
 24  13  15  1   
 25  13  35  1   
 26  13  36  1   
 27  14  16  1   
 28  14  37  1   
 29  14  38  1   
 30  15  17  1   
 31  15  39  1   
 32  15  40  1   
 33  16  17  1   
 34  16  41  1   
 35  16  42  1   
 36  17  18  1   
 37  17  43  1   
 38  18  19  1   
 39  18  20  1   
 40  18  44  1   
 41  19  45  1   
 42  20  21  ar  
 43  20  22  ar  
 44  21  23  ar  
 45  22  24  ar  
 46  22  46  1   
 47  23  25  ar  
 48  23  47  1   
 49  24  25  ar  
 50  24  48  1   
 51  25  49  1   
@<TRIPOS>SUBSTRUCTURE
  1 ****  12 GROUP 4 **** **** 0

# MOE 2024.06 (io_trps.svl 2023.06)
