@<TRIPOS>MOLECULE
NONAME
60 62 1 0 0 
SMALL
USER_CHARGES


@<TRIPOS>ATOM
  1 O       -0.7550     0.4300    -1.8580 O.2   1 <1>  -0.5700 
  2 C       -1.5920     1.0300    -1.2300 C.2   1 <1>   0.5690 
  3 N       -2.6610     0.3960    -0.6580 N.am  1 <1>  -0.6600 
  4 C       -1.4080     2.5250    -1.0680 C.3   1 <1>  -0.0990 
  5 C       -3.7150     1.0150     0.1870 C.3   1 <1>   0.1400 
  6 C       -2.8500    -1.0710    -0.7320 C.3   1 <1>   0.1400 
  7 C       -0.5530     2.8390     0.1680 C.3   1 <1>  -0.0990 
  8 C       -4.5760    -0.1530     0.6720 C.3   1 <1>   0.2000 
  9 C       -3.7330    -1.4110     0.4690 C.3   1 <1>  -0.0800 
 10 C       -0.4820     4.3290     0.4060 C.2   1 <1>   0.5690 
 11 O       -4.9080    -0.0210     2.0110 O.3   1 <1>  -0.6800 
 12 C       -4.5920    -2.6750     0.2870 C.3   1 <1>  -0.0160 
 13 O       -1.3740     4.8470     1.0310 O.2   1 <1>  -0.5700 
 14 N        0.5720     5.0140    -0.1070 N.am  1 <1>  -0.7300 
 15 C       -3.7360    -3.9210     0.1230 C.ar  1 <1>   0.1670 
 16 C        0.8130     6.4740    -0.0230 C.3   1 <1>   0.2200 
 17 N       -3.2540    -4.1510    -1.0880 N.ar  1 <1>  -0.6200 
 18 C       -3.4940    -4.7500     1.2170 C.ar  1 <1>   0.1600 
 19 C        1.0390     6.8800     1.4490 C.3   1 <1>  -0.1600 
 20 C       -0.3430     7.2200    -0.7090 C.3   1 <1>  -0.1600 
 21 C       -2.5180    -5.2490    -1.1300 C.ar  1 <1>   0.1600 
 22 N       -2.7590    -5.8490     1.1780 N.ar  1 <1>  -0.6200 
 23 C        2.3850     7.5790     1.6930 C.3   1 <1>  -0.1600 
 24 C        0.0450     8.5710    -1.3320 C.3   1 <1>  -0.1600 
 25 C       -2.2790    -6.0690    -0.0340 C.ar  1 <1>   0.1600 
 26 C        2.3800     9.0920     1.4250 C.3   1 <1>  -0.1600 
 27 C        0.5650     9.6200    -0.3380 C.3   1 <1>  -0.1600 
 28 C        2.0700     9.5060    -0.0220 C.3   1 <1>  -0.1600 
 29 H       -0.9210     2.9060    -1.9470 H     1 <1>   0.0800 
 30 H       -2.3620     3.0110    -0.9930 H     1 <1>   0.0800 
 31 H       -3.2610     1.5320     1.0140 H     1 <1>   0.0800 
 32 H       -4.3060     1.6980    -0.3980 H     1 <1>   0.0800 
 33 H       -3.3450    -1.3150    -1.6570 H     1 <1>   0.0800 
 34 H       -1.9060    -1.5900    -0.6900 H     1 <1>   0.0800 
 35 H        0.4370     2.4400     0.0390 H     1 <1>   0.0800 
 36 H       -0.9840     2.3790     1.0380 H     1 <1>   0.0800 
 37 H       -5.4870    -0.1950     0.1000 H     1 <1>   0.0800 
 38 H       -3.0780    -1.5440     1.3130 H     1 <1>   0.0800 
 39 H       -4.1020     0.0510     2.5580 H     1 <1>   0.4000 
 40 H       -5.2230    -2.5690    -0.5780 H     1 <1>   0.0800 
 41 H       -5.2340    -2.7900     1.1420 H     1 <1>   0.0800 
 42 H        1.2870     4.5010    -0.6220 H     1 <1>   0.3700 
 43 H        1.7090     6.6680    -0.5860 H     1 <1>   0.0800 
 44 H       -3.9250    -4.4920     2.1680 H     1 <1>   0.1500 
 45 H        0.2380     7.5050     1.8000 H     1 <1>   0.0800 
 46 H        1.0220     5.9960     2.0630 H     1 <1>   0.0800 
 47 H       -0.7220     6.6060    -1.5070 H     1 <1>   0.0800 
 48 H       -1.1500     7.3610    -0.0110 H     1 <1>   0.0800 
 49 H       -2.0830    -5.5120    -2.0770 H     1 <1>   0.1500 
 50 H        2.6430     7.4400     2.7290 H     1 <1>   0.0800 
 51 H        3.1590     7.1050     1.1140 H     1 <1>   0.0800 
 52 H        0.7640     8.4190    -2.1180 H     1 <1>   0.0800 
 53 H       -0.8410     8.9700    -1.7960 H     1 <1>   0.0800 
 54 H       -1.6650    -6.9430    -0.1680 H     1 <1>   0.1500 
 55 H        1.6970     9.5790     2.1010 H     1 <1>   0.0800 
 56 H        3.3630     9.4590     1.6670 H     1 <1>   0.0800 
 57 H        0.4080    10.5850    -0.7890 H     1 <1>   0.0800 
 58 H       -0.0290     9.6070     0.5600 H     1 <1>   0.0800 
 59 H        2.5730     8.8530    -0.7140 H     1 <1>   0.0800 
 60 H        2.4980    10.4830    -0.1660 H     1 <1>   0.0800 
@<TRIPOS>BOND
  1   1   2  2   
  2   2   3  am  
  3   2   4  1   
  4   3   5  1   
  5   3   6  1   
  6   4   7  1   
  7   4  29  1   
  8   4  30  1   
  9   5   8  1   
 10   5  31  1   
 11   5  32  1   
 12   6   9  1   
 13   6  33  1   
 14   6  34  1   
 15   7  10  1   
 16   7  35  1   
 17   7  36  1   
 18   8   9  1   
 19   8  11  1   
 20   8  37  1   
 21   9  12  1   
 22   9  38  1   
 23  10  13  2   
 24  10  14  am  
 25  11  39  1   
 26  12  15  1   
 27  12  40  1   
 28  12  41  1   
 29  14  16  1   
 30  14  42  1   
 31  15  17  ar  
 32  15  18  ar  
 33  16  19  1   
 34  16  20  1   
 35  16  43  1   
 36  17  21  ar  
 37  18  22  ar  
 38  18  44  1   
 39  19  23  1   
 40  19  45  1   
 41  19  46  1   
 42  20  24  1   
 43  20  47  1   
 44  20  48  1   
 45  21  25  ar  
 46  21  49  1   
 47  22  25  ar  
 48  23  26  1   
 49  23  50  1   
 50  23  51  1   
 51  24  27  1   
 52  24  52  1   
 53  24  53  1   
 54  25  54  1   
 55  26  28  1   
 56  26  55  1   
 57  26  56  1   
 58  27  28  1   
 59  27  57  1   
 60  27  58  1   
 61  28  59  1   
 62  28  60  1   
@<TRIPOS>SUBSTRUCTURE
  1 ****   4 GROUP 4 **** **** 0

# MOE 2024.06 (io_trps.svl 2023.06)
