@<TRIPOS>MOLECULE
NONAME
50 53 1 0 0 
SMALL
USER_CHARGES


@<TRIPOS>ATOM
  1 O       -1.3900    -1.1640    -0.4480 O.co2 1 <1>  -0.9000 
  2 C       -0.6220    -1.9110     0.1840 C.2   1 <1>   1.0330 
  3 O       -0.8320    -2.0960     1.3950 O.co2 1 <1>  -0.9000 
  4 C        0.4760    -2.5360    -0.4740 C.2   1 <1>  -0.2330 
  5 C        0.4750    -3.8210    -1.0200 C.2   1 <1>   0.3720 
  6 C        1.7300    -2.0800    -0.7190 C.2   1 <1>   0.0870 
  7 N        1.6210    -4.1070    -1.5290 N.2   1 <1>  -0.4100 
  8 N       -0.5920    -4.7230    -1.0440 N.pl3 1 <1>  -0.8210 
  9 O        2.3650    -3.0480    -1.3390 O.3   1 <1>  -0.0190 
 10 C        2.4050    -0.8340    -0.4350 C.ar  1 <1>   0.0530 
 11 C       -1.7640    -4.2220    -1.8070 C.3   1 <1>   0.2090 
 12 C       -0.9640    -5.2110     0.3070 C.3   1 <1>   0.2090 
 13 C        1.7070     0.3480    -0.1820 C.ar  1 <1>  -0.1500 
 14 C        3.8000    -0.7640    -0.4090 C.ar  1 <1>  -0.1500 
 15 C       -2.7870    -5.3500    -1.9700 C.3   1 <1>  -0.1600 
 16 C       -1.9920    -6.3400     0.1850 C.3   1 <1>  -0.1600 
 17 C        2.3600     1.5360     0.0890 C.ar  1 <1>  -0.1500 
 18 C        4.4610     0.4200    -0.1420 C.ar  1 <1>  -0.1500 
 19 C       -3.2520    -5.9240    -0.6150 C.3   1 <1>   0.0000 
 20 C        3.7500     1.5810     0.1120 C.ar  1 <1>   0.0820 
 21 C       -4.1010    -4.8780     0.1480 C.3   1 <1>  -0.1600 
 22 C       -4.1490    -7.1520    -0.8650 C.3   1 <1>  -0.1600 
 23 O        4.4670     2.7010     0.3690 O.3   1 <1>  -0.3630 
 24 C       -4.8160    -5.4790     1.3640 C.3   1 <1>   0.1200 
 25 C       -4.8490    -7.6290     0.4140 C.3   1 <1>   0.1200 
 26 C        3.8310     3.9220     0.6730 C.3   1 <1>   0.0400 
 27 O       -5.5800    -6.5780     0.9650 O.3   1 <1>  -0.5600 
 28 H       -1.4360    -3.8830    -2.7750 H     1 <1>   0.0800 
 29 H       -2.2150    -3.3880    -1.2990 H     1 <1>   0.0800 
 30 H       -1.3680    -4.4090     0.8970 H     1 <1>   0.0800 
 31 H       -0.0810    -5.5740     0.8050 H     1 <1>   0.0800 
 32 H        0.6310     0.3430    -0.2000 H     1 <1>   0.1500 
 33 H        4.3720    -1.6540    -0.5990 H     1 <1>   0.1500 
 34 H       -2.3300    -6.1260    -2.5580 H     1 <1>   0.0800 
 35 H       -3.6300    -4.9750    -2.5220 H     1 <1>   0.0800 
 36 H       -2.2520    -6.6680     1.1720 H     1 <1>   0.0800 
 37 H       -1.5070    -7.1620    -0.3100 H     1 <1>   0.0800 
 38 H        1.7660     2.4100     0.2790 H     1 <1>   0.1500 
 39 H        5.5350     0.4520    -0.1260 H     1 <1>   0.1500 
 40 H       -4.8540    -4.4780    -0.5060 H     1 <1>   0.0800 
 41 H       -3.5010    -4.0480     0.4750 H     1 <1>   0.0800 
 42 H       -3.5690    -7.9580    -1.2770 H     1 <1>   0.0800 
 43 H       -4.9110    -6.9050    -1.5840 H     1 <1>   0.0800 
 44 H       -5.4850    -4.7550     1.7960 H     1 <1>   0.0800 
 45 H       -4.1180    -5.7960     2.1190 H     1 <1>   0.0800 
 46 H       -4.1440    -7.9810     1.1470 H     1 <1>   0.0800 
 47 H       -5.5400    -8.4220     0.1880 H     1 <1>   0.0800 
 48 H        4.5910     4.6600     0.8540 H     1 <1>   0.0800 
 49 H        3.2300     3.7900     1.5560 H     1 <1>   0.0800 
 50 H        3.2250     4.2170    -0.1650 H     1 <1>   0.0800 
@<TRIPOS>BOND
  1   1   2  ar  
  2   2   3  ar  
  3   2   4  1   
  4   4   5  1   
  5   4   6  2   
  6   5   7  2   
  7   5   8  1   
  8   6   9  1   
  9   6  10  1   
 10   7   9  1   
 11   8  11  1   
 12   8  12  1   
 13  10  13  ar  
 14  10  14  ar  
 15  11  15  1   
 16  11  28  1   
 17  11  29  1   
 18  12  16  1   
 19  12  30  1   
 20  12  31  1   
 21  13  17  ar  
 22  13  32  1   
 23  14  18  ar  
 24  14  33  1   
 25  15  19  1   
 26  15  34  1   
 27  15  35  1   
 28  16  19  1   
 29  16  36  1   
 30  16  37  1   
 31  17  20  ar  
 32  17  38  1   
 33  18  20  ar  
 34  18  39  1   
 35  19  21  1   
 36  19  22  1   
 37  20  23  1   
 38  21  24  1   
 39  21  40  1   
 40  21  41  1   
 41  22  25  1   
 42  22  42  1   
 43  22  43  1   
 44  23  26  1   
 45  24  27  1   
 46  24  44  1   
 47  24  45  1   
 48  25  27  1   
 49  25  46  1   
 50  25  47  1   
 51  26  48  1   
 52  26  49  1   
 53  26  50  1   
@<TRIPOS>SUBSTRUCTURE
  1 ****   4 GROUP 4 **** **** 0

# MOE 2024.06 (io_trps.svl 2023.06)
