@<TRIPOS>MOLECULE
NONAME
51 52 1 0 0 
SMALL
USER_CHARGES


@<TRIPOS>ATOM
  1 O       -1.7850    -0.4150     2.1600 O.2   1 <1>  -0.5700 
  2 C       -2.8130     0.2000     1.9710 C.2   1 <1>   0.7060 
  3 O       -3.3430     0.1970     0.7430 O.3   1 <1>  -0.2320 
  4 C       -3.4870     0.9300     2.9970 C.2   1 <1>  -0.1360 
  5 C       -4.4930     0.8460     0.4420 C.ar  1 <1>   0.0830 
  6 C       -4.6340     1.5970     2.7460 C.2   1 <1>  -0.1780 
  7 C       -5.1800     1.5670     1.4270 C.ar  1 <1>   0.0280 
  8 C       -4.9780     0.7850    -0.8530 C.ar  1 <1>  -0.1500 
  9 C       -6.3630     2.2140     1.0740 C.ar  1 <1>  -0.1500 
 10 C       -6.1580     1.4290    -1.1770 C.ar  1 <1>   0.0830 
 11 C       -6.8650     2.1470    -0.2150 C.ar  1 <1>  -0.1430 
 12 O       -6.6150     1.3770    -2.4390 O.3   1 <1>  -0.3630 
 13 C       -8.1810     2.8410    -0.5890 C.3   1 <1>   0.3430 
 14 C       -7.2260     0.1680    -2.8320 C.3   1 <1>   0.0400 
 15 O       -9.0690     2.6970     0.5010 O.3   1 <1>  -0.4300 
 16 C       -7.9500     4.3340    -0.9290 C.3   1 <1>   0.2000 
 17 C       -9.7870     1.5910     0.6900 C.2   1 <1>   0.7060 
 18 O       -7.0690     4.3990    -2.0210 O.3   1 <1>  -0.6800 
 19 C       -9.2270     5.1790    -1.2490 C.3   1 <1>   0.2800 
 20 O       -9.7020     0.6950    -0.1220 O.2   1 <1>  -0.5700 
 21 C      -10.6390     1.5470     1.8710 C.2   1 <1>  -0.1240 
 22 O      -10.0070     5.2990    -0.1190 O.3   1 <1>  -0.6800 
 23 C      -10.1240     4.5500    -2.3200 C.3   1 <1>  -0.2400 
 24 C       -8.8750     6.6200    -1.6380 C.3   1 <1>  -0.2400 
 25 C      -11.1560     0.4630     2.4910 C.2   1 <1>  -0.2880 
 26 C      -10.9810     2.9180     2.4560 C.3   1 <1>  -0.1020 
 27 C      -10.9670    -1.0070     2.1460 C.3   1 <1>  -0.1020 
 28 H       -3.0250     0.9100     3.9650 H     1 <1>   0.1500 
 29 H       -5.1600     2.1530     3.5030 H     1 <1>   0.1500 
 30 H       -4.4350     0.2400    -1.6030 H     1 <1>   0.1500 
 31 H       -6.8920     2.7690     1.8300 H     1 <1>   0.1500 
 32 H       -8.6350     2.3700    -1.4430 H     1 <1>   0.0800 
 33 H       -7.6000     0.2880    -3.8330 H     1 <1>   0.0800 
 34 H       -8.0380    -0.0480    -2.1580 H     1 <1>   0.0800 
 35 H       -6.4970    -0.6220    -2.8020 H     1 <1>   0.0800 
 36 H       -7.4360     4.7930    -0.1030 H     1 <1>   0.0800 
 37 H       -6.4640     3.6240    -2.0110 H     1 <1>   0.4000 
 38 H      -10.7740     5.8630    -0.3240 H     1 <1>   0.4000 
 39 H       -9.5560     4.3940    -3.2200 H     1 <1>   0.0800 
 40 H      -10.9510     5.1940    -2.5560 H     1 <1>   0.0800 
 41 H      -10.5060     3.6000    -1.9930 H     1 <1>   0.0800 
 42 H       -8.3150     6.6260    -2.5560 H     1 <1>   0.0800 
 43 H       -8.2660     7.0720    -0.8760 H     1 <1>   0.0800 
 44 H       -9.7590     7.2120    -1.7860 H     1 <1>   0.0800 
 45 H      -11.7930     0.5660     3.3530 H     1 <1>   0.1500 
 46 H      -11.4310     3.5380     1.7000 H     1 <1>   0.0800 
 47 H      -10.0900     3.4050     2.8100 H     1 <1>   0.0800 
 48 H      -11.6690     2.8380     3.2780 H     1 <1>   0.0800 
 49 H      -10.6270    -1.5420     3.0140 H     1 <1>   0.0800 
 50 H      -10.2460    -1.1560     1.3650 H     1 <1>   0.0800 
 51 H      -11.9040    -1.4300     1.8280 H     1 <1>   0.0800 
@<TRIPOS>BOND
  1   1   2  2   
  2   2   3  1   
  3   2   4  1   
  4   3   5  1   
  5   4   6  2   
  6   4  28  1   
  7   5   7  ar  
  8   5   8  ar  
  9   6   7  1   
 10   6  29  1   
 11   7   9  ar  
 12   8  10  ar  
 13   8  30  1   
 14   9  11  ar  
 15   9  31  1   
 16  10  11  ar  
 17  10  12  1   
 18  11  13  1   
 19  12  14  1   
 20  13  15  1   
 21  13  16  1   
 22  13  32  1   
 23  14  33  1   
 24  14  34  1   
 25  14  35  1   
 26  15  17  1   
 27  16  18  1   
 28  16  19  1   
 29  16  36  1   
 30  17  20  2   
 31  17  21  1   
 32  18  37  1   
 33  19  22  1   
 34  19  23  1   
 35  19  24  1   
 36  21  25  2   
 37  21  26  1   
 38  22  38  1   
 39  23  39  1   
 40  23  40  1   
 41  23  41  1   
 42  24  42  1   
 43  24  43  1   
 44  24  44  1   
 45  25  27  1   
 46  25  45  1   
 47  26  46  1   
 48  26  47  1   
 49  26  48  1   
 50  27  49  1   
 51  27  50  1   
 52  27  51  1   
@<TRIPOS>SUBSTRUCTURE
  1 ****  11 GROUP 4 **** **** 0

# MOE 2024.06 (io_trps.svl 2023.06)
