@<TRIPOS>MOLECULE
NONAME
49 52 1 0 0 
SMALL
USER_CHARGES


@<TRIPOS>ATOM
  1 O        0.3240    -0.0590     1.1890 O.3   1 <1>  -0.5600 
  2 C        0.2170    -1.4150     0.8430 C.3   1 <1>   0.1200 
  3 C        1.2320     0.6460     0.4000 C.3   1 <1>   0.1200 
  4 C        1.5830    -2.1280     0.9460 C.3   1 <1>   0.3340 
  5 C        2.6370     0.0370     0.5570 C.3   1 <1>   0.1900 
  6 N        2.6270    -1.3950     0.1790 N.3   1 <1>  -0.8100 
  7 C        1.4650    -3.5630     0.4410 C.ar  1 <1>  -0.1440 
  8 C        3.6580     0.8060    -0.3060 C.3   1 <1>   0.3430 
  9 C        3.9650    -2.0080     0.3260 C.3   1 <1>   0.1100 
 10 C        1.2840    -3.8300    -0.9090 C.ar  1 <1>  -0.1500 
 11 C        1.5430    -4.6230     1.3330 C.ar  1 <1>  -0.1500 
 12 N        5.0430     0.2090    -0.2180 N.4   1 <1>  -0.9590 
 13 C        5.0130    -1.2640    -0.5270 C.3   1 <1>   0.3430 
 14 C        1.1860    -5.1330    -1.3620 C.ar  1 <1>  -0.1500 
 15 C        1.4470    -5.9280     0.8820 C.ar  1 <1>  -0.1500 
 16 C        6.0150     0.9340    -1.0790 C.3   1 <1>   0.4860 
 17 C        1.2690    -6.1840    -0.4660 C.ar  1 <1>  -0.1500 
 18 C        6.0460     2.3920    -0.6510 C.ar  1 <1>  -0.1440 
 19 C        6.6620     2.7670     0.5340 C.ar  1 <1>  -0.1500 
 20 C        5.4420     3.3620    -1.4370 C.ar  1 <1>  -0.1500 
 21 C        6.6520     4.0920     0.9340 C.ar  1 <1>  -0.1500 
 22 C        5.4360     4.6850    -1.0300 C.ar  1 <1>  -0.1500 
 23 C        6.0340     5.0700     0.1640 C.ar  1 <1>   0.0730 
 24 C        6.0090     6.4400     0.5910 C.1   1 <1>   0.4840 
 25 N        5.9760     7.5260     0.9360 N.1   1 <1>  -0.5570 
 26 H       -0.4880    -1.8730     1.5140 H     1 <1>   0.0800 
 27 H       -0.1720    -1.4850    -0.1580 H     1 <1>   0.0800 
 28 H        0.9000     0.6070    -0.6240 H     1 <1>   0.0800 
 29 H        1.2190     1.6690     0.7330 H     1 <1>   0.0800 
 30 H        1.8600    -2.1460     1.9870 H     1 <1>   0.0800 
 31 H        2.9190     0.1360     1.5920 H     1 <1>   0.0800 
 32 H        3.6800     1.8340     0.0170 H     1 <1>   0.0800 
 33 H        3.3180     0.7850    -1.3280 H     1 <1>   0.0800 
 34 H        4.2630    -2.0050     1.3610 H     1 <1>   0.0800 
 35 H        3.9330    -3.0330    -0.0030 H     1 <1>   0.0800 
 36 H        1.2210    -3.0180    -1.6140 H     1 <1>   0.1500 
 37 H        1.6780    -4.4440     2.3860 H     1 <1>   0.1500 
 38 H        5.3520     0.3240     0.7540 H     1 <1>   0.4500 
 39 H        4.7630    -1.4130    -1.5640 H     1 <1>   0.0800 
 40 H        5.9830    -1.7000    -0.3520 H     1 <1>   0.0800 
 41 H        1.0440    -5.3320    -2.4100 H     1 <1>   0.1500 
 42 H        1.5080    -6.7460     1.5790 H     1 <1>   0.1500 
 43 H        6.9990     0.5080    -0.9730 H     1 <1>   0.0800 
 44 H        5.7210     0.8620    -2.1140 H     1 <1>   0.0800 
 45 H        1.1930    -7.1980    -0.8170 H     1 <1>   0.1500 
 46 H        7.1570     2.0420     1.1580 H     1 <1>   0.1500 
 47 H        4.9700     3.1050    -2.3720 H     1 <1>   0.1500 
 48 H        7.1320     4.3750     1.8580 H     1 <1>   0.1500 
 49 H        4.9630     5.4320    -1.6480 H     1 <1>   0.1500 
@<TRIPOS>BOND
  1   1   2  1   
  2   1   3  1   
  3   2   4  1   
  4   2  26  1   
  5   2  27  1   
  6   3   5  1   
  7   3  28  1   
  8   3  29  1   
  9   4   6  1   
 10   4   7  1   
 11   4  30  1   
 12   5   6  1   
 13   5   8  1   
 14   5  31  1   
 15   6   9  1   
 16   7  10  ar  
 17   7  11  ar  
 18   8  12  1   
 19   8  32  1   
 20   8  33  1   
 21   9  13  1   
 22   9  34  1   
 23   9  35  1   
 24  10  14  ar  
 25  10  36  1   
 26  11  15  ar  
 27  11  37  1   
 28  12  13  1   
 29  12  16  1   
 30  12  38  1   
 31  13  39  1   
 32  13  40  1   
 33  14  17  ar  
 34  14  41  1   
 35  15  17  ar  
 36  15  42  1   
 37  16  18  1   
 38  16  43  1   
 39  16  44  1   
 40  17  45  1   
 41  18  19  ar  
 42  18  20  ar  
 43  19  21  ar  
 44  19  46  1   
 45  20  22  ar  
 46  20  47  1   
 47  21  23  ar  
 48  21  48  1   
 49  22  23  ar  
 50  22  49  1   
 51  23  24  1   
 52  24  25  3   
@<TRIPOS>SUBSTRUCTURE
  1 ****   8 GROUP 4 **** **** 0

# MOE 2024.06 (io_trps.svl 2023.06)
