@<TRIPOS>MOLECULE
NONAME
41 43 1 0 0 
SMALL
USER_CHARGES


@<TRIPOS>ATOM
  1 O        1.4640     0.4650    -1.2020 O.3   1 <1>  -0.6800 
  2 C        1.6900     0.1200     0.1180 C.3   1 <1>   0.2800 
  3 C        3.2170     0.1460     0.4360 C.3   1 <1>  -0.0800 
  4 C        1.1320    -1.3050     0.2940 C.3   1 <1>  -0.1600 
  5 C        0.8850     1.1130     0.9850 C.3   1 <1>  -0.1600 
  6 C        3.9180    -1.2200     0.3710 C.3   1 <1>  -0.0800 
  7 C        4.0800     1.0520    -0.4520 C.3   1 <1>   0.2090 
  8 C        1.8490    -2.3600    -0.5770 C.3   1 <1>  -0.1600 
  9 C        1.2800     2.5940     0.8380 C.3   1 <1>  -0.2400 
 10 C        3.3490    -2.0720    -0.7750 C.3   1 <1>  -0.1600 
 11 C        5.4000    -0.8850     0.1890 C.3   1 <1>   0.2090 
 12 N        5.4490     0.4790    -0.4000 N.pl3 1 <1>  -0.8380 
 13 C        6.5480     1.3050    -0.2410 C.ar  1 <1>   0.4100 
 14 N        7.4480     0.9700     0.6760 N.ar  1 <1>  -0.6200 
 15 C        6.6780     2.4360    -1.0400 C.ar  1 <1>  -0.1500 
 16 C        8.4840     1.7770     0.8060 C.ar  1 <1>   0.1600 
 17 C        7.7580     3.2800    -0.9030 C.ar  1 <1>   0.0730 
 18 C        8.6840     2.9210     0.0610 C.ar  1 <1>  -0.1500 
 19 C        7.9200     4.4560    -1.7090 C.1   1 <1>   0.4840 
 20 N        8.0580     5.3950    -2.3400 N.1   1 <1>  -0.5570 
 21 H        0.5200     0.3440    -1.4080 H     1 <1>   0.4000 
 22 H        3.3410     0.4920     1.4460 H     1 <1>   0.0800 
 23 H        1.2560    -1.5820     1.3260 H     1 <1>   0.0800 
 24 H        0.0760    -1.3260     0.0930 H     1 <1>   0.0800 
 25 H       -0.1600     1.0130     0.7510 H     1 <1>   0.0800 
 26 H        0.9970     0.8360     2.0190 H     1 <1>   0.0800 
 27 H        3.7910    -1.7580     1.2940 H     1 <1>   0.0800 
 28 H        4.0670     2.0670    -0.0980 H     1 <1>   0.0800 
 29 H        3.7560     1.0290    -1.4770 H     1 <1>   0.0800 
 30 H        1.7260    -3.3260    -0.1180 H     1 <1>   0.0800 
 31 H        1.3820    -2.4020    -1.5460 H     1 <1>   0.0800 
 32 H        1.2230     2.9040    -0.1910 H     1 <1>   0.0800 
 33 H        2.2780     2.7620     1.1970 H     1 <1>   0.0800 
 34 H        0.6110     3.2080     1.4140 H     1 <1>   0.0800 
 35 H        3.4840    -1.5370    -1.7010 H     1 <1>   0.0800 
 36 H        3.8880    -3.0000    -0.8560 H     1 <1>   0.0800 
 37 H        5.8950    -1.5890    -0.4560 H     1 <1>   0.0800 
 38 H        5.8840    -0.8890     1.1510 H     1 <1>   0.0800 
 39 H        5.9220     2.6360    -1.7750 H     1 <1>   0.1500 
 40 H        9.2130     1.5080     1.5510 H     1 <1>   0.1500 
 41 H        9.5560     3.5270     0.2310 H     1 <1>   0.1500 
@<TRIPOS>BOND
  1   1   2  1   
  2   1  21  1   
  3   2   3  1   
  4   2   4  1   
  5   2   5  1   
  6   3   6  1   
  7   3   7  1   
  8   3  22  1   
  9   4   8  1   
 10   4  23  1   
 11   4  24  1   
 12   5   9  1   
 13   5  25  1   
 14   5  26  1   
 15   6  10  1   
 16   6  11  1   
 17   6  27  1   
 18   7  12  1   
 19   7  28  1   
 20   7  29  1   
 21   8  10  1   
 22   8  30  1   
 23   8  31  1   
 24   9  32  1   
 25   9  33  1   
 26   9  34  1   
 27  10  35  1   
 28  10  36  1   
 29  11  12  1   
 30  11  37  1   
 31  11  38  1   
 32  12  13  1   
 33  13  14  ar  
 34  13  15  ar  
 35  14  16  ar  
 36  15  17  ar  
 37  15  39  1   
 38  16  18  ar  
 39  16  40  1   
 40  17  18  ar  
 41  17  19  1   
 42  18  41  1   
 43  19  20  3   
@<TRIPOS>SUBSTRUCTURE
  1 ****   7 GROUP 4 **** **** 0

# MOE 2024.06 (io_trps.svl 2023.06)
