@<TRIPOS>MOLECULE
NONAME
48 51 1 0 0 
SMALL
USER_CHARGES


@<TRIPOS>ATOM
  1 O       -1.0900     0.0280     0.1090 O.2   1 <1>  -0.5700 
  2 C       -2.0190     0.7350     0.4250 C.2   1 <1>   0.5690 
  3 N       -3.1030     0.2150     1.0840 N.am  1 <1>  -0.6600 
  4 C       -1.9750     2.2190     0.0590 C.3   1 <1>  -0.0190 
  5 C       -4.3910     0.8900     1.3580 C.3   1 <1>   0.1400 
  6 C       -3.2620    -1.2280     1.3480 C.3   1 <1>   0.1400 
  7 C       -2.6620     2.5290    -1.2890 C.3   1 <1>  -0.0220 
  8 C       -0.5640     2.8480    -0.0220 C.3   1 <1>  -0.0220 
  9 C       -5.4590    -0.1820     1.1040 C.3   1 <1>  -0.0800 
 10 C       -4.7080    -1.5290     0.9500 C.3   1 <1>  -0.0800 
 11 C       -1.8330     3.6660    -1.8330 C.2   1 <1>  -0.2880 
 12 C       -0.7070     3.8390    -1.1520 C.2   1 <1>  -0.2880 
 13 C       -6.4270     0.1790    -0.0510 C.3   1 <1>   0.4240 
 14 C       -4.7710    -2.1230    -0.4700 C.3   1 <1>  -0.1600 
 15 O       -5.6880     0.6240    -1.1350 O.3   1 <1>  -0.6800 
 16 C       -7.4130     1.2830     0.3860 C.ar  1 <1>  -0.1440 
 17 C       -7.1490    -1.0920    -0.5300 C.3   1 <1>  -0.1600 
 18 C       -6.2050    -2.2110    -1.0260 C.3   1 <1>  -0.1600 
 19 C       -7.3740     2.5690    -0.1480 C.ar  1 <1>  -0.1500 
 20 C       -8.3760     1.0120     1.3540 C.ar  1 <1>  -0.1500 
 21 C       -8.2640     3.5450     0.2680 C.ar  1 <1>  -0.1500 
 22 C       -9.2680     1.9850     1.7720 C.ar  1 <1>  -0.1500 
 23 C       -9.2130     3.2540     1.2290 C.ar  1 <1>  -0.1500 
 24 H       -2.4960     2.7710     0.8190 H     1 <1>   0.0800 
 25 H       -4.4140     1.1970     2.3900 H     1 <1>   0.0800 
 26 H       -4.5340     1.7570     0.7390 H     1 <1>   0.0800 
 27 H       -2.5550    -1.8180     0.7890 H     1 <1>   0.0800 
 28 H       -3.1160    -1.4060     2.4000 H     1 <1>   0.0800 
 29 H       -2.6080     1.6870    -1.9580 H     1 <1>   0.0800 
 30 H       -3.6880     2.8180    -1.1490 H     1 <1>   0.0800 
 31 H       -0.3040     3.3320     0.9020 H     1 <1>   0.0800 
 32 H        0.1930     2.1270    -0.2790 H     1 <1>   0.0800 
 33 H       -6.0450    -0.2530     2.0020 H     1 <1>   0.0800 
 34 H       -5.1180    -2.2560     1.6310 H     1 <1>   0.0800 
 35 H       -2.1940     4.2080    -2.6910 H     1 <1>   0.1500 
 36 H        0.0790     4.5560    -1.3160 H     1 <1>   0.1500 
 37 H       -4.1680    -1.5210    -1.1300 H     1 <1>   0.0800 
 38 H       -4.3310    -3.1060    -0.4700 H     1 <1>   0.0800 
 39 H       -5.0830    -0.0970    -1.3860 H     1 <1>   0.4000 
 40 H       -7.7190    -1.4860     0.2910 H     1 <1>   0.0800 
 41 H       -7.8530    -0.8320    -1.3000 H     1 <1>   0.0800 
 42 H       -6.6330    -3.1610    -0.7540 H     1 <1>   0.0800 
 43 H       -6.1570    -2.1840    -2.1010 H     1 <1>   0.0800 
 44 H       -6.6510     2.8310    -0.9000 H     1 <1>   0.1500 
 45 H       -8.4460     0.0370     1.8000 H     1 <1>   0.1500 
 46 H       -8.2160     4.5310    -0.1610 H     1 <1>   0.1500 
 47 H      -10.0070     1.7540     2.5200 H     1 <1>   0.1500 
 48 H       -9.9060     4.0120     1.5510 H     1 <1>   0.1500 
@<TRIPOS>BOND
  1   1   2  2   
  2   2   3  am  
  3   2   4  1   
  4   3   5  1   
  5   3   6  1   
  6   4   7  1   
  7   4   8  1   
  8   4  24  1   
  9   5   9  1   
 10   5  25  1   
 11   5  26  1   
 12   6  10  1   
 13   6  27  1   
 14   6  28  1   
 15   7  11  1   
 16   7  29  1   
 17   7  30  1   
 18   8  12  1   
 19   8  31  1   
 20   8  32  1   
 21   9  10  1   
 22   9  13  1   
 23   9  33  1   
 24  10  14  1   
 25  10  34  1   
 26  11  12  2   
 27  11  35  1   
 28  12  36  1   
 29  13  15  1   
 30  13  16  1   
 31  13  17  1   
 32  14  18  1   
 33  14  37  1   
 34  14  38  1   
 35  15  39  1   
 36  16  19  ar  
 37  16  20  ar  
 38  17  18  1   
 39  17  40  1   
 40  17  41  1   
 41  18  42  1   
 42  18  43  1   
 43  19  21  ar  
 44  19  44  1   
 45  20  22  ar  
 46  20  45  1   
 47  21  23  ar  
 48  21  46  1   
 49  22  23  ar  
 50  22  47  1   
 51  23  48  1   
@<TRIPOS>SUBSTRUCTURE
  1 ****   5 GROUP 4 **** **** 0

# MOE 2024.06 (io_trps.svl 2023.06)
