@<TRIPOS>MOLECULE
NONAME
63 65 1 0 0 
SMALL
USER_CHARGES


@<TRIPOS>ATOM
  1 O        0.0160     2.0370    -1.5640 O.2   1 <1>  -0.5700 
  2 C       -0.3000     2.2720    -0.4180 C.2   1 <1>   0.5690 
  3 N       -1.2480     3.2090    -0.0970 N.am  1 <1>  -0.6600 
  4 C        0.4300     1.4620     0.6680 C.3   1 <1>   0.4040 
  5 C       -1.9580     3.9900    -1.1500 C.3   1 <1>   0.1400 
  6 C       -1.7340     3.5290     1.2760 C.3   1 <1>   0.1400 
  7 N        1.7320     0.8600     0.1890 N.4   1 <1>  -0.9590 
  8 C       -3.4540     3.6680    -1.0900 C.3   1 <1>  -0.1600 
  9 C       -3.2260     3.2030     1.3700 C.3   1 <1>  -0.1600 
 10 C        2.1630    -0.2790     1.0430 C.3   1 <1>   0.3430 
 11 C        2.7500     1.9290    -0.0230 C.3   1 <1>   0.3430 
 12 C       -4.0590     3.9440     0.3060 C.3   1 <1>   0.2800 
 13 C        2.9760    -1.2720     0.2130 C.3   1 <1>  -0.1600 
 14 C        3.9960     1.4140    -0.7470 C.3   1 <1>  -0.1600 
 15 O       -3.8580     5.3160     0.5580 O.3   1 <1>  -0.5600 
 16 C       -5.5630     3.5290     0.4250 C.3   1 <1>   0.2000 
 17 C        4.4810    -0.9670     0.1240 C.3   1 <1>  -0.1600 
 18 C        4.8790     0.5160     0.1310 C.3   1 <1>  -0.1600 
 19 C       -4.9530     6.1720     0.6910 C.3   1 <1>   0.1200 
 20 O       -5.7340     2.1970     0.0140 O.3   1 <1>  -0.6800 
 21 C       -6.5790     4.5030    -0.2690 C.3   1 <1>   0.3000 
 22 C       -5.9450     5.8960    -0.4360 C.3   1 <1>  -0.1600 
 23 N       -7.7790     4.7200     0.5790 N.am  1 <1>  -0.7300 
 24 C       -7.0830     4.0380    -1.6460 C.3   1 <1>  -0.2400 
 25 C       -8.6380     3.9140     1.2470 C.2   1 <1>   0.5690 
 26 O       -9.5410     4.4250     1.8570 O.2   1 <1>  -0.5700 
 27 C       -8.5310     2.4100     1.2700 C.3   1 <1>  -0.1790 
 28 H       -0.2350     0.6750     0.9770 H     1 <1>   0.0800 
 29 H        0.6160     2.0980     1.5140 H     1 <1>   0.0800 
 30 H       -1.8010     5.0420    -0.9800 H     1 <1>   0.0800 
 31 H       -1.5770     3.7530    -2.1290 H     1 <1>   0.0800 
 32 H       -1.2000     2.9760     2.0260 H     1 <1>   0.0800 
 33 H       -1.5810     4.5790     1.4670 H     1 <1>   0.0800 
 34 H        1.5150     0.5010    -0.7560 H     1 <1>   0.4500 
 35 H       -3.5750     2.6320    -1.3480 H     1 <1>   0.0800 
 36 H       -3.9610     4.2460    -1.8380 H     1 <1>   0.0800 
 37 H       -3.5870     3.4660     2.3480 H     1 <1>   0.0800 
 38 H       -3.3580     2.1410     1.2550 H     1 <1>   0.0800 
 39 H        2.7350     0.0670     1.8890 H     1 <1>   0.0800 
 40 H        1.2900    -0.7920     1.4130 H     1 <1>   0.0800 
 41 H        2.3160     2.7120    -0.6250 H     1 <1>   0.0800 
 42 H        3.0380     2.3580     0.9230 H     1 <1>   0.0800 
 43 H        2.8720    -2.2450     0.6610 H     1 <1>   0.0800 
 44 H        2.5580    -1.3450    -0.7760 H     1 <1>   0.0800 
 45 H        3.7310     0.9240    -1.6680 H     1 <1>   0.0800 
 46 H        4.5790     2.2790    -1.0120 H     1 <1>   0.0800 
 47 H       -5.7870     3.5380     1.4770 H     1 <1>   0.0800 
 48 H        4.9840    -1.4460     0.9480 H     1 <1>   0.0800 
 49 H        4.8620    -1.4250    -0.7740 H     1 <1>   0.0800 
 50 H        5.8950     0.5800    -0.2250 H     1 <1>   0.0800 
 51 H        4.8860     0.8880     1.1420 H     1 <1>   0.0800 
 52 H       -5.3980     6.0190     1.6600 H     1 <1>   0.0800 
 53 H       -4.5830     7.1820     0.6340 H     1 <1>   0.0800 
 54 H       -5.7370     2.1420    -0.9610 H     1 <1>   0.4000 
 55 H       -6.7000     6.6610    -0.4560 H     1 <1>   0.0800 
 56 H       -5.4110     5.9680    -1.3660 H     1 <1>   0.0800 
 57 H       -8.0540     5.7000     0.6420 H     1 <1>   0.3700 
 58 H       -6.2620     3.8890    -2.3220 H     1 <1>   0.0800 
 59 H       -7.7350     4.7800    -2.0720 H     1 <1>   0.0800 
 60 H       -7.6300     3.1170    -1.5710 H     1 <1>   0.0800 
 61 H       -8.4200     2.0230     0.2770 H     1 <1>   0.0800 
 62 H       -9.4240     1.9940     1.6980 H     1 <1>   0.0800 
 63 H       -7.6960     2.1120     1.8740 H     1 <1>   0.0800 
@<TRIPOS>BOND
  1   1   2  2   
  2   2   3  am  
  3   2   4  1   
  4   3   5  1   
  5   3   6  1   
  6   4   7  1   
  7   4  28  1   
  8   4  29  1   
  9   5   8  1   
 10   5  30  1   
 11   5  31  1   
 12   6   9  1   
 13   6  32  1   
 14   6  33  1   
 15   7  10  1   
 16   7  11  1   
 17   7  34  1   
 18   8  12  1   
 19   8  35  1   
 20   8  36  1   
 21   9  12  1   
 22   9  37  1   
 23   9  38  1   
 24  10  13  1   
 25  10  39  1   
 26  10  40  1   
 27  11  14  1   
 28  11  41  1   
 29  11  42  1   
 30  12  15  1   
 31  12  16  1   
 32  13  17  1   
 33  13  43  1   
 34  13  44  1   
 35  14  18  1   
 36  14  45  1   
 37  14  46  1   
 38  15  19  1   
 39  16  20  1   
 40  16  21  1   
 41  16  47  1   
 42  17  18  1   
 43  17  48  1   
 44  17  49  1   
 45  18  50  1   
 46  18  51  1   
 47  19  22  1   
 48  19  52  1   
 49  19  53  1   
 50  20  54  1   
 51  21  22  1   
 52  21  23  1   
 53  21  24  1   
 54  22  55  1   
 55  22  56  1   
 56  23  25  am  
 57  23  57  1   
 58  24  58  1   
 59  24  59  1   
 60  24  60  1   
 61  25  26  2   
 62  25  27  1   
 63  27  61  1   
 64  27  62  1   
 65  27  63  1   
@<TRIPOS>SUBSTRUCTURE
  1 ****   3 GROUP 4 **** **** 0

# MOE 2024.06 (io_trps.svl 2023.06)
