@<TRIPOS>MOLECULE
NONAME
49 52 1 0 0 
SMALL
USER_CHARGES


@<TRIPOS>ATOM
  1 O       -0.3790    -1.2380    -0.2950 O.2   1 <1>  -0.5700 
  2 C       -1.1580    -0.3150    -0.3160 C.2   1 <1>   0.5690 
  3 N       -2.3080    -0.3350     0.4260 N.am  1 <1>  -0.6600 
  4 C       -0.8180     0.8780    -1.2010 C.3   1 <1>   0.0440 
  5 C       -3.3360     0.7270     0.4880 C.3   1 <1>   0.1400 
  6 C       -2.7120    -1.4810     1.2600 C.3   1 <1>   0.1400 
  7 C       -0.7170     2.1890    -0.4270 C.ar  1 <1>  -0.1440 
  8 C       -4.6150     0.0290     0.9660 C.3   1 <1>  -0.0800 
  9 C       -4.2420    -1.4440     1.2650 C.3   1 <1>  -0.0800 
 10 C        0.0700     2.2740     0.7140 C.ar  1 <1>   0.1600 
 11 C       -1.4120     3.3080    -0.8400 C.ar  1 <1>  -0.1500 
 12 C       -5.8300     0.2330     0.0260 C.3   1 <1>   0.4240 
 13 C       -4.8330    -2.4460     0.2560 C.3   1 <1>  -0.1600 
 14 N        0.2090     3.3600     1.4590 N.ar  1 <1>  -0.6200 
 15 C       -1.2770     4.4470    -0.0750 C.ar  1 <1>  -0.1500 
 16 O       -5.4300     0.0330    -1.2850 O.3   1 <1>  -0.6800 
 17 C       -6.4030     1.6590     0.1740 C.ar  1 <1>  -0.1440 
 18 C       -6.8800    -0.8550     0.3040 C.3   1 <1>  -0.1600 
 19 C       -6.3600    -2.2980     0.0980 C.3   1 <1>  -0.1600 
 20 C       -0.4670     4.4190     1.0470 C.ar  1 <1>   0.1600 
 21 C       -6.3080     2.6090    -0.8400 C.ar  1 <1>  -0.1500 
 22 C       -7.0290     2.0370     1.3590 C.ar  1 <1>  -0.1500 
 23 C       -6.8200     3.8850    -0.6780 C.ar  1 <1>  -0.1500 
 24 C       -7.5420     3.3110     1.5260 C.ar  1 <1>  -0.1500 
 25 C       -7.4380     4.2380     0.5060 C.ar  1 <1>  -0.1500 
 26 H        0.1220     0.6900    -1.6860 H     1 <1>   0.0800 
 27 H       -1.5670     0.9500    -1.9660 H     1 <1>   0.0800 
 28 H       -3.0330     1.4760     1.2000 H     1 <1>   0.0800 
 29 H       -3.4600     1.1960    -0.4720 H     1 <1>   0.0800 
 30 H       -2.3270    -2.4070     0.8640 H     1 <1>   0.0800 
 31 H       -2.3290    -1.3350     2.2550 H     1 <1>   0.0800 
 32 H       -4.8660     0.4730     1.9120 H     1 <1>   0.0800 
 33 H       -4.5950    -1.7170     2.2450 H     1 <1>   0.0800 
 34 H        0.6130     1.4000     1.0350 H     1 <1>   0.1500 
 35 H       -2.0360     3.3020    -1.7170 H     1 <1>   0.1500 
 36 H       -4.3550    -2.3060    -0.6980 H     1 <1>   0.0800 
 37 H       -4.6060    -3.4510     0.5690 H     1 <1>   0.0800 
 38 H       -1.7950     5.3500    -0.3430 H     1 <1>   0.1500 
 39 H       -5.1270    -0.8900    -1.3560 H     1 <1>   0.4000 
 40 H       -7.2000    -0.7640     1.3250 H     1 <1>   0.0800 
 41 H       -7.7470    -0.6820    -0.3100 H     1 <1>   0.0800 
 42 H       -6.8550    -2.9400     0.8070 H     1 <1>   0.0800 
 43 H       -6.6380    -2.6400    -0.8840 H     1 <1>   0.0800 
 44 H       -0.3700     5.3150     1.6360 H     1 <1>   0.1500 
 45 H       -5.8350     2.3670    -1.7760 H     1 <1>   0.1500 
 46 H       -7.1240     1.3420     2.1740 H     1 <1>   0.1500 
 47 H       -6.7380     4.6010    -1.4760 H     1 <1>   0.1500 
 48 H       -8.0230     3.5820     2.4490 H     1 <1>   0.1500 
 49 H       -7.8380     5.2290     0.6330 H     1 <1>   0.1500 
@<TRIPOS>BOND
  1   1   2  2   
  2   2   3  am  
  3   2   4  1   
  4   3   5  1   
  5   3   6  1   
  6   4   7  1   
  7   4  26  1   
  8   4  27  1   
  9   5   8  1   
 10   5  28  1   
 11   5  29  1   
 12   6   9  1   
 13   6  30  1   
 14   6  31  1   
 15   7  10  ar  
 16   7  11  ar  
 17   8   9  1   
 18   8  12  1   
 19   8  32  1   
 20   9  13  1   
 21   9  33  1   
 22  10  14  ar  
 23  10  34  1   
 24  11  15  ar  
 25  11  35  1   
 26  12  16  1   
 27  12  17  1   
 28  12  18  1   
 29  13  19  1   
 30  13  36  1   
 31  13  37  1   
 32  14  20  ar  
 33  15  20  ar  
 34  15  38  1   
 35  16  39  1   
 36  17  21  ar  
 37  17  22  ar  
 38  18  19  1   
 39  18  40  1   
 40  18  41  1   
 41  19  42  1   
 42  19  43  1   
 43  20  44  1   
 44  21  23  ar  
 45  21  45  1   
 46  22  24  ar  
 47  22  46  1   
 48  23  25  ar  
 49  23  47  1   
 50  24  25  ar  
 51  24  48  1   
 52  25  49  1   
@<TRIPOS>SUBSTRUCTURE
  1 ****   5 GROUP 4 **** **** 0

# MOE 2024.06 (io_trps.svl 2023.06)
