@<TRIPOS>MOLECULE
NONAME
33 33 1 0 0 
SMALL
USER_CHARGES


@<TRIPOS>ATOM
  1 N       -0.4280    -0.4470     0.3320 N.4   1 <1>  -0.9060 
  2 C       -1.1060    -0.7900    -0.9350 C.3   1 <1>   0.4860 
  3 C       -0.1650     1.0110     0.5000 C.3   1 <1>   0.2630 
  4 C       -1.2930    -2.2880    -0.9160 C.ar  1 <1>  -0.1430 
  5 C       -2.4310    -2.8390    -0.3440 C.ar  1 <1>  -0.1500 
  6 C       -0.3230    -3.1160    -1.4560 C.ar  1 <1>  -0.1500 
  7 C       -2.6190    -4.2170    -0.2900 C.ar  1 <1>  -0.1430 
  8 C       -0.4930    -4.4850    -1.4120 C.ar  1 <1>  -0.1500 
  9 C       -1.6270    -5.0250    -0.8340 C.ar  1 <1>  -0.1500 
 10 C       -3.8700    -4.8780     0.3350 C.3   1 <1>   0.1430 
 11 C       -4.5980    -5.7090    -0.7320 C.3   1 <1>  -0.2400 
 12 C       -4.8800    -3.8630     0.8980 C.3   1 <1>  -0.2400 
 13 C       -3.4440    -5.7950     1.4920 C.3   1 <1>  -0.2400 
 14 H        0.4430    -0.9920     0.3710 H     1 <1>   0.4500 
 15 H       -1.0080    -0.8140     1.0980 H     1 <1>   0.4500 
 16 H       -0.5030    -0.5030    -1.7810 H     1 <1>   0.0800 
 17 H       -2.0640    -0.2990    -1.0010 H     1 <1>   0.0800 
 18 H        0.4670     1.3740    -0.2950 H     1 <1>   0.0800 
 19 H        0.3290     1.1950     1.4410 H     1 <1>   0.0800 
 20 H       -1.0910     1.5650     0.4860 H     1 <1>   0.0800 
 21 H       -3.1770    -2.1780     0.0580 H     1 <1>   0.1500 
 22 H        0.5660    -2.7180    -1.9160 H     1 <1>   0.1500 
 23 H        0.2550    -5.1380    -1.8300 H     1 <1>   0.1500 
 24 H       -1.7270    -6.0960    -0.8180 H     1 <1>   0.1500 
 25 H       -4.8720    -5.0850    -1.5630 H     1 <1>   0.0800 
 26 H       -5.4910    -6.1500    -0.3260 H     1 <1>   0.0800 
 27 H       -3.9750    -6.5040    -1.0990 H     1 <1>   0.0800 
 28 H       -5.2400    -3.2150     0.1200 H     1 <1>   0.0800 
 29 H       -4.4310    -3.2720     1.6760 H     1 <1>   0.0800 
 30 H       -5.7280    -4.3730     1.3200 H     1 <1>   0.0800 
 31 H       -2.8110    -6.5910     1.1450 H     1 <1>   0.0800 
 32 H       -4.3040    -6.2390     1.9610 H     1 <1>   0.0800 
 33 H       -2.9040    -5.2320     2.2320 H     1 <1>   0.0800 
@<TRIPOS>BOND
  1   1   2  1   
  2   1   3  1   
  3   1  14  1   
  4   1  15  1   
  5   2   4  1   
  6   2  16  1   
  7   2  17  1   
  8   3  18  1   
  9   3  19  1   
 10   3  20  1   
 11   4   5  ar  
 12   4   6  ar  
 13   5   7  ar  
 14   5  21  1   
 15   6   8  ar  
 16   6  22  1   
 17   7   9  ar  
 18   7  10  1   
 19   8   9  ar  
 20   8  23  1   
 21   9  24  1   
 22  10  11  1   
 23  10  12  1   
 24  10  13  1   
 25  11  25  1   
 26  11  26  1   
 27  11  27  1   
 28  12  28  1   
 29  12  29  1   
 30  12  30  1   
 31  13  31  1   
 32  13  32  1   
 33  13  33  1   
@<TRIPOS>SUBSTRUCTURE
  1 ****   5 GROUP 4 **** **** 0

# MOE 2024.06 (io_trps.svl 2023.06)
