@<TRIPOS>MOLECULE
NONAME
38 40 1 0 0 
SMALL
USER_CHARGES


@<TRIPOS>ATOM
  1 CL      -0.3090     0.3080    -0.0160 Cl    1 <1>  -0.1770 
  2 C       -1.8520    -0.5050    -0.1630 C.ar  1 <1>   0.1770 
  3 C       -2.1450    -1.2770    -1.2590 C.ar  1 <1>   0.1600 
  4 C       -2.8090    -0.3900     0.8150 C.ar  1 <1>   0.1600 
  5 N       -3.2970    -1.8950    -1.3790 N.ar  1 <1>  -0.6200 
  6 N       -3.9710    -0.9970     0.7200 N.ar  1 <1>  -0.6200 
  7 C       -4.1650    -1.7410    -0.3740 C.ar  1 <1>   0.7200 
  8 N       -5.3620    -2.4040    -0.4720 N.pl3 1 <1>  -0.8380 
  9 C       -5.5050    -3.6950    -1.2300 C.3   1 <1>   0.2090 
 10 C       -6.6250    -1.8520     0.0800 C.3   1 <1>   0.2090 
 11 C       -6.1570    -4.7860    -0.3570 C.3   1 <1>  -0.1060 
 12 C       -7.3070    -2.8930     0.9630 C.3   1 <1>  -0.1600 
 13 C       -6.5400    -5.9730    -1.2400 C.2   1 <1>   0.9060 
 14 C       -7.4780    -4.2050     0.1960 C.3   1 <1>   0.2000 
 15 C       -5.1910    -5.2490     0.7750 C.3   1 <1>  -0.0650 
 16 O       -7.2280    -6.8780    -0.7430 O.co2 1 <1>  -0.9000 
 17 O       -6.2070    -6.0010    -2.4310 O.co2 1 <1>  -0.9000 
 18 O       -8.0910    -5.1170     1.0340 O.3   1 <1>  -0.6800 
 19 C       -3.8830    -5.8860     0.2770 C.3   1 <1>  -0.1950 
 20 C       -2.7420    -6.0940     1.2200 C.3   1 <1>  -0.2000 
 21 C       -2.6350    -5.0770     0.1220 C.3   1 <1>  -0.2000 
 22 H       -1.4210    -1.3870    -2.0470 H     1 <1>   0.1500 
 23 H       -2.6130     0.2100     1.6850 H     1 <1>   0.1500 
 24 H       -6.1190    -3.5140    -2.0960 H     1 <1>   0.0800 
 25 H       -4.5530    -4.0450    -1.5890 H     1 <1>   0.0800 
 26 H       -6.4430    -0.9570     0.6490 H     1 <1>   0.0800 
 27 H       -7.2730    -1.5950    -0.7400 H     1 <1>   0.0800 
 28 H       -8.2710    -2.5260     1.2600 H     1 <1>   0.0800 
 29 H       -6.7160    -3.0470     1.8460 H     1 <1>   0.0800 
 30 H       -8.1510    -4.0430    -0.6300 H     1 <1>   0.0800 
 31 H       -4.9510    -4.4190     1.4130 H     1 <1>   0.0800 
 32 H       -5.6940    -5.9830     1.3790 H     1 <1>   0.0800 
 33 H       -7.9910    -6.0020     0.5740 H     1 <1>   0.4000 
 34 H       -4.0570    -6.6760    -0.4370 H     1 <1>   0.1000 
 35 H       -2.8420    -5.7500     2.2350 H     1 <1>   0.1000 
 36 H       -2.1780    -7.0070     1.1440 H     1 <1>   0.1000 
 37 H       -2.0180    -5.2750    -0.7370 H     1 <1>   0.1000 
 38 H       -2.6600    -4.0340     0.3820 H     1 <1>   0.1000 
@<TRIPOS>BOND
  1   1   2  1   
  2   2   3  ar  
  3   2   4  ar  
  4   3   5  ar  
  5   3  22  1   
  6   4   6  ar  
  7   4  23  1   
  8   5   7  ar  
  9   6   7  ar  
 10   7   8  1   
 11   8   9  1   
 12   8  10  1   
 13   9  11  1   
 14   9  24  1   
 15   9  25  1   
 16  10  12  1   
 17  10  26  1   
 18  10  27  1   
 19  11  13  1   
 20  11  14  1   
 21  11  15  1   
 22  12  14  1   
 23  12  28  1   
 24  12  29  1   
 25  13  16  ar  
 26  13  17  ar  
 27  14  18  1   
 28  14  30  1   
 29  15  19  1   
 30  15  31  1   
 31  15  32  1   
 32  18  33  1   
 33  19  20  1   
 34  19  21  1   
 35  19  34  1   
 36  20  21  1   
 37  20  35  1   
 38  20  36  1   
 39  21  37  1   
 40  21  38  1   
@<TRIPOS>SUBSTRUCTURE
  1 ****   8 GROUP 4 **** **** 0

# MOE 2024.06 (io_trps.svl 2023.06)
