@<TRIPOS>MOLECULE
NONAME
54 56 1 0 0 
SMALL
USER_CHARGES


@<TRIPOS>ATOM
  1 O       -1.7930    -0.8840    -2.6290 O.2   1 <1>  -0.5700 
  2 C       -1.9640    -1.2020    -1.4800 C.2   1 <1>   0.5690 
  3 N       -1.7270    -0.3450    -0.4420 N.am  1 <1>  -0.6600 
  4 C       -2.5000    -2.5860    -1.2180 C.3   1 <1>  -0.0190 
  5 C       -1.9920    -0.7020     0.9800 C.3   1 <1>   0.2200 
  6 C       -1.1260     1.0050    -0.6740 C.3   1 <1>   0.0600 
  7 C       -1.5380    -3.4320    -0.3570 C.3   1 <1>   0.1200 
  8 C       -3.9500    -2.4680    -0.7340 C.3   1 <1>   0.3430 
  9 C       -1.1130    -1.8970     1.4240 C.3   1 <1>   0.1200 
 10 C       -3.5130    -0.9020     1.2290 C.3   1 <1>   0.3430 
 11 O       -1.6230    -3.1390     1.0110 O.3   1 <1>  -0.5600 
 12 N       -4.0760    -2.2100     0.7390 N.4   1 <1>  -0.9590 
 13 C       -5.4430    -2.4810     1.2530 C.3   1 <1>   0.4860 
 14 C       -5.7670    -3.9410     1.0020 C.ar  1 <1>  -0.1440 
 15 C       -6.7230    -4.2840     0.0590 C.ar  1 <1>  -0.1500 
 16 C       -5.1070    -4.9440     1.6960 C.ar  1 <1>  -0.1500 
 17 C       -7.0220    -5.6120    -0.2050 C.ar  1 <1>  -0.1440 
 18 C       -5.3950    -6.2720     1.4400 C.ar  1 <1>  -0.1500 
 19 C       -6.3510    -6.6160     0.4870 C.ar  1 <1>   0.0820 
 20 C       -8.0780    -5.9450    -1.2530 C.3   1 <1>   0.2630 
 21 O       -6.6650    -7.9030     0.1950 O.3   1 <1>  -0.3630 
 22 O       -9.2280    -5.2350    -0.9570 O.3   1 <1>  -0.6800 
 23 C       -6.1150    -8.9910     0.9040 C.3   1 <1>   0.1200 
 24 C       -6.7260   -10.2790     0.3510 C.3   1 <1>  -0.1600 
 25 C       -6.1740   -11.5130     1.0730 C.3   1 <1>  -0.2400 
 26 H       -2.5420    -3.0660    -2.1790 H     1 <1>   0.0800 
 27 H       -1.6890     0.1410     1.5780 H     1 <1>   0.0800 
 28 H       -1.7950     1.7730    -0.3260 H     1 <1>   0.0800 
 29 H       -0.9400     1.1710    -1.7230 H     1 <1>   0.0800 
 30 H       -0.1890     1.0860    -0.1510 H     1 <1>   0.0800 
 31 H       -0.5170    -3.3000    -0.6790 H     1 <1>   0.0800 
 32 H       -1.7860    -4.4740    -0.4660 H     1 <1>   0.0800 
 33 H       -4.4410    -3.3990    -0.9660 H     1 <1>   0.0800 
 34 H       -4.4500    -1.6910    -1.2900 H     1 <1>   0.0800 
 35 H       -1.0730    -1.9260     2.4990 H     1 <1>   0.0800 
 36 H       -0.1050    -1.7900     1.0590 H     1 <1>   0.0800 
 37 H       -4.0460    -0.0820     0.7760 H     1 <1>   0.0800 
 38 H       -3.6730    -0.8440     2.2930 H     1 <1>   0.0800 
 39 H       -3.4530    -2.9320     1.1520 H     1 <1>   0.4500 
 40 H       -5.4900    -2.2870     2.3120 H     1 <1>   0.0800 
 41 H       -6.1620    -1.8510     0.7550 H     1 <1>   0.0800 
 42 H       -7.2550    -3.5200    -0.4850 H     1 <1>   0.1500 
 43 H       -4.3640    -4.7100     2.4400 H     1 <1>   0.1500 
 44 H       -4.8650    -7.0260     1.9920 H     1 <1>   0.1500 
 45 H       -8.3290    -6.9920    -1.2690 H     1 <1>   0.0800 
 46 H       -7.7450    -5.6500    -2.2330 H     1 <1>   0.0800 
 47 H       -9.5480    -5.5070    -0.0750 H     1 <1>   0.4000 
 48 H       -5.0480    -8.9870     0.7610 H     1 <1>   0.0800 
 49 H       -6.3540    -8.8740     1.9470 H     1 <1>   0.0800 
 50 H       -7.7950   -10.2450     0.4760 H     1 <1>   0.0800 
 51 H       -6.5040   -10.3540    -0.6990 H     1 <1>   0.0800 
 52 H       -6.4010   -11.4680     2.1250 H     1 <1>   0.0800 
 53 H       -5.1070   -11.5780     0.9490 H     1 <1>   0.0800 
 54 H       -6.6190   -12.4040     0.6670 H     1 <1>   0.0800 
@<TRIPOS>BOND
  1   1   2  2   
  2   2   3  am  
  3   2   4  1   
  4   3   5  1   
  5   3   6  1   
  6   4   7  1   
  7   4   8  1   
  8   4  26  1   
  9   5   9  1   
 10   5  10  1   
 11   5  27  1   
 12   6  28  1   
 13   6  29  1   
 14   6  30  1   
 15   7  11  1   
 16   7  31  1   
 17   7  32  1   
 18   8  12  1   
 19   8  33  1   
 20   8  34  1   
 21   9  11  1   
 22   9  35  1   
 23   9  36  1   
 24  10  12  1   
 25  10  37  1   
 26  10  38  1   
 27  12  13  1   
 28  12  39  1   
 29  13  14  1   
 30  13  40  1   
 31  13  41  1   
 32  14  15  ar  
 33  14  16  ar  
 34  15  17  ar  
 35  15  42  1   
 36  16  18  ar  
 37  16  43  1   
 38  17  19  ar  
 39  17  20  1   
 40  18  19  ar  
 41  18  44  1   
 42  19  21  1   
 43  20  22  1   
 44  20  45  1   
 45  20  46  1   
 46  21  23  1   
 47  22  47  1   
 48  23  24  1   
 49  23  48  1   
 50  23  49  1   
 51  24  25  1   
 52  24  50  1   
 53  24  51  1   
 54  25  52  1   
 55  25  53  1   
 56  25  54  1   
@<TRIPOS>SUBSTRUCTURE
  1 ****  14 GROUP 4 **** **** 0

# MOE 2024.06 (io_trps.svl 2023.06)
