@<TRIPOS>MOLECULE
NONAME
45 47 1 0 0 
SMALL
USER_CHARGES


@<TRIPOS>ATOM
  1 O        1.3290    -0.0920    -1.6730 O.2   1 <1>  -0.5700 
  2 C        1.2470    -0.6990    -0.6330 C.2   1 <1>   0.5690 
  3 N        1.7460    -0.2070     0.5280 N.am  1 <1>  -0.7300 
  4 C        0.5740    -2.0490    -0.6220 C.3   1 <1>  -0.0990 
  5 C        2.4790     1.0760     0.6380 C.3   1 <1>   0.1400 
  6 C        1.5630    -3.1490    -1.0170 C.3   1 <1>   0.0200 
  7 C        1.4930     2.2400     0.7400 C.3   1 <1>   0.0200 
  8 C        0.8980    -4.5070    -0.9260 C.2   1 <1>   0.0060 
  9 C        2.2400     3.5540     0.6510 C.2   1 <1>   0.0070 
 10 N        0.8430    -5.1980     0.1560 N.2   1 <1>  -0.5650 
 11 N        0.2940    -5.0990    -1.9860 N.pl3 1 <1>   0.0330 
 12 N        2.7570     4.1800     1.6470 N.2   1 <1>  -0.3380 
 13 N        2.4520     4.2090    -0.4970 N.pl3 1 <1>   0.0330 
 14 C        0.1610    -6.3320    -0.1920 C.ar  1 <1>   0.2270 
 15 C       -0.1890    -6.2790    -1.5280 C.ar  1 <1>  -0.1520 
 16 N        3.3310     5.2910     1.1610 N.2   1 <1>  -0.3380 
 17 C        3.1390     5.2860    -0.1150 C.2   1 <1>   0.2710 
 18 C       -0.1930    -7.4420     0.5880 C.ar  1 <1>  -0.1440 
 19 C       -0.8990    -7.3130    -2.1340 C.ar  1 <1>  -0.1500 
 20 N        3.5930     6.2690    -0.9650 N.pl3 1 <1>  -0.8840 
 21 C       -0.9080    -8.4700    -0.0050 C.ar  1 <1>  -0.1440 
 22 C        0.2260    -7.4560     2.0540 C.3   1 <1>  -0.0970 
 23 C       -1.2510    -8.3980    -1.3640 C.ar  1 <1>  -0.1500 
 24 C       -1.3470    -9.7010     0.7750 C.3   1 <1>  -0.0970 
 25 H        1.6510    -0.7490     1.3910 H     1 <1>   0.3700 
 26 H       -0.2490    -2.0340    -1.3130 H     1 <1>   0.0800 
 27 H        0.1820    -2.2520     0.3580 H     1 <1>   0.0800 
 28 H        3.0940     1.2040    -0.2370 H     1 <1>   0.0800 
 29 H        3.1220     1.0600     1.5020 H     1 <1>   0.0800 
 30 H        2.4040    -3.1340    -0.3450 H     1 <1>   0.0800 
 31 H        1.9310    -2.9790    -2.0140 H     1 <1>   0.0800 
 32 H        0.9760     2.1920     1.6820 H     1 <1>   0.0800 
 33 H        0.7710     2.1850    -0.0550 H     1 <1>   0.0800 
 34 H        0.2130    -4.7390    -2.9390 H     1 <1>   0.2700 
 35 H        2.1470     3.9810    -1.4420 H     1 <1>   0.2700 
 36 H       -1.1630    -7.2580    -3.1750 H     1 <1>   0.1500 
 37 H        3.9720     7.0530    -0.4240 H     1 <1>   0.4000 
 38 H        4.3090     5.9500    -1.6220 H     1 <1>   0.4000 
 39 H        1.1550    -6.9300     2.1800 H     1 <1>   0.0800 
 40 H        0.3670    -8.4570     2.4160 H     1 <1>   0.0800 
 41 H       -0.5250    -6.9680     2.6480 H     1 <1>   0.0800 
 42 H       -1.8000    -9.2060    -1.8130 H     1 <1>   0.1500 
 43 H       -1.7880    -9.4110     1.7110 H     1 <1>   0.0800 
 44 H       -0.4990   -10.3330     0.9660 H     1 <1>   0.0800 
 45 H       -2.0790   -10.2660     0.2260 H     1 <1>   0.0800 
@<TRIPOS>BOND
  1   1   2  2   
  2   2   3  am  
  3   2   4  1   
  4   3   5  1   
  5   3  25  1   
  6   4   6  1   
  7   4  26  1   
  8   4  27  1   
  9   5   7  1   
 10   5  28  1   
 11   5  29  1   
 12   6   8  1   
 13   6  30  1   
 14   6  31  1   
 15   7   9  1   
 16   7  32  1   
 17   7  33  1   
 18   8  10  2   
 19   8  11  1   
 20   9  12  2   
 21   9  13  1   
 22  10  14  1   
 23  11  15  1   
 24  11  34  1   
 25  12  16  1   
 26  13  17  1   
 27  13  35  1   
 28  14  15  ar  
 29  14  18  ar  
 30  15  19  ar  
 31  16  17  2   
 32  17  20  1   
 33  18  21  ar  
 34  18  22  1   
 35  19  23  ar  
 36  19  36  1   
 37  20  37  1   
 38  20  38  1   
 39  21  23  ar  
 40  21  24  1   
 41  22  39  1   
 42  22  40  1   
 43  22  41  1   
 44  23  42  1   
 45  24  43  1   
 46  24  44  1   
 47  24  45  1   
@<TRIPOS>SUBSTRUCTURE
  1 ****   4 GROUP 4 **** **** 0

# MOE 2024.06 (io_trps.svl 2023.06)
