@<TRIPOS>MOLECULE
NONAME
33 34 1 0 0 
SMALL
USER_CHARGES


@<TRIPOS>ATOM
  1 O       -0.5520     1.7920     2.0740 O.co2 1 <1>  -0.9000 
  2 C       -0.7770     2.9100     1.5680 C.2   1 <1>   1.0330 
  3 O       -1.8940     3.4270     1.7640 O.co2 1 <1>  -0.9000 
  4 C        0.2710     3.5520     0.7710 C.2   1 <1>  -0.0060 
  5 N        0.2440     4.7730     0.1350 N.2   1 <1>  -0.5650 
  6 C        1.4840     3.0140     0.5240 C.2   1 <1>  -0.0100 
  7 C        1.4010     4.8690    -0.4110 C.2   1 <1>   0.2980 
  8 O        2.1800     3.8290    -0.2140 O.3   1 <1>  -0.2800 
  9 C        1.8920     6.0330    -1.2690 C.3   1 <1>   0.2900 
 10 N        2.8890     6.9200    -0.6120 N.3   1 <1>  -0.8100 
 11 C        3.0130     8.2050    -1.3380 C.3   1 <1>   0.2540 
 12 C        4.1960     6.2640    -0.4490 C.3   1 <1>   0.0300 
 13 C        3.8830     9.2420    -0.6190 C.ar  1 <1>   0.1660 
 14 N        4.9700     9.6220    -1.2840 N.ar  1 <1>  -0.6200 
 15 C        3.5270     9.7410     0.6360 C.ar  1 <1>  -0.1430 
 16 C        5.7330    10.5190    -0.6850 C.ar  1 <1>   0.1600 
 17 C        4.3430    10.6780     1.2380 C.ar  1 <1>  -0.1500 
 18 C        2.2730     9.2820     1.3730 C.3   1 <1>  -0.0970 
 19 C        5.4710    11.0710     0.5540 C.ar  1 <1>  -0.1500 
 20 H        1.8920     2.0720     0.8450 H     1 <1>   0.1500 
 21 H        1.0220     6.6150    -1.5150 H     1 <1>   0.0800 
 22 H        2.2970     5.6420    -2.1850 H     1 <1>   0.0800 
 23 H        2.0370     8.6340    -1.4710 H     1 <1>   0.0800 
 24 H        3.4230     8.0220    -2.3170 H     1 <1>   0.0800 
 25 H        4.0970     5.3840     0.1630 H     1 <1>   0.0800 
 26 H        4.8860     6.9270     0.0450 H     1 <1>   0.0800 
 27 H        4.6040     5.9870    -1.4060 H     1 <1>   0.0800 
 28 H        6.6180    10.8320    -1.2120 H     1 <1>   0.1500 
 29 H        4.1130    11.0890     2.2060 H     1 <1>   0.1500 
 30 H        1.4150     9.3290     0.7270 H     1 <1>   0.0800 
 31 H        2.0800     9.8970     2.2320 H     1 <1>   0.0800 
 32 H        2.3960     8.2660     1.7040 H     1 <1>   0.0800 
 33 H        6.1410    11.7970     0.9760 H     1 <1>   0.1500 
@<TRIPOS>BOND
  1   1   2  ar  
  2   2   3  ar  
  3   2   4  1   
  4   4   5  1   
  5   4   6  2   
  6   5   7  2   
  7   6   8  1   
  8   6  20  1   
  9   7   8  1   
 10   7   9  1   
 11   9  10  1   
 12   9  21  1   
 13   9  22  1   
 14  10  11  1   
 15  10  12  1   
 16  11  13  1   
 17  11  23  1   
 18  11  24  1   
 19  12  25  1   
 20  12  26  1   
 21  12  27  1   
 22  13  14  ar  
 23  13  15  ar  
 24  14  16  ar  
 25  15  17  ar  
 26  15  18  1   
 27  16  19  ar  
 28  16  28  1   
 29  17  19  ar  
 30  17  29  1   
 31  18  30  1   
 32  18  31  1   
 33  18  32  1   
 34  19  33  1   
@<TRIPOS>SUBSTRUCTURE
  1 ****  10 GROUP 4 **** **** 0

# MOE 2024.06 (io_trps.svl 2023.06)
