@<TRIPOS>MOLECULE
NONAME
54 55 1 0 0 
SMALL
USER_CHARGES


@<TRIPOS>ATOM
  1 S        1.1190     0.2670    -0.2550 S.o2  1 <1>   1.3330 
  2 O        1.9600     0.6810     0.8470 O.2   1 <1>  -0.6500 
  3 O        1.6970     0.1320    -1.5700 O.2   1 <1>  -0.6500 
  4 N        0.2910    -1.1500     0.1620 N.am  1 <1>  -0.8490 
  5 C       -0.1680     1.5080    -0.3550 C.3   1 <1>  -0.0550 
  6 C       -0.2760    -1.8560    -0.9930 C.3   1 <1>   0.1160 
  7 C        1.1200    -2.0730     0.9460 C.3   1 <1>   0.1160 
  8 C        0.3810     2.8800    -0.8110 C.3   1 <1>  -0.0800 
  9 C       -0.6270     4.0270    -0.7890 C.3   1 <1>   0.2000 
 10 C        1.5500     3.4070     0.0280 C.3   1 <1>   0.3430 
 11 O       -1.3810     3.9760     0.3790 O.3   1 <1>  -0.6800 
 12 C        0.2460     5.2870    -0.7750 C.3   1 <1>   0.3430 
 13 N        1.5620     4.8860    -0.1680 N.4   1 <1>  -0.9590 
 14 C        1.8980     5.6410     1.0700 C.3   1 <1>   0.4860 
 15 C        1.9820     7.1120     0.7180 C.ar  1 <1>  -0.1440 
 16 C        3.0310     7.5800    -0.0590 C.ar  1 <1>  -0.1500 
 17 C        1.0130     8.0010     1.1570 C.ar  1 <1>  -0.1500 
 18 C        3.1170     8.9180    -0.4120 C.ar  1 <1>  -0.1440 
 19 C        1.0870     9.3380     0.8100 C.ar  1 <1>  -0.1500 
 20 C        2.1350     9.8040     0.0200 C.ar  1 <1>   0.0820 
 21 C        4.2780     9.4060    -1.2790 C.3   1 <1>   0.2640 
 22 O        2.2470    11.1040    -0.3580 O.3   1 <1>  -0.3630 
 23 O        5.4550     8.7310    -0.9410 O.3   1 <1>  -0.5600 
 24 C        1.3320    12.0900     0.0680 C.3   1 <1>   0.0400 
 25 C        6.0740     9.2100     0.2140 C.3   1 <1>   0.0400 
 26 H       -0.9200     1.1860    -1.0480 H     1 <1>   0.0800 
 27 H       -0.6330     1.5900     0.6090 H     1 <1>   0.0800 
 28 H       -0.8570    -2.7000    -0.6620 H     1 <1>   0.0800 
 29 H        0.5090    -2.2060    -1.6450 H     1 <1>   0.0800 
 30 H       -0.9220    -1.2010    -1.5520 H     1 <1>   0.0800 
 31 H        0.5520    -2.9470     1.2160 H     1 <1>   0.0800 
 32 H        1.4490    -1.5950     1.8540 H     1 <1>   0.0800 
 33 H        1.9860    -2.3740     0.3800 H     1 <1>   0.0800 
 34 H        0.7430     2.7700    -1.8200 H     1 <1>   0.0800 
 35 H       -1.3070     4.0120    -1.6250 H     1 <1>   0.0800 
 36 H        2.4850     2.9580    -0.2730 H     1 <1>   0.0800 
 37 H        1.3770     3.1730     1.0670 H     1 <1>   0.0800 
 38 H       -0.8390     3.9220     1.1880 H     1 <1>   0.4000 
 39 H       -0.2360     6.0790    -0.2270 H     1 <1>   0.0800 
 40 H        0.4090     5.6160    -1.7880 H     1 <1>   0.0800 
 41 H        2.2950     5.1280    -0.8500 H     1 <1>   0.4500 
 42 H        1.1430     5.4860     1.8230 H     1 <1>   0.0800 
 43 H        2.8480     5.3120     1.4610 H     1 <1>   0.0800 
 44 H        3.8040     6.9100    -0.3980 H     1 <1>   0.1500 
 45 H        0.1930     7.6690     1.7710 H     1 <1>   0.1500 
 46 H        0.3210    10.0020     1.1630 H     1 <1>   0.1500 
 47 H        4.4450    10.4650    -1.1810 H     1 <1>   0.0800 
 48 H        4.0690     9.1910    -2.3120 H     1 <1>   0.0800 
 49 H        1.6430    13.0330    -0.3440 H     1 <1>   0.0800 
 50 H        1.3450    12.1400     1.1420 H     1 <1>   0.0800 
 51 H        0.3510    11.8390    -0.2970 H     1 <1>   0.0800 
 52 H        6.9540     8.6190     0.3930 H     1 <1>   0.0800 
 53 H        5.3990     9.1190     1.0480 H     1 <1>   0.0800 
 54 H        6.3530    10.2390     0.0670 H     1 <1>   0.0800 
@<TRIPOS>BOND
  1   1   2  2   
  2   1   3  2   
  3   1   4  am  
  4   1   5  1   
  5   4   6  1   
  6   4   7  1   
  7   5   8  1   
  8   5  26  1   
  9   5  27  1   
 10   6  28  1   
 11   6  29  1   
 12   6  30  1   
 13   7  31  1   
 14   7  32  1   
 15   7  33  1   
 16   8   9  1   
 17   8  10  1   
 18   8  34  1   
 19   9  11  1   
 20   9  12  1   
 21   9  35  1   
 22  10  13  1   
 23  10  36  1   
 24  10  37  1   
 25  11  38  1   
 26  12  13  1   
 27  12  39  1   
 28  12  40  1   
 29  13  14  1   
 30  13  41  1   
 31  14  15  1   
 32  14  42  1   
 33  14  43  1   
 34  15  16  ar  
 35  15  17  ar  
 36  16  18  ar  
 37  16  44  1   
 38  17  19  ar  
 39  17  45  1   
 40  18  20  ar  
 41  18  21  1   
 42  19  20  ar  
 43  19  46  1   
 44  20  22  1   
 45  21  23  1   
 46  21  47  1   
 47  21  48  1   
 48  22  24  1   
 49  23  25  1   
 50  24  49  1   
 51  24  50  1   
 52  24  51  1   
 53  25  52  1   
 54  25  53  1   
 55  25  54  1   
@<TRIPOS>SUBSTRUCTURE
  1 ****  13 GROUP 4 **** **** 0

# MOE 2024.06 (io_trps.svl 2023.06)
