@<TRIPOS>MOLECULE
NONAME
61 65 1 0 0 
SMALL
USER_CHARGES


@<TRIPOS>ATOM
  1 O       -1.9430     2.6210    -1.2110 O.2   1 <1>  -0.5700 
  2 C       -2.2890     2.3880    -0.0670 C.2   1 <1>   0.7160 
  3 N       -3.3750     1.5670     0.1610 N.am  1 <1>  -0.6600 
  4 C       -1.5750     2.9880     1.0310 C.2   1 <1>  -0.0860 
  5 C       -4.2410     1.0680    -0.9420 C.3   1 <1>   0.1400 
  6 C       -3.7470     1.0470     1.5070 C.3   1 <1>   0.1400 
  7 C       -0.3550     2.7410     1.5950 C.2   1 <1>  -0.3320 
  8 C       -2.0800     4.0390     1.7980 C.2   1 <1>   0.1390 
  9 C       -4.1800    -0.4600    -0.9830 C.3   1 <1>  -0.1600 
 10 C       -3.6930    -0.4840     1.4960 C.3   1 <1>  -0.1600 
 11 N       -0.2070     3.6110     2.6080 N.pl3 1 <1>   0.3000 
 12 C        0.7100     1.7140     1.2370 C.3   1 <1>   0.1000 
 13 N       -1.2770     4.4120     2.7440 N.2   1 <1>  -0.7070 
 14 C       -4.5530    -1.0890     0.3740 C.3   1 <1>   0.4240 
 15 C        1.3790     2.0660    -0.0980 C.3   1 <1>  -0.1600 
 16 C        0.1280     0.2930     1.1950 C.3   1 <1>  -0.1600 
 17 O       -5.8600    -0.6530     0.6810 O.3   1 <1>  -0.5600 
 18 C       -4.4540    -2.6410     0.3640 C.ar  1 <1>  -0.1430 
 19 C        2.4580     1.0370    -0.4720 C.3   1 <1>  -0.1600 
 20 C        1.2120    -0.7360     0.8470 C.3   1 <1>  -0.1600 
 21 C       -6.9260    -1.3700     0.1520 C.3   1 <1>   0.1200 
 22 C       -3.2450    -3.3110     0.1310 C.ar  1 <1>   0.0820 
 23 C       -5.5940    -3.4130     0.5850 C.ar  1 <1>  -0.1440 
 24 C        1.8850    -0.3870    -0.4880 C.3   1 <1>  -0.1600 
 25 C       -6.9360    -2.7450     0.8020 C.3   1 <1>  -0.0170 
 26 O       -2.1200    -2.5960    -0.1250 O.3   1 <1>  -0.3630 
 27 C       -3.1920    -4.7010     0.1590 C.ar  1 <1>  -0.1500 
 28 C       -5.5320    -4.7970     0.6040 C.ar  1 <1>  -0.1500 
 29 C       -1.1250    -3.1060    -0.9860 C.3   1 <1>   0.0400 
 30 C       -4.3310    -5.4430     0.3950 C.ar  1 <1>  -0.1500 
 31 H       -3.9240     1.4680    -1.8900 H     1 <1>   0.0800 
 32 H       -5.2520     1.3930    -0.7670 H     1 <1>   0.0800 
 33 H       -4.7440     1.3770     1.7460 H     1 <1>   0.0800 
 34 H       -3.0830     1.4170     2.2670 H     1 <1>   0.0800 
 35 H       -3.0400     4.4940     1.6220 H     1 <1>   0.1500 
 36 H       -3.1800    -0.7300    -1.2600 H     1 <1>   0.0800 
 37 H       -4.8260    -0.8340    -1.7530 H     1 <1>   0.0800 
 38 H       -4.0340    -0.8660     2.4400 H     1 <1>   0.0800 
 39 H       -2.6700    -0.7780     1.3880 H     1 <1>   0.0800 
 40 H        0.6090     3.6880     3.2270 H     1 <1>   0.2700 
 41 H        1.4690     1.7310     2.0010 H     1 <1>   0.0800 
 42 H        1.8180     3.0450    -0.0350 H     1 <1>   0.0800 
 43 H        0.6340     2.0920    -0.8750 H     1 <1>   0.0800 
 44 H       -0.6480     0.2410     0.4530 H     1 <1>   0.0800 
 45 H       -0.3070     0.0530     2.1490 H     1 <1>   0.0800 
 46 H        3.2640     1.0890     0.2390 H     1 <1>   0.0800 
 47 H        2.8580     1.2750    -1.4430 H     1 <1>   0.0800 
 48 H        0.7710    -1.7150     0.7890 H     1 <1>   0.0800 
 49 H        1.9530    -0.7560     1.6270 H     1 <1>   0.0800 
 50 H       -6.8150    -1.4430    -0.9150 H     1 <1>   0.0800 
 51 H       -7.8310    -0.8360     0.3810 H     1 <1>   0.0800 
 52 H        2.6730    -1.0910    -0.6920 H     1 <1>   0.0800 
 53 H        1.1610    -0.4630    -1.2810 H     1 <1>   0.0800 
 54 H       -7.7230    -3.3350     0.3680 H     1 <1>   0.0800 
 55 H       -7.1280    -2.6440     1.8560 H     1 <1>   0.0800 
 56 H       -2.2650    -5.2210     0.0070 H     1 <1>   0.1500 
 57 H       -6.4200    -5.3780     0.7830 H     1 <1>   0.1500 
 58 H       -0.4950    -2.2890    -1.2870 H     1 <1>   0.0800 
 59 H       -1.5970    -3.5390    -1.8510 H     1 <1>   0.0800 
 60 H       -0.5440    -3.8390    -0.4560 H     1 <1>   0.0800 
 61 H       -4.2850    -6.5170     0.4160 H     1 <1>   0.1500 
@<TRIPOS>BOND
  1   1   2  2   
  2   2   3  am  
  3   2   4  1   
  4   3   5  1   
  5   3   6  1   
  6   4   7  2   
  7   4   8  1   
  8   5   9  1   
  9   5  31  1   
 10   5  32  1   
 11   6  10  1   
 12   6  33  1   
 13   6  34  1   
 14   7  11  1   
 15   7  12  1   
 16   8  13  2   
 17   8  35  1   
 18   9  14  1   
 19   9  36  1   
 20   9  37  1   
 21  10  14  1   
 22  10  38  1   
 23  10  39  1   
 24  11  13  1   
 25  11  40  1   
 26  12  15  1   
 27  12  16  1   
 28  12  41  1   
 29  14  17  1   
 30  14  18  1   
 31  15  19  1   
 32  15  42  1   
 33  15  43  1   
 34  16  20  1   
 35  16  44  1   
 36  16  45  1   
 37  17  21  1   
 38  18  22  ar  
 39  18  23  ar  
 40  19  24  1   
 41  19  46  1   
 42  19  47  1   
 43  20  24  1   
 44  20  48  1   
 45  20  49  1   
 46  21  25  1   
 47  21  50  1   
 48  21  51  1   
 49  22  26  1   
 50  22  27  ar  
 51  23  25  1   
 52  23  28  ar  
 53  24  52  1   
 54  24  53  1   
 55  25  54  1   
 56  25  55  1   
 57  26  29  1   
 58  27  30  ar  
 59  27  56  1   
 60  28  30  ar  
 61  28  57  1   
 62  29  58  1   
 63  29  59  1   
 64  29  60  1   
 65  30  61  1   
@<TRIPOS>SUBSTRUCTURE
  1 ****  10 GROUP 4 **** **** 0

# MOE 2024.06 (io_trps.svl 2023.06)
