@<TRIPOS>MOLECULE
NONAME
48 49 1 0 0 
SMALL
USER_CHARGES


@<TRIPOS>ATOM
  1 O        2.7070     5.6830    -0.9670 O.co2 1 <1>  -0.9000 
  2 C        1.5340     5.2980    -0.8890 C.2   1 <1>   0.9060 
  3 O        0.9630     5.3630     0.2160 O.co2 1 <1>  -0.9000 
  4 C        0.7650     4.9190    -2.1800 C.3   1 <1>   0.1030 
  5 N       -0.0630     6.0500    -2.7780 N.pl3 1 <1>  -0.8690 
  6 C       -0.6980     6.8050    -1.8830 C.ar  1 <1>   0.4100 
  7 N       -0.0180     7.8300    -1.4290 N.ar  1 <1>  -0.6200 
  8 C       -1.8670     6.3310    -1.2730 C.ar  1 <1>  -0.1500 
  9 C       -0.1560     8.0470    -0.1290 C.ar  1 <1>   0.7710 
 10 C       -2.1320     6.7580    -0.0190 C.ar  1 <1>   0.2110 
 11 N       -1.2350     7.6010     0.5500 N.ar  1 <1>  -0.1790 
 12 N        0.8420     8.6880     0.5460 N.pl3 1 <1>  -0.8380 
 13 C        1.9910     9.3560    -0.1990 C.3   1 <1>   0.2090 
 14 C        1.2350     8.2920     1.9470 C.3   1 <1>   0.2090 
 15 C        3.4280     8.9220     0.2390 C.3   1 <1>   0.4230 
 16 C        2.4620     7.3440     1.9780 C.3   1 <1>   0.3430 
 17 N        3.4210     7.5440     0.8440 N.4   1 <1>  -0.9590 
 18 C        4.0920     9.9490     1.1820 C.3   1 <1>  -0.1600 
 19 C        4.6710     6.7340     0.9390 C.3   1 <1>   0.4230 
 20 C        4.3630    11.3100     0.5180 C.3   1 <1>  -0.2400 
 21 C        5.3480     6.8150     2.3110 C.3   1 <1>  -0.2400 
 22 C        5.6490     7.0810    -0.1820 C.3   1 <1>  -0.2400 
 23 H        0.1210     4.0920    -1.9490 H     1 <1>   0.0800 
 24 H        1.4860     4.5890    -2.9050 H     1 <1>   0.0800 
 25 H        0.5060     6.5810    -3.4450 H     1 <1>   0.4000 
 26 H       -2.4770     5.6250    -1.8060 H     1 <1>   0.1500 
 27 H       -2.9940     6.4360     0.5430 H     1 <1>   0.1500 
 28 H       -1.3000     7.8860     1.5160 H     1 <1>   0.4570 
 29 H        1.8800    10.4190    -0.0960 H     1 <1>   0.0800 
 30 H        1.9290     9.1630    -1.2550 H     1 <1>   0.0800 
 31 H        0.4310     7.8030     2.4650 H     1 <1>   0.0800 
 32 H        1.4680     9.1820     2.5050 H     1 <1>   0.0800 
 33 H        4.0230     8.8930    -0.6580 H     1 <1>   0.0800 
 34 H        2.1100     6.3250     1.9450 H     1 <1>   0.0800 
 35 H        2.9680     7.4810     2.9160 H     1 <1>   0.0800 
 36 H        2.9450     6.9780     0.0890 H     1 <1>   0.4500 
 37 H        5.0480     9.5750     1.4890 H     1 <1>   0.0800 
 38 H        3.4950    10.1020     2.0620 H     1 <1>   0.0800 
 39 H        4.3860     5.7020     0.7880 H     1 <1>   0.0800 
 40 H        4.9270    11.1840    -0.3910 H     1 <1>   0.0800 
 41 H        4.9410    11.9280     1.1830 H     1 <1>   0.0800 
 42 H        3.4540    11.8390     0.2930 H     1 <1>   0.0800 
 43 H        5.5960     7.8190     2.5880 H     1 <1>   0.0800 
 44 H        6.2610     6.2480     2.2840 H     1 <1>   0.0800 
 45 H        4.7320     6.3700     3.0690 H     1 <1>   0.0800 
 46 H        6.0620     8.0660    -0.0660 H     1 <1>   0.0800 
 47 H        5.1610     6.9920    -1.1370 H     1 <1>   0.0800 
 48 H        6.4620     6.3780    -0.1710 H     1 <1>   0.0800 
@<TRIPOS>BOND
  1   1   2  ar  
  2   2   3  ar  
  3   2   4  1   
  4   4   5  1   
  5   4  23  1   
  6   4  24  1   
  7   5   6  1   
  8   5  25  1   
  9   6   7  ar  
 10   6   8  ar  
 11   7   9  ar  
 12   8  10  ar  
 13   8  26  1   
 14   9  11  ar  
 15   9  12  1   
 16  10  11  ar  
 17  10  27  1   
 18  11  28  1   
 19  12  13  1   
 20  12  14  1   
 21  13  15  1   
 22  13  29  1   
 23  13  30  1   
 24  14  16  1   
 25  14  31  1   
 26  14  32  1   
 27  15  17  1   
 28  15  18  1   
 29  15  33  1   
 30  16  17  1   
 31  16  34  1   
 32  16  35  1   
 33  17  19  1   
 34  17  36  1   
 35  18  20  1   
 36  18  37  1   
 37  18  38  1   
 38  19  21  1   
 39  19  22  1   
 40  19  39  1   
 41  20  40  1   
 42  20  41  1   
 43  20  42  1   
 44  21  43  1   
 45  21  44  1   
 46  21  45  1   
 47  22  46  1   
 48  22  47  1   
 49  22  48  1   
@<TRIPOS>SUBSTRUCTURE
  1 ****  12 GROUP 4 **** **** 0

# MOE 2024.06 (io_trps.svl 2023.06)
