@<TRIPOS>MOLECULE
NONAME
55 58 1 0 0 
SMALL
USER_CHARGES


@<TRIPOS>ATOM
  1 O        1.7440    -0.0910    -0.8740 O.2   1 <1>  -0.5700 
  2 C        1.7400    -0.5040     0.2730 C.2   1 <1>   0.5440 
  3 N        2.2530     0.3340     1.2390 N.am  1 <1>  -0.6600 
  4 C        1.3180    -1.8590     0.5850 C.ar  1 <1>   0.0860 
  5 C        3.4370    -0.0960     2.0320 C.3   1 <1>   0.1400 
  6 C        1.9810     1.7950     1.1780 C.3   1 <1>   0.1400 
  7 C        1.3350    -2.8740    -0.3920 C.ar  1 <1>  -0.1520 
  8 C        0.8990    -2.2410     1.8550 C.ar  1 <1>  -0.1500 
  9 C        4.6750    -0.2280     1.1220 C.3   1 <1>   0.3430 
 10 C        3.2270     2.6030     0.7980 C.3   1 <1>  -0.1600 
 11 N        1.6270    -2.7970    -1.7290 N.pl3 1 <1>   0.0330 
 12 C        1.0210    -4.1960    -0.0940 C.ar  1 <1>   0.0000 
 13 C        0.5660    -3.5620     2.1630 C.ar  1 <1>  -0.1500 
 14 N        5.1740     1.0690     0.5460 N.4   1 <1>  -0.9590 
 15 C        4.1490     1.8820    -0.1870 C.3   1 <1>   0.3430 
 16 C        1.5310    -4.0500    -2.2630 C.2   1 <1>  -0.3020 
 17 C        0.6340    -4.5420     1.2000 C.ar  1 <1>  -0.1500 
 18 C        1.1690    -4.9230    -1.2950 C.2   1 <1>  -0.1500 
 19 C        6.3370     0.8320    -0.3330 C.3   1 <1>   0.5230 
 20 C        7.0920     2.1380    -0.4750 C.2   1 <1>  -0.3320 
 21 N        8.0110     2.3420    -1.4650 N.pl3 1 <1>   0.0480 
 22 C        7.0200     3.2640     0.2870 C.2   1 <1>  -0.1500 
 23 C        8.4920     3.5940    -1.3130 C.2   1 <1>  -0.3020 
 24 C        8.4350     1.4030    -2.5240 C.3   1 <1>   0.0160 
 25 C        7.9080     4.2170    -0.2390 C.2   1 <1>  -0.0860 
 26 C        8.0950     5.5370     0.3010 C.2   1 <1>   0.5950 
 27 O        7.4640     5.9530     1.2400 O.2   1 <1>  -0.5700 
 28 C        9.1170     6.4550    -0.3310 C.3   1 <1>  -0.1790 
 29 H        3.2360    -1.0540     2.4780 H     1 <1>   0.0800 
 30 H        3.6270     0.5990     2.8320 H     1 <1>   0.0800 
 31 H        1.6000     2.1290     2.1280 H     1 <1>   0.0800 
 32 H        1.2090     1.9740     0.4450 H     1 <1>   0.0800 
 33 H        0.8220    -1.5030     2.6340 H     1 <1>   0.1500 
 34 H        4.4280    -0.9050     0.3210 H     1 <1>   0.0800 
 35 H        5.4660    -0.6810     1.6970 H     1 <1>   0.0800 
 36 H        3.7660     2.8980     1.6790 H     1 <1>   0.0800 
 37 H        2.8840     3.5100     0.3330 H     1 <1>   0.0800 
 38 H        1.8070    -1.9130    -2.2250 H     1 <1>   0.2700 
 39 H        0.2520    -3.8100     3.1630 H     1 <1>   0.1500 
 40 H        5.5390     1.6600     1.3010 H     1 <1>   0.4500 
 41 H        4.6520     2.6320    -0.7780 H     1 <1>   0.0800 
 42 H        3.5760     1.2650    -0.8590 H     1 <1>   0.0800 
 43 H        1.7200    -4.2420    -3.3050 H     1 <1>   0.1500 
 44 H        0.3860    -5.5650     1.4210 H     1 <1>   0.1500 
 45 H        1.0040    -5.9830    -1.3820 H     1 <1>   0.1500 
 46 H        6.0040     0.4830    -1.2980 H     1 <1>   0.0800 
 47 H        6.9910     0.0910     0.0980 H     1 <1>   0.0800 
 48 H        6.4200     3.4790     1.1560 H     1 <1>   0.1500 
 49 H        9.2350     4.0050    -1.9750 H     1 <1>   0.1500 
 50 H        8.8430     0.5150    -2.0770 H     1 <1>   0.0800 
 51 H        9.1900     1.8660    -3.1330 H     1 <1>   0.0800 
 52 H        7.5920     1.1510    -3.1420 H     1 <1>   0.0800 
 53 H       10.0830     5.9850    -0.3190 H     1 <1>   0.0800 
 54 H        9.1710     7.3770     0.2180 H     1 <1>   0.0800 
 55 H        8.8340     6.6680    -1.3450 H     1 <1>   0.0800 
@<TRIPOS>BOND
  1   1   2  2   
  2   2   3  am  
  3   2   4  1   
  4   3   5  1   
  5   3   6  1   
  6   4   7  ar  
  7   4   8  ar  
  8   5   9  1   
  9   5  29  1   
 10   5  30  1   
 11   6  10  1   
 12   6  31  1   
 13   6  32  1   
 14   7  11  1   
 15   7  12  ar  
 16   8  13  ar  
 17   8  33  1   
 18   9  14  1   
 19   9  34  1   
 20   9  35  1   
 21  10  15  1   
 22  10  36  1   
 23  10  37  1   
 24  11  16  1   
 25  11  38  1   
 26  12  17  ar  
 27  12  18  1   
 28  13  17  ar  
 29  13  39  1   
 30  14  15  1   
 31  14  19  1   
 32  14  40  1   
 33  15  41  1   
 34  15  42  1   
 35  16  18  2   
 36  16  43  1   
 37  17  44  1   
 38  18  45  1   
 39  19  20  1   
 40  19  46  1   
 41  19  47  1   
 42  20  21  1   
 43  20  22  2   
 44  21  23  1   
 45  21  24  1   
 46  22  25  1   
 47  22  48  1   
 48  23  25  2   
 49  23  49  1   
 50  24  50  1   
 51  24  51  1   
 52  24  52  1   
 53  25  26  1   
 54  26  27  2   
 55  26  28  1   
 56  28  53  1   
 57  28  54  1   
 58  28  55  1   
@<TRIPOS>SUBSTRUCTURE
  1 ****  14 GROUP 4 **** **** 0

# MOE 2024.06 (io_trps.svl 2023.06)
