@<TRIPOS>MOLECULE
NONAME
51 53 1 0 0 
SMALL
USER_CHARGES


@<TRIPOS>ATOM
  1 F       -1.2760     0.6050     2.2000 F     1 <1>  -0.1900 
  2 C       -0.8630     1.5310     1.3750 C.ar  1 <1>   0.1900 
  3 C       -1.7660     2.1150     0.4990 C.ar  1 <1>  -0.1440 
  4 C        0.4740     1.8820     1.4090 C.ar  1 <1>  -0.1500 
  5 C       -1.2910     3.0850    -0.3730 C.ar  1 <1>  -0.1500 
  6 C       -3.2270     1.7050     0.4890 C.3   1 <1>   0.2840 
  7 C        0.9290     2.8520     0.5330 C.ar  1 <1>  -0.1500 
  8 C        0.0470     3.4490    -0.3550 C.ar  1 <1>  -0.1500 
  9 N       -3.3270     0.3980    -0.1920 N.am  1 <1>  -0.7300 
 10 C       -4.2120    -0.5670     0.1660 C.2   1 <1>   0.5690 
 11 O       -5.1070    -0.3490     0.9500 O.2   1 <1>  -0.5700 
 12 C       -4.1130    -1.9880    -0.4190 C.3   1 <1>   0.4040 
 13 N       -5.3700    -2.8050    -0.2110 N.4   1 <1>  -0.9590 
 14 C       -5.1460    -4.2680    -0.3600 C.3   1 <1>   0.3430 
 15 C       -6.5000    -2.2960    -1.0400 C.3   1 <1>   0.3430 
 16 C       -6.4110    -5.0240     0.0370 C.3   1 <1>  -0.1600 
 17 C       -7.7830    -3.0180    -0.6450 C.3   1 <1>  -0.1600 
 18 C       -7.6270    -4.5340    -0.7540 C.3   1 <1>   0.2000 
 19 O       -8.7640    -5.0840    -0.1900 O.3   1 <1>  -0.5600 
 20 C       -9.1500    -6.3400    -0.6910 C.3   1 <1>   0.2630 
 21 C      -10.3010    -6.9500     0.1040 C.ar  1 <1>   0.1670 
 22 N      -10.5250    -8.2360    -0.1310 N.ar  1 <1>  -0.6200 
 23 C      -11.0470    -6.1910     0.9980 C.ar  1 <1>  -0.1500 
 24 C      -11.5210    -8.7840     0.5480 C.ar  1 <1>   0.1600 
 25 C      -12.0810    -6.7750     1.6980 C.ar  1 <1>  -0.1500 
 26 C      -12.3160    -8.1110     1.4590 C.ar  1 <1>  -0.1500 
 27 H        1.1400     1.4070     2.1070 H     1 <1>   0.1500 
 28 H       -1.9560     3.5660    -1.0710 H     1 <1>   0.1500 
 29 H       -3.8190     2.4330    -0.0390 H     1 <1>   0.0800 
 30 H       -3.5990     1.6330     1.4980 H     1 <1>   0.0800 
 31 H        1.9660     3.1430     0.5410 H     1 <1>   0.1500 
 32 H        0.4060     4.2040    -1.0340 H     1 <1>   0.1500 
 33 H       -2.5390     0.2240    -0.8210 H     1 <1>   0.3700 
 34 H       -3.2860    -2.4760     0.0680 H     1 <1>   0.0800 
 35 H       -3.8900    -1.9180    -1.4700 H     1 <1>   0.0800 
 36 H       -5.6470    -2.6090     0.7690 H     1 <1>   0.4500 
 37 H       -4.3300    -4.5850     0.2710 H     1 <1>   0.0800 
 38 H       -4.8950    -4.4970    -1.3830 H     1 <1>   0.0800 
 39 H       -6.2960    -2.4630    -2.0860 H     1 <1>   0.0800 
 40 H       -6.6280    -1.2360    -0.8800 H     1 <1>   0.0800 
 41 H       -6.5850    -4.8920     1.0910 H     1 <1>   0.0800 
 42 H       -6.2550    -6.0720    -0.1450 H     1 <1>   0.0800 
 43 H       -8.5810    -2.6960    -1.2900 H     1 <1>   0.0800 
 44 H       -8.0420    -2.7470     0.3640 H     1 <1>   0.0800 
 45 H       -7.5640    -4.8220    -1.7920 H     1 <1>   0.0800 
 46 H       -8.3090    -7.0080    -0.6410 H     1 <1>   0.0800 
 47 H       -9.4520    -6.2240    -1.7160 H     1 <1>   0.0800 
 48 H      -10.8260    -5.1510     1.1490 H     1 <1>   0.1500 
 49 H      -11.7140    -9.8270     0.3690 H     1 <1>   0.1500 
 50 H      -12.6760    -6.2130     2.3970 H     1 <1>   0.1500 
 51 H      -13.1070    -8.6280     1.9710 H     1 <1>   0.1500 
@<TRIPOS>BOND
  1   1   2  1   
  2   2   3  ar  
  3   2   4  ar  
  4   3   5  ar  
  5   3   6  1   
  6   4   7  ar  
  7   4  27  1   
  8   5   8  ar  
  9   5  28  1   
 10   6   9  1   
 11   6  29  1   
 12   6  30  1   
 13   7   8  ar  
 14   7  31  1   
 15   8  32  1   
 16   9  10  am  
 17   9  33  1   
 18  10  11  2   
 19  10  12  1   
 20  12  13  1   
 21  12  34  1   
 22  12  35  1   
 23  13  14  1   
 24  13  15  1   
 25  13  36  1   
 26  14  16  1   
 27  14  37  1   
 28  14  38  1   
 29  15  17  1   
 30  15  39  1   
 31  15  40  1   
 32  16  18  1   
 33  16  41  1   
 34  16  42  1   
 35  17  18  1   
 36  17  43  1   
 37  17  44  1   
 38  18  19  1   
 39  18  45  1   
 40  19  20  1   
 41  20  21  1   
 42  20  46  1   
 43  20  47  1   
 44  21  22  ar  
 45  21  23  ar  
 46  22  24  ar  
 47  23  25  ar  
 48  23  48  1   
 49  24  26  ar  
 50  24  49  1   
 51  25  26  ar  
 52  25  50  1   
 53  26  51  1   
@<TRIPOS>SUBSTRUCTURE
  1 ****  13 GROUP 4 **** **** 0

# MOE 2024.06 (io_trps.svl 2023.06)
