@<TRIPOS>MOLECULE
NONAME
47 49 1 0 0 
SMALL
USER_CHARGES


@<TRIPOS>ATOM
  1 O       -1.6830    -2.4760     0.5140 O.co2 1 <1>  -0.9000 
  2 C       -0.6770    -3.2000     0.5460 C.2   1 <1>   1.0330 
  3 O       -0.7880    -4.2740     1.1650 O.co2 1 <1>  -0.9000 
  4 C        0.4270    -2.9540    -0.3090 C.2   1 <1>  -0.2330 
  5 C        0.5970    -3.5810    -1.5410 C.2   1 <1>   0.3720 
  6 C        1.5060    -2.1410    -0.2040 C.2   1 <1>   0.0870 
  7 N        1.6810    -3.1960    -2.1110 N.2   1 <1>  -0.4100 
  8 N       -0.2770    -4.5030    -2.1320 N.pl3 1 <1>  -0.8210 
  9 O        2.2190    -2.3280    -1.2910 O.3   1 <1>  -0.0190 
 10 C        1.9390    -1.2040     0.8060 C.ar  1 <1>   0.0530 
 11 C       -1.5890    -3.9200    -2.5730 C.3   1 <1>   0.2090 
 12 C       -0.3140    -5.8470    -1.4630 C.3   1 <1>   0.2090 
 13 C        1.0410    -0.6130     1.6950 C.ar  1 <1>  -0.1500 
 14 C        3.2840    -0.8500     0.9270 C.ar  1 <1>  -0.1500 
 15 C       -2.7970    -4.1590    -1.6260 C.3   1 <1>   0.3430 
 16 C       -1.7330    -6.3560    -1.1190 C.3   1 <1>   0.3430 
 17 C        1.4640     0.2820     2.6610 C.ar  1 <1>  -0.1500 
 18 C        3.7140     0.0450     1.8890 C.ar  1 <1>  -0.1500 
 19 N       -2.6090    -5.2550    -0.6180 N.4   1 <1>  -0.9590 
 20 C        2.8040     0.6130     2.7610 C.ar  1 <1>  -0.1500 
 21 C       -3.8670    -5.6390     0.0530 C.3   1 <1>   0.3430 
 22 C       -3.5730    -6.4040     1.3440 C.3   1 <1>  -0.1600 
 23 C       -4.8660    -6.6840     2.1210 C.3   1 <1>  -0.1600 
 24 C       -4.5710    -7.4470     3.4150 C.3   1 <1>  -0.2400 
 25 H       -1.8260    -4.3340    -3.5360 H     1 <1>   0.0800 
 26 H       -1.4770    -2.8580    -2.7150 H     1 <1>   0.0800 
 27 H        0.2620    -5.8090    -0.5530 H     1 <1>   0.0800 
 28 H        0.1690    -6.5620    -2.1050 H     1 <1>   0.0800 
 29 H       -0.0070    -0.8490     1.6310 H     1 <1>   0.1500 
 30 H        4.0020    -1.2870     0.2560 H     1 <1>   0.1500 
 31 H       -3.6600    -4.3700    -2.2330 H     1 <1>   0.0800 
 32 H       -3.0000    -3.2390    -1.1010 H     1 <1>   0.0800 
 33 H       -1.6410    -7.1240    -0.3710 H     1 <1>   0.0800 
 34 H       -2.1720    -6.7930    -1.9990 H     1 <1>   0.0800 
 35 H        0.7480     0.7190     3.3340 H     1 <1>   0.1500 
 36 H        4.7570     0.2990     1.9600 H     1 <1>   0.1500 
 37 H       -2.0320    -4.7990     0.1420 H     1 <1>   0.4500 
 38 H        3.1330     1.3090     3.5120 H     1 <1>   0.1500 
 39 H       -4.4740    -6.2380    -0.6050 H     1 <1>   0.0800 
 40 H       -4.4130    -4.7450     0.3070 H     1 <1>   0.0800 
 41 H       -2.9150    -5.8120     1.9600 H     1 <1>   0.0800 
 42 H       -3.0910    -7.3390     1.1230 H     1 <1>   0.0800 
 43 H       -5.5420    -7.2650     1.5170 H     1 <1>   0.0800 
 44 H       -5.3490    -5.7530     2.3680 H     1 <1>   0.0800 
 45 H       -4.1110    -8.3960     3.2020 H     1 <1>   0.0800 
 46 H       -5.4850    -7.6250     3.9550 H     1 <1>   0.0800 
 47 H       -3.9110    -6.8770     4.0460 H     1 <1>   0.0800 
@<TRIPOS>BOND
  1   1   2  ar  
  2   2   3  ar  
  3   2   4  1   
  4   4   5  1   
  5   4   6  2   
  6   5   7  2   
  7   5   8  1   
  8   6   9  1   
  9   6  10  1   
 10   7   9  1   
 11   8  11  1   
 12   8  12  1   
 13  10  13  ar  
 14  10  14  ar  
 15  11  15  1   
 16  11  25  1   
 17  11  26  1   
 18  12  16  1   
 19  12  27  1   
 20  12  28  1   
 21  13  17  ar  
 22  13  29  1   
 23  14  18  ar  
 24  14  30  1   
 25  15  19  1   
 26  15  31  1   
 27  15  32  1   
 28  16  19  1   
 29  16  33  1   
 30  16  34  1   
 31  17  20  ar  
 32  17  35  1   
 33  18  20  ar  
 34  18  36  1   
 35  19  21  1   
 36  19  37  1   
 37  20  38  1   
 38  21  22  1   
 39  21  39  1   
 40  21  40  1   
 41  22  23  1   
 42  22  41  1   
 43  22  42  1   
 44  23  24  1   
 45  23  43  1   
 46  23  44  1   
 47  24  45  1   
 48  24  46  1   
 49  24  47  1   
@<TRIPOS>SUBSTRUCTURE
  1 ****   2 GROUP 4 **** **** 0

# MOE 2024.06 (io_trps.svl 2023.06)
