@<TRIPOS>MOLECULE
NONAME
46 49 1 0 0 
SMALL
USER_CHARGES


@<TRIPOS>ATOM
  1 O       -0.8000     0.3460     0.7320 O.2   1 <1>  -0.5700 
  2 C       -1.7850     0.9130     0.2950 C.2   1 <1>   0.6900 
  3 N       -3.0420     0.5420     0.6910 N.am  1 <1>  -0.6600 
  4 N       -1.6460     1.9270    -0.5930 N.am  1 <1>  -0.7300 
  5 C       -3.2420    -0.3320     1.8780 C.3   1 <1>   0.1400 
  6 C       -4.2460     0.6560    -0.1720 C.3   1 <1>   0.1400 
  7 C       -0.3650     2.4810    -1.0660 C.3   1 <1>   0.1400 
  8 C       -3.6090    -1.7390     1.4070 C.3   1 <1>  -0.1600 
  9 C       -4.6200    -0.7380    -0.6780 C.3   1 <1>  -0.1600 
 10 C       -0.4150     3.9990    -0.9380 C.3   1 <1>  -0.2400 
 11 C       -4.8290    -1.7230     0.4800 C.3   1 <1>   0.4600 
 12 O       -5.9190    -1.2870     1.2650 O.3   1 <1>  -0.5600 
 13 C       -5.1110    -3.1270    -0.0400 C.2   1 <1>  -0.3320 
 14 C       -7.2210    -1.6020     0.8270 C.3   1 <1>   0.1200 
 15 N       -4.2350    -3.9330    -0.7130 N.pl3 1 <1>   0.0330 
 16 C       -6.2860    -3.7710     0.1040 C.2   1 <1>  -0.1810 
 17 C       -7.4520    -3.1220     0.8090 C.3   1 <1>   0.0210 
 18 C       -4.8770    -5.1140    -0.9950 C.ar  1 <1>  -0.1520 
 19 C       -6.1730    -5.0440    -0.4900 C.ar  1 <1>   0.0000 
 20 C       -4.4280    -6.2590    -1.6590 C.ar  1 <1>  -0.1500 
 21 C       -7.0360    -6.1330    -0.6470 C.ar  1 <1>  -0.1500 
 22 C       -5.2890    -7.3220    -1.8080 C.ar  1 <1>  -0.1500 
 23 C       -6.5930    -7.2590    -1.3010 C.ar  1 <1>  -0.1500 
 24 H       -2.4720     2.4900    -0.7750 H     1 <1>   0.3700 
 25 H       -4.0350     0.0720     2.4850 H     1 <1>   0.0800 
 26 H       -2.3480    -0.3660     2.4780 H     1 <1>   0.0800 
 27 H       -4.0620     1.3040    -1.0100 H     1 <1>   0.0800 
 28 H       -5.0560     1.0690     0.4060 H     1 <1>   0.0800 
 29 H       -0.2130     2.1970    -2.0930 H     1 <1>   0.0800 
 30 H        0.4490     2.0880    -0.4790 H     1 <1>   0.0800 
 31 H       -3.8150    -2.3690     2.2520 H     1 <1>   0.0800 
 32 H       -2.7620    -2.1500     0.8910 H     1 <1>   0.0800 
 33 H       -3.8230    -1.0940    -1.3040 H     1 <1>   0.0800 
 34 H       -5.5020    -0.6890    -1.2870 H     1 <1>   0.0800 
 35 H       -1.2040     4.4040    -1.5450 H     1 <1>   0.0800 
 36 H        0.5180     4.4180    -1.2680 H     1 <1>   0.0800 
 37 H       -0.5670     4.2780     0.0900 H     1 <1>   0.0800 
 38 H       -7.3600    -1.1920    -0.1570 H     1 <1>   0.0800 
 39 H       -7.9150    -1.1300     1.4990 H     1 <1>   0.0800 
 40 H       -3.2630    -3.7140    -0.9540 H     1 <1>   0.2700 
 41 H       -8.3670    -3.3440     0.2930 H     1 <1>   0.0800 
 42 H       -7.5210    -3.4960     1.8140 H     1 <1>   0.0800 
 43 H       -3.4250    -6.2990    -2.0440 H     1 <1>   0.1500 
 44 H       -8.0330    -6.0700    -0.2530 H     1 <1>   0.1500 
 45 H       -4.9670    -8.2150    -2.3150 H     1 <1>   0.1500 
 46 H       -7.2460    -8.1040    -1.4300 H     1 <1>   0.1500 
@<TRIPOS>BOND
  1   1   2  2   
  2   2   3  am  
  3   2   4  am  
  4   3   5  1   
  5   3   6  1   
  6   4   7  1   
  7   4  24  1   
  8   5   8  1   
  9   5  25  1   
 10   5  26  1   
 11   6   9  1   
 12   6  27  1   
 13   6  28  1   
 14   7  10  1   
 15   7  29  1   
 16   7  30  1   
 17   8  11  1   
 18   8  31  1   
 19   8  32  1   
 20   9  11  1   
 21   9  33  1   
 22   9  34  1   
 23  10  35  1   
 24  10  36  1   
 25  10  37  1   
 26  11  12  1   
 27  11  13  1   
 28  12  14  1   
 29  13  15  1   
 30  13  16  2   
 31  14  17  1   
 32  14  38  1   
 33  14  39  1   
 34  15  18  1   
 35  15  40  1   
 36  16  17  1   
 37  16  19  1   
 38  17  41  1   
 39  17  42  1   
 40  18  19  ar  
 41  18  20  ar  
 42  19  21  ar  
 43  20  22  ar  
 44  20  43  1   
 45  21  23  ar  
 46  21  44  1   
 47  22  23  ar  
 48  22  45  1   
 49  23  46  1   
@<TRIPOS>SUBSTRUCTURE
  1 ****  11 GROUP 4 **** **** 0

# MOE 2024.06 (io_trps.svl 2023.06)
