@<TRIPOS>MOLECULE
NONAME
41 42 1 0 0 
SMALL
USER_CHARGES


@<TRIPOS>ATOM
  1 S        0.2450     0.3090    -0.9390 S.o2  1 <1>   1.3330 
  2 O       -0.8190     1.1970    -1.3490 O.2   1 <1>  -0.6500 
  3 O        0.4300    -0.9520    -1.6220 O.2   1 <1>  -0.6500 
  4 N        0.0070    -0.0260     0.7100 N.am  1 <1>  -0.8490 
  5 C        1.8040     1.1970    -0.9750 C.3   1 <1>  -0.0550 
  6 C       -0.5230     1.1160     1.4650 C.3   1 <1>   0.1160 
  7 C       -0.8530    -1.1950     0.9150 C.3   1 <1>   0.1160 
  8 C        3.0370     0.3350    -0.6250 C.3   1 <1>  -0.0800 
  9 C        4.3750     1.0370    -0.7960 C.3   1 <1>   0.2200 
 10 C        3.1000    -0.1600     0.8250 C.3   1 <1>   0.1200 
 11 N        4.3160     2.4160    -0.2560 N.am  1 <1>  -0.7300 
 12 C        5.2510     0.1910     0.1160 C.3   1 <1>   0.1200 
 13 O        4.4440    -0.1130     1.2110 O.3   1 <1>  -0.5600 
 14 C        4.1790     3.5580    -0.9890 C.2   1 <1>   0.5440 
 15 O        4.1040     3.4490    -2.1970 O.2   1 <1>  -0.5700 
 16 C        4.1290     4.8680    -0.3680 C.ar  1 <1>   0.0860 
 17 C        3.5860     5.1020     0.9020 C.ar  1 <1>   0.1900 
 18 C        4.6340     5.9860    -1.0430 C.ar  1 <1>  -0.1500 
 19 F        3.0720     4.1130     1.5820 F     1 <1>  -0.1900 
 20 C        3.5460     6.3490     1.4960 C.ar  1 <1>  -0.1500 
 21 C        4.6090     7.2510    -0.4780 C.ar  1 <1>  -0.1500 
 22 C        4.0670     7.4100     0.7840 C.ar  1 <1>   0.1900 
 23 F        4.0450     8.5980     1.3170 F     1 <1>  -0.1900 
 24 H        1.9450     1.5860    -1.9650 H     1 <1>   0.0800 
 25 H        1.7450     2.0360    -0.3110 H     1 <1>   0.0800 
 26 H       -0.5750     0.8740     2.5130 H     1 <1>   0.0800 
 27 H       -1.5110     1.3730     1.1160 H     1 <1>   0.0800 
 28 H        0.1180     1.9720     1.3460 H     1 <1>   0.0800 
 29 H       -0.9750    -1.3910     1.9660 H     1 <1>   0.0800 
 30 H       -0.4080    -2.0650     0.4610 H     1 <1>   0.0800 
 31 H       -1.8210    -1.0310     0.4690 H     1 <1>   0.0800 
 32 H        3.0360    -0.5320    -1.2640 H     1 <1>   0.0800 
 33 H        4.7230     1.0380    -1.8160 H     1 <1>   0.0800 
 34 H        2.7410    -1.1710     0.9200 H     1 <1>   0.0800 
 35 H        2.5510     0.4830     1.4910 H     1 <1>   0.0800 
 36 H        4.3070     2.4580     0.7680 H     1 <1>   0.3700 
 37 H        6.1350     0.7090     0.4460 H     1 <1>   0.0800 
 38 H        5.5220    -0.7330    -0.3630 H     1 <1>   0.0800 
 39 H        5.0510     5.8530    -2.0280 H     1 <1>   0.1500 
 40 H        3.1250     6.4930     2.4740 H     1 <1>   0.1500 
 41 H        5.0020     8.1030    -1.0040 H     1 <1>   0.1500 
@<TRIPOS>BOND
  1   1   2  2   
  2   1   3  2   
  3   1   4  am  
  4   1   5  1   
  5   4   6  1   
  6   4   7  1   
  7   5   8  1   
  8   5  24  1   
  9   5  25  1   
 10   6  26  1   
 11   6  27  1   
 12   6  28  1   
 13   7  29  1   
 14   7  30  1   
 15   7  31  1   
 16   8   9  1   
 17   8  10  1   
 18   8  32  1   
 19   9  11  1   
 20   9  12  1   
 21   9  33  1   
 22  10  13  1   
 23  10  34  1   
 24  10  35  1   
 25  11  14  am  
 26  11  36  1   
 27  12  13  1   
 28  12  37  1   
 29  12  38  1   
 30  14  15  2   
 31  14  16  1   
 32  16  17  ar  
 33  16  18  ar  
 34  17  19  1   
 35  17  20  ar  
 36  18  21  ar  
 37  18  39  1   
 38  20  22  ar  
 39  20  40  1   
 40  21  22  ar  
 41  21  41  1   
 42  22  23  1   
@<TRIPOS>SUBSTRUCTURE
  1 ****  11 GROUP 4 **** **** 0

# MOE 2024.06 (io_trps.svl 2023.06)
