@<TRIPOS>MOLECULE
NONAME
44 46 1 0 0 
SMALL
USER_CHARGES


@<TRIPOS>ATOM
  1 S       -2.3380     1.3190     1.0910 S.3   1 <1>  -0.3320 
  2 C       -1.1800     2.3270     0.1580 C.ar  1 <1>   0.4120 
  3 C       -1.4820     0.9540     2.6880 C.3   1 <1>  -0.0100 
  4 N       -0.0520     2.6100     0.7960 N.ar  1 <1>  -0.6200 
  5 C       -1.5250     2.7420    -1.1300 C.ar  1 <1>   0.0860 
  6 C        0.8110     3.3390     0.1100 C.ar  1 <1>   0.1600 
  7 C       -2.7870     2.4100    -1.7410 C.2   1 <1>   0.5440 
  8 C       -0.5870     3.5020    -1.8150 C.ar  1 <1>  -0.1500 
  9 C        0.5970     3.8020    -1.1780 C.ar  1 <1>  -0.1500 
 10 O       -2.8140     1.5270    -2.5770 O.2   1 <1>  -0.5700 
 11 N       -3.9450     3.1030    -1.4460 N.am  1 <1>  -0.6600 
 12 C       -5.2620     2.7260    -2.0340 C.3   1 <1>   0.1400 
 13 C       -4.0120     4.2790    -0.5350 C.3   1 <1>   0.1400 
 14 C       -6.2510     2.4230    -0.9070 C.3   1 <1>  -0.1600 
 15 C       -4.9930     3.9890     0.6030 C.3   1 <1>  -0.1600 
 16 C       -6.3780     3.5960     0.0700 C.3   1 <1>   0.4180 
 17 O       -6.9150     4.6680    -0.6680 O.3   1 <1>  -0.5600 
 18 C       -7.3160     3.2130     1.2120 C.2   1 <1>  -0.2880 
 19 C       -7.5300     5.7020     0.0490 C.3   1 <1>   0.1200 
 20 C       -8.4050     3.9050     1.5540 C.2   1 <1>  -0.2760 
 21 C       -8.7570     5.1790     0.8080 C.3   1 <1>  -0.0220 
 22 C       -9.3650     3.5090     2.6610 C.3   1 <1>  -0.1020 
 23 H       -2.1360     0.3400     3.2790 H     1 <1>   0.0800 
 24 H       -1.2810     1.8900     3.1760 H     1 <1>   0.0800 
 25 H       -0.5670     0.4370     2.4590 H     1 <1>   0.0800 
 26 H        1.7410     3.5810     0.5980 H     1 <1>   0.1500 
 27 H       -0.7920     3.8390    -2.8170 H     1 <1>   0.1500 
 28 H        1.3510     4.3880    -1.6720 H     1 <1>   0.1500 
 29 H       -5.1670     1.8620    -2.6690 H     1 <1>   0.0800 
 30 H       -5.6260     3.5420    -2.6340 H     1 <1>   0.0800 
 31 H       -4.3510     5.1340    -1.0950 H     1 <1>   0.0800 
 32 H       -3.0450     4.5110    -0.1250 H     1 <1>   0.0800 
 33 H       -5.9100     1.5500    -0.3810 H     1 <1>   0.0800 
 34 H       -7.2170     2.2010    -1.3190 H     1 <1>   0.0800 
 35 H       -5.0730     4.8400     1.2500 H     1 <1>   0.0800 
 36 H       -4.6060     3.1800     1.1930 H     1 <1>   0.0800 
 37 H       -7.0100     2.3120     1.7120 H     1 <1>   0.1500 
 38 H       -7.8210     6.4620    -0.6540 H     1 <1>   0.0800 
 39 H       -6.8140     6.1200     0.7330 H     1 <1>   0.0800 
 40 H       -9.5580     4.9870     0.1160 H     1 <1>   0.0800 
 41 H       -9.0810     5.9380     1.4970 H     1 <1>   0.0800 
 42 H       -9.4020     4.2760     3.4140 H     1 <1>   0.0800 
 43 H       -9.0480     2.5910     3.1230 H     1 <1>   0.0800 
 44 H      -10.3520     3.3650     2.2590 H     1 <1>   0.0800 
@<TRIPOS>BOND
  1   1   2  1   
  2   1   3  1   
  3   2   4  ar  
  4   2   5  ar  
  5   3  23  1   
  6   3  24  1   
  7   3  25  1   
  8   4   6  ar  
  9   5   7  1   
 10   5   8  ar  
 11   6   9  ar  
 12   6  26  1   
 13   7  10  2   
 14   7  11  am  
 15   8   9  ar  
 16   8  27  1   
 17   9  28  1   
 18  11  12  1   
 19  11  13  1   
 20  12  14  1   
 21  12  29  1   
 22  12  30  1   
 23  13  15  1   
 24  13  31  1   
 25  13  32  1   
 26  14  16  1   
 27  14  33  1   
 28  14  34  1   
 29  15  16  1   
 30  15  35  1   
 31  15  36  1   
 32  16  17  1   
 33  16  18  1   
 34  17  19  1   
 35  18  20  2   
 36  18  37  1   
 37  19  21  1   
 38  19  38  1   
 39  19  39  1   
 40  20  21  1   
 41  20  22  1   
 42  21  40  1   
 43  21  41  1   
 44  22  42  1   
 45  22  43  1   
 46  22  44  1   
@<TRIPOS>SUBSTRUCTURE
  1 ****  13 GROUP 4 **** **** 0

# MOE 2024.06 (io_trps.svl 2023.06)
