@<TRIPOS>MOLECULE
NONAME
43 45 1 0 0 
SMALL
USER_CHARGES


@<TRIPOS>ATOM
  1 O        1.2160    -0.4100    -1.0640 O.3   1 <1>  -0.0190 
  2 N        1.5340     0.5420    -0.2410 N.2   1 <1>  -0.4100 
  3 C        0.8510    -1.3980    -0.2830 C.2   1 <1>   0.2980 
  4 C        1.3560     0.0910     0.9350 C.2   1 <1>   0.3350 
  5 N        0.9250    -1.1590     0.9680 N.2   1 <1>  -0.5650 
  6 C        0.4230    -2.7180    -0.9230 C.3   1 <1>   0.2900 
  7 C        1.5970     0.8630     2.2090 C.3   1 <1>  -0.0590 
  8 N       -0.9800    -2.7430    -1.4260 N.3   1 <1>  -0.8100 
  9 C       -1.4140    -4.0930    -1.8270 C.3   1 <1>   0.1100 
 10 C       -1.1940    -1.7840    -2.5200 C.3   1 <1>   0.0300 
 11 C       -1.6660    -5.0000    -0.6110 C.3   1 <1>  -0.0800 
 12 C       -2.3100    -6.3310    -0.9980 C.3   1 <1>   0.2090 
 13 C       -2.6370    -4.4080     0.4070 C.3   1 <1>  -0.1600 
 14 N       -3.1700    -6.7150     0.1510 N.pl3 1 <1>  -0.8380 
 15 C       -3.1760    -5.6180     1.1520 C.3   1 <1>   0.2090 
 16 C       -3.2930    -8.0660     0.5050 C.ar  1 <1>   0.1000 
 17 C       -3.4200    -9.0330    -0.4900 C.ar  1 <1>  -0.1500 
 18 C       -3.3100    -8.5010     1.8310 C.ar  1 <1>  -0.1500 
 19 C       -3.5360   -10.3770    -0.1820 C.ar  1 <1>  -0.1500 
 20 C       -3.4270    -9.8430     2.1460 C.ar  1 <1>  -0.1500 
 21 C       -3.5370   -10.7860     1.1390 C.ar  1 <1>  -0.1500 
 22 H        0.5400    -3.4730    -0.1680 H     1 <1>   0.0800 
 23 H        1.1000    -2.9510    -1.7250 H     1 <1>   0.0800 
 24 H        1.9340     1.8570     1.9800 H     1 <1>   0.0800 
 25 H        2.3440     0.3630     2.7960 H     1 <1>   0.0800 
 26 H        0.6840     0.9200     2.7710 H     1 <1>   0.0800 
 27 H       -0.6840    -4.5380    -2.4820 H     1 <1>   0.0800 
 28 H       -2.3400    -4.0110    -2.3710 H     1 <1>   0.0800 
 29 H       -1.0270    -0.7790    -2.1740 H     1 <1>   0.0800 
 30 H       -2.2130    -1.8400    -2.8650 H     1 <1>   0.0800 
 31 H       -0.5320    -1.9910    -3.3430 H     1 <1>   0.0800 
 32 H       -0.7380    -5.2330    -0.1220 H     1 <1>   0.0800 
 33 H       -1.5620    -7.0810    -1.1890 H     1 <1>   0.0800 
 34 H       -2.9350    -6.2150    -1.8660 H     1 <1>   0.0800 
 35 H       -3.4510    -3.9150    -0.0950 H     1 <1>   0.0800 
 36 H       -2.1580    -3.7070     1.0680 H     1 <1>   0.0800 
 37 H       -4.1720    -5.4460     1.5240 H     1 <1>   0.0800 
 38 H       -2.5140    -5.8610     1.9640 H     1 <1>   0.0800 
 39 H       -3.4380    -8.7280    -1.5180 H     1 <1>   0.1500 
 40 H       -3.2330    -7.7940     2.6310 H     1 <1>   0.1500 
 41 H       -3.6290   -11.1030    -0.9700 H     1 <1>   0.1500 
 42 H       -3.4330   -10.1540     3.1750 H     1 <1>   0.1500 
 43 H       -3.6270   -11.8300     1.3830 H     1 <1>   0.1500 
@<TRIPOS>BOND
  1   1   2  1   
  2   1   3  1   
  3   2   4  2   
  4   3   5  2   
  5   3   6  1   
  6   4   5  1   
  7   4   7  1   
  8   6   8  1   
  9   6  22  1   
 10   6  23  1   
 11   7  24  1   
 12   7  25  1   
 13   7  26  1   
 14   8   9  1   
 15   8  10  1   
 16   9  11  1   
 17   9  27  1   
 18   9  28  1   
 19  10  29  1   
 20  10  30  1   
 21  10  31  1   
 22  11  12  1   
 23  11  13  1   
 24  11  32  1   
 25  12  14  1   
 26  12  33  1   
 27  12  34  1   
 28  13  15  1   
 29  13  35  1   
 30  13  36  1   
 31  14  15  1   
 32  14  16  1   
 33  15  37  1   
 34  15  38  1   
 35  16  17  ar  
 36  16  18  ar  
 37  17  19  ar  
 38  17  39  1   
 39  18  20  ar  
 40  18  40  1   
 41  19  21  ar  
 42  19  41  1   
 43  20  21  ar  
 44  20  42  1   
 45  21  43  1   
@<TRIPOS>SUBSTRUCTURE
  1 ****  11 GROUP 4 **** **** 0

# MOE 2024.06 (io_trps.svl 2023.06)
