@<TRIPOS>MOLECULE
NONAME
48 51 1 0 0 
SMALL
USER_CHARGES


@<TRIPOS>ATOM
  1 O       -0.6770     0.8210    -1.0810 O.2   1 <1>  -0.5700 
  2 C       -1.6810     1.2620    -0.5390 C.2   1 <1>   0.7160 
  3 N       -2.8600     0.5500    -0.7030 N.am  1 <1>  -0.6600 
  4 C       -1.5880     2.4890     0.2550 C.2   1 <1>   0.1410 
  5 C       -3.0450    -0.4290    -1.8100 C.3   1 <1>   0.1400 
  6 C       -4.0630     0.7320     0.1530 C.3   1 <1>   0.1400 
  7 N       -2.5700     3.4460     0.2950 N.2   1 <1>  -0.5650 
  8 C       -0.5500     2.9120     1.0470 C.2   1 <1>  -0.3320 
  9 C       -3.4510    -1.7870    -1.2330 C.3   1 <1>  -0.1600 
 10 C       -4.4810    -0.6190     0.7390 C.3   1 <1>  -0.1600 
 11 C       -2.1110     4.3720     1.0640 C.2   1 <1>   0.0360 
 12 N       -0.8860     4.1060     1.5520 N.pl3 1 <1>   0.0330 
 13 C        0.7800     2.2450     1.3610 C.3   1 <1>  -0.0600 
 14 C       -4.7040    -1.6810    -0.3510 C.3   1 <1>   0.4240 
 15 O       -5.7240    -1.2250    -1.2090 O.3   1 <1>  -0.5600 
 16 C       -5.0500    -3.0540     0.2670 C.ar  1 <1>  -0.1430 
 17 C       -7.0420    -1.4410    -0.8120 C.3   1 <1>   0.1200 
 18 C       -6.2870    -3.6520     0.0470 C.ar  1 <1>  -0.1430 
 19 C       -4.1270    -3.7190     1.0680 C.ar  1 <1>  -0.1500 
 20 C       -7.3150    -2.9420    -0.8110 C.3   1 <1>  -0.0170 
 21 C       -6.5870    -4.8860     0.6030 C.ar  1 <1>  -0.1500 
 22 C       -4.4260    -4.9490     1.6260 C.ar  1 <1>  -0.1500 
 23 C       -5.6540    -5.5430     1.3980 C.ar  1 <1>   0.0830 
 24 O       -5.8680    -6.7500     1.9790 O.3   1 <1>  -0.3630 
 25 C       -7.0780    -7.4500     1.7910 C.3   1 <1>   0.0400 
 26 H       -2.1410    -0.5370    -2.3840 H     1 <1>   0.0800 
 27 H       -3.8140    -0.0670    -2.4710 H     1 <1>   0.0800 
 28 H       -4.8600     1.1450    -0.4430 H     1 <1>   0.0800 
 29 H       -3.8620     1.4100     0.9630 H     1 <1>   0.0800 
 30 H       -2.6240    -2.1660    -0.6640 H     1 <1>   0.0800 
 31 H       -3.6410    -2.4800    -2.0310 H     1 <1>   0.0800 
 32 H       -5.3680    -0.5040     1.3310 H     1 <1>   0.0800 
 33 H       -3.7030    -0.9470     1.4030 H     1 <1>   0.0800 
 34 H       -2.6370     5.2800     1.3040 H     1 <1>   0.1500 
 35 H       -0.3310     4.7020     2.1730 H     1 <1>   0.2700 
 36 H        0.8220     1.2550     0.9450 H     1 <1>   0.0800 
 37 H        0.9170     2.1680     2.4250 H     1 <1>   0.0800 
 38 H        1.5880     2.8190     0.9450 H     1 <1>   0.0800 
 39 H       -7.6840    -0.9410    -1.5160 H     1 <1>   0.0800 
 40 H       -7.1940    -1.0180     0.1650 H     1 <1>   0.0800 
 41 H       -3.1630    -3.2860     1.2670 H     1 <1>   0.1500 
 42 H       -7.2650    -3.3140    -1.8190 H     1 <1>   0.0800 
 43 H       -8.3050    -3.1200    -0.4330 H     1 <1>   0.0800 
 44 H       -7.5470    -5.3220     0.4100 H     1 <1>   0.1500 
 45 H       -3.7070    -5.4570     2.2420 H     1 <1>   0.1500 
 46 H       -7.0150    -8.3750     2.3340 H     1 <1>   0.0800 
 47 H       -7.2070    -7.6480     0.7420 H     1 <1>   0.0800 
 48 H       -7.8880    -6.8550     2.1750 H     1 <1>   0.0800 
@<TRIPOS>BOND
  1   1   2  2   
  2   2   3  am  
  3   2   4  1   
  4   3   5  1   
  5   3   6  1   
  6   4   7  1   
  7   4   8  2   
  8   5   9  1   
  9   5  26  1   
 10   5  27  1   
 11   6  10  1   
 12   6  28  1   
 13   6  29  1   
 14   7  11  2   
 15   8  12  1   
 16   8  13  1   
 17   9  14  1   
 18   9  30  1   
 19   9  31  1   
 20  10  14  1   
 21  10  32  1   
 22  10  33  1   
 23  11  12  1   
 24  11  34  1   
 25  12  35  1   
 26  13  36  1   
 27  13  37  1   
 28  13  38  1   
 29  14  15  1   
 30  14  16  1   
 31  15  17  1   
 32  16  18  ar  
 33  16  19  ar  
 34  17  20  1   
 35  17  39  1   
 36  17  40  1   
 37  18  20  1   
 38  18  21  ar  
 39  19  22  ar  
 40  19  41  1   
 41  20  42  1   
 42  20  43  1   
 43  21  23  ar  
 44  21  44  1   
 45  22  23  ar  
 46  22  45  1   
 47  23  24  1   
 48  24  25  1   
 49  25  46  1   
 50  25  47  1   
 51  25  48  1   
@<TRIPOS>SUBSTRUCTURE
  1 ****  10 GROUP 4 **** **** 0

# MOE 2024.06 (io_trps.svl 2023.06)
