@<TRIPOS>MOLECULE
NONAME
52 55 1 0 0 
SMALL
USER_CHARGES


@<TRIPOS>ATOM
  1 O       -1.9020    -1.2620     0.1590 O.2   1 <1>  -0.5700 
  2 C       -1.1610    -2.2080     0.0040 C.2   1 <1>   0.7800 
  3 O       -0.0310    -2.3360     0.6820 O.3   1 <1>  -0.4300 
  4 N       -1.3780    -3.2590    -0.8120 N.am  1 <1>  -0.6600 
  5 C        0.6110    -3.5570     0.3650 C.3   1 <1>   0.1200 
  6 C       -0.3160    -4.2530    -0.6400 C.3   1 <1>   0.1400 
  7 C       -2.6520    -3.5730    -1.5250 C.3   1 <1>   0.2010 
  8 C       -3.4560    -4.6920    -0.8510 C.2   1 <1>   0.5690 
  9 O       -3.4120    -5.7810    -1.3770 O.2   1 <1>  -0.5700 
 10 N       -4.1780    -4.4890     0.3040 N.am  1 <1>  -0.6600 
 11 C       -4.8330    -5.6530     0.9750 C.3   1 <1>   0.1400 
 12 C       -4.3150    -3.1630     0.9800 C.3   1 <1>   0.1400 
 13 C       -6.2770    -5.8390     0.4870 C.3   1 <1>   0.1400 
 14 C       -5.7040    -2.9110     1.5830 C.3   1 <1>  -0.1600 
 15 N       -7.2100    -4.8010     1.0390 N.am  1 <1>  -0.6600 
 16 C       -6.8600    -3.3910     0.7000 C.3   1 <1>   0.1400 
 17 C       -8.3650    -5.0770     1.7400 C.2   1 <1>   0.5690 
 18 O       -9.0480    -4.1920     2.2020 O.2   1 <1>  -0.5700 
 19 C       -8.8410    -6.4960     2.0060 C.3   1 <1>   0.1570 
 20 N       -9.1940    -7.1980     0.7550 N.pl3 1 <1>   0.0480 
 21 C       -8.7200    -8.4260     0.3450 C.ar  1 <1>  -0.1520 
 22 C       -9.9970    -6.7110    -0.2400 C.2   1 <1>  -0.3020 
 23 C       -9.2250    -8.6880    -0.9240 C.ar  1 <1>   0.0000 
 24 C       -7.8760    -9.3490     0.9740 C.ar  1 <1>  -0.1500 
 25 C      -10.0360    -7.5880    -1.2700 C.2   1 <1>  -0.1500 
 26 C       -8.8810    -9.8720    -1.5840 C.ar  1 <1>  -0.1500 
 27 C       -7.5440   -10.5110     0.3150 C.ar  1 <1>  -0.1500 
 28 C       -8.0460   -10.7720    -0.9650 C.ar  1 <1>  -0.1500 
 29 H        0.7280    -4.1330     1.2660 H     1 <1>   0.0800 
 30 H        1.5720    -3.3390    -0.0660 H     1 <1>   0.0800 
 31 H        0.1870    -4.4440    -1.5730 H     1 <1>   0.0800 
 32 H       -0.7080    -5.1710    -0.2370 H     1 <1>   0.0800 
 33 H       -2.4150    -3.8840    -2.5260 H     1 <1>   0.0800 
 34 H       -3.2550    -2.6880    -1.6030 H     1 <1>   0.0800 
 35 H       -4.8150    -5.5310     2.0430 H     1 <1>   0.0800 
 36 H       -4.2810    -6.5480     0.7480 H     1 <1>   0.0800 
 37 H       -4.1360    -2.3780     0.2700 H     1 <1>   0.0800 
 38 H       -3.5670    -3.0780     1.7510 H     1 <1>   0.0800 
 39 H       -6.5890    -6.8200     0.7850 H     1 <1>   0.0800 
 40 H       -6.2990    -5.8110    -0.5890 H     1 <1>   0.0800 
 41 H       -5.8020    -1.8490     1.7200 H     1 <1>   0.0800 
 42 H       -5.7780    -3.3530     2.5600 H     1 <1>   0.0800 
 43 H       -6.6020    -3.3170    -0.3420 H     1 <1>   0.0800 
 44 H       -7.7120    -2.7540     0.8640 H     1 <1>   0.0800 
 45 H       -9.7130    -6.4630     2.6310 H     1 <1>   0.0800 
 46 H       -8.0730    -7.0340     2.5240 H     1 <1>   0.0800 
 47 H      -10.4930    -5.7590    -0.1550 H     1 <1>   0.1500 
 48 H       -7.4930    -9.1580     1.9590 H     1 <1>   0.1500 
 49 H      -10.5720    -7.5020    -2.1980 H     1 <1>   0.1500 
 50 H       -9.2760   -10.0570    -2.5660 H     1 <1>   0.1500 
 51 H       -6.8960   -11.2340     0.7780 H     1 <1>   0.1500 
 52 H       -7.7700   -11.6860    -1.4600 H     1 <1>   0.1500 
@<TRIPOS>BOND
  1   1   2  2   
  2   2   3  1   
  3   2   4  am  
  4   3   5  1   
  5   4   6  1   
  6   4   7  1   
  7   5   6  1   
  8   5  29  1   
  9   5  30  1   
 10   6  31  1   
 11   6  32  1   
 12   7   8  1   
 13   7  33  1   
 14   7  34  1   
 15   8   9  2   
 16   8  10  am  
 17  10  11  1   
 18  10  12  1   
 19  11  13  1   
 20  11  35  1   
 21  11  36  1   
 22  12  14  1   
 23  12  37  1   
 24  12  38  1   
 25  13  15  1   
 26  13  39  1   
 27  13  40  1   
 28  14  16  1   
 29  14  41  1   
 30  14  42  1   
 31  15  16  1   
 32  15  17  am  
 33  16  43  1   
 34  16  44  1   
 35  17  18  2   
 36  17  19  1   
 37  19  20  1   
 38  19  45  1   
 39  19  46  1   
 40  20  21  1   
 41  20  22  1   
 42  21  23  ar  
 43  21  24  ar  
 44  22  25  2   
 45  22  47  1   
 46  23  25  1   
 47  23  26  ar  
 48  24  27  ar  
 49  24  48  1   
 50  25  49  1   
 51  26  28  ar  
 52  26  50  1   
 53  27  28  ar  
 54  27  51  1   
 55  28  52  1   
@<TRIPOS>SUBSTRUCTURE
  1 ****  13 GROUP 4 **** **** 0

# MOE 2024.06 (io_trps.svl 2023.06)
