@<TRIPOS>MOLECULE
NONAME
51 55 1 0 0 
SMALL
USER_CHARGES


@<TRIPOS>ATOM
  1 O       -1.9970     0.5290    -0.7210 O.3   1 <1>  -0.2800 
  2 C       -2.6340     0.0850     0.3620 C.2   1 <1>   0.0870 
  3 C       -1.2500     1.5580    -0.3870 C.2   1 <1>  -0.0100 
  4 C       -3.5380    -1.0460     0.3030 C.ar  1 <1>   0.6730 
  5 C       -2.2710     0.8700     1.4160 C.2   1 <1>  -0.1500 
  6 C       -1.3740     1.8230     0.9300 C.2   1 <1>  -0.1500 
  7 N       -4.1790    -1.3800     1.4320 N.ar  1 <1>  -0.6200 
  8 N       -3.6900    -1.6920    -0.8600 N.ar  1 <1>  -0.6200 
  9 C       -5.0010    -2.3960     1.3820 C.ar  1 <1>   0.1600 
 10 C       -4.5130    -2.7060    -0.8870 C.ar  1 <1>   0.1600 
 11 C       -5.2230    -3.0990     0.2220 C.ar  1 <1>  -0.1430 
 12 C       -6.2090    -4.2440     0.1630 C.3   1 <1>   0.4870 
 13 N       -7.4530    -3.7820    -0.5170 N.4   1 <1>  -0.9590 
 14 C       -8.1420    -2.6910     0.2640 C.3   1 <1>   0.3430 
 15 C       -8.3860    -4.9180    -0.7800 C.3   1 <1>   0.3430 
 16 C       -9.3670    -2.1290    -0.4760 C.3   1 <1>   0.1440 
 17 C       -9.5920    -4.4210    -1.5830 C.3   1 <1>  -0.1600 
 18 C      -10.0630    -1.1580     0.4450 C.ar  1 <1>   0.1670 
 19 C      -10.3260    -3.2700    -0.8730 C.3   1 <1>  -0.1600 
 20 C       -8.9890    -1.2320    -1.6860 C.3   1 <1>  -0.1600 
 21 N      -10.3420    -1.4010     1.7050 N.ar  1 <1>  -0.6200 
 22 C      -10.3570     0.0150    -0.1790 C.ar  1 <1>  -0.1430 
 23 C       -9.9010     0.0100    -1.6160 C.3   1 <1>  -0.0170 
 24 C      -10.9580    -0.4010     2.3230 C.ar  1 <1>   0.4770 
 25 C      -10.9910     0.9840     0.5580 C.ar  1 <1>   0.1600 
 26 N      -11.2960     0.7800     1.8230 N.ar  1 <1>  -0.6200 
 27 C      -11.3090    -0.6360     3.7730 C.3   1 <1>  -0.0970 
 28 H       -0.6600     2.0430    -1.1460 H     1 <1>   0.1500 
 29 H       -2.6030     0.7860     2.4360 H     1 <1>   0.1500 
 30 H       -0.8980     2.5940     1.5090 H     1 <1>   0.1500 
 31 H       -5.5080    -2.6600     2.2960 H     1 <1>   0.1500 
 32 H       -4.6160    -3.2240    -1.8270 H     1 <1>   0.1500 
 33 H       -6.4360    -4.5870     1.1600 H     1 <1>   0.0800 
 34 H       -5.7690    -5.0630    -0.3850 H     1 <1>   0.0800 
 35 H       -7.1880    -3.3790    -1.4250 H     1 <1>   0.4500 
 36 H       -7.4600    -1.8790     0.4600 H     1 <1>   0.0800 
 37 H       -8.4710    -3.0790     1.2140 H     1 <1>   0.0800 
 38 H       -8.7290    -5.3340     0.1550 H     1 <1>   0.0800 
 39 H       -7.8830    -5.6950    -1.3340 H     1 <1>   0.0800 
 40 H      -10.2780    -5.2400    -1.7210 H     1 <1>   0.0800 
 41 H       -9.2690    -4.1140    -2.5630 H     1 <1>   0.0800 
 42 H      -11.1160    -2.8900    -1.4990 H     1 <1>   0.0800 
 43 H      -10.7920    -3.6580     0.0190 H     1 <1>   0.0800 
 44 H       -9.0930    -1.7320    -2.6320 H     1 <1>   0.0800 
 45 H       -7.9700    -0.8960    -1.5870 H     1 <1>   0.0800 
 46 H      -10.7540    -0.1020    -2.2640 H     1 <1>   0.0800 
 47 H       -9.3690     0.9120    -1.8690 H     1 <1>   0.0800 
 48 H      -11.2500     1.9320     0.1160 H     1 <1>   0.1500 
 49 H      -11.8030    -1.5840     3.8770 H     1 <1>   0.0800 
 50 H      -11.9640     0.1370     4.1310 H     1 <1>   0.0800 
 51 H      -10.4130    -0.6360     4.3630 H     1 <1>   0.0800 
@<TRIPOS>BOND
  1   1   2  1   
  2   1   3  1   
  3   2   4  1   
  4   2   5  2   
  5   3   6  2   
  6   3  28  1   
  7   4   7  ar  
  8   4   8  ar  
  9   5   6  1   
 10   5  29  1   
 11   6  30  1   
 12   7   9  ar  
 13   8  10  ar  
 14   9  11  ar  
 15   9  31  1   
 16  10  11  ar  
 17  10  32  1   
 18  11  12  1   
 19  12  13  1   
 20  12  33  1   
 21  12  34  1   
 22  13  14  1   
 23  13  15  1   
 24  13  35  1   
 25  14  16  1   
 26  14  36  1   
 27  14  37  1   
 28  15  17  1   
 29  15  38  1   
 30  15  39  1   
 31  16  18  1   
 32  16  19  1   
 33  16  20  1   
 34  17  19  1   
 35  17  40  1   
 36  17  41  1   
 37  18  21  ar  
 38  18  22  ar  
 39  19  42  1   
 40  19  43  1   
 41  20  23  1   
 42  20  44  1   
 43  20  45  1   
 44  21  24  ar  
 45  22  23  1   
 46  22  25  ar  
 47  23  46  1   
 48  23  47  1   
 49  24  26  ar  
 50  24  27  1   
 51  25  26  ar  
 52  25  48  1   
 53  27  49  1   
 54  27  50  1   
 55  27  51  1   
@<TRIPOS>SUBSTRUCTURE
  1 ****  14 GROUP 4 **** **** 0

# MOE 2024.06 (io_trps.svl 2023.06)
