@<TRIPOS>MOLECULE
NONAME
40 42 1 0 0 
SMALL
USER_CHARGES


@<TRIPOS>ATOM
  1 O        1.4840     0.0670     1.6790 O.co2 1 <1>  -0.9000 
  2 C        1.5100     0.7340     0.6330 C.2   1 <1>   0.9060 
  3 O        0.8880     1.7900     0.5250 O.co2 1 <1>  -0.9000 
  4 C        2.3340     0.2050    -0.5560 C.3   1 <1>  -0.1060 
  5 C        3.6210    -0.4480    -0.0020 C.3   1 <1>   0.4230 
  6 C        2.7660     1.3740    -1.4900 C.3   1 <1>  -0.1600 
  7 C        1.4860    -0.8250    -1.3590 C.3   1 <1>  -0.1600 
  8 N        3.2600    -1.6600     0.8160 N.4   1 <1>  -0.9590 
  9 C        4.4990     0.5980     0.7240 C.3   1 <1>   0.2090 
 10 C        3.6590     2.3960    -0.7690 C.3   1 <1>   0.2090 
 11 C        2.0870    -2.2400    -1.3410 C.3   1 <1>  -0.1600 
 12 C        2.4800    -2.6940     0.0720 C.3   1 <1>   0.3430 
 13 C        4.3470    -2.2360     1.6510 C.3   1 <1>   0.2630 
 14 N        4.8610     1.6920    -0.2320 N.pl3 1 <1>  -0.8380 
 15 C        6.0610     2.3850    -0.0810 C.ar  1 <1>   0.4100 
 16 N        6.6860     2.2510     1.0840 N.ar  1 <1>  -0.6200 
 17 C        6.5890     3.1790    -1.1170 C.ar  1 <1>   0.1600 
 18 C        7.8040     2.9540     1.1500 C.ar  1 <1>   0.1600 
 19 N        7.7070     3.8780    -1.0560 N.ar  1 <1>  -0.6200 
 20 C        8.2990     3.7410     0.1200 C.ar  1 <1>   0.1600 
 21 H        4.2030    -0.7850    -0.8420 H     1 <1>   0.0800 
 22 H        1.8900     1.8860    -1.8500 H     1 <1>   0.0800 
 23 H        3.2970     0.9960    -2.3450 H     1 <1>   0.0800 
 24 H        0.4950    -0.8670    -0.9360 H     1 <1>   0.0800 
 25 H        1.3650    -0.5080    -2.3810 H     1 <1>   0.0800 
 26 H        2.5510    -1.2220     1.4660 H     1 <1>   0.4500 
 27 H        5.4000     0.1250     1.0680 H     1 <1>   0.0800 
 28 H        3.9810     1.0180     1.5690 H     1 <1>   0.0800 
 29 H        3.1210     2.8580     0.0430 H     1 <1>   0.0800 
 30 H        3.9400     3.1740    -1.4550 H     1 <1>   0.0800 
 31 H        2.9560    -2.2740    -1.9760 H     1 <1>   0.0800 
 32 H        1.3730    -2.9360    -1.7460 H     1 <1>   0.0800 
 33 H        3.0520    -3.6040     0.0000 H     1 <1>   0.0800 
 34 H        1.5820    -2.9080     0.6290 H     1 <1>   0.0800 
 35 H        5.1420    -2.6070     1.0250 H     1 <1>   0.0800 
 36 H        3.9640    -3.0450     2.2500 H     1 <1>   0.0800 
 37 H        4.7440    -1.4840     2.3140 H     1 <1>   0.0800 
 38 H        6.0430     3.2150    -2.0390 H     1 <1>   0.1500 
 39 H        8.3590     2.9040     2.0700 H     1 <1>   0.1500 
 40 H        9.2190     4.2780     0.2710 H     1 <1>   0.1500 
@<TRIPOS>BOND
  1   1   2  ar  
  2   2   3  ar  
  3   2   4  1   
  4   4   5  1   
  5   4   6  1   
  6   4   7  1   
  7   5   8  1   
  8   5   9  1   
  9   5  21  1   
 10   6  10  1   
 11   6  22  1   
 12   6  23  1   
 13   7  11  1   
 14   7  24  1   
 15   7  25  1   
 16   8  12  1   
 17   8  13  1   
 18   8  26  1   
 19   9  14  1   
 20   9  27  1   
 21   9  28  1   
 22  10  14  1   
 23  10  29  1   
 24  10  30  1   
 25  11  12  1   
 26  11  31  1   
 27  11  32  1   
 28  12  33  1   
 29  12  34  1   
 30  13  35  1   
 31  13  36  1   
 32  13  37  1   
 33  14  15  1   
 34  15  16  ar  
 35  15  17  ar  
 36  16  18  ar  
 37  17  19  ar  
 38  17  38  1   
 39  18  20  ar  
 40  18  39  1   
 41  19  20  ar  
 42  20  40  1   
@<TRIPOS>SUBSTRUCTURE
  1 ****   9 GROUP 4 **** **** 0

# MOE 2024.06 (io_trps.svl 2023.06)
