@<TRIPOS>MOLECULE
NONAME
61 63 1 0 0 
SMALL
USER_CHARGES


@<TRIPOS>ATOM
  1 O        1.6370    -0.2290    -2.1440 O.2   1 <1>  -0.5700 
  2 C        2.0380    -0.6220    -1.0780 C.2   1 <1>   0.5690 
  3 N        2.5540     0.2530    -0.1510 N.am  1 <1>  -0.6600 
  4 C        1.9670    -2.1160    -0.8240 C.3   1 <1>  -0.0990 
  5 C        3.2950    -0.1230     1.0920 C.3   1 <1>   0.1400 
  6 C        2.4220     1.7190    -0.3710 C.3   1 <1>   0.1400 
  7 C        0.7270    -2.4740     0.0020 C.3   1 <1>   0.0200 
  8 C        4.8270     0.0040     0.9210 C.3   1 <1>   0.3430 
  9 C        3.5830     2.2380    -1.2250 C.3   1 <1>  -0.1600 
 10 C        0.7110    -3.9600     0.3170 C.2   1 <1>  -0.3320 
 11 N        5.2880     1.3240     0.3520 N.4   1 <1>  -0.9590 
 12 C        4.8890     1.4540    -1.0860 C.3   1 <1>   0.3430 
 13 N        0.3950    -4.9460    -0.5580 N.pl3 1 <1>   0.3140 
 14 C        0.9910    -4.5630     1.4930 C.2   1 <1>  -0.1500 
 15 C        6.7750     1.4530     0.5210 C.3   1 <1>   0.3430 
 16 N        0.4780    -6.1550     0.0200 N.2   1 <1>  -0.7070 
 17 C       -0.0100    -4.8190    -1.9650 C.3   1 <1>   0.0160 
 18 C        0.8300    -5.9190     1.2460 C.2   1 <1>   0.1390 
 19 C        7.2830     2.8750     0.2590 C.3   1 <1>   0.1200 
 20 O        8.6710     2.8610     0.4740 O.3   1 <1>  -0.3630 
 21 C        9.4210     3.9780     0.3020 C.ar  1 <1>   0.0820 
 22 C       10.7850     3.8500     0.5030 C.ar  1 <1>  -0.1500 
 23 C        8.8990     5.2160    -0.0580 C.ar  1 <1>  -0.1500 
 24 C       11.6360     4.9330     0.3490 C.ar  1 <1>  -0.1440 
 25 C        9.7450     6.2990    -0.2120 C.ar  1 <1>  -0.1500 
 26 C       11.1110     6.1690    -0.0120 C.ar  1 <1>  -0.1440 
 27 C       13.1280     4.7390     0.5810 C.3   1 <1>  -0.0970 
 28 C       12.0050     7.3880    -0.1940 C.3   1 <1>  -0.0970 
 29 H        2.8560    -2.4630    -0.3360 H     1 <1>   0.0800 
 30 H        1.9130    -2.6150    -1.7730 H     1 <1>   0.0800 
 31 H        3.0580    -1.1310     1.3820 H     1 <1>   0.0800 
 32 H        2.9730     0.5090     1.9020 H     1 <1>   0.0800 
 33 H        2.3990     2.2270     0.5780 H     1 <1>   0.0800 
 34 H        1.4870     1.9310    -0.8670 H     1 <1>   0.0800 
 35 H       -0.1660    -2.1970    -0.5310 H     1 <1>   0.0800 
 36 H        0.7360    -1.9220     0.9250 H     1 <1>   0.0800 
 37 H        5.1650    -0.7960     0.2820 H     1 <1>   0.0800 
 38 H        5.2810    -0.1470     1.8870 H     1 <1>   0.0800 
 39 H        3.7480     3.2800    -1.0150 H     1 <1>   0.0800 
 40 H        3.2800     2.1790    -2.2560 H     1 <1>   0.0800 
 41 H        4.8300     2.0800     0.8770 H     1 <1>   0.4500 
 42 H        5.6560     1.9610    -1.6480 H     1 <1>   0.0800 
 43 H        4.7600     0.4740    -1.5190 H     1 <1>   0.0800 
 44 H        1.2740    -4.1290     2.4350 H     1 <1>   0.1500 
 45 H        7.2770     0.7750    -0.1500 H     1 <1>   0.0800 
 46 H        7.0440     1.1900     1.5310 H     1 <1>   0.0800 
 47 H       -0.6380    -3.9580    -2.0850 H     1 <1>   0.0800 
 48 H       -0.5530    -5.7010    -2.2520 H     1 <1>   0.0800 
 49 H        0.8670    -4.7260    -2.5760 H     1 <1>   0.0800 
 50 H        0.9780    -6.6960     1.9770 H     1 <1>   0.1500 
 51 H        6.8470     3.5750     0.9490 H     1 <1>   0.0800 
 52 H        7.1120     3.1750    -0.7590 H     1 <1>   0.0800 
 53 H       11.1760     2.8890     0.7810 H     1 <1>   0.1500 
 54 H        7.8510     5.3660    -0.2220 H     1 <1>   0.1500 
 55 H        9.3330     7.2530    -0.4910 H     1 <1>   0.1500 
 56 H       13.3480     3.7220     0.8520 H     1 <1>   0.0800 
 57 H       13.4640     5.3790     1.3760 H     1 <1>   0.0800 
 58 H       13.6740     4.9740    -0.3150 H     1 <1>   0.0800 
 59 H       12.7290     7.2030    -0.9660 H     1 <1>   0.0800 
 60 H       12.5180     7.6080     0.7250 H     1 <1>   0.0800 
 61 H       11.4290     8.2520    -0.4720 H     1 <1>   0.0800 
@<TRIPOS>BOND
  1   1   2  2   
  2   2   3  am  
  3   2   4  1   
  4   3   5  1   
  5   3   6  1   
  6   4   7  1   
  7   4  29  1   
  8   4  30  1   
  9   5   8  1   
 10   5  31  1   
 11   5  32  1   
 12   6   9  1   
 13   6  33  1   
 14   6  34  1   
 15   7  10  1   
 16   7  35  1   
 17   7  36  1   
 18   8  11  1   
 19   8  37  1   
 20   8  38  1   
 21   9  12  1   
 22   9  39  1   
 23   9  40  1   
 24  10  13  1   
 25  10  14  2   
 26  11  12  1   
 27  11  15  1   
 28  11  41  1   
 29  12  42  1   
 30  12  43  1   
 31  13  16  1   
 32  13  17  1   
 33  14  18  1   
 34  14  44  1   
 35  15  19  1   
 36  15  45  1   
 37  15  46  1   
 38  16  18  2   
 39  17  47  1   
 40  17  48  1   
 41  17  49  1   
 42  18  50  1   
 43  19  20  1   
 44  19  51  1   
 45  19  52  1   
 46  20  21  1   
 47  21  22  ar  
 48  21  23  ar  
 49  22  24  ar  
 50  22  53  1   
 51  23  25  ar  
 52  23  54  1   
 53  24  26  ar  
 54  24  27  1   
 55  25  26  ar  
 56  25  55  1   
 57  26  28  1   
 58  27  56  1   
 59  27  57  1   
 60  27  58  1   
 61  28  59  1   
 62  28  60  1   
 63  28  61  1   
@<TRIPOS>SUBSTRUCTURE
  1 ****  11 GROUP 4 **** **** 0

# MOE 2024.06 (io_trps.svl 2023.06)
