@<TRIPOS>MOLECULE
Untitled Document
48 51 1 0 0 
SMALL
USER_CHARGES


@<TRIPOS>ATOM
  1 S       -0.6760     0.0400    -1.0910 S.3   1 <1>  -0.4600 
  2 C       -2.4560    -0.1810    -1.0560 C.3   1 <1>   0.3700 
  3 C       -0.6200     1.5690    -0.1250 C.3   1 <1>   0.0700 
  4 N       -2.8570     0.6240     0.1150 N.am  1 <1>  -0.6600 
  5 C       -2.0840     1.9090     0.1950 C.3   1 <1>   0.2810 
  6 C       -3.7030     0.2220     1.1050 C.2   1 <1>   0.5690 
  7 C       -2.6590     2.9830    -0.7550 C.2   1 <1>   0.5690 
  8 O       -3.8030     0.8420     2.1360 O.2   1 <1>  -0.5700 
  9 C       -4.5850    -1.0040     0.9360 C.3   1 <1>  -0.0990 
 10 O       -2.2300     3.0570    -1.8860 O.2   1 <1>  -0.5700 
 11 N       -3.6440     3.8430    -0.3360 N.am  1 <1>  -0.6600 
 12 C       -5.6960    -0.7810    -0.1080 C.3   1 <1>  -0.0800 
 13 C       -4.3440     3.8210     0.9700 C.3   1 <1>   0.1400 
 14 C       -4.1710     4.9200    -1.2000 C.3   1 <1>   0.1400 
 15 C       -6.5600     0.4680     0.1610 C.3   1 <1>  -0.0170 
 16 C       -6.6810    -1.9620    -0.2150 C.3   1 <1>  -0.0170 
 17 C       -5.4490     4.8640     0.8430 C.3   1 <1>  -0.1600 
 18 C       -4.9790     5.8060    -0.2610 C.3   1 <1>  -0.1600 
 19 C       -7.9100     0.0670    -0.3750 C.ar  1 <1>  -0.1430 
 20 C       -7.9780    -1.2880    -0.5850 C.ar  1 <1>  -0.1430 
 21 C       -8.9940     0.8810    -0.6500 C.ar  1 <1>  -0.1500 
 22 C       -9.1330    -1.8710    -1.0740 C.ar  1 <1>  -0.1500 
 23 C      -10.1560     0.3060    -1.1410 C.ar  1 <1>  -0.1500 
 24 C      -10.2250    -1.0640    -1.3520 C.ar  1 <1>  -0.1500 
 25 H       -2.8590     0.2210    -1.9710 H     1 <1>   0.0800 
 26 H       -2.6640    -1.2300    -0.9530 H     1 <1>   0.0800 
 27 H       -0.0660     1.3570     0.7710 H     1 <1>   0.0800 
 28 H       -0.1240     2.3270    -0.7030 H     1 <1>   0.0800 
 29 H       -2.1180     2.3020     1.1940 H     1 <1>   0.0800 
 30 H       -3.9830    -1.8520     0.6710 H     1 <1>   0.0800 
 31 H       -5.0370    -1.2210     1.8880 H     1 <1>   0.0800 
 32 H       -5.2530    -0.6510    -1.0800 H     1 <1>   0.0800 
 33 H       -4.7650     2.8530     1.1680 H     1 <1>   0.0800 
 34 H       -3.6560     4.0910     1.7530 H     1 <1>   0.0800 
 35 H       -3.3700     5.4620    -1.6730 H     1 <1>   0.0800 
 36 H       -4.8050     4.4840    -1.9530 H     1 <1>   0.0800 
 37 H       -6.1720     1.3340    -0.3480 H     1 <1>   0.0800 
 38 H       -6.6440     0.6690     1.2150 H     1 <1>   0.0800 
 39 H       -6.8030    -2.4600     0.7310 H     1 <1>   0.0800 
 40 H       -6.3740    -2.6690    -0.9650 H     1 <1>   0.0800 
 41 H       -6.3570     4.3720     0.5410 H     1 <1>   0.0800 
 42 H       -5.6240     5.3750     1.7740 H     1 <1>   0.0800 
 43 H       -4.3310     6.5600     0.1510 H     1 <1>   0.0800 
 44 H       -5.7970     6.2850    -0.7700 H     1 <1>   0.0800 
 45 H       -8.9360     1.9410    -0.4840 H     1 <1>   0.1500 
 46 H       -9.1840    -2.9330    -1.2350 H     1 <1>   0.1500 
 47 H      -11.0080     0.9250    -1.3590 H     1 <1>   0.1500 
 48 H      -11.1310    -1.5020    -1.7330 H     1 <1>   0.1500 
@<TRIPOS>BOND
  1   1   2  1   
  2   1   3  1   
  3   2   4  1   
  4   2  25  1   
  5   2  26  1   
  6   3   5  1   
  7   3  27  1   
  8   3  28  1   
  9   4   5  1   
 10   4   6  am  
 11   5   7  1   
 12   5  29  1   
 13   6   8  2   
 14   6   9  1   
 15   7  10  2   
 16   7  11  am  
 17   9  12  1   
 18   9  30  1   
 19   9  31  1   
 20  11  13  1   
 21  11  14  1   
 22  12  15  1   
 23  12  16  1   
 24  12  32  1   
 25  13  17  1   
 26  13  33  1   
 27  13  34  1   
 28  14  18  1   
 29  14  35  1   
 30  14  36  1   
 31  15  19  1   
 32  15  37  1   
 33  15  38  1   
 34  16  20  1   
 35  16  39  1   
 36  16  40  1   
 37  17  18  1   
 38  17  41  1   
 39  17  42  1   
 40  18  43  1   
 41  18  44  1   
 42  19  20  ar  
 43  19  21  ar  
 44  20  22  ar  
 45  21  23  ar  
 46  21  45  1   
 47  22  24  ar  
 48  22  46  1   
 49  23  24  ar  
 50  23  47  1   
 51  24  48  1   
@<TRIPOS>SUBSTRUCTURE
  1 ****  15 GROUP 4 **** **** 0

# MOE 2024.06 (io_trps.svl 2023.06)
