@<TRIPOS>MOLECULE
NONAME
54 56 1 0 0 
SMALL
USER_CHARGES


@<TRIPOS>ATOM
  1 S       -0.4970     0.0200     0.1060 S.o2  1 <1>   1.5760 
  2 O       -0.2820     0.7770     1.3150 O.2   1 <1>  -0.6500 
  3 O       -0.5520    -1.4200     0.0800 O.2   1 <1>  -0.6500 
  4 N        0.6070     0.5430    -1.0600 N.am  1 <1>  -0.8490 
  5 N       -1.9170     0.5460    -0.6830 N.am  1 <1>  -0.7570 
  6 C        1.8950    -0.1410    -0.9340 C.3   1 <1>   0.1160 
  7 C        0.8030     1.9960    -1.0470 C.3   1 <1>   0.1160 
  8 C       -3.0810     0.9610    -0.0610 C.ar  1 <1>   0.1990 
  9 C       -3.0870     1.9390     0.9250 C.ar  1 <1>  -0.1500 
 10 C       -4.2960     0.4060    -0.4410 C.ar  1 <1>  -0.1500 
 11 C       -4.2710     2.3410     1.5180 C.ar  1 <1>  -0.1500 
 12 C       -5.4770     0.8120     0.1520 C.ar  1 <1>  -0.1500 
 13 C       -5.4900     1.7870     1.1430 C.ar  1 <1>  -0.0090 
 14 S       -7.0460     2.3150     1.9100 S.o2  1 <1>   1.4470 
 15 O       -7.7060     1.1590     2.4780 O.2   1 <1>  -0.6500 
 16 O       -6.8350     3.4870     2.7320 O.2   1 <1>  -0.6500 
 17 N       -7.9780     2.8160     0.5850 N.am  1 <1>  -0.8490 
 18 C       -9.3970     2.9470     0.9540 C.3   1 <1>   0.1960 
 19 C       -7.4800     4.0640     0.0000 C.3   1 <1>   0.1960 
 20 C      -10.2990     3.2470    -0.2690 C.3   1 <1>   0.0000 
 21 C       -8.2630     4.3980    -1.2710 C.3   1 <1>  -0.1600 
 22 C      -11.7570     3.3830     0.2180 C.3   1 <1>   0.2000 
 23 C       -9.7670     4.5110    -0.9850 C.3   1 <1>  -0.1600 
 24 C      -10.3600     2.0210    -1.2040 C.3   1 <1>  -0.1600 
 25 O      -12.5330     3.9990    -0.7480 O.3   1 <1>  -0.6800 
 26 C      -12.2670     1.9500     0.3530 C.3   1 <1>  -0.1600 
 27 C      -11.4780     1.1160    -0.6660 C.3   1 <1>  -0.1600 
 28 H       -2.0270    -0.0650    -1.4820 H     1 <1>   0.4200 
 29 H        2.5660     0.1840    -1.7100 H     1 <1>   0.0800 
 30 H        1.7570    -1.2050    -1.0320 H     1 <1>   0.0800 
 31 H        2.3380     0.0640     0.0270 H     1 <1>   0.0800 
 32 H        1.4490     2.2880    -1.8570 H     1 <1>   0.0800 
 33 H        1.2430     2.3110    -0.1150 H     1 <1>   0.0800 
 34 H       -0.1420     2.4980    -1.1700 H     1 <1>   0.0800 
 35 H       -2.1620     2.3930     1.2320 H     1 <1>   0.1500 
 36 H       -4.3170    -0.3520    -1.2030 H     1 <1>   0.1500 
 37 H       -4.2470     3.0970     2.2860 H     1 <1>   0.1500 
 38 H       -6.4100     0.3680    -0.1530 H     1 <1>   0.1500 
 39 H       -9.7270     2.0310     1.4140 H     1 <1>   0.0800 
 40 H       -9.5020     3.7340     1.6840 H     1 <1>   0.0800 
 41 H       -7.5790     4.8700     0.7100 H     1 <1>   0.0800 
 42 H       -6.4370     3.9610    -0.2490 H     1 <1>   0.0800 
 43 H       -7.9040     5.3280    -1.6740 H     1 <1>   0.0800 
 44 H       -8.0820     3.6320    -2.0060 H     1 <1>   0.0800 
 45 H      -11.8500     3.9490     1.1290 H     1 <1>   0.0800 
 46 H      -10.2940     4.6790    -1.9080 H     1 <1>   0.0800 
 47 H       -9.9390     5.3670    -0.3560 H     1 <1>   0.0800 
 48 H      -10.6190     2.3360    -2.2000 H     1 <1>   0.0800 
 49 H       -9.4200     1.4990    -1.2540 H     1 <1>   0.0800 
 50 H      -12.4970     3.4680    -1.5650 H     1 <1>   0.4000 
 51 H      -12.0440     1.5930     1.3430 H     1 <1>   0.0800 
 52 H      -13.3320     1.8820     0.2060 H     1 <1>   0.0800 
 53 H      -11.0590     0.2480    -0.1850 H     1 <1>   0.0800 
 54 H      -12.1140     0.7910    -1.4710 H     1 <1>   0.0800 
@<TRIPOS>BOND
  1   1   2  2   
  2   1   3  2   
  3   1   4  am  
  4   1   5  am  
  5   4   6  1   
  6   4   7  1   
  7   5   8  1   
  8   5  28  1   
  9   6  29  1   
 10   6  30  1   
 11   6  31  1   
 12   7  32  1   
 13   7  33  1   
 14   7  34  1   
 15   8   9  ar  
 16   8  10  ar  
 17   9  11  ar  
 18   9  35  1   
 19  10  12  ar  
 20  10  36  1   
 21  11  13  ar  
 22  11  37  1   
 23  12  13  ar  
 24  12  38  1   
 25  13  14  1   
 26  14  15  2   
 27  14  16  2   
 28  14  17  am  
 29  17  18  1   
 30  17  19  1   
 31  18  20  1   
 32  18  39  1   
 33  18  40  1   
 34  19  21  1   
 35  19  41  1   
 36  19  42  1   
 37  20  22  1   
 38  20  23  1   
 39  20  24  1   
 40  21  23  1   
 41  21  43  1   
 42  21  44  1   
 43  22  25  1   
 44  22  26  1   
 45  22  45  1   
 46  23  46  1   
 47  23  47  1   
 48  24  27  1   
 49  24  48  1   
 50  24  49  1   
 51  25  50  1   
 52  26  27  1   
 53  26  51  1   
 54  26  52  1   
 55  27  53  1   
 56  27  54  1   
@<TRIPOS>SUBSTRUCTURE
  1 ****  13 GROUP 4 **** **** 0

# MOE 2024.06 (io_trps.svl 2023.06)
