@<TRIPOS>MOLECULE
NONAME
39 40 1 0 0 
SMALL
USER_CHARGES


@<TRIPOS>ATOM
  1 S       -0.6040    -0.5870     0.8250 S.3   1 <1>  -0.0800 
  2 C       -1.6910    -1.1770    -0.4350 C.2   1 <1>  -0.0450 
  3 C       -0.7780     1.0790     0.3120 C.2   1 <1>  -0.1400 
  4 C       -1.9490    -2.5950    -0.5090 C.2   1 <1>   0.7150 
  5 C       -2.1110    -0.1140    -1.1690 C.2   1 <1>  -0.1500 
  6 C       -1.6040     1.1500    -0.7490 C.2   1 <1>  -0.1500 
  7 C       -0.0060     2.1160     1.1090 C.3   1 <1>   0.0200 
  8 O       -1.0530    -3.3880    -0.2830 O.2   1 <1>  -0.5700 
  9 N       -3.1900    -3.0970    -0.8370 N.am  1 <1>  -0.6600 
 10 C       -0.2270     3.5360     0.5800 C.3   1 <1>  -0.2400 
 11 C       -3.3230    -4.4650    -1.4340 C.3   1 <1>   0.3210 
 12 C       -4.4720    -2.3700    -0.5530 C.3   1 <1>   0.1400 
 13 C       -4.2140    -5.3790    -0.6020 C.2   1 <1>   0.0460 
 14 C       -5.0200    -2.6390     0.8610 C.3   1 <1>   0.1200 
 15 N       -5.5190    -5.5400    -0.9130 N.2   1 <1>  -0.5650 
 16 C       -3.8860    -6.1110     0.4900 C.2   1 <1>  -0.3320 
 17 O       -4.0040    -2.5780     1.8020 O.3   1 <1>  -0.6800 
 18 C       -5.9520    -6.3630    -0.0150 C.2   1 <1>   0.0360 
 19 N       -5.0090    -6.7460     0.8700 N.pl3 1 <1>   0.0330 
 20 C       -2.5650    -6.2560     1.2270 C.3   1 <1>  -0.0600 
 21 H       -2.7710    -0.1820    -2.0160 H     1 <1>   0.1500 
 22 H       -1.8820     2.0530    -1.2630 H     1 <1>   0.1500 
 23 H        1.0430     1.8780     1.0660 H     1 <1>   0.0800 
 24 H       -0.3160     2.0650     2.1380 H     1 <1>   0.0800 
 25 H        0.0980     3.6060    -0.4430 H     1 <1>   0.0800 
 26 H        0.3350     4.2390     1.1690 H     1 <1>   0.0800 
 27 H       -1.2690     3.7950     0.6360 H     1 <1>   0.0800 
 28 H       -2.3580    -4.9280    -1.5380 H     1 <1>   0.0800 
 29 H       -3.7430    -4.3770    -2.4200 H     1 <1>   0.0800 
 30 H       -5.2160    -2.6600    -1.2750 H     1 <1>   0.0800 
 31 H       -4.3320    -1.3110    -0.6560 H     1 <1>   0.0800 
 32 H       -5.4710    -3.6130     0.9190 H     1 <1>   0.0800 
 33 H       -5.7630    -1.9060     1.1210 H     1 <1>   0.0800 
 34 H       -3.2930    -3.1960     1.5300 H     1 <1>   0.4000 
 35 H       -6.9660    -6.7200     0.0410 H     1 <1>   0.1500 
 36 H       -5.1270    -7.3850     1.6610 H     1 <1>   0.2700 
 37 H       -1.7930    -5.6910     0.7370 H     1 <1>   0.0800 
 38 H       -2.2640    -7.2870     1.2520 H     1 <1>   0.0800 
 39 H       -2.6610    -5.8940     2.2350 H     1 <1>   0.0800 
@<TRIPOS>BOND
  1   1   2  1   
  2   1   3  1   
  3   2   4  1   
  4   2   5  2   
  5   3   6  2   
  6   3   7  1   
  7   4   8  2   
  8   4   9  am  
  9   5   6  1   
 10   5  21  1   
 11   6  22  1   
 12   7  10  1   
 13   7  23  1   
 14   7  24  1   
 15   9  11  1   
 16   9  12  1   
 17  10  25  1   
 18  10  26  1   
 19  10  27  1   
 20  11  13  1   
 21  11  28  1   
 22  11  29  1   
 23  12  14  1   
 24  12  30  1   
 25  12  31  1   
 26  13  15  1   
 27  13  16  2   
 28  14  17  1   
 29  14  32  1   
 30  14  33  1   
 31  15  18  2   
 32  16  19  1   
 33  16  20  1   
 34  17  34  1   
 35  18  19  1   
 36  18  35  1   
 37  19  36  1   
 38  20  37  1   
 39  20  38  1   
 40  20  39  1   
@<TRIPOS>SUBSTRUCTURE
  1 ****   4 GROUP 4 **** **** 0

# MOE 2024.06 (io_trps.svl 2023.06)
