@<TRIPOS>MOLECULE
NONAME
48 49 1 0 0 
SMALL
USER_CHARGES


@<TRIPOS>ATOM
  1 F       -0.5660     0.1670     0.2770 F     1 <1>  -0.3400 
  2 C       -1.3600     0.7920     1.1320 C.3   1 <1>   1.0200 
  3 F       -0.8970     0.5570     2.3460 F     1 <1>  -0.3400 
  4 F       -1.2140     2.0880     0.9000 F     1 <1>  -0.3400 
  5 C       -2.8080     0.3660     0.9670 C.3   1 <1>  -0.1600 
  6 C       -3.2480     0.6640    -0.4610 C.3   1 <1>   0.3430 
  7 N       -4.6610     0.2470    -0.6520 N.4   1 <1>  -0.9590 
  8 C       -4.9730    -0.0670    -2.0820 C.3   1 <1>   0.3430 
  9 C       -5.6660     1.1850    -0.0710 C.3   1 <1>   0.3430 
 10 C       -5.9380    -1.2670    -2.1990 C.3   1 <1>   0.1400 
 11 C       -6.8700     0.4350     0.5150 C.3   1 <1>  -0.1600 
 12 N       -6.6660    -1.5650    -0.9230 N.am  1 <1>  -0.6600 
 13 C       -7.6000    -0.5150    -0.4460 C.3   1 <1>   0.1400 
 14 C       -6.1580    -2.4900    -0.0410 C.2   1 <1>   0.5440 
 15 O       -4.9520    -2.4550     0.1330 O.2   1 <1>  -0.5700 
 16 C       -7.0110    -3.3950     0.7120 C.ar  1 <1>   0.0860 
 17 C       -8.2860    -3.7400     0.2640 C.ar  1 <1>  -0.1500 
 18 C       -6.5850    -3.9560     1.9170 C.ar  1 <1>  -0.1500 
 19 C       -9.1110    -4.5830     0.9860 C.ar  1 <1>   0.0820 
 20 C       -7.3970    -4.8040     2.6480 C.ar  1 <1>  -0.1500 
 21 O      -10.3330    -4.8340     0.4560 O.3   1 <1>  -0.3620 
 22 C       -8.6630    -5.1180     2.1890 C.ar  1 <1>  -0.1500 
 23 C      -11.2380    -5.7160     1.0780 C.3   1 <1>   0.1200 
 24 C      -12.4920    -5.7910     0.2140 C.3   1 <1>  -0.2400 
 25 H       -3.4020     0.9070     1.6790 H     1 <1>   0.0800 
 26 H       -2.8780    -0.6880     1.1670 H     1 <1>   0.0800 
 27 H       -2.6150     0.1100    -1.1380 H     1 <1>   0.0800 
 28 H       -3.1370     1.7150    -0.6800 H     1 <1>   0.0800 
 29 H       -4.7880    -0.6780    -0.1790 H     1 <1>   0.4500 
 30 H       -4.0690    -0.3130    -2.6150 H     1 <1>   0.0800 
 31 H       -5.4080     0.7930    -2.5610 H     1 <1>   0.0800 
 32 H       -6.0000     1.8760    -0.8290 H     1 <1>   0.0800 
 33 H       -5.2110     1.7610     0.7180 H     1 <1>   0.0800 
 34 H       -5.3660    -2.1370    -2.4770 H     1 <1>   0.0800 
 35 H       -6.6460    -1.0920    -2.9900 H     1 <1>   0.0800 
 36 H       -7.5790     1.1690     0.8550 H     1 <1>   0.0800 
 37 H       -6.5580    -0.1090     1.3890 H     1 <1>   0.0800 
 38 H       -8.0020     0.0300    -1.2840 H     1 <1>   0.0800 
 39 H       -8.4270    -0.9770     0.0690 H     1 <1>   0.0800 
 40 H       -8.6530    -3.3540    -0.6690 H     1 <1>   0.1500 
 41 H       -5.6000    -3.7250     2.2860 H     1 <1>   0.1500 
 42 H       -7.0440    -5.2220     3.5760 H     1 <1>   0.1500 
 43 H       -9.2770    -5.7760     2.7750 H     1 <1>   0.1500 
 44 H      -11.4720    -5.3320     2.0560 H     1 <1>   0.0800 
 45 H      -10.7720    -6.6830     1.1570 H     1 <1>   0.0800 
 46 H      -12.9410    -4.8180     0.1290 H     1 <1>   0.0800 
 47 H      -13.2040    -6.4600     0.6620 H     1 <1>   0.0800 
 48 H      -12.2450    -6.1590    -0.7660 H     1 <1>   0.0800 
@<TRIPOS>BOND
  1   1   2  1   
  2   2   3  1   
  3   2   4  1   
  4   2   5  1   
  5   5   6  1   
  6   5  25  1   
  7   5  26  1   
  8   6   7  1   
  9   6  27  1   
 10   6  28  1   
 11   7   8  1   
 12   7   9  1   
 13   7  29  1   
 14   8  10  1   
 15   8  30  1   
 16   8  31  1   
 17   9  11  1   
 18   9  32  1   
 19   9  33  1   
 20  10  12  1   
 21  10  34  1   
 22  10  35  1   
 23  11  13  1   
 24  11  36  1   
 25  11  37  1   
 26  12  13  1   
 27  12  14  am  
 28  13  38  1   
 29  13  39  1   
 30  14  15  2   
 31  14  16  1   
 32  16  17  ar  
 33  16  18  ar  
 34  17  19  ar  
 35  17  40  1   
 36  18  20  ar  
 37  18  41  1   
 38  19  21  1   
 39  19  22  ar  
 40  20  22  ar  
 41  20  42  1   
 42  21  23  1   
 43  22  43  1   
 44  23  24  1   
 45  23  44  1   
 46  23  45  1   
 47  24  46  1   
 48  24  47  1   
 49  24  48  1   
@<TRIPOS>SUBSTRUCTURE
  1 ****  14 GROUP 4 **** **** 0

# MOE 2024.06 (io_trps.svl 2023.06)
