@<TRIPOS>MOLECULE
NONAME
42 43 1 0 0 
SMALL
USER_CHARGES


@<TRIPOS>ATOM
  1 O       -0.2170     0.1870     0.4960 O.2   1 <1>  -0.5700 
  2 C        0.9240     0.5250     0.2640 C.2   1 <1>   0.7800 
  3 O        1.2610     1.8080     0.1370 O.3   1 <1>  -0.4300 
  4 N        1.9660    -0.3380     0.1170 N.am  1 <1>  -0.5470 
  5 C        0.4090     2.9290     0.2410 C.3   1 <1>   0.2800 
  6 C        2.0610    -1.7360     0.1630 C.ar  1 <1>   0.1170 
  7 C       -0.1950     3.0100     1.6480 C.3   1 <1>  -0.2400 
  8 C       -0.6630     2.8840    -0.8550 C.3   1 <1>  -0.2400 
  9 C        1.3130     4.1410     0.0100 C.3   1 <1>  -0.2400 
 10 C        0.9580    -2.5840     0.1670 C.ar  1 <1>  -0.1500 
 11 C        3.3250    -2.3130     0.1980 C.ar  1 <1>  -0.1500 
 12 C        1.1190    -3.9560     0.2080 C.ar  1 <1>  -0.1500 
 13 C        3.4810    -3.6850     0.2400 C.ar  1 <1>  -0.1500 
 14 C        2.3820    -4.5390     0.2460 C.ar  1 <1>   0.0540 
 15 C        2.5490    -5.9750     0.2880 C.2   1 <1>  -0.0540 
 16 C        3.5880    -6.7280    -0.1830 C.2   1 <1>  -0.3020 
 17 C        1.6520    -6.9010     0.8360 C.2   1 <1>  -0.1500 
 18 N        3.3630    -8.0440     0.0470 N.pl3 1 <1>   0.0480 
 19 C        2.1550    -8.1650     0.6820 C.2   1 <1>  -0.3840 
 20 C        4.2720    -9.1400    -0.3330 C.3   1 <1>   0.0160 
 21 C        1.5450    -9.4090     1.1020 C.2   1 <1>   1.0320 
 22 O        2.1140   -10.5030     0.9220 O.co2 1 <1>  -0.9000 
 23 O        0.4310    -9.4010     1.6520 O.co2 1 <1>  -0.9000 
 24 H        2.8400     0.1560    -0.0330 H     1 <1>   0.3700 
 25 H       -0.8910     2.2100     1.8190 H     1 <1>   0.0800 
 26 H       -0.7300     3.9350     1.7640 H     1 <1>   0.0800 
 27 H        0.5800     2.9690     2.3910 H     1 <1>   0.0800 
 28 H       -1.3600     2.0850    -0.6840 H     1 <1>   0.0800 
 29 H       -0.2080     2.7570    -1.8200 H     1 <1>   0.0800 
 30 H       -1.2210     3.8030    -0.8600 H     1 <1>   0.0800 
 31 H        2.0870     4.1770     0.7560 H     1 <1>   0.0800 
 32 H        0.7420     5.0500     0.0710 H     1 <1>   0.0800 
 33 H        1.7650     4.0900    -0.9640 H     1 <1>   0.0800 
 34 H       -0.0380    -2.1830     0.1350 H     1 <1>   0.1500 
 35 H        4.1970    -1.6860     0.1970 H     1 <1>   0.1500 
 36 H        0.2520    -4.5930     0.2060 H     1 <1>   0.1500 
 37 H        4.4660    -4.1130     0.2730 H     1 <1>   0.1500 
 38 H        4.4730    -6.3790    -0.6780 H     1 <1>   0.1500 
 39 H        0.7140    -6.6670     1.3090 H     1 <1>   0.1500 
 40 H        5.1400    -8.7450    -0.8240 H     1 <1>   0.0800 
 41 H        3.7510    -9.8110    -0.9910 H     1 <1>   0.0800 
 42 H        4.5610    -9.6750     0.5520 H     1 <1>   0.0800 
@<TRIPOS>BOND
  1   1   2  2   
  2   2   3  1   
  3   2   4  am  
  4   3   5  1   
  5   4   6  1   
  6   4  24  1   
  7   5   7  1   
  8   5   8  1   
  9   5   9  1   
 10   6  10  ar  
 11   6  11  ar  
 12   7  25  1   
 13   7  26  1   
 14   7  27  1   
 15   8  28  1   
 16   8  29  1   
 17   8  30  1   
 18   9  31  1   
 19   9  32  1   
 20   9  33  1   
 21  10  12  ar  
 22  10  34  1   
 23  11  13  ar  
 24  11  35  1   
 25  12  14  ar  
 26  12  36  1   
 27  13  14  ar  
 28  13  37  1   
 29  14  15  1   
 30  15  16  2   
 31  15  17  1   
 32  16  18  1   
 33  16  38  1   
 34  17  19  2   
 35  17  39  1   
 36  18  19  1   
 37  18  20  1   
 38  19  21  1   
 39  20  40  1   
 40  20  41  1   
 41  20  42  1   
 42  21  22  ar  
 43  21  23  ar  
@<TRIPOS>SUBSTRUCTURE
  1 ****  12 GROUP 4 **** **** 0

# MOE 2024.06 (io_trps.svl 2023.06)
