@<TRIPOS>MOLECULE
NONAME
46 49 1 0 0 
SMALL
USER_CHARGES


@<TRIPOS>ATOM
  1 O       -1.2540     0.6830     1.2900 O.2   1 <1>  -0.5700 
  2 C       -2.0610     0.9760     0.4400 C.2   1 <1>   0.5690 
  3 N       -3.0470     0.0980     0.0770 N.am  1 <1>  -0.6600 
  4 C       -1.9780     2.3530    -0.2120 C.3   1 <1>  -0.0190 
  5 C       -4.2320     0.3720    -0.7710 C.3   1 <1>   0.1400 
  6 C       -3.1350    -1.2720     0.6480 C.3   1 <1>   0.1400 
  7 C       -0.5490     2.8970    -0.4190 C.3   1 <1>  -0.0170 
  8 C       -2.7210     3.4430     0.5830 C.3   1 <1>  -0.0170 
  9 C       -5.2750    -0.6370    -0.2930 C.3   1 <1>   0.2000 
 10 C       -4.4590    -1.8610     0.1290 C.3   1 <1>  -0.0800 
 11 C       -0.7560     4.3910    -0.3580 C.ar  1 <1>  -0.1440 
 12 C       -1.9710     4.6960     0.2040 C.ar  1 <1>  -0.1440 
 13 O       -5.8900    -0.1230     0.8370 O.3   1 <1>  -0.6800 
 14 C       -4.2450    -2.8140    -1.0640 C.3   1 <1>  -0.0170 
 15 C        0.0990     5.3910    -0.7820 C.ar  1 <1>  -0.1500 
 16 C       -2.3680     6.0120     0.3590 C.ar  1 <1>  -0.1500 
 17 C       -3.5490    -4.0990    -0.6490 C.ar  1 <1>   0.1670 
 18 C       -0.2900     6.7130    -0.6310 C.ar  1 <1>  -0.1500 
 19 C       -1.5180     7.0220    -0.0630 C.ar  1 <1>  -0.1500 
 20 N       -2.2410    -4.1530    -0.8480 N.ar  1 <1>  -0.6200 
 21 C       -4.2920    -5.1320    -0.0960 C.ar  1 <1>  -0.1500 
 22 C       -1.6500    -5.2780    -0.4800 C.ar  1 <1>   0.1600 
 23 C       -3.6630    -6.2990     0.2830 C.ar  1 <1>  -0.1500 
 24 C       -2.3020    -6.3630     0.0810 C.ar  1 <1>  -0.1500 
 25 H       -2.4210     2.3060    -1.1890 H     1 <1>   0.0800 
 26 H       -4.5880     1.3820    -0.6660 H     1 <1>   0.0800 
 27 H       -3.9790     0.1800    -1.7990 H     1 <1>   0.0800 
 28 H       -2.2780    -1.8520     0.3520 H     1 <1>   0.0800 
 29 H       -3.1500    -1.2050     1.7230 H     1 <1>   0.0800 
 30 H       -0.1390     2.5830    -1.3620 H     1 <1>   0.0800 
 31 H        0.1080     2.6030     0.3810 H     1 <1>   0.0800 
 32 H       -2.6220     3.2760     1.6420 H     1 <1>   0.0800 
 33 H       -3.7600     3.4990     0.3130 H     1 <1>   0.0800 
 34 H       -6.0350    -0.8440    -1.0260 H     1 <1>   0.0800 
 35 H       -4.9630    -2.4050     0.9090 H     1 <1>   0.0800 
 36 H       -5.1980     0.1330     1.4810 H     1 <1>   0.4000 
 37 H       -3.6650    -2.3300    -1.8300 H     1 <1>   0.0800 
 38 H       -5.1980    -3.0700    -1.4930 H     1 <1>   0.0800 
 39 H        1.0510     5.1470    -1.2190 H     1 <1>   0.1500 
 40 H       -3.3200     6.2470     0.8020 H     1 <1>   0.1500 
 41 H        0.3640     7.5030    -0.9560 H     1 <1>   0.1500 
 42 H       -1.8120     8.0510     0.0510 H     1 <1>   0.1500 
 43 H       -5.3530    -5.0270     0.0380 H     1 <1>   0.1500 
 44 H       -0.5860    -5.3390    -0.6330 H     1 <1>   0.1500 
 45 H       -4.2090    -7.1200     0.7150 H     1 <1>   0.1500 
 46 H       -1.7480    -7.2430     0.3540 H     1 <1>   0.1500 
@<TRIPOS>BOND
  1   1   2  2   
  2   2   3  am  
  3   2   4  1   
  4   3   5  1   
  5   3   6  1   
  6   4   7  1   
  7   4   8  1   
  8   4  25  1   
  9   5   9  1   
 10   5  26  1   
 11   5  27  1   
 12   6  10  1   
 13   6  28  1   
 14   6  29  1   
 15   7  11  1   
 16   7  30  1   
 17   7  31  1   
 18   8  12  1   
 19   8  32  1   
 20   8  33  1   
 21   9  10  1   
 22   9  13  1   
 23   9  34  1   
 24  10  14  1   
 25  10  35  1   
 26  11  12  ar  
 27  11  15  ar  
 28  12  16  ar  
 29  13  36  1   
 30  14  17  1   
 31  14  37  1   
 32  14  38  1   
 33  15  18  ar  
 34  15  39  1   
 35  16  19  ar  
 36  16  40  1   
 37  17  20  ar  
 38  17  21  ar  
 39  18  19  ar  
 40  18  41  1   
 41  19  42  1   
 42  20  22  ar  
 43  21  23  ar  
 44  21  43  1   
 45  22  24  ar  
 46  22  44  1   
 47  23  24  ar  
 48  23  45  1   
 49  24  46  1   
@<TRIPOS>SUBSTRUCTURE
  1 ****   3 GROUP 4 **** **** 0

# MOE 2024.06 (io_trps.svl 2023.06)
