@<TRIPOS>MOLECULE
NONAME
52 54 1 0 0 
SMALL
USER_CHARGES


@<TRIPOS>ATOM
  1 O       -1.1360     1.5270     1.1800 O.2   1 <1>  -0.5700 
  2 C       -0.2520     1.3700     0.3600 C.2   1 <1>   0.7800 
  3 O        0.0240     0.1400    -0.0810 O.3   1 <1>  -0.4300 
  4 N        0.4900     2.4070    -0.1280 N.am  1 <1>  -0.6600 
  5 C       -0.7050    -0.9810     0.3760 C.3   1 <1>   0.0400 
  6 C        0.2080     3.8260     0.2870 C.3   1 <1>   0.2810 
  7 C        1.6510     2.2330    -1.0350 C.3   1 <1>   0.1400 
  8 C       -0.8580     4.5050    -0.6130 C.2   1 <1>   0.5690 
  9 C        1.5240     4.6450     0.3390 C.3   1 <1>  -0.1600 
 10 C        2.9380     2.6410    -0.2970 C.3   1 <1>  -0.1600 
 11 O       -0.5130     4.8230    -1.7330 O.2   1 <1>  -0.5700 
 12 N       -2.1470     4.7650    -0.1880 N.am  1 <1>  -0.6600 
 13 C        2.7310     3.7760     0.7270 C.3   1 <1>  -0.1600 
 14 C       -3.1140     5.4840    -1.0660 C.3   1 <1>   0.1400 
 15 C       -2.7780     4.2910     1.0800 C.3   1 <1>   0.1400 
 16 C       -4.2580     4.5390    -1.4340 C.3   1 <1>  -0.1600 
 17 C       -3.9290     3.3400     0.7470 C.3   1 <1>  -0.1600 
 18 C       -4.9570     3.9900    -0.1830 C.3   1 <1>   0.4180 
 19 O       -5.5230     5.0560     0.5430 O.3   1 <1>  -0.5600 
 20 C       -6.0310     2.9720    -0.5560 C.2   1 <1>  -0.2880 
 21 C       -6.7600     5.5470     0.1070 C.3   1 <1>   0.1200 
 22 C       -7.3400     3.1590    -0.3690 C.2   1 <1>  -0.2760 
 23 C       -7.8420     4.4640     0.2220 C.3   1 <1>  -0.0220 
 24 C       -8.4110     2.1360    -0.7000 C.3   1 <1>  -0.1020 
 25 H       -0.3180    -1.8590    -0.1090 H     1 <1>   0.0800 
 26 H       -1.7430    -0.8450     0.1260 H     1 <1>   0.0800 
 27 H       -0.5860    -1.0620     1.4420 H     1 <1>   0.0800 
 28 H       -0.1500     3.7990     1.2950 H     1 <1>   0.0800 
 29 H        1.5070     2.8690    -1.8930 H     1 <1>   0.0800 
 30 H        1.7300     1.2200    -1.3870 H     1 <1>   0.0800 
 31 H        1.4060     5.4500     1.0420 H     1 <1>   0.0800 
 32 H        1.7190     5.0920    -0.6200 H     1 <1>   0.0800 
 33 H        3.6600     2.9460    -1.0330 H     1 <1>   0.0800 
 34 H        3.3420     1.7810     0.2070 H     1 <1>   0.0800 
 35 H        2.5470     3.3450     1.6970 H     1 <1>   0.0800 
 36 H        3.6210     4.3770     0.7950 H     1 <1>   0.0800 
 37 H       -2.6350     5.8370    -1.9630 H     1 <1>   0.0800 
 38 H       -3.4990     6.3400    -0.5390 H     1 <1>   0.0800 
 39 H       -3.1580     5.1410     1.6210 H     1 <1>   0.0800 
 40 H       -2.0820     3.7830     1.7180 H     1 <1>   0.0800 
 41 H       -3.8510     3.7200    -1.9990 H     1 <1>   0.0800 
 42 H       -4.9640     5.0400    -2.0670 H     1 <1>   0.0800 
 43 H       -4.4180     3.0270     1.6510 H     1 <1>   0.0800 
 44 H       -3.5230     2.4620     0.2780 H     1 <1>   0.0800 
 45 H       -5.6200     2.0750    -0.9810 H     1 <1>   0.1500 
 46 H       -6.6620     5.8750    -0.9120 H     1 <1>   0.0800 
 47 H       -7.0130     6.3930     0.7210 H     1 <1>   0.0800 
 48 H       -8.7170     4.7990    -0.3040 H     1 <1>   0.0800 
 49 H       -8.1040     4.3190     1.2540 H     1 <1>   0.0800 
 50 H       -8.9650     1.8800     0.1860 H     1 <1>   0.0800 
 51 H       -7.9660     1.2400    -1.0950 H     1 <1>   0.0800 
 52 H       -9.0900     2.5320    -1.4340 H     1 <1>   0.0800 
@<TRIPOS>BOND
  1   1   2  2   
  2   2   3  1   
  3   2   4  am  
  4   3   5  1   
  5   4   6  1   
  6   4   7  1   
  7   5  25  1   
  8   5  26  1   
  9   5  27  1   
 10   6   8  1   
 11   6   9  1   
 12   6  28  1   
 13   7  10  1   
 14   7  29  1   
 15   7  30  1   
 16   8  11  2   
 17   8  12  am  
 18   9  13  1   
 19   9  31  1   
 20   9  32  1   
 21  10  13  1   
 22  10  33  1   
 23  10  34  1   
 24  12  14  1   
 25  12  15  1   
 26  13  35  1   
 27  13  36  1   
 28  14  16  1   
 29  14  37  1   
 30  14  38  1   
 31  15  17  1   
 32  15  39  1   
 33  15  40  1   
 34  16  18  1   
 35  16  41  1   
 36  16  42  1   
 37  17  18  1   
 38  17  43  1   
 39  17  44  1   
 40  18  19  1   
 41  18  20  1   
 42  19  21  1   
 43  20  22  2   
 44  20  45  1   
 45  21  23  1   
 46  21  46  1   
 47  21  47  1   
 48  22  23  1   
 49  22  24  1   
 50  23  48  1   
 51  23  49  1   
 52  24  50  1   
 53  24  51  1   
 54  24  52  1   
@<TRIPOS>SUBSTRUCTURE
  1 ****  12 GROUP 4 **** **** 0

# MOE 2024.06 (io_trps.svl 2023.06)
