@<TRIPOS>MOLECULE
NONAME
47 49 1 0 0 
SMALL
USER_CHARGES


@<TRIPOS>ATOM
  1 S       -1.0640    -0.3110     0.7230 S.o2  1 <1>   1.0900 
  2 O       -0.3330    -0.6700     1.9160 O.2   1 <1>  -0.6500 
  3 O       -2.2200     0.5460     0.8140 O.2   1 <1>  -0.6500 
  4 C       -1.5730    -1.8280    -0.0830 C.3   1 <1>  -0.0550 
  5 C        0.0780     0.4370    -0.4250 C.3   1 <1>  -0.1350 
  6 C       -0.4580    -2.8810    -0.1860 C.3   1 <1>  -0.0990 
  7 C       -0.9890    -4.1350    -0.8350 C.2   1 <1>   0.5690 
  8 O       -1.3060    -4.0920    -1.9960 O.2   1 <1>  -0.5700 
  9 N       -1.1290    -5.2550    -0.0890 N.am  1 <1>  -0.7300 
 10 C       -1.6670    -6.5420    -0.5900 C.3   1 <1>   0.2200 
 11 C       -3.0860    -6.7790    -0.0880 C.3   1 <1>  -0.0800 
 12 C       -0.9300    -7.6840     0.0930 C.3   1 <1>   0.1200 
 13 C       -2.8710    -7.4450     1.2780 C.3   1 <1>   0.1200 
 14 C       -4.0010    -5.5380    -0.0420 C.3   1 <1>  -0.0160 
 15 O       -1.5160    -7.7800     1.3540 O.3   1 <1>  -0.5600 
 16 C       -5.4260    -5.9210     0.3410 C.ar  1 <1>  -0.1440 
 17 C       -6.3280    -6.5020    -0.5820 C.ar  1 <1>   0.0000 
 18 C       -5.8740    -5.7110     1.6120 C.ar  1 <1>  -0.1500 
 19 C       -7.6190    -6.8450    -0.1130 C.ar  1 <1>   0.3100 
 20 C       -6.0260    -6.7600    -1.9400 C.ar  1 <1>  -0.1500 
 21 C       -7.1760    -6.0800     1.9720 C.ar  1 <1>   0.1600 
 22 N       -8.0260    -6.6280     1.1630 N.ar  1 <1>  -0.6200 
 23 C       -8.5300    -7.4360    -1.0020 C.ar  1 <1>  -0.1500 
 24 C       -6.9390    -7.3360    -2.7820 C.ar  1 <1>  -0.1500 
 25 C       -8.2070    -7.6810    -2.3090 C.ar  1 <1>  -0.1500 
 26 H       -2.3850    -2.2530     0.4760 H     1 <1>   0.0800 
 27 H       -1.9470    -1.6080    -1.0660 H     1 <1>   0.0800 
 28 H        0.9360    -0.1880    -0.5740 H     1 <1>   0.0800 
 29 H        0.4140     1.3800    -0.0390 H     1 <1>   0.0800 
 30 H       -0.3970     0.6110    -1.3710 H     1 <1>   0.0800 
 31 H        0.3530    -2.5100    -0.7840 H     1 <1>   0.0800 
 32 H       -0.0770    -3.1110     0.7940 H     1 <1>   0.0800 
 33 H       -0.8700    -5.2780     0.9010 H     1 <1>   0.3700 
 34 H       -1.5920    -6.5930    -1.6640 H     1 <1>   0.0800 
 35 H       -3.5390    -7.5140    -0.7290 H     1 <1>   0.0800 
 36 H        0.1260    -7.5030     0.1930 H     1 <1>   0.0800 
 37 H       -1.0980    -8.6140    -0.4220 H     1 <1>   0.0800 
 38 H       -3.4580    -8.3420     1.3770 H     1 <1>   0.0800 
 39 H       -3.0880    -6.7770     2.0930 H     1 <1>   0.0800 
 40 H       -3.9980    -5.0410    -0.9960 H     1 <1>   0.0800 
 41 H       -3.6210    -4.8330     0.6750 H     1 <1>   0.0800 
 42 H       -5.2500    -5.2670     2.3660 H     1 <1>   0.1500 
 43 H       -5.0600    -6.4970    -2.3280 H     1 <1>   0.1500 
 44 H       -7.4890    -5.8960     2.9860 H     1 <1>   0.1500 
 45 H       -9.5000    -7.6910    -0.6170 H     1 <1>   0.1500 
 46 H       -6.6950    -7.5270    -3.8130 H     1 <1>   0.1500 
 47 H       -8.9160    -8.1350    -2.9800 H     1 <1>   0.1500 
@<TRIPOS>BOND
  1   1   2  2   
  2   1   3  2   
  3   1   4  1   
  4   1   5  1   
  5   4   6  1   
  6   4  26  1   
  7   4  27  1   
  8   5  28  1   
  9   5  29  1   
 10   5  30  1   
 11   6   7  1   
 12   6  31  1   
 13   6  32  1   
 14   7   8  2   
 15   7   9  am  
 16   9  10  1   
 17   9  33  1   
 18  10  11  1   
 19  10  12  1   
 20  10  34  1   
 21  11  13  1   
 22  11  14  1   
 23  11  35  1   
 24  12  15  1   
 25  12  36  1   
 26  12  37  1   
 27  13  15  1   
 28  13  38  1   
 29  13  39  1   
 30  14  16  1   
 31  14  40  1   
 32  14  41  1   
 33  16  17  ar  
 34  16  18  ar  
 35  17  19  ar  
 36  17  20  ar  
 37  18  21  ar  
 38  18  42  1   
 39  19  22  ar  
 40  19  23  ar  
 41  20  24  ar  
 42  20  43  1   
 43  21  22  ar  
 44  21  44  1   
 45  23  25  ar  
 46  23  45  1   
 47  24  25  ar  
 48  24  46  1   
 49  25  47  1   
@<TRIPOS>SUBSTRUCTURE
  1 ****  14 GROUP 4 **** **** 0

# MOE 2024.06 (io_trps.svl 2023.06)
