@<TRIPOS>MOLECULE
NONAME
41 42 1 0 0 
SMALL
USER_CHARGES


@<TRIPOS>ATOM
  1 O        0.3370     0.2250     0.8850 O.3   1 <1>  -0.3630 
  2 C       -0.9060    -0.0180     0.4130 C.ar  1 <1>   0.0820 
  3 C        1.0380     1.2710     0.2450 C.3   1 <1>   0.1200 
  4 C       -1.9930     0.6970     0.9120 C.ar  1 <1>  -0.1440 
  5 C       -1.0820    -0.9920    -0.5670 C.ar  1 <1>  -0.1440 
  6 C        2.4690     1.3440     0.7970 C.3   1 <1>   0.2890 
  7 C       -3.2540     0.4490     0.3980 C.ar  1 <1>  -0.1500 
  8 C       -1.8300     1.7380     2.0110 C.3   1 <1>  -0.0960 
  9 C       -2.3530    -1.2240    -1.0670 C.ar  1 <1>  -0.1500 
 10 C        0.0930    -1.8040    -1.0930 C.3   1 <1>  -0.0960 
 11 N        3.1820     2.4840     0.1900 N.pl3 1 <1>  -0.8690 
 12 C        3.2790     0.0870     0.4900 C.3   1 <1>  -0.2400 
 13 C       -3.4340    -0.5040    -0.5890 C.ar  1 <1>  -0.1500 
 14 C        2.8300     3.7680     0.4600 C.ar  1 <1>   0.4100 
 15 N        2.5880     4.5070    -0.5950 N.ar  1 <1>  -0.6200 
 16 C        2.7190     4.2710     1.7410 C.ar  1 <1>  -0.1500 
 17 C        2.2250     5.7510    -0.3480 C.ar  1 <1>   0.4770 
 18 C        2.3330     5.5760     1.8740 C.ar  1 <1>   0.1600 
 19 N        2.0740     6.3360     0.8280 N.ar  1 <1>  -0.6200 
 20 C        1.9380     6.6140    -1.5520 C.3   1 <1>  -0.0970 
 21 H        0.5150     2.1900     0.4360 H     1 <1>   0.0800 
 22 H        1.0490     1.0750    -0.8120 H     1 <1>   0.0800 
 23 H        2.4220     1.4870     1.8630 H     1 <1>   0.0800 
 24 H       -4.1060     0.9960     0.7630 H     1 <1>   0.1500 
 25 H       -1.0890     1.4180     2.7220 H     1 <1>   0.0800 
 26 H       -2.7560     1.8830     2.5360 H     1 <1>   0.0800 
 27 H       -1.5240     2.6760     1.5850 H     1 <1>   0.0800 
 28 H       -2.5100    -1.9660    -1.8290 H     1 <1>   0.1500 
 29 H        0.6950    -2.1520    -0.2730 H     1 <1>   0.0800 
 30 H        0.7000    -1.1950    -1.7370 H     1 <1>   0.0800 
 31 H       -0.2490    -2.6600    -1.6470 H     1 <1>   0.0800 
 32 H        3.3500     2.3530    -0.8100 H     1 <1>   0.4000 
 33 H        3.3210    -0.0880    -0.5700 H     1 <1>   0.0800 
 34 H        2.8200    -0.7650     0.9580 H     1 <1>   0.0800 
 35 H        4.2760     0.1890     0.8770 H     1 <1>   0.0800 
 36 H       -4.4180    -0.6890    -0.9830 H     1 <1>   0.1500 
 37 H        2.9370     3.6550     2.5890 H     1 <1>   0.1500 
 38 H        2.2320     6.0160     2.8510 H     1 <1>   0.1500 
 39 H        2.3740     6.1840    -2.4350 H     1 <1>   0.0800 
 40 H        2.3490     7.5950    -1.4030 H     1 <1>   0.0800 
 41 H        0.8760     6.6930    -1.6870 H     1 <1>   0.0800 
@<TRIPOS>BOND
  1   1   2  1   
  2   1   3  1   
  3   2   4  ar  
  4   2   5  ar  
  5   3   6  1   
  6   3  21  1   
  7   3  22  1   
  8   4   7  ar  
  9   4   8  1   
 10   5   9  ar  
 11   5  10  1   
 12   6  11  1   
 13   6  12  1   
 14   6  23  1   
 15   7  13  ar  
 16   7  24  1   
 17   8  25  1   
 18   8  26  1   
 19   8  27  1   
 20   9  13  ar  
 21   9  28  1   
 22  10  29  1   
 23  10  30  1   
 24  10  31  1   
 25  11  14  1   
 26  11  32  1   
 27  12  33  1   
 28  12  34  1   
 29  12  35  1   
 30  13  36  1   
 31  14  15  ar  
 32  14  16  ar  
 33  15  17  ar  
 34  16  18  ar  
 35  16  37  1   
 36  17  19  ar  
 37  17  20  1   
 38  18  19  ar  
 39  18  38  1   
 40  20  39  1   
 41  20  40  1   
 42  20  41  1   
@<TRIPOS>SUBSTRUCTURE
  1 ****   3 GROUP 4 **** **** 0

# MOE 2024.06 (io_trps.svl 2023.06)
