@<TRIPOS>MOLECULE
NONAME
44 45 1 0 0 
SMALL
USER_CHARGES


@<TRIPOS>ATOM
  1 S        0.4500     0.4550    -1.6270 S.o2  1 <1>   1.3330 
  2 O        0.6800    -0.8290    -2.2510 O.2   1 <1>  -0.6500 
  3 O       -0.3650     1.4420    -2.2980 O.2   1 <1>  -0.6500 
  4 N       -0.2550     0.1720    -0.1070 N.am  1 <1>  -0.8490 
  5 C        2.0460     1.1730    -1.2330 C.3   1 <1>  -0.0550 
  6 C       -0.8740     1.3690     0.4760 C.3   1 <1>   0.1160 
  7 C       -1.2350    -0.9180    -0.1480 C.3   1 <1>   0.1160 
  8 C        3.0350     0.1920    -0.5650 C.3   1 <1>  -0.0800 
  9 C        4.4520     0.7210    -0.3970 C.3   1 <1>   0.2200 
 10 C        2.6640    -0.2420     0.8600 C.3   1 <1>   0.1200 
 11 N        4.4390     2.1230     0.0850 N.am  1 <1>  -0.7300 
 12 C        4.9480    -0.1730     0.7290 C.3   1 <1>   0.1200 
 13 O        3.8580    -0.2950     1.5880 O.3   1 <1>  -0.5600 
 14 C        4.6630     3.2270    -0.6810 C.2   1 <1>   0.7160 
 15 O        4.8030     3.0760    -1.8790 O.2   1 <1>  -0.5700 
 16 C        4.7030     4.5380    -0.0860 C.2   1 <1>  -0.0860 
 17 C        4.6320     4.8560     1.2730 C.2   1 <1>   0.1390 
 18 C        4.8170     5.7600    -0.6760 C.2   1 <1>  -0.3020 
 19 N        4.6890     6.1290     1.5020 N.2   1 <1>  -0.7070 
 20 N        4.8080     6.6920     0.2870 N.pl3 1 <1>   0.3140 
 21 C        4.9120     8.1550     0.1090 C.3   1 <1>   0.0960 
 22 C        6.3750     8.5890    -0.0460 C.3   1 <1>  -0.2400 
 23 H        2.4910     1.5170    -2.1480 H     1 <1>   0.0800 
 24 H        1.9040     2.0310    -0.6080 H     1 <1>   0.0800 
 25 H       -1.2250     1.1560     1.4720 H     1 <1>   0.0800 
 26 H       -1.7070     1.6950    -0.1260 H     1 <1>   0.0800 
 27 H       -0.1570     2.1690     0.5340 H     1 <1>   0.0800 
 28 H       -1.6570    -1.0810     0.8290 H     1 <1>   0.0800 
 29 H       -0.7580    -1.8320    -0.4640 H     1 <1>   0.0800 
 30 H       -2.0260    -0.6850    -0.8420 H     1 <1>   0.0800 
 31 H        3.0890    -0.6970    -1.1700 H     1 <1>   0.0800 
 32 H        5.0450     0.6260    -1.2920 H     1 <1>   0.0800 
 33 H        2.2010    -1.2140     0.8730 H     1 <1>   0.0800 
 34 H        2.0210     0.4720     1.3440 H     1 <1>   0.0800 
 35 H        4.2630     2.2130     1.0860 H     1 <1>   0.3700 
 36 H        5.7880     0.2430     1.2580 H     1 <1>   0.0800 
 37 H        5.1930    -1.1550     0.3610 H     1 <1>   0.0800 
 38 H        4.5400     4.1310     2.0640 H     1 <1>   0.1500 
 39 H        4.9040     5.9860    -1.7230 H     1 <1>   0.1500 
 40 H        4.3450     8.4350    -0.7600 H     1 <1>   0.0800 
 41 H        4.4770     8.6290     0.9700 H     1 <1>   0.0800 
 42 H        6.8140     8.1270    -0.9130 H     1 <1>   0.0800 
 43 H        6.9360     8.3090     0.8290 H     1 <1>   0.0800 
 44 H        6.4290     9.6560    -0.1610 H     1 <1>   0.0800 
@<TRIPOS>BOND
  1   1   2  2   
  2   1   3  2   
  3   1   4  am  
  4   1   5  1   
  5   4   6  1   
  6   4   7  1   
  7   5   8  1   
  8   5  23  1   
  9   5  24  1   
 10   6  25  1   
 11   6  26  1   
 12   6  27  1   
 13   7  28  1   
 14   7  29  1   
 15   7  30  1   
 16   8   9  1   
 17   8  10  1   
 18   8  31  1   
 19   9  11  1   
 20   9  12  1   
 21   9  32  1   
 22  10  13  1   
 23  10  33  1   
 24  10  34  1   
 25  11  14  am  
 26  11  35  1   
 27  12  13  1   
 28  12  36  1   
 29  12  37  1   
 30  14  15  2   
 31  14  16  1   
 32  16  17  1   
 33  16  18  2   
 34  17  19  2   
 35  17  38  1   
 36  18  20  1   
 37  18  39  1   
 38  19  20  1   
 39  20  21  1   
 40  21  22  1   
 41  21  40  1   
 42  21  41  1   
 43  22  42  1   
 44  22  43  1   
 45  22  44  1   
@<TRIPOS>SUBSTRUCTURE
  1 ****  11 GROUP 4 **** **** 0

# MOE 2024.06 (io_trps.svl 2023.06)
