@<TRIPOS>MOLECULE
NONAME
43 45 1 0 0 
SMALL
USER_CHARGES


@<TRIPOS>ATOM
  1 O        2.7450     0.1530     2.2700 O.3   1 <1>  -0.6800 
  2 C        2.1420    -0.3070     1.1010 C.3   1 <1>   0.2000 
  3 C        2.7790    -1.6480     0.7330 C.3   1 <1>  -0.0800 
  4 C        2.5590     0.6050    -0.0540 C.3   1 <1>   0.3430 
  5 C        4.0900    -1.2500     0.0290 C.3   1 <1>   0.3430 
  6 C        1.8560    -2.4790    -0.1860 C.3   1 <1>  -0.0170 
  7 N        3.9370     0.1670    -0.4110 N.4   1 <1>  -0.9590 
  8 C        2.3980    -3.8800    -0.4310 C.ar  1 <1>   0.1670 
  9 C        4.9380     1.0740     0.2100 C.3   1 <1>   0.5230 
 10 N        3.4760    -3.9690    -1.1940 N.ar  1 <1>  -0.6200 
 11 C        1.7630    -4.9870     0.1330 C.ar  1 <1>   0.1600 
 12 C        4.9740     2.3580    -0.6080 C.2   1 <1>   0.0070 
 13 C        3.8660    -5.2240    -1.3630 C.ar  1 <1>   0.1600 
 14 N        2.1590    -6.2370    -0.0260 N.ar  1 <1>  -0.6200 
 15 N        4.5680     2.4190    -1.8410 N.2   1 <1>  -0.5650 
 16 N        5.4310     3.5400    -0.1230 N.pl3 1 <1>   0.0480 
 17 C        3.2290    -6.3210    -0.7970 C.ar  1 <1>   0.1600 
 18 C        4.7740     3.7040    -2.1820 C.2   1 <1>   0.0770 
 19 C        5.2960     4.3980    -1.1500 C.2   1 <1>  -0.3020 
 20 C        5.9630     3.8780     1.2170 C.3   1 <1>   0.0960 
 21 C        7.4380     3.4800     1.3310 C.3   1 <1>  -0.2400 
 22 H        2.3720    -0.2960     3.0600 H     1 <1>   0.4000 
 23 H        1.0750    -0.3380     1.2460 H     1 <1>   0.0800 
 24 H        2.9890    -2.2310     1.6130 H     1 <1>   0.0800 
 25 H        2.5170     1.6460     0.2220 H     1 <1>   0.0800 
 26 H        1.9050     0.4390    -0.8940 H     1 <1>   0.0800 
 27 H        4.2960    -1.8840    -0.8160 H     1 <1>   0.0800 
 28 H        4.9080    -1.3340     0.7270 H     1 <1>   0.0800 
 29 H        1.7280    -1.9920    -1.1370 H     1 <1>   0.0800 
 30 H        0.8820    -2.5590     0.2660 H     1 <1>   0.0800 
 31 H        4.0780     0.3090    -1.4270 H     1 <1>   0.4500 
 32 H        4.6710     1.2810     1.2330 H     1 <1>   0.0800 
 33 H        5.9150     0.6210     0.1850 H     1 <1>   0.0800 
 34 H        0.8890    -4.8380     0.7420 H     1 <1>   0.1500 
 35 H        4.7310    -5.3960    -1.9790 H     1 <1>   0.1500 
 36 H        3.6200    -7.3050    -0.9890 H     1 <1>   0.1500 
 37 H        4.5340     4.0710    -3.1680 H     1 <1>   0.1500 
 38 H        5.5740     5.4360    -1.0990 H     1 <1>   0.1500 
 39 H        5.8630     4.9390     1.3680 H     1 <1>   0.0800 
 40 H        5.3800     3.3780     1.9680 H     1 <1>   0.0800 
 41 H        8.0210     3.9950     0.5870 H     1 <1>   0.0800 
 42 H        7.5640     2.4200     1.2080 H     1 <1>   0.0800 
 43 H        7.8140     3.7560     2.3010 H     1 <1>   0.0800 
@<TRIPOS>BOND
  1   1   2  1   
  2   1  22  1   
  3   2   3  1   
  4   2   4  1   
  5   2  23  1   
  6   3   5  1   
  7   3   6  1   
  8   3  24  1   
  9   4   7  1   
 10   4  25  1   
 11   4  26  1   
 12   5   7  1   
 13   5  27  1   
 14   5  28  1   
 15   6   8  1   
 16   6  29  1   
 17   6  30  1   
 18   7   9  1   
 19   7  31  1   
 20   8  10  ar  
 21   8  11  ar  
 22   9  12  1   
 23   9  32  1   
 24   9  33  1   
 25  10  13  ar  
 26  11  14  ar  
 27  11  34  1   
 28  12  15  2   
 29  12  16  1   
 30  13  17  ar  
 31  13  35  1   
 32  14  17  ar  
 33  15  18  1   
 34  16  19  1   
 35  16  20  1   
 36  17  36  1   
 37  18  19  2   
 38  18  37  1   
 39  19  38  1   
 40  20  21  1   
 41  20  39  1   
 42  20  40  1   
 43  21  41  1   
 44  21  42  1   
 45  21  43  1   
@<TRIPOS>SUBSTRUCTURE
  1 ****   7 GROUP 4 **** **** 0

# MOE 2024.06 (io_trps.svl 2023.06)
