@<TRIPOS>MOLECULE
NONAME
48 50 1 0 0 
SMALL
USER_CHARGES


@<TRIPOS>ATOM
  1 S        0.3580     0.3860     2.2760 S.o2  1 <1>   1.4470 
  2 O        1.0800    -0.5960     3.0570 O.2   1 <1>  -0.6500 
  3 O       -0.1840     1.5510     2.9420 O.2   1 <1>  -0.6500 
  4 N        1.4320     0.9400     1.0860 N.am  1 <1>  -0.8490 
  5 C       -0.9530    -0.4190     1.3140 C.ar  1 <1>  -0.0090 
  6 C        2.3200     2.0100     1.5920 C.3   1 <1>   0.1960 
  7 C        2.1620    -0.1640     0.4380 C.3   1 <1>   0.1960 
  8 C       -1.5890    -1.5610     1.7860 C.ar  1 <1>  -0.1500 
  9 C       -1.3640     0.0870     0.0870 C.ar  1 <1>  -0.1500 
 10 C        3.1220     2.7860     0.5120 C.3   1 <1>   0.2200 
 11 C        2.8930     0.2340    -0.8590 C.3   1 <1>  -0.0190 
 12 C       -2.5900    -2.1800     1.0580 C.ar  1 <1>  -0.1500 
 13 C       -2.3630    -0.5280    -0.6460 C.ar  1 <1>  -0.1500 
 14 N        2.5050     2.7050    -0.8510 N.am  1 <1>  -0.6600 
 15 C        4.6050     2.3680     0.4690 C.3   1 <1>   0.1200 
 16 C        2.3470     1.5030    -1.4880 C.2   1 <1>   0.5690 
 17 C        4.4170     0.3140    -0.6960 C.3   1 <1>   0.1200 
 18 C       -2.9870    -1.6710    -0.1680 C.ar  1 <1>  -0.1430 
 19 C        1.9130     3.9630    -1.3820 C.3   1 <1>   0.0600 
 20 O        4.7800     0.9810     0.4730 O.3   1 <1>  -0.5600 
 21 O        1.8030     1.4080    -2.5640 O.2   1 <1>  -0.5700 
 22 C       -4.0910    -2.3640    -0.9640 C.3   1 <1>   0.0630 
 23 C       -3.5610    -2.8650    -2.3110 C.3   1 <1>  -0.2400 
 24 C       -5.2890    -1.4310    -1.1630 C.3   1 <1>  -0.2400 
 25 H        1.7160     2.7440     2.0960 H     1 <1>   0.0800 
 26 H        2.9910     1.6050     2.3310 H     1 <1>   0.0800 
 27 H        2.8560    -0.6040     1.1370 H     1 <1>   0.0800 
 28 H        1.4520    -0.9300     0.1770 H     1 <1>   0.0800 
 29 H       -1.2940    -1.9730     2.7370 H     1 <1>   0.1500 
 30 H       -0.8950     0.9750    -0.3040 H     1 <1>   0.1500 
 31 H        3.1210     3.8200     0.8080 H     1 <1>   0.0800 
 32 H        2.7200    -0.5550    -1.5680 H     1 <1>   0.0800 
 33 H       -3.0580    -3.0640     1.4550 H     1 <1>   0.1500 
 34 H       -2.6500    -0.1090    -1.5950 H     1 <1>   0.1500 
 35 H        5.0960     2.7370     1.3520 H     1 <1>   0.0800 
 36 H        5.0990     2.7880    -0.3900 H     1 <1>   0.0800 
 37 H        4.8770     0.8000    -1.5410 H     1 <1>   0.0800 
 38 H        4.8190    -0.6810    -0.6180 H     1 <1>   0.0800 
 39 H        2.6710     4.7230    -1.4540 H     1 <1>   0.0800 
 40 H        1.1290     4.2990    -0.7260 H     1 <1>   0.0800 
 41 H        1.4940     3.8040    -2.3610 H     1 <1>   0.0800 
 42 H       -4.4320    -3.2210    -0.4070 H     1 <1>   0.0800 
 43 H       -3.2510    -2.0430    -2.9310 H     1 <1>   0.0800 
 44 H       -4.3240    -3.4180    -2.8290 H     1 <1>   0.0800 
 45 H       -2.7160    -3.5120    -2.1530 H     1 <1>   0.0800 
 46 H       -5.0160    -0.5780    -1.7580 H     1 <1>   0.0800 
 47 H       -5.6440    -1.0830    -0.2090 H     1 <1>   0.0800 
 48 H       -6.0890    -1.9520    -1.6570 H     1 <1>   0.0800 
@<TRIPOS>BOND
  1   1   2  2   
  2   1   3  2   
  3   1   4  am  
  4   1   5  1   
  5   4   6  1   
  6   4   7  1   
  7   5   8  ar  
  8   5   9  ar  
  9   6  10  1   
 10   6  25  1   
 11   6  26  1   
 12   7  11  1   
 13   7  27  1   
 14   7  28  1   
 15   8  12  ar  
 16   8  29  1   
 17   9  13  ar  
 18   9  30  1   
 19  10  14  1   
 20  10  15  1   
 21  10  31  1   
 22  11  16  1   
 23  11  17  1   
 24  11  32  1   
 25  12  18  ar  
 26  12  33  1   
 27  13  18  ar  
 28  13  34  1   
 29  14  16  am  
 30  14  19  1   
 31  15  20  1   
 32  15  35  1   
 33  15  36  1   
 34  16  21  2   
 35  17  20  1   
 36  17  37  1   
 37  17  38  1   
 38  18  22  1   
 39  19  39  1   
 40  19  40  1   
 41  19  41  1   
 42  22  23  1   
 43  22  24  1   
 44  22  42  1   
 45  23  43  1   
 46  23  44  1   
 47  23  45  1   
 48  24  46  1   
 49  24  47  1   
 50  24  48  1   
@<TRIPOS>SUBSTRUCTURE
  1 ****   4 GROUP 4 **** **** 0

# MOE 2024.06 (io_trps.svl 2023.06)
