@<TRIPOS>MOLECULE
NONAME
52 55 1 0 0 
SMALL
USER_CHARGES


@<TRIPOS>ATOM
  1 S        6.6140     1.1790    -0.0600 S.3   1 <1>  -0.0800 
  2 C        4.8720     0.9200     0.0870 C.2   1 <1>   0.0400 
  3 C        6.8850    -0.4650    -0.6020 C.2   1 <1>  -0.1100 
  4 C        4.0450     2.0080     0.5270 C.2   1 <1>   0.4780 
  5 C        4.5910    -0.3590    -0.2730 C.2   1 <1>  -0.1500 
  6 C        5.7210    -1.1370    -0.6590 C.2   1 <1>  -0.1500 
  7 O        2.7340     1.8550     0.5810 O.3   1 <1>  -0.2800 
  8 N        4.4210     3.2000     0.8910 N.2   1 <1>  -0.5650 
  9 C        2.2360     2.9840     0.9940 C.2   1 <1>  -0.0400 
 10 C        3.2630     3.8240     1.1920 C.2   1 <1>   0.0460 
 11 C        0.7330     3.0990     1.1500 C.3   1 <1>  -0.0600 
 12 C        3.2870     5.2740     1.6530 C.3   1 <1>   0.5240 
 13 N        4.3790     5.9430     0.8960 N.4   1 <1>  -0.9590 
 14 C        4.9830     7.1170     1.6100 C.3   1 <1>   0.3430 
 15 C        3.9740     6.2750    -0.4950 C.3   1 <1>   0.3430 
 16 C        6.3810     7.5190     1.0840 C.3   1 <1>   0.2090 
 17 C        5.0580     5.8680    -1.4930 C.3   1 <1>  -0.1600 
 18 N        6.4690     7.6070    -0.4130 N.pl3 1 <1>  -0.8380 
 19 C        6.4790     6.2960    -1.1220 C.3   1 <1>   0.2090 
 20 C        6.9360     8.7190    -1.0390 C.ar  1 <1>   0.1000 
 21 C        8.2530     9.2000    -0.8920 C.ar  1 <1>  -0.1440 
 22 C        6.0870     9.4270    -1.8970 C.ar  1 <1>  -0.1500 
 23 C        8.6430    10.3350    -1.5630 C.ar  1 <1>   0.2110 
 24 C        9.2670     8.4660    -0.0170 C.3   1 <1>  -0.0970 
 25 C        6.5150    10.5530    -2.5490 C.ar  1 <1>   0.2110 
 26 N        7.7830    10.9990    -2.3740 N.ar  1 <1>  -0.1790 
 27 H        7.8960    -0.7580    -0.8230 H     1 <1>   0.1500 
 28 H        3.6020    -0.7840    -0.2770 H     1 <1>   0.1500 
 29 H        5.6110    -2.1650    -0.9620 H     1 <1>   0.1500 
 30 H        0.3850     2.3660     1.8570 H     1 <1>   0.0800 
 31 H        0.2530     2.9140     0.2060 H     1 <1>   0.0800 
 32 H        0.4520     4.0760     1.4980 H     1 <1>   0.0800 
 33 H        3.5080     5.2910     2.7070 H     1 <1>   0.0800 
 34 H        2.3380     5.7520     1.4810 H     1 <1>   0.0800 
 35 H        5.0780     5.1830     0.8170 H     1 <1>   0.4500 
 36 H        5.0760     6.8920     2.6590 H     1 <1>   0.0800 
 37 H        4.3270     7.9660     1.5180 H     1 <1>   0.0800 
 38 H        3.7980     7.3360    -0.5760 H     1 <1>   0.0800 
 39 H        3.0610     5.7610    -0.7530 H     1 <1>   0.0800 
 40 H        7.1070     6.8080     1.4400 H     1 <1>   0.0800 
 41 H        6.6380     8.4740     1.5100 H     1 <1>   0.0800 
 42 H        4.8120     6.3000    -2.4450 H     1 <1>   0.0800 
 43 H        5.0400     4.8010    -1.6270 H     1 <1>   0.0800 
 44 H        7.0780     6.3670    -2.0160 H     1 <1>   0.0800 
 45 H        6.9340     5.5500    -0.4920 H     1 <1>   0.0800 
 46 H        5.0830     9.0690    -2.0330 H     1 <1>   0.1500 
 47 H        9.6460    10.7210    -1.4610 H     1 <1>   0.1500 
 48 H        9.2330     7.4090    -0.2130 H     1 <1>   0.0800 
 49 H        9.0540     8.6330     1.0230 H     1 <1>   0.0800 
 50 H       10.2700     8.8030    -0.2110 H     1 <1>   0.0800 
 51 H        5.8580    11.1000    -3.2070 H     1 <1>   0.1500 
 52 H        8.0980    11.8450    -2.8650 H     1 <1>   0.4570 
@<TRIPOS>BOND
  1   1   2  1   
  2   1   3  1   
  3   2   4  1   
  4   2   5  2   
  5   3   6  2   
  6   3  27  1   
  7   4   7  1   
  8   4   8  2   
  9   5   6  1   
 10   5  28  1   
 11   6  29  1   
 12   7   9  1   
 13   8  10  1   
 14   9  10  2   
 15   9  11  1   
 16  10  12  1   
 17  11  30  1   
 18  11  31  1   
 19  11  32  1   
 20  12  13  1   
 21  12  33  1   
 22  12  34  1   
 23  13  14  1   
 24  13  15  1   
 25  13  35  1   
 26  14  16  1   
 27  14  36  1   
 28  14  37  1   
 29  15  17  1   
 30  15  38  1   
 31  15  39  1   
 32  16  18  1   
 33  16  40  1   
 34  16  41  1   
 35  17  19  1   
 36  17  42  1   
 37  17  43  1   
 38  18  19  1   
 39  18  20  1   
 40  19  44  1   
 41  19  45  1   
 42  20  21  ar  
 43  20  22  ar  
 44  21  23  ar  
 45  21  24  1   
 46  22  25  ar  
 47  22  46  1   
 48  23  26  ar  
 49  23  47  1   
 50  24  48  1   
 51  24  49  1   
 52  24  50  1   
 53  25  26  ar  
 54  25  51  1   
 55  26  52  1   
@<TRIPOS>SUBSTRUCTURE
  1 ****  17 GROUP 4 **** **** 0

# MOE 2024.06 (io_trps.svl 2023.06)
