@<TRIPOS>MOLECULE
NONAME
39 41 1 0 0 
SMALL
USER_CHARGES


@<TRIPOS>ATOM
  1 S        0.9540    -1.0740     2.3390 S.3   1 <1>  -0.0800 
  2 C        1.0540    -1.0600     0.5700 C.2   1 <1>  -0.0450 
  3 C        1.3480     0.6220     2.4580 C.2   1 <1>  -0.1100 
  4 C        1.3770     0.2040     0.1700 C.2   1 <1>  -0.1810 
  5 C        0.7930    -2.3040    -0.1210 C.2   1 <1>   0.7150 
  6 C        1.5390     1.1410     1.2340 C.2   1 <1>  -0.1500 
  7 C        1.5750     0.6920    -1.2570 C.3   1 <1>  -0.0590 
  8 O        0.7680    -2.3760    -1.3350 O.2   1 <1>  -0.5700 
  9 N        0.5510    -3.4440     0.5860 N.am  1 <1>  -0.7300 
 10 C        0.2440    -4.7710     0.0110 C.3   1 <1>   0.2200 
 11 C       -1.2530    -5.0140     0.0950 C.3   1 <1>  -0.0800 
 12 C        0.7910    -5.8660     0.9220 C.3   1 <1>   0.1200 
 13 C       -1.4110    -5.5320     1.5270 C.3   1 <1>   0.1200 
 14 C       -1.7190    -6.0410    -0.9540 C.3   1 <1>  -0.0160 
 15 O       -0.1840    -6.0920     1.8970 O.3   1 <1>  -0.5600 
 16 C       -3.2220    -6.2610    -0.8880 C.ar  1 <1>  -0.1430 
 17 C       -3.7740    -7.4020    -0.3420 C.ar  1 <1>  -0.1500 
 18 C       -4.1130    -5.3250    -1.3730 C.ar  1 <1>  -0.1500 
 19 C       -5.1520    -7.5460    -0.3050 C.ar  1 <1>   0.1600 
 20 C       -5.4740    -5.5660    -1.2870 C.ar  1 <1>   0.1600 
 21 N       -6.0150    -6.6540    -0.7630 N.ar  1 <1>  -0.6200 
 22 H        1.3960     1.0580     3.4400 H     1 <1>   0.1500 
 23 H        1.7920     2.1690     1.0360 H     1 <1>   0.1500 
 24 H        0.8430     1.4450    -1.4880 H     1 <1>   0.0800 
 25 H        1.4780    -0.1040    -1.9700 H     1 <1>   0.0800 
 26 H        2.5560     1.1180    -1.3630 H     1 <1>   0.0800 
 27 H        0.5280    -3.3910     1.6060 H     1 <1>   0.3700 
 28 H        0.6330    -4.8450    -0.9910 H     1 <1>   0.0800 
 29 H       -1.8040    -4.1010    -0.0480 H     1 <1>   0.0800 
 30 H        1.7170    -5.5890     1.3930 H     1 <1>   0.0800 
 31 H        0.9210    -6.7830     0.3760 H     1 <1>   0.0800 
 32 H       -2.1820    -6.2750     1.6290 H     1 <1>   0.0800 
 33 H       -1.6110    -4.7190     2.2030 H     1 <1>   0.0800 
 34 H       -1.2100    -6.9790    -0.8110 H     1 <1>   0.0800 
 35 H       -1.4680    -5.6830    -1.9380 H     1 <1>   0.0800 
 36 H       -3.1490    -8.1810     0.0550 H     1 <1>   0.1500 
 37 H       -3.7620    -4.4110    -1.8170 H     1 <1>   0.1500 
 38 H       -5.5650    -8.4420     0.1250 H     1 <1>   0.1500 
 39 H       -6.1540    -4.8250    -1.6710 H     1 <1>   0.1500 
@<TRIPOS>BOND
  1   1   2  1   
  2   1   3  1   
  3   2   4  2   
  4   2   5  1   
  5   3   6  2   
  6   3  22  1   
  7   4   6  1   
  8   4   7  1   
  9   5   8  2   
 10   5   9  am  
 11   6  23  1   
 12   7  24  1   
 13   7  25  1   
 14   7  26  1   
 15   9  10  1   
 16   9  27  1   
 17  10  11  1   
 18  10  12  1   
 19  10  28  1   
 20  11  13  1   
 21  11  14  1   
 22  11  29  1   
 23  12  15  1   
 24  12  30  1   
 25  12  31  1   
 26  13  15  1   
 27  13  32  1   
 28  13  33  1   
 29  14  16  1   
 30  14  34  1   
 31  14  35  1   
 32  16  17  ar  
 33  16  18  ar  
 34  17  19  ar  
 35  17  36  1   
 36  18  20  ar  
 37  18  37  1   
 38  19  21  ar  
 39  19  38  1   
 40  20  21  ar  
 41  20  39  1   
@<TRIPOS>SUBSTRUCTURE
  1 ****  11 GROUP 4 **** **** 0

# MOE 2024.06 (io_trps.svl 2023.06)
