@<TRIPOS>MOLECULE
NONAME
53 55 1 0 0 
SMALL
USER_CHARGES


@<TRIPOS>ATOM
  1 S        1.3770     2.6120    -1.4800 S.o2  1 <1>   1.3330 
  2 O        1.0220     3.9690    -1.8270 O.2   1 <1>  -0.6500 
  3 O        2.0160     1.7460    -2.4370 O.2   1 <1>  -0.6500 
  4 N        2.4060     2.7400    -0.1320 N.am  1 <1>  -0.8490 
  5 C       -0.1090     1.8060    -0.8420 C.3   1 <1>  -0.0550 
  6 C        3.0040     1.4450     0.2430 C.3   1 <1>   0.1160 
  7 C        3.5250     3.6580    -0.4270 C.3   1 <1>   0.1160 
  8 C       -0.9680     2.5450     0.2240 C.3   1 <1>  -0.0800 
  9 C       -1.5230     3.8910    -0.2620 C.3   1 <1>   0.2000 
 10 C       -0.2130     2.9100     1.5050 C.3   1 <1>   0.3430 
 11 O       -2.8080     4.0480     0.2420 O.3   1 <1>  -0.6800 
 12 C       -0.6070     4.9730     0.3330 C.3   1 <1>   0.3430 
 13 N        0.3390     4.2570     1.2450 N.4   1 <1>  -0.9590 
 14 C        0.7690     5.0440     2.4190 C.3   1 <1>   0.5240 
 15 C        2.0040     5.7890     1.9750 C.2   1 <1>  -0.1810 
 16 C        3.2890     5.5590     2.4480 C.2   1 <1>   0.1390 
 17 C        2.1560     6.7610     1.0470 C.2   1 <1>  -0.3020 
 18 N        4.1640     6.3010     1.8540 N.2   1 <1>  -0.7070 
 19 N        3.4750     7.0720     0.9720 N.pl3 1 <1>   0.5930 
 20 C        4.0890     7.9900     0.0750 C.ar  1 <1>  -0.0230 
 21 C        5.1970     8.7320     0.4720 C.ar  1 <1>  -0.1500 
 22 C        3.6020     8.1690    -1.2180 C.ar  1 <1>  -0.1500 
 23 C        5.7940     9.6320    -0.3910 C.ar  1 <1>  -0.1500 
 24 C        4.2000     9.0700    -2.0800 C.ar  1 <1>  -0.1500 
 25 C        5.2990     9.8070    -1.6720 C.ar  1 <1>  -0.1440 
 26 C        5.9520    10.7970    -2.6190 C.3   1 <1>  -0.0970 
 27 H       -0.7490     1.6070    -1.6820 H     1 <1>   0.0800 
 28 H        0.1670     0.8470    -0.4500 H     1 <1>   0.0800 
 29 H        3.6330     1.5630     1.1100 H     1 <1>   0.0800 
 30 H        3.6060     1.0560    -0.5640 H     1 <1>   0.0800 
 31 H        2.2410     0.7240     0.4750 H     1 <1>   0.0800 
 32 H        4.1820     3.7450     0.4220 H     1 <1>   0.0800 
 33 H        3.1580     4.6410    -0.6670 H     1 <1>   0.0800 
 34 H        4.0960     3.2990    -1.2690 H     1 <1>   0.0800 
 35 H       -1.7780     1.8800     0.4720 H     1 <1>   0.0800 
 36 H       -1.5860     3.9670    -1.3350 H     1 <1>   0.0800 
 37 H        0.5670     2.1990     1.7280 H     1 <1>   0.0800 
 38 H       -0.9060     2.9540     2.3300 H     1 <1>   0.0800 
 39 H       -2.8810     3.8840     1.2020 H     1 <1>   0.4000 
 40 H       -1.1990     5.6980     0.8670 H     1 <1>   0.0800 
 41 H       -0.0580     5.4700    -0.4500 H     1 <1>   0.0800 
 42 H        1.2150     4.0980     0.7010 H     1 <1>   0.4500 
 43 H       -0.0030     5.7280     2.7310 H     1 <1>   0.0800 
 44 H        1.0200     4.3920     3.2390 H     1 <1>   0.0800 
 45 H        3.5550     4.8460     3.2140 H     1 <1>   0.1500 
 46 H        1.4310     7.2570     0.4290 H     1 <1>   0.1500 
 47 H        5.5970     8.6020     1.4640 H     1 <1>   0.1500 
 48 H        2.7560     7.6030    -1.5660 H     1 <1>   0.1500 
 49 H        6.6490    10.1950    -0.0600 H     1 <1>   0.1500 
 50 H        3.8080     9.1970    -3.0750 H     1 <1>   0.1500 
 51 H        6.9950    10.9110    -2.3850 H     1 <1>   0.0800 
 52 H        5.4700    11.7540    -2.5340 H     1 <1>   0.0800 
 53 H        5.8690    10.4550    -3.6360 H     1 <1>   0.0800 
@<TRIPOS>BOND
  1   1   2  2   
  2   1   3  2   
  3   1   4  am  
  4   1   5  1   
  5   4   6  1   
  6   4   7  1   
  7   5   8  1   
  8   5  27  1   
  9   5  28  1   
 10   6  29  1   
 11   6  30  1   
 12   6  31  1   
 13   7  32  1   
 14   7  33  1   
 15   7  34  1   
 16   8   9  1   
 17   8  10  1   
 18   8  35  1   
 19   9  11  1   
 20   9  12  1   
 21   9  36  1   
 22  10  13  1   
 23  10  37  1   
 24  10  38  1   
 25  11  39  1   
 26  12  13  1   
 27  12  40  1   
 28  12  41  1   
 29  13  14  1   
 30  13  42  1   
 31  14  15  1   
 32  14  43  1   
 33  14  44  1   
 34  15  16  1   
 35  15  17  2   
 36  16  18  2   
 37  16  45  1   
 38  17  19  1   
 39  17  46  1   
 40  18  19  1   
 41  19  20  1   
 42  20  21  ar  
 43  20  22  ar  
 44  21  23  ar  
 45  21  47  1   
 46  22  24  ar  
 47  22  48  1   
 48  23  25  ar  
 49  23  49  1   
 50  24  25  ar  
 51  24  50  1   
 52  25  26  1   
 53  26  51  1   
 54  26  52  1   
 55  26  53  1   
@<TRIPOS>SUBSTRUCTURE
  1 ****  17 GROUP 4 **** **** 0

# MOE 2024.06 (io_trps.svl 2023.06)
