@<TRIPOS>MOLECULE
NONAME
56 61 1 0 0 
SMALL
USER_CHARGES


@<TRIPOS>ATOM
  1 O       -0.4520     0.6880    -1.3730 O.2   1 <1>  -0.5700 
  2 C       -1.5020     1.0510    -0.8940 C.2   1 <1>   0.6300 
  3 N       -2.6790     0.3850    -1.1330 N.am  1 <1>  -0.6600 
  4 C       -1.4820     2.2750     0.0170 C.3   1 <1>  -0.1000 
  5 C       -3.9900     0.7200    -0.5130 C.3   1 <1>   0.1400 
  6 C       -2.7400    -0.7770    -2.0610 C.3   1 <1>   0.1400 
  7 C       -2.1470     3.5600    -0.4150 C.3   1 <1>  -0.1950 
  8 C       -0.6620     3.4900    -0.3370 C.3   1 <1>  -0.1950 
  9 C       -4.4930    -0.4910     0.2740 C.3   1 <1>  -0.1600 
 10 C       -3.2380    -2.0070    -1.2970 C.3   1 <1>  -0.1600 
 11 C       -2.5150     4.7670     0.4690 C.3   1 <1>   0.0150 
 12 C       -0.2760     4.6600     0.5880 C.3   1 <1>   0.0150 
 13 C       -4.5860    -1.7500    -0.6080 C.3   1 <1>   0.4240 
 14 C       -1.4500     4.7190     1.5590 C.3   1 <1>  -0.1600 
 15 C       -2.0650     6.0250    -0.2960 C.3   1 <1>  -0.1600 
 16 C       -0.5210     5.9510    -0.2150 C.3   1 <1>  -0.1600 
 17 O       -5.4920    -1.4830    -1.6530 O.3   1 <1>  -0.5600 
 18 C       -5.0120    -2.9820     0.2200 C.ar  1 <1>  -0.1430 
 19 C       -6.8500    -1.6580    -1.3910 C.3   1 <1>   0.1200 
 20 C       -6.2110    -3.6420    -0.0330 C.ar  1 <1>  -0.1430 
 21 C       -4.2020    -3.4540     1.2480 C.ar  1 <1>  -0.1500 
 22 C       -7.1160    -3.1390    -1.1400 C.3   1 <1>  -0.0170 
 23 C       -6.5830    -4.7480     0.7140 C.ar  1 <1>  -0.1500 
 24 C       -4.5730    -4.5560     1.9960 C.ar  1 <1>  -0.1500 
 25 C       -5.7620    -5.2130     1.7360 C.ar  1 <1>   0.0820 
 26 O       -6.0510    -6.2870     2.5120 O.3   1 <1>  -0.3630 
 27 C       -7.2280    -7.0380     2.3160 C.3   1 <1>   0.0400 
 28 H       -1.5130     1.9760     1.0460 H     1 <1>   0.1000 
 29 H       -3.9080     1.5640     0.1470 H     1 <1>   0.0800 
 30 H       -4.6910     0.9720    -1.2920 H     1 <1>   0.0800 
 31 H       -3.4130    -0.5480    -2.8700 H     1 <1>   0.0800 
 32 H       -1.7710    -0.9820    -2.4830 H     1 <1>   0.0800 
 33 H       -2.6050     3.5780    -1.3900 H     1 <1>   0.1000 
 34 H       -0.0880     3.4440    -1.2480 H     1 <1>   0.1000 
 35 H       -5.4490    -0.2760     0.7110 H     1 <1>   0.0800 
 36 H       -3.8100    -0.6710     1.0830 H     1 <1>   0.0800 
 37 H       -2.4910    -2.2690    -0.5720 H     1 <1>   0.0800 
 38 H       -3.3400    -2.8380    -1.9710 H     1 <1>   0.0800 
 39 H       -3.5340     4.7810     0.8150 H     1 <1>   0.0800 
 40 H        0.6980     4.5760     1.0380 H     1 <1>   0.0800 
 41 H       -1.5240     3.8550     2.1950 H     1 <1>   0.0800 
 42 H       -1.4390     5.6070     2.1680 H     1 <1>   0.0800 
 43 H       -2.4140     6.0180    -1.3140 H     1 <1>   0.0800 
 44 H       -2.4230     6.9130     0.1960 H     1 <1>   0.0800 
 45 H       -0.1310     6.8020     0.3150 H     1 <1>   0.0800 
 46 H       -0.0690     5.9020    -1.1910 H     1 <1>   0.0800 
 47 H       -7.1270    -1.0640    -0.5390 H     1 <1>   0.0800 
 48 H       -7.3980    -1.3180    -2.2520 H     1 <1>   0.0800 
 49 H       -3.2700    -2.9680     1.4780 H     1 <1>   0.1500 
 50 H       -8.1470    -3.2710    -0.8670 H     1 <1>   0.0800 
 51 H       -6.9290    -3.6940    -2.0410 H     1 <1>   0.0800 
 52 H       -7.5100    -5.2380     0.4900 H     1 <1>   0.1500 
 53 H       -3.9410    -4.9160     2.7870 H     1 <1>   0.1500 
 54 H       -7.2370    -7.8370     3.0350 H     1 <1>   0.0800 
 55 H       -7.2200    -7.4430     1.3190 H     1 <1>   0.0800 
 56 H       -8.0790    -6.3990     2.4680 H     1 <1>   0.0800 
@<TRIPOS>BOND
  1   1   2  2   
  2   2   3  am  
  3   2   4  1   
  4   3   5  1   
  5   3   6  1   
  6   4   7  1   
  7   4   8  1   
  8   4  28  1   
  9   5   9  1   
 10   5  29  1   
 11   5  30  1   
 12   6  10  1   
 13   6  31  1   
 14   6  32  1   
 15   7   8  1   
 16   7  11  1   
 17   7  33  1   
 18   8  12  1   
 19   8  34  1   
 20   9  13  1   
 21   9  35  1   
 22   9  36  1   
 23  10  13  1   
 24  10  37  1   
 25  10  38  1   
 26  11  14  1   
 27  11  15  1   
 28  11  39  1   
 29  12  14  1   
 30  12  16  1   
 31  12  40  1   
 32  13  17  1   
 33  13  18  1   
 34  14  41  1   
 35  14  42  1   
 36  15  16  1   
 37  15  43  1   
 38  15  44  1   
 39  16  45  1   
 40  16  46  1   
 41  17  19  1   
 42  18  20  ar  
 43  18  21  ar  
 44  19  22  1   
 45  19  47  1   
 46  19  48  1   
 47  20  22  1   
 48  20  23  ar  
 49  21  24  ar  
 50  21  49  1   
 51  22  50  1   
 52  22  51  1   
 53  23  25  ar  
 54  23  52  1   
 55  24  25  ar  
 56  24  53  1   
 57  25  26  1   
 58  26  27  1   
 59  27  54  1   
 60  27  55  1   
 61  27  56  1   
@<TRIPOS>SUBSTRUCTURE
  1 ****   9 GROUP 4 **** **** 0

# MOE 2024.06 (io_trps.svl 2023.06)
