@<TRIPOS>MOLECULE
NONAME
46 49 1 0 0 
SMALL
USER_CHARGES


@<TRIPOS>ATOM
  1 O        3.1740    -1.3590     2.7380 O.2   1 <1>  -0.5700 
  2 C        2.3910    -0.7220     2.0750 C.2   1 <1>   0.5690 
  3 N        2.8450     0.1740     1.1310 N.am  1 <1>  -0.6600 
  4 C        0.9140    -1.0600     2.2340 C.3   1 <1>   0.0440 
  5 C        4.3270     0.1870     0.8340 C.3   1 <1>   0.2200 
  6 C        1.9550     0.9310     0.1920 C.3   1 <1>   0.1400 
  7 C        0.4400    -1.8910     1.0420 C.ar  1 <1>  -0.1440 
  8 C        4.8650     1.5440     0.3490 C.3   1 <1>   0.1200 
  9 C        4.6590    -0.9360    -0.1790 C.3   1 <1>   0.3430 
 10 C        2.4460     0.9560    -1.2710 C.3   1 <1>  -0.0800 
 11 C        1.1440    -3.0390     0.6860 C.ar  1 <1>  -0.1500 
 12 C       -0.6740    -1.5000     0.2970 C.ar  1 <1>  -0.1500 
 13 O        4.7410     1.6600    -1.0380 O.3   1 <1>  -0.5600 
 14 N        3.4490    -1.4050    -0.9520 N.4   1 <1>  -0.9590 
 15 C        3.4960     2.0530    -1.5010 C.3   1 <1>   0.1200 
 16 C        2.8750    -0.3930    -1.8960 C.3   1 <1>   0.3430 
 17 C        0.7360    -3.7350    -0.4330 C.ar  1 <1>   0.0820 
 18 C       -1.0760    -2.2220    -0.8190 C.ar  1 <1>  -0.1500 
 19 C        3.7110    -2.7030    -1.6360 C.3   1 <1>   0.2630 
 20 O        1.2800    -4.8310    -0.9730 O.3   1 <1>  -0.3620 
 21 C       -0.3430    -3.3390    -1.1650 C.ar  1 <1>   0.0820 
 22 C        0.4150    -5.2280    -2.0390 C.3   1 <1>   0.4000 
 23 O       -0.5340    -4.1750    -2.1890 O.3   1 <1>  -0.3620 
 24 H        0.7800    -1.6310     3.1350 H     1 <1>   0.0800 
 25 H        0.3450    -0.1550     2.3360 H     1 <1>   0.0800 
 26 H        4.8610    -0.0220     1.7450 H     1 <1>   0.0800 
 27 H        0.9670     0.5170     0.1990 H     1 <1>   0.0800 
 28 H        1.8640     1.9420     0.5540 H     1 <1>   0.0800 
 29 H        5.9180     1.5970     0.5630 H     1 <1>   0.0800 
 30 H        4.3820     2.3700     0.8420 H     1 <1>   0.0800 
 31 H        5.0590    -1.7650     0.3800 H     1 <1>   0.0800 
 32 H        5.4280    -0.5990    -0.8550 H     1 <1>   0.0800 
 33 H        1.6000     1.2840    -1.8480 H     1 <1>   0.0800 
 34 H        1.9850    -3.3920     1.2600 H     1 <1>   0.1500 
 35 H       -1.2420    -0.6300     0.5830 H     1 <1>   0.1500 
 36 H        2.7260    -1.5580    -0.2290 H     1 <1>   0.4500 
 37 H        3.2210     2.9800    -1.0240 H     1 <1>   0.0800 
 38 H        3.6030     2.2430    -2.5560 H     1 <1>   0.0800 
 39 H        3.5870    -0.1960    -2.6820 H     1 <1>   0.0800 
 40 H        2.0030    -0.8300    -2.3570 H     1 <1>   0.0800 
 41 H       -1.9350    -1.9360    -1.4010 H     1 <1>   0.1500 
 42 H        4.4800    -2.5860    -2.3820 H     1 <1>   0.0800 
 43 H        2.8130    -3.0600    -2.1140 H     1 <1>   0.0800 
 44 H        4.0290    -3.4440    -0.9200 H     1 <1>   0.0800 
 45 H        0.9780    -5.3480    -2.9470 H     1 <1>   0.0800 
 46 H       -0.0970    -6.1350    -1.7660 H     1 <1>   0.0800 
@<TRIPOS>BOND
  1   1   2  2   
  2   2   3  am  
  3   2   4  1   
  4   3   5  1   
  5   3   6  1   
  6   4   7  1   
  7   4  24  1   
  8   4  25  1   
  9   5   8  1   
 10   5   9  1   
 11   5  26  1   
 12   6  10  1   
 13   6  27  1   
 14   6  28  1   
 15   7  11  ar  
 16   7  12  ar  
 17   8  13  1   
 18   8  29  1   
 19   8  30  1   
 20   9  14  1   
 21   9  31  1   
 22   9  32  1   
 23  10  15  1   
 24  10  16  1   
 25  10  33  1   
 26  11  17  ar  
 27  11  34  1   
 28  12  18  ar  
 29  12  35  1   
 30  13  15  1   
 31  14  16  1   
 32  14  19  1   
 33  14  36  1   
 34  15  37  1   
 35  15  38  1   
 36  16  39  1   
 37  16  40  1   
 38  17  20  1   
 39  17  21  ar  
 40  18  21  ar  
 41  18  41  1   
 42  19  42  1   
 43  19  43  1   
 44  19  44  1   
 45  20  22  1   
 46  21  23  1   
 47  22  23  1   
 48  22  45  1   
 49  22  46  1   
@<TRIPOS>SUBSTRUCTURE
  1 ****  14 GROUP 4 **** **** 0

# MOE 2024.06 (io_trps.svl 2023.06)
