@<TRIPOS>MOLECULE
NONAME
50 52 1 0 0 
SMALL
USER_CHARGES


@<TRIPOS>ATOM
  1 O       -1.0160     0.1210    -0.1570 O.2   1 <1>  -0.5700 
  2 C       -1.5430     1.1650     0.1290 C.2   1 <1>   0.5690 
  3 N       -1.2920     2.2630    -0.6260 N.am  1 <1>  -0.7300 
  4 C       -2.4670     1.2680     1.3340 C.3   1 <1>   0.0420 
  5 C       -1.8400     3.6230    -0.4280 C.3   1 <1>   0.1400 
  6 C       -3.3700     0.0490     1.4850 C.2   1 <1>   0.5690 
  7 C       -3.2740     2.5860     1.3900 C.3   1 <1>  -0.1600 
  8 C       -2.3920     3.7780     0.9940 C.3   1 <1>  -0.1600 
  9 O       -3.4360    -0.4190     2.6000 O.2   1 <1>  -0.5700 
 10 N       -4.1300    -0.4840     0.4640 N.am  1 <1>  -0.6600 
 11 C       -4.8630    -1.7640     0.7040 C.3   1 <1>   0.1400 
 12 C       -4.2470     0.0700    -0.9170 C.3   1 <1>   0.1400 
 13 C       -6.2660    -1.4900     1.2610 C.3   1 <1>   0.1400 
 14 C       -5.6890     0.1050    -1.4490 C.3   1 <1>  -0.1600 
 15 N       -7.1890    -0.9550     0.2090 N.am  1 <1>  -0.6600 
 16 C       -6.7670     0.3460    -0.3850 C.3   1 <1>   0.1400 
 17 C       -8.3150    -1.5940    -0.2640 C.2   1 <1>   0.5690 
 18 O       -8.9590    -1.1250    -1.1750 O.2   1 <1>  -0.5700 
 19 C       -8.7820    -2.9310     0.3330 C.3   1 <1>  -0.0190 
 20 C       -7.9870    -4.1400    -0.1720 C.3   1 <1>  -0.1600 
 21 C      -10.2300    -3.3290     0.0240 C.3   1 <1>  -0.1600 
 22 C       -8.8720    -5.3610     0.0980 C.3   1 <1>  -0.1600 
 23 C      -10.2920    -4.8270     0.3210 C.3   1 <1>  -0.1600 
 24 H       -0.6430     2.1300    -1.4060 H     1 <1>   0.3700 
 25 H       -1.8080     1.2690     2.1830 H     1 <1>   0.0800 
 26 H       -2.6250     3.7890    -1.1450 H     1 <1>   0.0800 
 27 H       -1.0640     4.3520    -0.5980 H     1 <1>   0.0800 
 28 H       -3.6550     2.7250     2.3870 H     1 <1>   0.0800 
 29 H       -4.1180     2.5340     0.7240 H     1 <1>   0.0800 
 30 H       -2.9610     4.6900     1.0540 H     1 <1>   0.0800 
 31 H       -1.5690     3.8650     1.6830 H     1 <1>   0.0800 
 32 H       -4.3160    -2.3540     1.4190 H     1 <1>   0.0800 
 33 H       -4.9280    -2.3380    -0.2030 H     1 <1>   0.0800 
 34 H       -3.6310    -0.5130    -1.5810 H     1 <1>   0.0800 
 35 H       -3.8740     1.0760    -0.9370 H     1 <1>   0.0800 
 36 H       -6.1940    -0.7840     2.0710 H     1 <1>   0.0800 
 37 H       -6.6430    -2.4040     1.6730 H     1 <1>   0.0800 
 38 H       -5.9080    -0.8070    -1.9770 H     1 <1>   0.0800 
 39 H       -5.7460     0.8960    -2.1740 H     1 <1>   0.0800 
 40 H       -7.6160     0.8230    -0.8450 H     1 <1>   0.0800 
 41 H       -6.4060     1.0060     0.3860 H     1 <1>   0.0800 
 42 H       -8.7040    -2.8780     1.4030 H     1 <1>   0.0800 
 43 H       -7.0280    -4.2300     0.3050 H     1 <1>   0.0800 
 44 H       -7.8380    -4.0400    -1.2350 H     1 <1>   0.0800 
 45 H      -10.4380    -3.1730    -1.0210 H     1 <1>   0.0800 
 46 H      -10.9370    -2.7660     0.6080 H     1 <1>   0.0800 
 47 H       -8.5360    -5.8800     0.9790 H     1 <1>   0.0800 
 48 H       -8.8420    -6.0390    -0.7380 H     1 <1>   0.0800 
 49 H      -11.0080    -5.3200    -0.3140 H     1 <1>   0.0800 
 50 H      -10.5760    -4.9790     1.3490 H     1 <1>   0.0800 
@<TRIPOS>BOND
  1   1   2  2   
  2   2   3  am  
  3   2   4  1   
  4   3   5  1   
  5   3  24  1   
  6   4   6  1   
  7   4   7  1   
  8   4  25  1   
  9   5   8  1   
 10   5  26  1   
 11   5  27  1   
 12   6   9  2   
 13   6  10  am  
 14   7   8  1   
 15   7  28  1   
 16   7  29  1   
 17   8  30  1   
 18   8  31  1   
 19  10  11  1   
 20  10  12  1   
 21  11  13  1   
 22  11  32  1   
 23  11  33  1   
 24  12  14  1   
 25  12  34  1   
 26  12  35  1   
 27  13  15  1   
 28  13  36  1   
 29  13  37  1   
 30  14  16  1   
 31  14  38  1   
 32  14  39  1   
 33  15  16  1   
 34  15  17  am  
 35  16  40  1   
 36  16  41  1   
 37  17  18  2   
 38  17  19  1   
 39  19  20  1   
 40  19  21  1   
 41  19  42  1   
 42  20  22  1   
 43  20  43  1   
 44  20  44  1   
 45  21  23  1   
 46  21  45  1   
 47  21  46  1   
 48  22  23  1   
 49  22  47  1   
 50  22  48  1   
 51  23  49  1   
 52  23  50  1   
@<TRIPOS>SUBSTRUCTURE
  1 ****  10 GROUP 4 **** **** 0

# MOE 2024.06 (io_trps.svl 2023.06)
