@<TRIPOS>MOLECULE
NONAME
46 48 1 0 0 
SMALL
USER_CHARGES


@<TRIPOS>ATOM
  1 O       -0.5850     1.3720     1.4980 O.2   1 <1>  -0.5700 
  2 C       -0.3210     2.4700     1.0440 C.2   1 <1>   0.5440 
  3 N       -1.3510     3.3420     0.7490 N.am  1 <1>  -0.6600 
  4 C        1.0680     2.8220     0.8160 C.ar  1 <1>   0.0860 
  5 C       -2.7570     3.0840     1.1930 C.3   1 <1>   0.1400 
  6 C       -1.2120     4.5190    -0.1500 C.3   1 <1>   0.1400 
  7 C        1.8930     2.0110     0.0400 C.ar  1 <1>  -0.1500 
  8 C        1.6290     3.9750     1.3630 C.ar  1 <1>  -0.1500 
  9 C       -3.6970     2.8710    -0.0200 C.3   1 <1>   0.0000 
 10 C       -2.1150     4.3460    -1.3770 C.3   1 <1>  -0.1600 
 11 C        3.2150     2.3440    -0.1960 C.ar  1 <1>  -0.1500 
 12 C        2.9500     4.3130     1.1300 C.ar  1 <1>  -0.1500 
 13 C       -5.1520     2.6520     0.4310 C.3   1 <1>   0.2000 
 14 C       -3.5770     4.0750    -0.9800 C.3   1 <1>  -0.1600 
 15 C       -3.3850     1.5330    -0.7140 C.3   1 <1>  -0.1600 
 16 C        3.7510     3.5010     0.3450 C.ar  1 <1>  -0.1430 
 17 O       -5.4990     3.5070     1.4800 O.3   1 <1>  -0.5600 
 18 C       -5.2390     1.1820     0.8520 C.3   1 <1>  -0.1600 
 19 C       -4.0980     0.4630     0.1180 C.3   1 <1>  -0.1600 
 20 C        5.2010     3.8670     0.0880 C.3   1 <1>  -0.0970 
 21 C       -6.8640     3.5870     1.7450 C.3   1 <1>   0.0400 
 22 H       -2.7960     2.2310     1.8480 H     1 <1>   0.0800 
 23 H       -3.0890     3.9350     1.7610 H     1 <1>   0.0800 
 24 H       -1.4980     5.4050     0.3900 H     1 <1>   0.0800 
 25 H       -0.1950     4.6380    -0.4790 H     1 <1>   0.0800 
 26 H        1.4830     1.1070    -0.3760 H     1 <1>   0.1500 
 27 H        1.0160     4.6070     1.9800 H     1 <1>   0.1500 
 28 H       -2.0670     5.2350    -1.9780 H     1 <1>   0.0800 
 29 H       -1.7400     3.5310    -1.9710 H     1 <1>   0.0800 
 30 H        3.8260     1.6960    -0.8000 H     1 <1>   0.1500 
 31 H        3.3550     5.2100     1.5660 H     1 <1>   0.1500 
 32 H       -5.8090     2.8340    -0.4030 H     1 <1>   0.0800 
 33 H       -4.1660     3.9070    -1.8650 H     1 <1>   0.0800 
 34 H       -3.9710     4.9470    -0.4880 H     1 <1>   0.0800 
 35 H       -3.7990     1.5340    -1.7070 H     1 <1>   0.0800 
 36 H       -2.3290     1.3360    -0.7850 H     1 <1>   0.0800 
 37 H       -5.0930     1.0900     1.9150 H     1 <1>   0.0800 
 38 H       -6.1920     0.7660     0.5790 H     1 <1>   0.0800 
 39 H       -3.4090     0.0520     0.8380 H     1 <1>   0.0800 
 40 H       -4.4630    -0.3330    -0.5060 H     1 <1>   0.0800 
 41 H        5.5130     3.5140    -0.8790 H     1 <1>   0.0800 
 42 H        5.8270     3.4190     0.8390 H     1 <1>   0.0800 
 43 H        5.3320     4.9330     0.1170 H     1 <1>   0.0800 
 44 H       -7.0060     4.2860     2.5500 H     1 <1>   0.0800 
 45 H       -7.2300     2.6190     2.0400 H     1 <1>   0.0800 
 46 H       -7.3780     3.9360     0.8670 H     1 <1>   0.0800 
@<TRIPOS>BOND
  1   1   2  2   
  2   2   3  am  
  3   2   4  1   
  4   3   5  1   
  5   3   6  1   
  6   4   7  ar  
  7   4   8  ar  
  8   5   9  1   
  9   5  22  1   
 10   5  23  1   
 11   6  10  1   
 12   6  24  1   
 13   6  25  1   
 14   7  11  ar  
 15   7  26  1   
 16   8  12  ar  
 17   8  27  1   
 18   9  13  1   
 19   9  14  1   
 20   9  15  1   
 21  10  14  1   
 22  10  28  1   
 23  10  29  1   
 24  11  16  ar  
 25  11  30  1   
 26  12  16  ar  
 27  12  31  1   
 28  13  17  1   
 29  13  18  1   
 30  13  32  1   
 31  14  33  1   
 32  14  34  1   
 33  15  19  1   
 34  15  35  1   
 35  15  36  1   
 36  16  20  1   
 37  17  21  1   
 38  18  19  1   
 39  18  37  1   
 40  18  38  1   
 41  19  39  1   
 42  19  40  1   
 43  20  41  1   
 44  20  42  1   
 45  20  43  1   
 46  21  44  1   
 47  21  45  1   
 48  21  46  1   
@<TRIPOS>SUBSTRUCTURE
  1 ****   3 GROUP 4 **** **** 0

# MOE 2024.06 (io_trps.svl 2023.06)
