@<TRIPOS>MOLECULE
NONAME
56 59 1 0 0 
SMALL
USER_CHARGES


@<TRIPOS>ATOM
  1 O       -0.9120     0.6680    -1.2700 O.2   1 <1>  -0.5700 
  2 C       -0.6750     1.6400    -0.5910 C.2   1 <1>   0.5690 
  3 N       -1.6330     2.5560    -0.2390 N.am  1 <1>  -0.5090 
  4 C        0.7750     1.8550    -0.1520 C.3   1 <1>   0.1810 
  5 C       -1.2730     3.8340     0.4550 C.3   1 <1>   0.3640 
  6 C       -3.0780     2.3400    -0.4990 C.3   1 <1>   0.0490 
  7 O        0.9140     2.8150     0.8660 O.3   1 <1>  -0.5600 
  8 C       -1.8620     5.0290    -0.2960 C.ar  1 <1>  -0.1440 
  9 C        0.2560     4.0360     0.5960 C.3   1 <1>   0.2610 
 10 C       -4.0280     2.3500     0.6600 C.3   1 <1>  -0.2000 
 11 C       -3.7270     1.0690    -0.0500 C.3   1 <1>  -0.2000 
 12 C       -2.4980     6.0410     0.4100 C.ar  1 <1>   0.1600 
 13 C       -1.7680     5.1430    -1.6720 C.ar  1 <1>  -0.1500 
 14 C        0.5850     5.0960     1.6620 C.2   1 <1>   0.5690 
 15 N       -3.0350     7.1220    -0.1320 N.ar  1 <1>  -0.6200 
 16 C       -2.3230     6.2640    -2.2510 C.ar  1 <1>  -0.1500 
 17 O       -0.2290     5.3100     2.5350 O.2   1 <1>  -0.5700 
 18 N        1.7580     5.8120     1.6000 N.am  1 <1>  -0.6600 
 19 C       -2.9360     7.2080    -1.4470 C.ar  1 <1>   0.1600 
 20 C        2.9030     5.5120     0.7070 C.3   1 <1>   0.1400 
 21 C        1.9700     7.0330     2.4160 C.3   1 <1>   0.1400 
 22 C        3.0850     6.6720    -0.2750 C.3   1 <1>  -0.1600 
 23 C        2.1470     8.2320     1.4790 C.3   1 <1>  -0.1600 
 24 C        3.2780     8.0280     0.4440 C.3   1 <1>  -0.0800 
 25 C        3.3580     9.2100    -0.5630 C.3   1 <1>  -0.0800 
 26 C        4.4870     9.0260    -1.5920 C.3   1 <1>  -0.2400 
 27 C        3.5710    10.5610     0.1400 C.3   1 <1>  -0.2400 
 28 H        1.3630     2.1660    -0.9960 H     1 <1>   0.0800 
 29 H        1.1710     0.9280     0.2210 H     1 <1>   0.0800 
 30 H       -1.7060     3.7880     1.4390 H     1 <1>   0.0800 
 31 H       -3.4000     2.7700    -1.4330 H     1 <1>   0.1000 
 32 H        0.6280     4.3990    -0.3430 H     1 <1>   0.0800 
 33 H       -3.6580     2.4620     1.6630 H     1 <1>   0.1000 
 34 H       -5.0010     2.7890     0.5250 H     1 <1>   0.1000 
 35 H       -4.4870     0.6350    -0.6750 H     1 <1>   0.1000 
 36 H       -3.1180     0.3270     0.4360 H     1 <1>   0.1000 
 37 H       -2.5670     5.9640     1.4840 H     1 <1>   0.1500 
 38 H       -1.2910     4.3900    -2.2760 H     1 <1>   0.1500 
 39 H       -2.2840     6.4060    -3.3160 H     1 <1>   0.1500 
 40 H       -3.3670     8.0800    -1.9100 H     1 <1>   0.1500 
 41 H        3.7910     5.4020     1.3060 H     1 <1>   0.0800 
 42 H        2.7570     4.5900     0.1740 H     1 <1>   0.0800 
 43 H        1.1330     7.2070     3.0710 H     1 <1>   0.0800 
 44 H        2.8480     6.9040     3.0250 H     1 <1>   0.0800 
 45 H        3.9430     6.4500    -0.8810 H     1 <1>   0.0800 
 46 H        2.2260     6.7210    -0.9200 H     1 <1>   0.0800 
 47 H        1.2140     8.4080     0.9720 H     1 <1>   0.0800 
 48 H        2.3530     9.0890     2.0920 H     1 <1>   0.0800 
 49 H        4.2100     7.9840     0.9830 H     1 <1>   0.0800 
 50 H        2.4260     9.2640    -1.1030 H     1 <1>   0.0800 
 51 H        5.4290     8.8730    -1.0960 H     1 <1>   0.0800 
 52 H        4.5700     9.8980    -2.2160 H     1 <1>   0.0800 
 53 H        4.2910     8.1920    -2.2390 H     1 <1>   0.0800 
 54 H        4.4400    10.5260     0.7730 H     1 <1>   0.0800 
 55 H        2.7170    10.8280     0.7350 H     1 <1>   0.0800 
 56 H        3.7090    11.3440    -0.5850 H     1 <1>   0.0800 
@<TRIPOS>BOND
  1   1   2  2   
  2   2   3  am  
  3   2   4  1   
  4   3   5  1   
  5   3   6  1   
  6   4   7  1   
  7   4  28  1   
  8   4  29  1   
  9   5   8  1   
 10   5   9  1   
 11   5  30  1   
 12   6  10  1   
 13   6  11  1   
 14   6  31  1   
 15   7   9  1   
 16   8  12  ar  
 17   8  13  ar  
 18   9  14  1   
 19   9  32  1   
 20  10  11  1   
 21  10  33  1   
 22  10  34  1   
 23  11  35  1   
 24  11  36  1   
 25  12  15  ar  
 26  12  37  1   
 27  13  16  ar  
 28  13  38  1   
 29  14  17  2   
 30  14  18  am  
 31  15  19  ar  
 32  16  19  ar  
 33  16  39  1   
 34  18  20  1   
 35  18  21  1   
 36  19  40  1   
 37  20  22  1   
 38  20  41  1   
 39  20  42  1   
 40  21  23  1   
 41  21  43  1   
 42  21  44  1   
 43  22  24  1   
 44  22  45  1   
 45  22  46  1   
 46  23  24  1   
 47  23  47  1   
 48  23  48  1   
 49  24  25  1   
 50  24  49  1   
 51  25  26  1   
 52  25  27  1   
 53  25  50  1   
 54  26  51  1   
 55  26  52  1   
 56  26  53  1   
 57  27  54  1   
 58  27  55  1   
 59  27  56  1   
@<TRIPOS>SUBSTRUCTURE
  1 ****   9 GROUP 4 **** **** 0

# MOE 2024.06 (io_trps.svl 2023.06)
