@<TRIPOS>MOLECULE
NONAME
49 50 1 0 0 
SMALL
USER_CHARGES


@<TRIPOS>ATOM
  1 O       -1.8160    -2.2100    -1.1030 O.2   1 <1>  -0.5700 
  2 C       -0.9430    -2.4270    -0.2980 C.2   1 <1>   0.5690 
  3 N        0.2090    -3.0970    -0.6300 N.am  1 <1>  -0.6600 
  4 C       -1.1900    -1.9610     1.1280 C.3   1 <1>  -0.0990 
  5 C        1.3500    -3.2780     0.3120 C.3   1 <1>   0.1400 
  6 C        0.4950    -3.4870    -2.0420 C.3   1 <1>   0.1400 
  7 C        0.0760    -1.9010     1.9930 C.3   1 <1>  -0.1600 
  8 C        0.9090    -3.1650     1.7740 C.3   1 <1>  -0.1600 
  9 C        0.2600    -4.9870    -2.2480 C.3   1 <1>  -0.1600 
 10 C       -1.2360    -5.3560    -2.2580 C.3   1 <1>  -0.0990 
 11 C       -1.4570    -6.8320    -1.9750 C.2   1 <1>   0.5690 
 12 O       -1.4930    -7.5730    -2.9280 O.2   1 <1>  -0.5700 
 13 N       -1.5900    -7.2940    -0.6880 N.am  1 <1>  -0.6600 
 14 C       -1.7740    -8.7510    -0.4500 C.3   1 <1>   0.3200 
 15 C       -1.4380    -6.4310     0.5300 C.3   1 <1>   0.1400 
 16 C       -3.2510    -9.0530    -0.3200 C.2   1 <1>  -0.3320 
 17 C       -2.7480    -5.7580     0.9680 C.3   1 <1>   0.1200 
 18 N       -3.8270    -9.6250     0.7550 N.pl3 1 <1>   0.0330 
 19 C       -4.2450    -8.8190    -1.2040 C.2   1 <1>   0.0770 
 20 O       -3.6500    -6.7040     1.4230 O.3   1 <1>  -0.6800 
 21 C       -5.1430    -9.6840     0.4600 C.2   1 <1>   0.0060 
 22 N       -5.4330    -9.2110    -0.7060 N.2   1 <1>  -0.5650 
 23 C       -6.1720   -10.2440     1.4180 C.3   1 <1>  -0.0600 
 24 H       -1.8930    -2.6400     1.5720 H     1 <1>   0.0800 
 25 H       -1.6500    -0.9900     1.0990 H     1 <1>   0.0800 
 26 H        2.0870    -2.5220     0.1020 H     1 <1>   0.0800 
 27 H        1.8040    -4.2410     0.1530 H     1 <1>   0.0800 
 28 H        1.5190    -3.2460    -2.2720 H     1 <1>   0.0800 
 29 H       -0.1280    -2.9250    -2.7180 H     1 <1>   0.0800 
 30 H       -0.1930    -1.8040     3.0300 H     1 <1>   0.0800 
 31 H        0.6570    -1.0370     1.7150 H     1 <1>   0.0800 
 32 H        1.7820    -3.1370     2.4020 H     1 <1>   0.0800 
 33 H        0.3390    -4.0350     2.0460 H     1 <1>   0.0800 
 34 H        0.7790    -5.5390    -1.4850 H     1 <1>   0.0800 
 35 H        0.6820    -5.2810    -3.1930 H     1 <1>   0.0800 
 36 H       -1.6500    -5.1240    -3.2220 H     1 <1>   0.0800 
 37 H       -1.7840    -4.7740    -1.5460 H     1 <1>   0.0800 
 38 H       -1.2470    -9.0440     0.4410 H     1 <1>   0.0800 
 39 H       -1.3670    -9.3180    -1.2700 H     1 <1>   0.0800 
 40 H       -0.7160    -5.6610     0.3300 H     1 <1>   0.0800 
 41 H       -1.0510    -7.0120     1.3490 H     1 <1>   0.0800 
 42 H       -3.2020    -5.2150     0.1580 H     1 <1>   0.0800 
 43 H       -2.5590    -5.0790     1.7800 H     1 <1>   0.0800 
 44 H       -3.3850    -9.9210     1.6290 H     1 <1>   0.2700 
 45 H       -4.1610    -8.3770    -2.1840 H     1 <1>   0.1500 
 46 H       -3.9040    -7.3000     0.6760 H     1 <1>   0.4000 
 47 H       -5.9500   -11.2700     1.6420 H     1 <1>   0.0800 
 48 H       -7.1490   -10.1920     0.9710 H     1 <1>   0.0800 
 49 H       -6.1790    -9.6700     2.3270 H     1 <1>   0.0800 
@<TRIPOS>BOND
  1   1   2  2   
  2   2   3  am  
  3   2   4  1   
  4   3   5  1   
  5   3   6  1   
  6   4   7  1   
  7   4  24  1   
  8   4  25  1   
  9   5   8  1   
 10   5  26  1   
 11   5  27  1   
 12   6   9  1   
 13   6  28  1   
 14   6  29  1   
 15   7   8  1   
 16   7  30  1   
 17   7  31  1   
 18   8  32  1   
 19   8  33  1   
 20   9  10  1   
 21   9  34  1   
 22   9  35  1   
 23  10  11  1   
 24  10  36  1   
 25  10  37  1   
 26  11  12  2   
 27  11  13  am  
 28  13  14  1   
 29  13  15  1   
 30  14  16  1   
 31  14  38  1   
 32  14  39  1   
 33  15  17  1   
 34  15  40  1   
 35  15  41  1   
 36  16  18  1   
 37  16  19  2   
 38  17  20  1   
 39  17  42  1   
 40  17  43  1   
 41  18  21  1   
 42  18  44  1   
 43  19  22  1   
 44  19  45  1   
 45  20  46  1   
 46  21  22  2   
 47  21  23  1   
 48  23  47  1   
 49  23  48  1   
 50  23  49  1   
@<TRIPOS>SUBSTRUCTURE
  1 ****  15 GROUP 4 **** **** 0

# MOE 2024.06 (io_trps.svl 2023.06)
