@<TRIPOS>MOLECULE
NONAME
45 47 1 0 0 
SMALL
USER_CHARGES


@<TRIPOS>ATOM
  1 O       -0.5400    -4.5890    -0.4290 O.2   1 <1>  -0.5700 
  2 C       -1.6010    -4.5940     0.1640 C.2   1 <1>   0.7150 
  3 N       -1.5350    -4.9020     1.4860 N.am  1 <1>  -0.8000 
  4 C       -2.8680    -4.2920    -0.4830 C.2   1 <1>   0.3930 
  5 O       -2.9170    -3.9870    -1.7510 O.3   1 <1>  -0.0190 
  6 N       -4.0590    -4.2710     0.0270 N.2   1 <1>  -0.5650 
  7 N       -4.1250    -3.7610    -2.1100 N.2   1 <1>  -0.4100 
  8 C       -4.7980    -3.9350    -1.0370 C.2   1 <1>   0.3350 
  9 C       -6.3160    -3.7840    -0.9520 C.3   1 <1>   0.3210 
 10 N       -6.9890    -5.0950    -0.7670 N.am  1 <1>  -0.7300 
 11 C       -8.1000    -5.3020    -0.0130 C.2   1 <1>   0.5690 
 12 O       -8.6560    -4.3680     0.5220 O.2   1 <1>  -0.5700 
 13 C       -8.6590    -6.7420     0.1590 C.3   1 <1>   0.3410 
 14 O       -7.8070    -7.6370    -0.5680 O.3   1 <1>  -0.3630 
 15 C      -10.0860    -6.8270    -0.4120 C.3   1 <1>  -0.2400 
 16 C       -8.6560    -7.1360     1.6470 C.3   1 <1>  -0.2400 
 17 C       -8.0360    -8.9710    -0.6100 C.ar  1 <1>   0.0820 
 18 C       -7.4560    -9.8020     0.3410 C.ar  1 <1>  -0.1500 
 19 C       -8.8100    -9.5080    -1.6320 C.ar  1 <1>  -0.1500 
 20 C       -7.6920   -11.1620     0.2720 C.ar  1 <1>  -0.1430 
 21 C       -9.0390   -10.8740    -1.6910 C.ar  1 <1>  -0.1500 
 22 C       -8.4740   -11.6890    -0.7270 C.ar  1 <1>  -0.1430 
 23 C       -7.1810   -12.2390     1.1950 C.3   1 <1>  -0.0170 
 24 C       -8.5900   -13.1870    -0.5980 C.3   1 <1>  -0.0170 
 25 C       -7.5140   -13.5410     0.4440 C.3   1 <1>  -0.1600 
 26 H       -0.6320    -5.1030     1.9160 H     1 <1>   0.3700 
 27 H       -2.3660    -4.9320     2.0780 H     1 <1>   0.3700 
 28 H       -6.6760    -3.3320    -1.8590 H     1 <1>   0.0800 
 29 H       -6.5570    -3.1310    -0.1310 H     1 <1>   0.0800 
 30 H       -6.5310    -5.9080    -1.1890 H     1 <1>   0.3700 
 31 H      -10.0770    -6.6070    -1.4640 H     1 <1>   0.0800 
 32 H      -10.7140    -6.1040     0.0770 H     1 <1>   0.0800 
 33 H      -10.5130    -7.7990    -0.2460 H     1 <1>   0.0800 
 34 H       -7.6520    -7.1310     2.0290 H     1 <1>   0.0800 
 35 H       -9.0970    -8.1050     1.7930 H     1 <1>   0.0800 
 36 H       -9.2320    -6.4240     2.2110 H     1 <1>   0.0800 
 37 H       -6.8350    -9.3900     1.1130 H     1 <1>   0.1500 
 38 H       -9.2290    -8.8590    -2.3780 H     1 <1>   0.1500 
 39 H       -9.6430   -11.2950    -2.4750 H     1 <1>   0.1500 
 40 H       -7.7120   -12.1920     2.1290 H     1 <1>   0.0800 
 41 H       -6.1240   -12.1430     1.3680 H     1 <1>   0.0800 
 42 H       -8.4070   -13.6800    -1.5370 H     1 <1>   0.0800 
 43 H       -9.5700   -13.4410    -0.2350 H     1 <1>   0.0800 
 44 H       -7.8450   -14.3150     1.1130 H     1 <1>   0.0800 
 45 H       -6.6320   -13.8770    -0.0720 H     1 <1>   0.0800 
@<TRIPOS>BOND
  1   1   2  2   
  2   2   3  am  
  3   2   4  1   
  4   3  26  1   
  5   3  27  1   
  6   4   5  1   
  7   4   6  2   
  8   5   7  1   
  9   6   8  1   
 10   7   8  2   
 11   8   9  1   
 12   9  10  1   
 13   9  28  1   
 14   9  29  1   
 15  10  11  am  
 16  10  30  1   
 17  11  12  2   
 18  11  13  1   
 19  13  14  1   
 20  13  15  1   
 21  13  16  1   
 22  14  17  1   
 23  15  31  1   
 24  15  32  1   
 25  15  33  1   
 26  16  34  1   
 27  16  35  1   
 28  16  36  1   
 29  17  18  ar  
 30  17  19  ar  
 31  18  20  ar  
 32  18  37  1   
 33  19  21  ar  
 34  19  38  1   
 35  20  22  ar  
 36  20  23  1   
 37  21  22  ar  
 38  21  39  1   
 39  22  24  1   
 40  23  25  1   
 41  23  40  1   
 42  23  41  1   
 43  24  25  1   
 44  24  42  1   
 45  24  43  1   
 46  25  44  1   
 47  25  45  1   
@<TRIPOS>SUBSTRUCTURE
  1 ****  14 GROUP 4 **** **** 0

# MOE 2024.06 (io_trps.svl 2023.06)
