@<TRIPOS>MOLECULE
NONAME
54 56 1 0 0 
SMALL
USER_CHARGES


@<TRIPOS>ATOM
  1 O       -0.0680     1.6720     2.1990 O.2   1 <1>  -0.5700 
  2 C       -0.1520     2.7510     1.6690 C.2   1 <1>   0.5690 
  3 N       -1.3120     3.4400     1.6780 N.am  1 <1>  -0.7300 
  4 C        1.0500     3.3480     0.9390 C.3   1 <1>   0.1810 
  5 C       -1.5250     4.7150     0.9470 C.3   1 <1>   0.3640 
  6 O        0.9550     4.7490     0.8190 O.3   1 <1>  -0.5600 
  7 C       -2.6800     4.5030    -0.0310 C.ar  1 <1>  -0.1440 
  8 C       -0.2490     5.2210     0.2140 C.3   1 <1>   0.2610 
  9 C       -2.7510     3.3690    -0.8330 C.ar  1 <1>  -0.1500 
 10 C       -3.6830     5.4570    -0.1330 C.ar  1 <1>  -0.1500 
 11 C       -0.2490     6.7550     0.1730 C.2   1 <1>   0.5690 
 12 C       -3.8050     3.1920    -1.7130 C.ar  1 <1>  -0.1500 
 13 C       -4.7370     5.2820    -1.0140 C.ar  1 <1>  -0.1500 
 14 O       -1.2000     7.3440    -0.2820 O.2   1 <1>  -0.5700 
 15 N        0.8290     7.4260     0.6630 N.am  1 <1>  -0.7300 
 16 C       -4.7990     4.1490    -1.8040 C.ar  1 <1>  -0.1500 
 17 C        1.0150     8.8900     0.6860 C.3   1 <1>   0.1400 
 18 C        2.2730     9.2400    -0.1060 C.3   1 <1>  -0.1600 
 19 C        2.5210    10.7560    -0.1070 C.3   1 <1>  -0.0170 
 20 C        3.8140    11.2150    -0.7920 C.ar  1 <1>  -0.1430 
 21 C        4.2320    12.5350    -0.6200 C.ar  1 <1>   0.0830 
 22 C        4.5790    10.3660    -1.5840 C.ar  1 <1>  -0.1500 
 23 O        3.4570    13.3490     0.1480 O.3   1 <1>  -0.3630 
 24 C        5.4040    12.9790    -1.2290 C.ar  1 <1>  -0.1500 
 25 C        5.7420    10.8140    -2.1860 C.ar  1 <1>  -0.1500 
 26 C        3.7780    14.7030     0.3610 C.3   1 <1>   0.1200 
 27 C        6.1550    12.1200    -2.0080 C.ar  1 <1>  -0.1500 
 28 C        2.6950    15.3100     1.2480 C.3   1 <1>  -0.2400 
 29 H       -2.1330     3.0100     2.1070 H     1 <1>   0.3700 
 30 H        1.1240     2.9230    -0.0450 H     1 <1>   0.0800 
 31 H        1.9470     3.1230     1.4860 H     1 <1>   0.0800 
 32 H       -1.8160     5.4580     1.6700 H     1 <1>   0.0800 
 33 H       -0.2590     4.8660    -0.8010 H     1 <1>   0.0800 
 34 H       -1.9900     2.6100    -0.7770 H     1 <1>   0.1500 
 35 H       -3.6480     6.3510     0.4660 H     1 <1>   0.1500 
 36 H       -3.8510     2.3100    -2.3270 H     1 <1>   0.1500 
 37 H       -5.5060     6.0310    -1.0850 H     1 <1>   0.1500 
 38 H        1.5950     6.8550     1.0360 H     1 <1>   0.3700 
 39 H       -5.6180     4.0140    -2.4880 H     1 <1>   0.1500 
 40 H        0.1580     9.3760     0.2490 H     1 <1>   0.0800 
 41 H        1.1100     9.2190     1.7070 H     1 <1>   0.0800 
 42 H        3.1210     8.7460     0.3360 H     1 <1>   0.0800 
 43 H        2.1480     8.8990    -1.1180 H     1 <1>   0.0800 
 44 H        2.5470    11.0930     0.9150 H     1 <1>   0.0800 
 45 H        1.6940    11.2500    -0.5880 H     1 <1>   0.0800 
 46 H        4.2900     9.3460    -1.7500 H     1 <1>   0.1500 
 47 H        5.7490    13.9880    -1.1100 H     1 <1>   0.1500 
 48 H        6.3230    10.1430    -2.7940 H     1 <1>   0.1500 
 49 H        4.7380    14.7540     0.8440 H     1 <1>   0.0800 
 50 H        3.8100    15.1990    -0.5940 H     1 <1>   0.0800 
 51 H        7.0600    12.4660    -2.4770 H     1 <1>   0.1500 
 52 H        2.6600    14.7950     2.1910 H     1 <1>   0.0800 
 53 H        1.7380    15.2370     0.7630 H     1 <1>   0.0800 
 54 H        2.9120    16.3460     1.4300 H     1 <1>   0.0800 
@<TRIPOS>BOND
  1   1   2  2   
  2   2   3  am  
  3   2   4  1   
  4   3   5  1   
  5   3  29  1   
  6   4   6  1   
  7   4  30  1   
  8   4  31  1   
  9   5   7  1   
 10   5   8  1   
 11   5  32  1   
 12   6   8  1   
 13   7   9  ar  
 14   7  10  ar  
 15   8  11  1   
 16   8  33  1   
 17   9  12  ar  
 18   9  34  1   
 19  10  13  ar  
 20  10  35  1   
 21  11  14  2   
 22  11  15  am  
 23  12  16  ar  
 24  12  36  1   
 25  13  16  ar  
 26  13  37  1   
 27  15  17  1   
 28  15  38  1   
 29  16  39  1   
 30  17  18  1   
 31  17  40  1   
 32  17  41  1   
 33  18  19  1   
 34  18  42  1   
 35  18  43  1   
 36  19  20  1   
 37  19  44  1   
 38  19  45  1   
 39  20  21  ar  
 40  20  22  ar  
 41  21  23  1   
 42  21  24  ar  
 43  22  25  ar  
 44  22  46  1   
 45  23  26  1   
 46  24  27  ar  
 47  24  47  1   
 48  25  27  ar  
 49  25  48  1   
 50  26  28  1   
 51  26  49  1   
 52  26  50  1   
 53  27  51  1   
 54  28  52  1   
 55  28  53  1   
 56  28  54  1   
@<TRIPOS>SUBSTRUCTURE
  1 ****  15 GROUP 4 **** **** 0

# MOE 2024.06 (io_trps.svl 2023.06)
