@<TRIPOS>MOLECULE
NONAME
48 50 1 0 0 
SMALL
USER_CHARGES


@<TRIPOS>ATOM
  1 O       -3.5800    -0.1550     1.1860 O.2   1 <1>  -0.5700 
  2 C       -2.8660    -0.9450     0.5830 C.2   1 <1>   0.5410 
  3 C       -1.6490    -0.6050    -0.1170 C.2   1 <1>   0.0910 
  4 C       -3.2230    -2.3210     0.5300 C.2   1 <1>  -0.1360 
  5 O       -1.1440     0.6690    -0.1750 O.3   1 <1>  -0.3570 
  6 C       -0.9610    -1.5750    -0.7670 C.2   1 <1>  -0.0730 
  7 C       -2.4750    -3.2280    -0.1470 C.2   1 <1>  -0.0620 
  8 C       -1.2630     1.5180     0.9480 C.3   1 <1>   0.0400 
  9 O       -1.3610    -2.8540    -0.7810 O.3   1 <1>  -0.1530 
 10 C       -2.7720    -4.7190    -0.2680 C.3   1 <1>   0.2480 
 11 N       -4.1500    -5.0460     0.1430 N.3   1 <1>  -0.8100 
 12 C       -4.2530    -6.4860     0.4780 C.3   1 <1>   0.1100 
 13 C       -5.1150    -4.6500    -0.9020 C.3   1 <1>   0.1100 
 14 C       -5.6140    -6.9100     1.0520 C.3   1 <1>   0.2090 
 15 C       -6.5130    -4.4730    -0.3030 C.3   1 <1>  -0.1600 
 16 N       -6.6500    -6.9710    -0.0180 N.pl3 1 <1>  -0.8380 
 17 C       -7.3850    -5.7320    -0.3660 C.3   1 <1>   0.2090 
 18 C       -7.2650    -8.1900    -0.2950 C.ar  1 <1>   0.1000 
 19 C       -8.1100    -8.8500     0.6040 C.ar  1 <1>  -0.1430 
 20 C       -7.0200    -8.7690    -1.5340 C.ar  1 <1>  -0.1500 
 21 C       -8.6760   -10.0640     0.2470 C.ar  1 <1>  -0.1500 
 22 C       -8.4330    -8.2740     1.9770 C.3   1 <1>  -0.0970 
 23 C       -7.5900    -9.9780    -1.8850 C.ar  1 <1>  -0.1500 
 24 C       -8.4200   -10.6290    -0.9910 C.ar  1 <1>  -0.1500 
 25 H       -4.1190    -2.5950     1.0550 H     1 <1>   0.1500 
 26 H       -0.0540    -1.3900    -1.3130 H     1 <1>   0.1500 
 27 H       -0.5570     2.3200     0.8390 H     1 <1>   0.0800 
 28 H       -1.0510     0.9580     1.8420 H     1 <1>   0.0800 
 29 H       -2.2610     1.9190     0.9800 H     1 <1>   0.0800 
 30 H       -2.0700    -5.2420     0.3590 H     1 <1>   0.0800 
 31 H       -2.6140    -5.0410    -1.2830 H     1 <1>   0.0800 
 32 H       -3.5120    -6.7140     1.2230 H     1 <1>   0.0800 
 33 H       -4.0430    -7.0860    -0.3910 H     1 <1>   0.0800 
 34 H       -5.1290    -5.3720    -1.7020 H     1 <1>   0.0800 
 35 H       -4.8180    -3.7030    -1.3190 H     1 <1>   0.0800 
 36 H       -5.9150    -6.2350     1.8330 H     1 <1>   0.0800 
 37 H       -5.5070    -7.8910     1.4810 H     1 <1>   0.0800 
 38 H       -7.0240    -3.7070    -0.8560 H     1 <1>   0.0800 
 39 H       -6.4350    -4.1250     0.7110 H     1 <1>   0.0800 
 40 H       -7.7650    -5.8430    -1.3670 H     1 <1>   0.0800 
 41 H       -8.2290    -5.6180     0.2920 H     1 <1>   0.0800 
 42 H       -6.3720    -8.2570    -2.2190 H     1 <1>   0.1500 
 43 H       -9.3230   -10.5810     0.9320 H     1 <1>   0.1500 
 44 H       -8.6100    -7.2180     1.9090 H     1 <1>   0.0800 
 45 H       -7.6100    -8.4470     2.6460 H     1 <1>   0.0800 
 46 H       -9.3130    -8.7340     2.3880 H     1 <1>   0.0800 
 47 H       -7.3870   -10.4110    -2.8480 H     1 <1>   0.1500 
 48 H       -8.8660   -11.5710    -1.2560 H     1 <1>   0.1500 
@<TRIPOS>BOND
  1   1   2  2   
  2   2   3  1   
  3   2   4  1   
  4   3   5  1   
  5   3   6  2   
  6   4   7  2   
  7   4  25  1   
  8   5   8  1   
  9   6   9  1   
 10   6  26  1   
 11   7   9  1   
 12   7  10  1   
 13   8  27  1   
 14   8  28  1   
 15   8  29  1   
 16  10  11  1   
 17  10  30  1   
 18  10  31  1   
 19  11  12  1   
 20  11  13  1   
 21  12  14  1   
 22  12  32  1   
 23  12  33  1   
 24  13  15  1   
 25  13  34  1   
 26  13  35  1   
 27  14  16  1   
 28  14  36  1   
 29  14  37  1   
 30  15  17  1   
 31  15  38  1   
 32  15  39  1   
 33  16  17  1   
 34  16  18  1   
 35  17  40  1   
 36  17  41  1   
 37  18  19  ar  
 38  18  20  ar  
 39  19  21  ar  
 40  19  22  1   
 41  20  23  ar  
 42  20  42  1   
 43  21  24  ar  
 44  21  43  1   
 45  22  44  1   
 46  22  45  1   
 47  22  46  1   
 48  23  24  ar  
 49  23  47  1   
 50  24  48  1   
@<TRIPOS>SUBSTRUCTURE
  1 ****  11 GROUP 4 **** **** 0

# MOE 2024.06 (io_trps.svl 2023.06)
