@<TRIPOS>MOLECULE
NONAME
42 44 1 0 0 
SMALL
USER_CHARGES


@<TRIPOS>ATOM
  1 CL      -1.1120     0.0260     1.0790 Cl    1 <1>  -0.1230 
  2 C       -1.4490    -1.5250     0.3450 C.2   1 <1>   0.4120 
  3 N       -2.0950    -1.6720    -0.7540 N.2   1 <1>  -0.4100 
  4 C       -1.0470    -2.7350     0.8940 C.2   1 <1>  -0.1500 
  5 O       -2.1280    -2.9620    -0.9520 O.3   1 <1>  -0.0190 
  6 C       -1.5200    -3.6240     0.0040 C.2   1 <1>  -0.0400 
  7 C       -1.4530    -5.1390    -0.0420 C.3   1 <1>   0.0200 
  8 C       -2.8600    -5.7560    -0.0210 C.3   1 <1>  -0.0990 
  9 C       -2.8500    -7.2760    -0.0300 C.2   1 <1>   0.5690 
 10 O       -1.7920    -7.8580     0.0110 O.2   1 <1>  -0.5700 
 11 N       -4.0340    -7.9540    -0.0800 N.am  1 <1>  -0.6600 
 12 C       -5.3960    -7.3660    -0.1500 C.3   1 <1>   0.1400 
 13 C       -4.1040    -9.4360    -0.0490 C.3   1 <1>   0.1400 
 14 C       -6.3290    -8.5610    -0.3490 C.3   1 <1>   0.2000 
 15 C       -5.5740    -9.7610     0.2140 C.3   1 <1>  -0.0800 
 16 O       -7.5290    -8.3890     0.3210 O.3   1 <1>  -0.6800 
 17 C       -6.0250   -11.1020    -0.3850 C.3   1 <1>   0.0210 
 18 C       -5.1620   -12.2410     0.1200 C.2   1 <1>   0.1080 
 19 N       -5.0370   -12.5230     1.3790 N.2   1 <1>  -0.7070 
 20 C       -4.4090   -13.0880    -0.6860 C.2   1 <1>  -0.1500 
 21 N       -4.1910   -13.5700     1.4110 N.pl3 1 <1>   0.3000 
 22 C       -3.7960   -13.9300     0.1720 C.2   1 <1>  -0.3320 
 23 C       -2.8400   -15.0720    -0.1200 C.3   1 <1>  -0.0600 
 24 H       -0.4960    -2.8700     1.8040 H     1 <1>   0.1500 
 25 H       -0.9370    -5.4430    -0.9360 H     1 <1>   0.0800 
 26 H       -0.8890    -5.4950     0.8030 H     1 <1>   0.0800 
 27 H       -3.4020    -5.4130    -0.8820 H     1 <1>   0.0800 
 28 H       -3.3760    -5.4250     0.8610 H     1 <1>   0.0800 
 29 H       -5.6130    -6.8630     0.7760 H     1 <1>   0.0800 
 30 H       -5.4740    -6.6830    -0.9770 H     1 <1>   0.0800 
 31 H       -3.7860    -9.8210    -1.0030 H     1 <1>   0.0800 
 32 H       -3.4690    -9.8370     0.7240 H     1 <1>   0.0800 
 33 H       -6.5400    -8.6830    -1.3980 H     1 <1>   0.0800 
 34 H       -5.6980    -9.7970     1.2830 H     1 <1>   0.0800 
 35 H       -7.3920    -8.4670     1.2850 H     1 <1>   0.4000 
 36 H       -5.9730   -11.0640    -1.4580 H     1 <1>   0.0800 
 37 H       -7.0460   -11.2940    -0.1060 H     1 <1>   0.0800 
 38 H       -4.3460   -13.0560    -1.7590 H     1 <1>   0.1500 
 39 H       -3.9030   -14.0130     2.2920 H     1 <1>   0.2700 
 40 H       -2.6820   -15.1600    -1.1800 H     1 <1>   0.0800 
 41 H       -3.2470   -15.9990     0.2440 H     1 <1>   0.0800 
 42 H       -1.8910   -14.8940     0.3540 H     1 <1>   0.0800 
@<TRIPOS>BOND
  1   1   2  1   
  2   2   3  2   
  3   2   4  1   
  4   3   5  1   
  5   4   6  2   
  6   4  24  1   
  7   5   6  1   
  8   6   7  1   
  9   7   8  1   
 10   7  25  1   
 11   7  26  1   
 12   8   9  1   
 13   8  27  1   
 14   8  28  1   
 15   9  10  2   
 16   9  11  am  
 17  11  12  1   
 18  11  13  1   
 19  12  14  1   
 20  12  29  1   
 21  12  30  1   
 22  13  15  1   
 23  13  31  1   
 24  13  32  1   
 25  14  15  1   
 26  14  16  1   
 27  14  33  1   
 28  15  17  1   
 29  15  34  1   
 30  16  35  1   
 31  17  18  1   
 32  17  36  1   
 33  17  37  1   
 34  18  19  2   
 35  18  20  1   
 36  19  21  1   
 37  20  22  2   
 38  20  38  1   
 39  21  22  1   
 40  21  39  1   
 41  22  23  1   
 42  23  40  1   
 43  23  41  1   
 44  23  42  1   
@<TRIPOS>SUBSTRUCTURE
  1 ****  11 GROUP 4 **** **** 0

# MOE 2024.06 (io_trps.svl 2023.06)
