@<TRIPOS>MOLECULE
NONAME
50 53 1 0 0 
SMALL
USER_CHARGES


@<TRIPOS>ATOM
  1 S        1.7230     0.5780     2.0950 S.3   1 <1>  -0.0800 
  2 C        1.1260     1.8050     0.9970 C.2   1 <1>  -0.1400 
  3 C        3.3600     1.1930     1.9220 C.2   1 <1>  -0.1100 
  4 C        2.1100     2.5920     0.5440 C.2   1 <1>  -0.1810 
  5 C       -0.3280     1.9310     0.6340 C.3   1 <1>   0.0200 
  6 C        3.3950     2.2450     1.0810 C.2   1 <1>  -0.1500 
  7 C        1.8210     3.7250    -0.4430 C.3   1 <1>   0.4610 
  8 C       -0.5280     3.3370     0.0450 C.3   1 <1>   0.1200 
  9 O        0.4790     3.6470    -0.8910 O.3   1 <1>  -0.5600 
 10 C        2.0510     5.0990     0.2040 C.3   1 <1>  -0.1600 
 11 C        2.6930     3.5780    -1.6950 C.3   1 <1>  -0.1600 
 12 C        1.8320     6.2400    -0.7910 C.3   1 <1>   0.1400 
 13 C        2.4710     4.7300    -2.6760 C.3   1 <1>   0.1400 
 14 N        2.7040     6.0250    -1.9770 N.am  1 <1>  -0.6600 
 15 C        3.7830     6.8340    -2.2870 C.2   1 <1>   0.7150 
 16 O        4.7060     6.3500    -2.9190 O.2   1 <1>  -0.5700 
 17 C        3.8250     8.2250    -1.8870 C.2   1 <1>   0.0550 
 18 O        4.9550     8.7850    -1.4650 O.3   1 <1>  -0.2800 
 19 C        2.8450     9.1720    -1.8560 C.2   1 <1>  -0.1500 
 20 C        4.7370    10.0490    -1.1640 C.2   1 <1>   0.1600 
 21 C        3.4350    10.3440    -1.3880 C.2   1 <1>  -0.1500 
 22 C        5.8090    10.8620    -0.6850 C.1   1 <1>  -0.0200 
 23 C        6.7100    11.5330    -0.2900 C.1   1 <1>  -0.2000 
 24 C        7.8510    12.3540     0.1950 C.3   1 <1>   0.4800 
 25 O        8.1130    11.9460     1.4720 O.3   1 <1>  -0.6800 
 26 C        9.1050    12.0940    -0.6310 C.3   1 <1>  -0.2400 
 27 C        7.4960    13.8340     0.2530 C.3   1 <1>  -0.2400 
 28 H        4.1340     0.6940     2.4770 H     1 <1>   0.1500 
 29 H       -0.9460     1.8080     1.5050 H     1 <1>   0.0800 
 30 H       -0.5920     1.1810    -0.0900 H     1 <1>   0.0800 
 31 H        4.2810     2.7950     0.8130 H     1 <1>   0.1500 
 32 H       -0.5070     4.0750     0.8270 H     1 <1>   0.0800 
 33 H       -1.4760     3.3960    -0.4600 H     1 <1>   0.0800 
 34 H        3.0630     5.1510     0.5640 H     1 <1>   0.0800 
 35 H        1.4080     5.2190     1.0550 H     1 <1>   0.0800 
 36 H        2.4700     2.6420    -2.1720 H     1 <1>   0.0800 
 37 H        3.7310     3.5640    -1.4200 H     1 <1>   0.0800 
 38 H        2.0570     7.1730    -0.3080 H     1 <1>   0.0800 
 39 H        0.8030     6.2600    -1.1090 H     1 <1>   0.0800 
 40 H        1.4600     4.7070    -3.0460 H     1 <1>   0.0800 
 41 H        3.1340     4.6250    -3.5180 H     1 <1>   0.0800 
 42 H        1.8150     9.0590    -2.1410 H     1 <1>   0.1500 
 43 H        2.9420    11.2880    -1.2430 H     1 <1>   0.1500 
 44 H        8.0510    10.9750     1.4890 H     1 <1>   0.4000 
 45 H        9.3430    11.0460    -0.6350 H     1 <1>   0.0800 
 46 H        9.9350    12.6480    -0.2320 H     1 <1>   0.0800 
 47 H        8.9420    12.4070    -1.6460 H     1 <1>   0.0800 
 48 H        6.6300    13.9820     0.8730 H     1 <1>   0.0800 
 49 H        7.2750    14.1970    -0.7340 H     1 <1>   0.0800 
 50 H        8.3180    14.3990     0.6520 H     1 <1>   0.0800 
@<TRIPOS>BOND
  1   1   2  1   
  2   1   3  1   
  3   2   4  2   
  4   2   5  1   
  5   3   6  2   
  6   3  28  1   
  7   4   6  1   
  8   4   7  1   
  9   5   8  1   
 10   5  29  1   
 11   5  30  1   
 12   6  31  1   
 13   7   9  1   
 14   7  10  1   
 15   7  11  1   
 16   8   9  1   
 17   8  32  1   
 18   8  33  1   
 19  10  12  1   
 20  10  34  1   
 21  10  35  1   
 22  11  13  1   
 23  11  36  1   
 24  11  37  1   
 25  12  14  1   
 26  12  38  1   
 27  12  39  1   
 28  13  14  1   
 29  13  40  1   
 30  13  41  1   
 31  14  15  am  
 32  15  16  2   
 33  15  17  1   
 34  17  18  1   
 35  17  19  2   
 36  18  20  1   
 37  19  21  1   
 38  19  42  1   
 39  20  21  2   
 40  20  22  1   
 41  21  43  1   
 42  22  23  3   
 43  23  24  1   
 44  24  25  1   
 45  24  26  1   
 46  24  27  1   
 47  25  44  1   
 48  26  45  1   
 49  26  46  1   
 50  26  47  1   
 51  27  48  1   
 52  27  49  1   
 53  27  50  1   
@<TRIPOS>SUBSTRUCTURE
  1 ****  15 GROUP 4 **** **** 0

# MOE 2024.06 (io_trps.svl 2023.06)
