@<TRIPOS>MOLECULE
NONAME
46 47 1 0 0 
SMALL
USER_CHARGES


@<TRIPOS>ATOM
  1 O        1.5900     0.1790     1.8410 O.co2 1 <1>  -0.9000 
  2 C        1.8530    -0.2250     0.7030 C.2   1 <1>   0.9060 
  3 O        1.6960    -1.4190     0.4040 O.co2 1 <1>  -0.9000 
  4 C        2.3960     0.7400    -0.3720 C.3   1 <1>  -0.1060 
  5 C        3.6380     0.0990    -1.0480 C.3   1 <1>   0.2000 
  6 C        2.8570     2.0920     0.2510 C.3   1 <1>  -0.1600 
  7 C        1.3030     0.9800    -1.4490 C.3   1 <1>  -0.0160 
  8 O        3.3110    -1.1370    -1.5820 O.3   1 <1>  -0.6800 
  9 C        4.8160    -0.0600    -0.0750 C.3   1 <1>   0.1400 
 10 C        4.0460     1.9190     1.2070 C.3   1 <1>   0.1400 
 11 C        0.2180     1.9840    -1.0660 C.ar  1 <1>  -0.1440 
 12 N        5.1770     1.2830     0.4750 N.am  1 <1>  -0.6600 
 13 C        0.1410     3.2120    -1.7070 C.ar  1 <1>  -0.1500 
 14 C       -0.7060     1.6810    -0.0770 C.ar  1 <1>  -0.1500 
 15 C        6.3950     1.8630     0.2180 C.2   1 <1>   0.5690 
 16 C       -0.8440     4.1230    -1.3660 C.ar  1 <1>  -0.1500 
 17 C       -1.6890     2.5910     0.2680 C.ar  1 <1>  -0.1500 
 18 O        7.2850     1.2480    -0.3230 O.2   1 <1>  -0.5700 
 19 C        6.6420     3.3150     0.6200 C.3   1 <1>  -0.0990 
 20 C       -1.7600     3.8140    -0.3770 C.ar  1 <1>  -0.1500 
 21 C        7.8610     3.9840    -0.0390 C.3   1 <1>  -0.1600 
 22 C        7.9830     5.4550     0.3990 C.3   1 <1>  -0.2660 
 23 C        9.0990     6.1890    -0.3080 C.2   1 <1>   0.9060 
 24 O       10.1860     6.3060     0.2640 O.co2 1 <1>  -0.9000 
 25 O        8.8710     6.6640    -1.4250 O.co2 1 <1>  -0.9000 
 26 H        3.9710     0.7100    -1.8680 H     1 <1>   0.0800 
 27 H        2.0450     2.5290     0.8060 H     1 <1>   0.0800 
 28 H        3.1310     2.7840    -0.5250 H     1 <1>   0.0800 
 29 H        1.7750     1.3210    -2.3530 H     1 <1>   0.0800 
 30 H        0.8320     0.0410    -1.6890 H     1 <1>   0.0800 
 31 H        2.6800    -1.5570    -0.9180 H     1 <1>   0.4000 
 32 H        5.6510    -0.4920    -0.5980 H     1 <1>   0.0800 
 33 H        4.5410    -0.7130     0.7350 H     1 <1>   0.0800 
 34 H        3.7660     1.2870     2.0340 H     1 <1>   0.0800 
 35 H        4.3220     2.8720     1.6180 H     1 <1>   0.0800 
 36 H        0.8500     3.4630    -2.4750 H     1 <1>   0.1500 
 37 H       -0.6550     0.7340     0.4370 H     1 <1>   0.1500 
 38 H       -0.8950     5.0720    -1.8680 H     1 <1>   0.1500 
 39 H       -2.3930     2.3410     1.0420 H     1 <1>   0.1500 
 40 H        5.7780     3.8910     0.3490 H     1 <1>   0.0800 
 41 H        6.7560     3.3510     1.6870 H     1 <1>   0.0800 
 42 H       -2.5250     4.5190    -0.1070 H     1 <1>   0.1500 
 43 H        7.7600     3.9430    -1.1110 H     1 <1>   0.0800 
 44 H        8.7630     3.4570     0.2260 H     1 <1>   0.0800 
 45 H        8.1690     5.5130     1.4540 H     1 <1>   0.0800 
 46 H        7.0730     5.9820     0.1830 H     1 <1>   0.0800 
@<TRIPOS>BOND
  1   1   2  ar  
  2   2   3  ar  
  3   2   4  1   
  4   4   5  1   
  5   4   6  1   
  6   4   7  1   
  7   5   8  1   
  8   5   9  1   
  9   5  26  1   
 10   6  10  1   
 11   6  27  1   
 12   6  28  1   
 13   7  11  1   
 14   7  29  1   
 15   7  30  1   
 16   8  31  1   
 17   9  12  1   
 18   9  32  1   
 19   9  33  1   
 20  10  12  1   
 21  10  34  1   
 22  10  35  1   
 23  11  13  ar  
 24  11  14  ar  
 25  12  15  am  
 26  13  16  ar  
 27  13  36  1   
 28  14  17  ar  
 29  14  37  1   
 30  15  18  2   
 31  15  19  1   
 32  16  20  ar  
 33  16  38  1   
 34  17  20  ar  
 35  17  39  1   
 36  19  21  1   
 37  19  40  1   
 38  19  41  1   
 39  20  42  1   
 40  21  22  1   
 41  21  43  1   
 42  21  44  1   
 43  22  23  1   
 44  22  45  1   
 45  22  46  1   
 46  23  24  ar  
 47  23  25  ar  
@<TRIPOS>SUBSTRUCTURE
  1 ****   6 GROUP 4 **** **** 0

# MOE 2024.06 (io_trps.svl 2023.06)
