@<TRIPOS>MOLECULE
NONAME
43 46 1 0 0 
SMALL
USER_CHARGES


@<TRIPOS>ATOM
  1 S        0.5670     0.8020    -1.7360 S.3   1 <1>  -0.0800 
  2 C        1.6350     1.5680    -0.5800 C.2   1 <1>  -0.1400 
  3 C        1.4310    -0.7200    -1.5640 C.2   1 <1>  -0.1100 
  4 C        2.5680     0.7130    -0.1330 C.2   1 <1>  -0.1810 
  5 C        1.4670     3.0230    -0.1840 C.3   1 <1>   0.0200 
  6 C        2.4490    -0.6030    -0.6890 C.2   1 <1>  -0.1500 
  7 C        3.6130     1.1530     0.8720 C.3   1 <1>   0.3900 
  8 C        2.4260     3.3400     0.9820 C.3   1 <1>   0.2090 
  9 N        3.7490     2.6450     0.7620 N.pl3 1 <1>  -0.8380 
 10 C        4.8320     3.3290     0.3190 C.ar  1 <1>   0.7710 
 11 N        4.9270     4.6230     0.5820 N.ar  1 <1>  -0.6200 
 12 N        5.7690     2.6840    -0.4000 N.ar  1 <1>  -0.1790 
 13 C        5.9940     5.2820     0.1690 C.ar  1 <1>   0.4100 
 14 C        6.8660     3.3230    -0.8700 C.ar  1 <1>   0.2110 
 15 N        6.0910     6.5980     0.4940 N.pl3 1 <1>  -0.8380 
 16 C        6.9940     4.6400    -0.5870 C.ar  1 <1>  -0.1500 
 17 C        7.3830     7.3320     0.7090 C.3   1 <1>   0.2090 
 18 C        4.8940     7.4480     0.7830 C.3   1 <1>   0.2090 
 19 C        7.4420     8.5840    -0.1820 C.3   1 <1>   0.2000 
 20 C        4.9230     8.6960    -0.1100 C.3   1 <1>  -0.1600 
 21 O        8.5880     9.3050     0.1020 O.3   1 <1>  -0.6800 
 22 C        6.2300     9.4940     0.0410 C.3   1 <1>  -0.1600 
 23 H        1.0740    -1.5540    -2.1430 H     1 <1>   0.1500 
 24 H        0.4530     3.2140     0.1160 H     1 <1>   0.0800 
 25 H        1.6950     3.6520    -1.0250 H     1 <1>   0.0800 
 26 H        3.1160    -1.4010    -0.4120 H     1 <1>   0.1500 
 27 H        4.5460     0.6520     0.6870 H     1 <1>   0.0800 
 28 H        3.2860     0.8900     1.8660 H     1 <1>   0.0800 
 29 H        1.9950     2.9810     1.9010 H     1 <1>   0.0800 
 30 H        2.5380     4.4070     1.0750 H     1 <1>   0.0800 
 31 H        5.5590     1.7200    -0.6340 H     1 <1>   0.4570 
 32 H        7.5900     2.7760    -1.4530 H     1 <1>   0.1500 
 33 H        7.8310     5.2070    -0.9460 H     1 <1>   0.1500 
 34 H        8.2300     6.7040     0.5060 H     1 <1>   0.0800 
 35 H        7.4340     7.6310     1.7420 H     1 <1>   0.0800 
 36 H        4.9050     7.7350     1.8210 H     1 <1>   0.0800 
 37 H        3.9820     6.9070     0.5970 H     1 <1>   0.0800 
 38 H        7.4990     8.2810    -1.2140 H     1 <1>   0.0800 
 39 H        4.0870     9.3260     0.1370 H     1 <1>   0.0800 
 40 H        4.8050     8.3870    -1.1340 H     1 <1>   0.0800 
 41 H        8.4880     9.7880     0.9440 H     1 <1>   0.4000 
 42 H        6.2450    10.2970    -0.6750 H     1 <1>   0.0800 
 43 H        6.2650     9.9120     1.0320 H     1 <1>   0.0800 
@<TRIPOS>BOND
  1   1   2  1   
  2   1   3  1   
  3   2   4  2   
  4   2   5  1   
  5   3   6  2   
  6   3  23  1   
  7   4   6  1   
  8   4   7  1   
  9   5   8  1   
 10   5  24  1   
 11   5  25  1   
 12   6  26  1   
 13   7   9  1   
 14   7  27  1   
 15   7  28  1   
 16   8   9  1   
 17   8  29  1   
 18   8  30  1   
 19   9  10  1   
 20  10  11  ar  
 21  10  12  ar  
 22  11  13  ar  
 23  12  14  ar  
 24  12  31  1   
 25  13  15  1   
 26  13  16  ar  
 27  14  16  ar  
 28  14  32  1   
 29  15  17  1   
 30  15  18  1   
 31  16  33  1   
 32  17  19  1   
 33  17  34  1   
 34  17  35  1   
 35  18  20  1   
 36  18  36  1   
 37  18  37  1   
 38  19  21  1   
 39  19  22  1   
 40  19  38  1   
 41  20  22  1   
 42  20  39  1   
 43  20  40  1   
 44  21  41  1   
 45  22  42  1   
 46  22  43  1   
@<TRIPOS>SUBSTRUCTURE
  1 ****  11 GROUP 4 **** **** 0

# MOE 2024.06 (io_trps.svl 2023.06)
