@<TRIPOS>MOLECULE
NONAME
53 57 1 0 0 
SMALL
USER_CHARGES


@<TRIPOS>ATOM
  1 O       -0.7150     3.1660     2.2460 O.2   1 <1>  -0.5700 
  2 C       -0.4270     3.2620     1.0650 C.2   1 <1>   0.5440 
  3 N       -1.4550     3.3340     0.1460 N.am  1 <1>  -0.6600 
  4 C        0.9700     3.2650     0.6690 C.ar  1 <1>   0.0860 
  5 C       -2.8640     3.5700     0.6130 C.3   1 <1>   0.1400 
  6 C       -1.2740     2.9670    -1.2920 C.3   1 <1>   0.1400 
  7 C        1.8850     2.3850     1.2750 C.ar  1 <1>  -0.1520 
  8 C        1.4860     4.1090    -0.3060 C.ar  1 <1>  -0.1500 
  9 C       -3.7530     4.1530    -0.5030 C.3   1 <1>   0.1440 
 10 C       -2.5360     2.3040    -1.8510 C.3   1 <1>  -0.1600 
 11 N        1.6800     1.4880     2.2890 N.pl3 1 <1>   0.0330 
 12 C        3.2200     2.3170     0.8930 C.ar  1 <1>   0.0000 
 13 C        2.8280     4.0590    -0.6960 C.ar  1 <1>  -0.1500 
 14 C       -5.1340     4.4200     0.0750 C.ar  1 <1>   0.1660 
 15 C       -3.7940     3.1870    -1.7190 C.3   1 <1>  -0.1600 
 16 C       -3.2820     5.5850    -0.8940 C.3   1 <1>  -0.1600 
 17 C        2.8610     0.8450     2.5340 C.2   1 <1>  -0.3020 
 18 C        3.6940     3.1650    -0.1090 C.ar  1 <1>  -0.1500 
 19 C        3.8150     1.3230     1.7010 C.2   1 <1>  -0.1500 
 20 N       -6.0280     3.5070     0.3620 N.ar  1 <1>  -0.6200 
 21 C       -5.3430     5.7490     0.2870 C.ar  1 <1>  -0.1430 
 22 C       -4.1480     6.5790    -0.1020 C.3   1 <1>  -0.0170 
 23 C       -7.1770     3.9660     0.8650 C.ar  1 <1>   0.7200 
 24 C       -6.5530     6.1310     0.8100 C.ar  1 <1>   0.1600 
 25 N       -7.4790     5.2480     1.1000 N.ar  1 <1>  -0.6200 
 26 N       -8.1440     3.0280     1.1720 N.pl3 1 <1>  -0.8380 
 27 C       -9.5530     3.4120     1.4590 C.3   1 <1>   0.1290 
 28 C       -7.8340     1.5750     1.2630 C.3   1 <1>   0.1290 
 29 H       -2.8570     4.2400     1.4550 H     1 <1>   0.0800 
 30 H       -3.2810     2.6340     0.9450 H     1 <1>   0.0800 
 31 H       -0.4440     2.2870    -1.3930 H     1 <1>   0.0800 
 32 H       -1.0560     3.8550    -1.8590 H     1 <1>   0.0800 
 33 H        0.8400     4.8280    -0.7760 H     1 <1>   0.1500 
 34 H       -2.6920     1.3840    -1.3140 H     1 <1>   0.0800 
 35 H       -2.3830     2.0470    -2.8840 H     1 <1>   0.0800 
 36 H        0.7890     1.3940     2.7950 H     1 <1>   0.2700 
 37 H        3.1810     4.7290    -1.4610 H     1 <1>   0.1500 
 38 H       -3.9480     3.7400    -2.6280 H     1 <1>   0.0800 
 39 H       -4.6370     2.5260    -1.6240 H     1 <1>   0.0800 
 40 H       -3.4600     5.7590    -1.9400 H     1 <1>   0.0800 
 41 H       -2.2370     5.7470    -0.7010 H     1 <1>   0.0800 
 42 H        2.9470     0.0870     3.2940 H     1 <1>   0.1500 
 43 H        4.7280     3.1110    -0.3990 H     1 <1>   0.1500 
 44 H        4.8480     1.0330     1.6360 H     1 <1>   0.1500 
 45 H       -4.4290     7.4280    -0.7010 H     1 <1>   0.0800 
 46 H       -3.6340     6.9080     0.7850 H     1 <1>   0.0800 
 47 H       -6.7630     7.1690     0.9940 H     1 <1>   0.1500 
 48 H       -9.8160     4.3080     0.9240 H     1 <1>   0.0800 
 49 H       -9.6680     3.5880     2.5140 H     1 <1>   0.0800 
 50 H      -10.2210     2.6260     1.1530 H     1 <1>   0.0800 
 51 H       -6.8090     1.4250     1.5570 H     1 <1>   0.0800 
 52 H       -7.9940     1.1130     0.3050 H     1 <1>   0.0800 
 53 H       -8.4670     1.1060     1.9960 H     1 <1>   0.0800 
@<TRIPOS>BOND
  1   1   2  2   
  2   2   3  am  
  3   2   4  1   
  4   3   5  1   
  5   3   6  1   
  6   4   7  ar  
  7   4   8  ar  
  8   5   9  1   
  9   5  29  1   
 10   5  30  1   
 11   6  10  1   
 12   6  31  1   
 13   6  32  1   
 14   7  11  1   
 15   7  12  ar  
 16   8  13  ar  
 17   8  33  1   
 18   9  14  1   
 19   9  15  1   
 20   9  16  1   
 21  10  15  1   
 22  10  34  1   
 23  10  35  1   
 24  11  17  1   
 25  11  36  1   
 26  12  18  ar  
 27  12  19  1   
 28  13  18  ar  
 29  13  37  1   
 30  14  20  ar  
 31  14  21  ar  
 32  15  38  1   
 33  15  39  1   
 34  16  22  1   
 35  16  40  1   
 36  16  41  1   
 37  17  19  2   
 38  17  42  1   
 39  18  43  1   
 40  19  44  1   
 41  20  23  ar  
 42  21  22  1   
 43  21  24  ar  
 44  22  45  1   
 45  22  46  1   
 46  23  25  ar  
 47  23  26  1   
 48  24  25  ar  
 49  24  47  1   
 50  26  27  1   
 51  26  28  1   
 52  27  48  1   
 53  27  49  1   
 54  27  50  1   
 55  28  51  1   
 56  28  52  1   
 57  28  53  1   
@<TRIPOS>SUBSTRUCTURE
  1 ****   5 GROUP 4 **** **** 0

# MOE 2024.06 (io_trps.svl 2023.06)
