@<TRIPOS>MOLECULE
Untitled Document
48 51 1 0 0 
SMALL
USER_CHARGES


@<TRIPOS>ATOM
  1 CL      -1.9270    -3.8100     1.4520 Cl    1 <1>  -0.1770 
  2 C       -3.2690    -3.0370     0.6480 C.ar  1 <1>   0.1770 
  3 C       -3.3980    -1.6640     0.7160 C.ar  1 <1>  -0.1500 
  4 C       -4.1800    -3.8140    -0.0430 C.ar  1 <1>  -0.1500 
  5 C       -4.4580    -1.0350     0.0770 C.ar  1 <1>   0.1000 
  6 C       -5.2450    -3.1970    -0.6770 C.ar  1 <1>  -0.1500 
  7 N       -4.5760     0.3480     0.1580 N.pl3 1 <1>  -0.8690 
  8 C       -5.3810    -1.8200    -0.6130 C.ar  1 <1>  -0.1500 
  9 C       -5.0440     1.1390    -1.0440 C.3   1 <1>   0.2700 
 10 C       -6.5340     1.5040    -1.0090 C.2   1 <1>   0.5690 
 11 O       -6.9970     2.1970    -1.8830 O.2   1 <1>  -0.5700 
 12 N       -7.2920     1.0310     0.0120 N.am  1 <1>  -0.7300 
 13 C       -8.7530     1.1920     0.1660 C.3   1 <1>   0.2200 
 14 C       -9.1010     2.6270     0.6100 C.3   1 <1>   0.2090 
 15 C       -9.2410     0.1440     1.1750 C.3   1 <1>  -0.1600 
 16 N      -10.5460     2.7500     0.9820 N.pl3 1 <1>  -0.8380 
 17 C      -10.7330     0.3380     1.4840 C.3   1 <1>  -0.1600 
 18 C      -11.4270     3.4130     0.1490 C.ar  1 <1>   0.4100 
 19 C      -11.0300     1.7570     1.9790 C.3   1 <1>   0.2090 
 20 N      -12.5330     2.7920    -0.1980 N.ar  1 <1>  -0.6200 
 21 C      -11.1620     4.7090    -0.3260 C.ar  1 <1>   0.0000 
 22 C      -13.3500     3.4460    -1.0340 C.ar  1 <1>   0.4700 
 23 C      -12.0890     5.2600    -1.1840 C.ar  1 <1>   0.1050 
 24 C      -10.1550     5.6910    -0.1590 C.2   1 <1>  -0.1500 
 25 N      -13.2080     4.6370    -1.5600 N.ar  1 <1>  -0.5670 
 26 N      -11.6800     6.5050    -1.5500 N.pl3 1 <1>   0.0330 
 27 C      -10.4950     6.7640    -0.9150 C.2   1 <1>  -0.3020 
 28 H       -2.6750    -1.0920     1.2640 H     1 <1>   0.1500 
 29 H       -4.0550    -4.8820    -0.0800 H     1 <1>   0.1500 
 30 H       -5.9660    -3.7860    -1.2170 H     1 <1>   0.1500 
 31 H       -3.7840     0.8070     0.6240 H     1 <1>   0.4000 
 32 H       -6.2170    -1.3580    -1.1040 H     1 <1>   0.1500 
 33 H       -4.8550     0.5790    -1.9420 H     1 <1>   0.0800 
 34 H       -4.4800     2.0520    -1.1050 H     1 <1>   0.0800 
 35 H       -6.8030     0.4550     0.7060 H     1 <1>   0.3700 
 36 H       -9.2250     1.0190    -0.7870 H     1 <1>   0.0800 
 37 H       -8.8700     3.2950    -0.2010 H     1 <1>   0.0800 
 38 H       -8.5030     2.8970     1.4610 H     1 <1>   0.0800 
 39 H       -8.6830     0.2390     2.0900 H     1 <1>   0.0800 
 40 H       -9.0850    -0.8410     0.7730 H     1 <1>   0.0800 
 41 H      -11.0450    -0.3680     2.2320 H     1 <1>   0.0800 
 42 H      -11.3180     0.1580     0.5980 H     1 <1>   0.0800 
 43 H      -12.0880     1.8780     2.1400 H     1 <1>   0.0800 
 44 H      -10.5310     1.9330     2.9160 H     1 <1>   0.0800 
 45 H      -14.2430     2.9090    -1.3060 H     1 <1>   0.1500 
 46 H       -9.2930     5.5640     0.4710 H     1 <1>   0.1500 
 47 H      -12.2010     7.1130    -2.1870 H     1 <1>   0.2700 
 48 H       -9.9700     7.6960    -1.0390 H     1 <1>   0.1500 
@<TRIPOS>BOND
  1   1   2  1   
  2   2   3  ar  
  3   2   4  ar  
  4   3   5  ar  
  5   3  28  1   
  6   4   6  ar  
  7   4  29  1   
  8   5   7  1   
  9   5   8  ar  
 10   6   8  ar  
 11   6  30  1   
 12   7   9  1   
 13   7  31  1   
 14   8  32  1   
 15   9  10  1   
 16   9  33  1   
 17   9  34  1   
 18  10  11  2   
 19  10  12  am  
 20  12  13  1   
 21  12  35  1   
 22  13  14  1   
 23  13  15  1   
 24  13  36  1   
 25  14  16  1   
 26  14  37  1   
 27  14  38  1   
 28  15  17  1   
 29  15  39  1   
 30  15  40  1   
 31  16  18  1   
 32  16  19  1   
 33  17  19  1   
 34  17  41  1   
 35  17  42  1   
 36  18  20  ar  
 37  18  21  ar  
 38  19  43  1   
 39  19  44  1   
 40  20  22  ar  
 41  21  23  ar  
 42  21  24  1   
 43  22  25  ar  
 44  22  45  1   
 45  23  25  ar  
 46  23  26  1   
 47  24  27  2   
 48  24  46  1   
 49  26  27  1   
 50  26  47  1   
 51  27  48  1   
@<TRIPOS>SUBSTRUCTURE
  1 ****  13 GROUP 4 **** **** 0

# MOE 2024.06 (io_trps.svl 2023.06)
