@<TRIPOS>MOLECULE
NONAME
49 51 1 0 0 
SMALL
USER_CHARGES


@<TRIPOS>ATOM
  1 CL      -0.9760    -0.7700    -0.8060 Cl    1 <1>  -0.1770 
  2 C       -2.4980    -0.0680    -0.3290 C.ar  1 <1>   0.1770 
  3 C       -2.5100     1.0550     0.4740 C.ar  1 <1>  -0.1500 
  4 C       -3.6770    -0.6420    -0.7580 C.ar  1 <1>  -0.1500 
  5 C       -3.7220     1.6050     0.8510 C.ar  1 <1>  -0.1500 
  6 C       -4.8840    -0.0850    -0.3740 C.ar  1 <1>  -0.1500 
  7 C       -4.9410     1.0520     0.4390 C.ar  1 <1>   0.0530 
  8 C       -6.1930     1.6450     0.8560 C.2   1 <1>   0.0870 
  9 O       -6.2090     2.5250     1.8280 O.3   1 <1>  -0.0190 
 10 C       -7.4850     1.4900     0.4600 C.2   1 <1>  -0.0860 
 11 N       -7.4060     2.9700     2.1050 N.2   1 <1>  -0.4100 
 12 C       -8.1860     2.3720     1.2850 C.2   1 <1>   0.3720 
 13 C       -8.0690     0.6530    -0.5380 C.2   1 <1>   0.7160 
 14 N       -9.5490     2.6180     1.2880 N.pl3 1 <1>  -0.8520 
 15 O       -7.7940     0.8520    -1.7060 O.2   1 <1>  -0.5700 
 16 N       -8.9060    -0.4010    -0.2190 N.am  1 <1>  -0.6600 
 17 C      -10.0880     3.2650     0.0580 C.3   1 <1>   0.2090 
 18 C       -9.5590    -1.2410    -1.2780 C.3   1 <1>   0.1400 
 19 C       -9.2610    -0.7710     1.1840 C.3   1 <1>   0.1400 
 20 C      -11.1800     2.3970    -0.5670 C.3   1 <1>   0.1200 
 21 C       -9.2530    -2.7220    -1.0380 C.3   1 <1>   0.2000 
 22 C       -8.9290    -2.2460     1.4340 C.3   1 <1>  -0.1600 
 23 O      -11.7920     3.1190    -1.5890 O.3   1 <1>  -0.5600 
 24 O       -9.9780    -3.5000    -1.9290 O.3   1 <1>  -0.6800 
 25 C       -9.6230    -3.1310     0.3980 C.3   1 <1>   0.2000 
 26 C      -12.7360     2.3920    -2.3060 C.3   1 <1>   0.0400 
 27 O       -9.2730    -4.4550     0.6250 O.3   1 <1>  -0.6800 
 28 H       -1.5810     1.4900     0.7970 H     1 <1>   0.1500 
 29 H       -3.6450    -1.5140    -1.3870 H     1 <1>   0.1500 
 30 H       -3.7210     2.4830     1.4740 H     1 <1>   0.1500 
 31 H       -5.7870    -0.5490    -0.7210 H     1 <1>   0.1500 
 32 H       -9.7470     3.2230     2.0930 H     1 <1>   0.4000 
 33 H      -10.5090     4.2200     0.3230 H     1 <1>   0.0800 
 34 H       -9.3040     3.4230    -0.6630 H     1 <1>   0.0800 
 35 H      -10.6230    -1.0830    -1.2380 H     1 <1>   0.0800 
 36 H       -9.2110    -0.9660    -2.2590 H     1 <1>   0.0800 
 37 H       -8.7280    -0.1670     1.8980 H     1 <1>   0.0800 
 38 H      -10.3140    -0.5990     1.3340 H     1 <1>   0.0800 
 39 H      -11.9260     2.1480     0.1670 H     1 <1>   0.0800 
 40 H      -10.7490     1.5050    -0.9840 H     1 <1>   0.0800 
 41 H       -8.2080    -2.8980    -1.2200 H     1 <1>   0.0800 
 42 H       -9.2640    -2.5160     2.4200 H     1 <1>   0.0800 
 43 H       -7.8620    -2.3730     1.3850 H     1 <1>   0.0800 
 44 H       -9.9920    -4.4210    -1.5890 H     1 <1>   0.4000 
 45 H      -10.6910    -3.0520     0.5230 H     1 <1>   0.0800 
 46 H      -13.1550     3.0370    -3.0580 H     1 <1>   0.0800 
 47 H      -13.5120     2.0600    -1.6380 H     1 <1>   0.0800 
 48 H      -12.2550     1.5520    -2.7770 H     1 <1>   0.0800 
 49 H       -8.3010    -4.5520     0.6570 H     1 <1>   0.4000 
@<TRIPOS>BOND
  1   1   2  1   
  2   2   3  ar  
  3   2   4  ar  
  4   3   5  ar  
  5   3  28  1   
  6   4   6  ar  
  7   4  29  1   
  8   5   7  ar  
  9   5  30  1   
 10   6   7  ar  
 11   6  31  1   
 12   7   8  1   
 13   8   9  1   
 14   8  10  2   
 15   9  11  1   
 16  10  12  1   
 17  10  13  1   
 18  11  12  2   
 19  12  14  1   
 20  13  15  2   
 21  13  16  am  
 22  14  17  1   
 23  14  32  1   
 24  16  18  1   
 25  16  19  1   
 26  17  20  1   
 27  17  33  1   
 28  17  34  1   
 29  18  21  1   
 30  18  35  1   
 31  18  36  1   
 32  19  22  1   
 33  19  37  1   
 34  19  38  1   
 35  20  23  1   
 36  20  39  1   
 37  20  40  1   
 38  21  24  1   
 39  21  25  1   
 40  21  41  1   
 41  22  25  1   
 42  22  42  1   
 43  22  43  1   
 44  23  26  1   
 45  24  44  1   
 46  25  27  1   
 47  25  45  1   
 48  26  46  1   
 49  26  47  1   
 50  26  48  1   
 51  27  49  1   
@<TRIPOS>SUBSTRUCTURE
  1 ****  13 GROUP 4 **** **** 0

# MOE 2024.06 (io_trps.svl 2023.06)
