@<TRIPOS>MOLECULE
NONAME
54 57 1 0 0 
SMALL
USER_CHARGES


@<TRIPOS>ATOM
  1 O        0.0140     0.6180    -0.8010 O.2   1 <1>  -0.5700 
  2 C        0.0630     1.8190    -0.8790 C.2   1 <1>   0.5690 
  3 N       -0.5050     2.5950     0.0700 N.am  1 <1>  -0.7300 
  4 C        0.7510     2.4860    -2.0760 C.3   1 <1>   0.1810 
  5 C       -0.4880     4.0770     0.0350 C.3   1 <1>   0.3640 
  6 O        1.0630     3.8440    -1.8410 O.3   1 <1>  -0.5600 
  7 C       -1.8680     4.6050     0.4080 C.ar  1 <1>  -0.1440 
  8 C       -0.0250     4.6100    -1.3420 C.3   1 <1>   0.2610 
  9 C       -3.0220     4.0680    -0.1500 C.ar  1 <1>  -0.1500 
 10 C       -1.9810     5.6510     1.3140 C.ar  1 <1>  -0.1500 
 11 C        0.3030     6.1050    -1.2270 C.2   1 <1>   0.5690 
 12 C       -4.2660     4.5670     0.1960 C.ar  1 <1>  -0.1500 
 13 C       -3.2240     6.1500     1.6590 C.ar  1 <1>  -0.1500 
 14 O       -0.3980     6.8630    -1.8600 O.2   1 <1>  -0.5700 
 15 N        1.3230     6.5430    -0.4120 N.am  1 <1>  -0.5090 
 16 C       -4.3680     5.6080     1.1010 C.ar  1 <1>  -0.1500 
 17 C        1.2460     7.7610     0.4520 C.3   1 <1>   0.0490 
 18 C        2.6380     5.8280    -0.4280 C.3   1 <1>   0.3210 
 19 C        0.0410     8.6470     0.5500 C.3   1 <1>  -0.2000 
 20 C        1.2430     9.0930    -0.2250 C.3   1 <1>  -0.2000 
 21 C        3.8120     6.7000    -0.0080 C.2   1 <1>  -0.1810 
 22 C        4.4740     6.6610     1.2150 C.2   1 <1>   0.1080 
 23 C        4.4450     7.6670    -0.7110 C.2   1 <1>  -0.3320 
 24 N        5.4350     7.5240     1.2770 N.2   1 <1>  -0.7070 
 25 C        4.1550     5.7430     2.3730 C.3   1 <1>  -0.0590 
 26 N        5.4210     8.1490     0.0890 N.pl3 1 <1>   0.3140 
 27 C        4.1570     8.1700    -2.1170 C.3   1 <1>  -0.0600 
 28 C        6.3800     9.2160    -0.2200 C.3   1 <1>   0.0160 
 29 H       -0.9990     2.1510     0.8460 H     1 <1>   0.3700 
 30 H        0.1090     2.4290    -2.9360 H     1 <1>   0.0800 
 31 H        1.6680     1.9700    -2.2930 H     1 <1>   0.0800 
 32 H        0.2130     4.4070     0.7820 H     1 <1>   0.0800 
 33 H       -0.8340     4.5120    -2.0440 H     1 <1>   0.0800 
 34 H       -2.9630     3.2580    -0.8560 H     1 <1>   0.1500 
 35 H       -1.1030     6.0900     1.7560 H     1 <1>   0.1500 
 36 H       -5.1550     4.1460    -0.2400 H     1 <1>   0.1500 
 37 H       -3.3020     6.9630     2.3600 H     1 <1>   0.1500 
 38 H       -5.3350     5.9970     1.3680 H     1 <1>   0.1500 
 39 H        1.8170     7.6540     1.3590 H     1 <1>   0.1000 
 40 H        2.5810     4.9670     0.2110 H     1 <1>   0.0800 
 41 H        2.8340     5.4840    -1.4280 H     1 <1>   0.0800 
 42 H       -0.8600     8.4160     0.0110 H     1 <1>   0.1000 
 43 H       -0.1620     9.1460     1.4810 H     1 <1>   0.1000 
 44 H        1.8670     9.8700     0.1790 H     1 <1>   0.1000 
 45 H        1.1710     9.1280    -1.2980 H     1 <1>   0.1000 
 46 H        3.1010     5.7570     2.5770 H     1 <1>   0.0800 
 47 H        4.6820     6.0710     3.2500 H     1 <1>   0.0800 
 48 H        4.4650     4.7420     2.1370 H     1 <1>   0.0800 
 49 H        3.2990     7.6700    -2.5290 H     1 <1>   0.0800 
 50 H        5.0010     7.9870    -2.7570 H     1 <1>   0.0800 
 51 H        3.9520     9.2250    -2.0970 H     1 <1>   0.0800 
 52 H        6.9480     8.9390    -1.0870 H     1 <1>   0.0800 
 53 H        7.0400     9.3470     0.6180 H     1 <1>   0.0800 
 54 H        5.8440    10.1270    -0.4020 H     1 <1>   0.0800 
@<TRIPOS>BOND
  1   1   2  2   
  2   2   3  am  
  3   2   4  1   
  4   3   5  1   
  5   3  29  1   
  6   4   6  1   
  7   4  30  1   
  8   4  31  1   
  9   5   7  1   
 10   5   8  1   
 11   5  32  1   
 12   6   8  1   
 13   7   9  ar  
 14   7  10  ar  
 15   8  11  1   
 16   8  33  1   
 17   9  12  ar  
 18   9  34  1   
 19  10  13  ar  
 20  10  35  1   
 21  11  14  2   
 22  11  15  am  
 23  12  16  ar  
 24  12  36  1   
 25  13  16  ar  
 26  13  37  1   
 27  15  17  1   
 28  15  18  1   
 29  16  38  1   
 30  17  19  1   
 31  17  20  1   
 32  17  39  1   
 33  18  21  1   
 34  18  40  1   
 35  18  41  1   
 36  19  20  1   
 37  19  42  1   
 38  19  43  1   
 39  20  44  1   
 40  20  45  1   
 41  21  22  1   
 42  21  23  2   
 43  22  24  2   
 44  22  25  1   
 45  23  26  1   
 46  23  27  1   
 47  24  26  1   
 48  25  46  1   
 49  25  47  1   
 50  25  48  1   
 51  26  28  1   
 52  27  49  1   
 53  27  50  1   
 54  27  51  1   
 55  28  52  1   
 56  28  53  1   
 57  28  54  1   
@<TRIPOS>SUBSTRUCTURE
  1 ****  15 GROUP 4 **** **** 0

# MOE 2024.06 (io_trps.svl 2023.06)
