@<TRIPOS>MOLECULE
NONAME
44 46 1 0 0 
SMALL
USER_CHARGES


@<TRIPOS>ATOM
  1 O        0.2970    -0.0030    -0.5240 O.3   1 <1>  -0.5600 
  2 C        1.5260     0.4910    -0.9270 C.3   1 <1>   0.2000 
  3 C        0.2420    -1.3870    -0.2860 C.3   1 <1>   0.2640 
  4 C        2.3590     0.8100     0.3190 C.3   1 <1>  -0.1600 
  5 C        1.2390     1.7560    -1.7340 C.3   1 <1>  -0.1600 
  6 C       -1.1140    -1.8310     0.2580 C.ar  1 <1>   0.1660 
  7 C        3.6310     1.5680    -0.0460 C.3   1 <1>   0.3430 
  8 C        2.5240     2.5010    -2.0790 C.3   1 <1>   0.3430 
  9 N       -1.1700    -3.0960     0.6520 N.ar  1 <1>  -0.6200 
 10 C       -2.1940    -0.9580     0.3230 C.ar  1 <1>  -0.1500 
 11 N        3.2820     2.7800    -0.8340 N.4   1 <1>  -0.9590 
 12 C       -2.3360    -3.5040     1.1270 C.ar  1 <1>   0.1600 
 13 C       -3.4030    -1.3970     0.8190 C.ar  1 <1>  -0.1500 
 14 C        4.4600     3.6630    -1.0400 C.3   1 <1>   0.5240 
 15 C       -3.4650    -2.7090     1.2310 C.ar  1 <1>  -0.1500 
 16 C        4.7440     4.3390     0.2950 C.2   1 <1>   0.0460 
 17 N        3.7060     4.7580     1.0530 N.2   1 <1>  -0.5650 
 18 C        5.9240     4.5960     0.9050 C.2   1 <1>  -0.3320 
 19 C        4.2740     5.2710     2.0960 C.2   1 <1>   0.0360 
 20 N        5.6210     5.2040     2.0690 N.pl3 1 <1>   0.0330 
 21 C        7.3600     4.3240     0.4820 C.3   1 <1>  -0.0600 
 22 H        2.0180    -0.2390    -1.5510 H     1 <1>   0.0800 
 23 H        0.9990    -1.6490     0.4310 H     1 <1>   0.0800 
 24 H        0.4340    -1.9020    -1.2100 H     1 <1>   0.0800 
 25 H        2.6360    -0.0990     0.8210 H     1 <1>   0.0800 
 26 H        1.7800     1.4070     1.0020 H     1 <1>   0.0800 
 27 H        0.5940     2.4090    -1.1710 H     1 <1>   0.0800 
 28 H        0.7310     1.4890    -2.6430 H     1 <1>   0.0800 
 29 H        4.2810     0.9310    -0.6230 H     1 <1>   0.0800 
 30 H        4.1460     1.8550     0.8580 H     1 <1>   0.0800 
 31 H        2.2770     3.4250    -2.5770 H     1 <1>   0.0800 
 32 H        3.1220     1.9010    -2.7460 H     1 <1>   0.0800 
 33 H       -2.0960     0.0580    -0.0120 H     1 <1>   0.1500 
 34 H        2.7010     3.3650    -0.2010 H     1 <1>   0.4500 
 35 H       -2.3970    -4.5280     1.4510 H     1 <1>   0.1500 
 36 H       -4.2560    -0.7430     0.8820 H     1 <1>   0.1500 
 37 H        4.2260     4.4270    -1.7630 H     1 <1>   0.0800 
 38 H        5.3160     3.1040    -1.3770 H     1 <1>   0.0800 
 39 H       -4.3770    -3.1160     1.6280 H     1 <1>   0.1500 
 40 H        3.7430     5.7170     2.9220 H     1 <1>   0.1500 
 41 H        6.2670     5.5520     2.7860 H     1 <1>   0.2700 
 42 H        7.3960     3.8460    -0.4800 H     1 <1>   0.0800 
 43 H        7.8440     3.6840     1.1990 H     1 <1>   0.0800 
 44 H        7.9090     5.2480     0.4210 H     1 <1>   0.0800 
@<TRIPOS>BOND
  1   1   2  1   
  2   1   3  1   
  3   2   4  1   
  4   2   5  1   
  5   2  22  1   
  6   3   6  1   
  7   3  23  1   
  8   3  24  1   
  9   4   7  1   
 10   4  25  1   
 11   4  26  1   
 12   5   8  1   
 13   5  27  1   
 14   5  28  1   
 15   6   9  ar  
 16   6  10  ar  
 17   7  11  1   
 18   7  29  1   
 19   7  30  1   
 20   8  11  1   
 21   8  31  1   
 22   8  32  1   
 23   9  12  ar  
 24  10  13  ar  
 25  10  33  1   
 26  11  14  1   
 27  11  34  1   
 28  12  15  ar  
 29  12  35  1   
 30  13  15  ar  
 31  13  36  1   
 32  14  16  1   
 33  14  37  1   
 34  14  38  1   
 35  15  39  1   
 36  16  17  1   
 37  16  18  2   
 38  17  19  2   
 39  18  20  1   
 40  18  21  1   
 41  19  20  1   
 42  19  40  1   
 43  20  41  1   
 44  21  42  1   
 45  21  43  1   
 46  21  44  1   
@<TRIPOS>SUBSTRUCTURE
  1 ****   4 GROUP 4 **** **** 0

# MOE 2024.06 (io_trps.svl 2023.06)
