@<TRIPOS>MOLECULE
NONAME
41 42 1 0 0 
SMALL
USER_CHARGES


@<TRIPOS>ATOM
  1 S        0.5290     0.0150    -0.3660 S.o2  1 <1>   1.3330 
  2 O        0.4240    -0.8620    -1.5110 O.2   1 <1>  -0.6500 
  3 O        0.5660    -0.5490     0.9650 O.2   1 <1>  -0.6500 
  4 N       -0.7480     1.1320    -0.4230 N.am  1 <1>  -0.8490 
  5 C        1.9730     1.0490    -0.5950 C.3   1 <1>  -0.0550 
  6 C       -0.9940     1.8040     0.8570 C.3   1 <1>   0.1160 
  7 C       -1.9890     0.5340    -0.9210 C.3   1 <1>   0.1160 
  8 C        3.2840     0.2470    -0.7020 C.3   1 <1>  -0.0800 
  9 C        4.5290     1.0770    -0.9810 C.3   1 <1>   0.2200 
 10 C        3.6690    -0.5330     0.5630 C.3   1 <1>   0.1200 
 11 N        4.5450     2.3080    -0.1520 N.am  1 <1>  -0.7300 
 12 C        5.6040     0.1360    -0.4590 C.3   1 <1>   0.1200 
 13 O        5.0570    -0.4080     0.7020 O.3   1 <1>  -0.5600 
 14 C        4.2380     3.5660    -0.5880 C.2   1 <1>   0.6160 
 15 O        3.7970     3.6740    -1.7160 O.2   1 <1>  -0.5700 
 16 C        4.4070     4.7220     0.2680 C.2   1 <1>   0.0140 
 17 C        5.0930     4.6890     1.4610 C.2   1 <1>  -0.0410 
 18 C        3.8480     5.9840    -0.1180 C.2   1 <1>  -0.1500 
 19 N        5.2260     5.8030     2.2500 N.am  1 <1>  -0.5390 
 20 C        3.9890     7.0830     0.6730 C.2   1 <1>  -0.1360 
 21 C        4.6940     7.0130     1.9030 C.2   1 <1>   0.6160 
 22 O        4.8470     7.9590     2.6550 O.2   1 <1>  -0.5700 
 23 H        1.8490     1.6200    -1.4960 H     1 <1>   0.0800 
 24 H        2.0370     1.7410     0.2200 H     1 <1>   0.0800 
 25 H       -1.7490     2.5630     0.7360 H     1 <1>   0.0800 
 26 H       -0.0930     2.2760     1.2080 H     1 <1>   0.0800 
 27 H       -1.3250     1.0950     1.5980 H     1 <1>   0.0800 
 28 H       -2.7700     1.2730    -0.9620 H     1 <1>   0.0800 
 29 H       -2.2980    -0.2760    -0.2810 H     1 <1>   0.0800 
 30 H       -1.8390     0.1500    -1.9170 H     1 <1>   0.0800 
 31 H        3.1760    -0.4670    -1.5010 H     1 <1>   0.0800 
 32 H        4.6550     1.3120    -2.0250 H     1 <1>   0.0800 
 33 H        3.4180    -1.5780     0.4810 H     1 <1>   0.0800 
 34 H        3.2140    -0.1220     1.4480 H     1 <1>   0.0800 
 35 H        4.8060     2.1360     0.8200 H     1 <1>   0.3700 
 36 H        6.5270     0.6380    -0.2280 H     1 <1>   0.0800 
 37 H        5.7830    -0.6680    -1.1520 H     1 <1>   0.0800 
 38 H        5.5580     3.7850     1.8180 H     1 <1>   0.1500 
 39 H        3.3140     6.0380    -1.0530 H     1 <1>   0.1500 
 40 H        5.7340     5.8110     3.1380 H     1 <1>   0.3700 
 41 H        3.5830     8.0410     0.4100 H     1 <1>   0.1500 
@<TRIPOS>BOND
  1   1   2  2   
  2   1   3  2   
  3   1   4  am  
  4   1   5  1   
  5   4   6  1   
  6   4   7  1   
  7   5   8  1   
  8   5  23  1   
  9   5  24  1   
 10   6  25  1   
 11   6  26  1   
 12   6  27  1   
 13   7  28  1   
 14   7  29  1   
 15   7  30  1   
 16   8   9  1   
 17   8  10  1   
 18   8  31  1   
 19   9  11  1   
 20   9  12  1   
 21   9  32  1   
 22  10  13  1   
 23  10  33  1   
 24  10  34  1   
 25  11  14  am  
 26  11  35  1   
 27  12  13  1   
 28  12  36  1   
 29  12  37  1   
 30  14  15  2   
 31  14  16  1   
 32  16  17  2   
 33  16  18  1   
 34  17  19  1   
 35  17  38  1   
 36  18  20  2   
 37  18  39  1   
 38  19  21  am  
 39  19  40  1   
 40  20  21  1   
 41  20  41  1   
 42  21  22  2   
@<TRIPOS>SUBSTRUCTURE
  1 ****  11 GROUP 4 **** **** 0

# MOE 2024.06 (io_trps.svl 2023.06)
