@<TRIPOS>MOLECULE
NONAME
49 50 1 0 0 
SMALL
USER_CHARGES


@<TRIPOS>ATOM
  1 O       -0.9000    -0.0650     0.9990 O.2   1 <1>  -0.5700 
  2 C       -1.9200     0.3990     0.5230 C.2   1 <1>   0.5440 
  3 N       -1.8440     1.5890    -0.1790 N.am  1 <1>  -0.6600 
  4 C       -3.1620    -0.3160     0.6970 C.ar  1 <1>   0.0860 
  5 C       -2.8470     2.0140    -1.1940 C.3   1 <1>   0.0600 
  6 C       -0.6230     2.4410    -0.1240 C.3   1 <1>   0.0600 
  7 C       -3.2080    -1.6960     0.5200 C.ar  1 <1>   0.1600 
  8 C       -4.3540     0.3090     1.0520 C.ar  1 <1>  -0.1500 
  9 N       -4.2820    -2.4600     0.6290 N.ar  1 <1>  -0.6200 
 10 C       -5.4790    -0.4690     1.1760 C.ar  1 <1>  -0.1500 
 11 C       -5.4100    -1.8420     0.9560 C.ar  1 <1>   0.4100 
 12 N       -6.5440    -2.6040     1.0710 N.pl3 1 <1>  -0.8690 
 13 C       -6.5490    -4.0890     1.0760 C.3   1 <1>   0.2090 
 14 C       -6.7060    -4.6130    -0.3510 C.3   1 <1>  -0.0170 
 15 C       -6.7340    -6.1340    -0.3580 C.ar  1 <1>  -0.1440 
 16 C       -7.9360    -6.8210    -0.4330 C.ar  1 <1>  -0.1500 
 17 C       -5.5450    -6.8420    -0.2820 C.ar  1 <1>  -0.1500 
 18 C       -7.9540    -8.2140    -0.4330 C.ar  1 <1>   0.0820 
 19 C       -5.5550    -8.2260    -0.2800 C.ar  1 <1>  -0.1500 
 20 O       -9.0820    -8.9680    -0.5070 O.3   1 <1>  -0.3620 
 21 C       -6.7560    -8.9060    -0.3540 C.ar  1 <1>  -0.1500 
 22 C      -10.3770    -8.4190    -0.5970 C.3   1 <1>   0.2000 
 23 C      -10.8500    -8.0320     0.8060 C.3   1 <1>  -0.2400 
 24 C      -11.2760    -9.4950    -1.2010 C.3   1 <1>  -0.2400 
 25 H       -3.5250     1.2110    -1.4250 H     1 <1>   0.0800 
 26 H       -2.3460     2.3030    -2.1020 H     1 <1>   0.0800 
 27 H       -3.4070     2.8540    -0.8210 H     1 <1>   0.0800 
 28 H       -0.0360     2.2050     0.7470 H     1 <1>   0.0800 
 29 H       -0.9020     3.4790    -0.0770 H     1 <1>   0.0800 
 30 H       -0.0240     2.2710    -1.0010 H     1 <1>   0.0800 
 31 H       -2.2860    -2.1920     0.2680 H     1 <1>   0.1500 
 32 H       -4.3800     1.3700     1.2260 H     1 <1>   0.1500 
 33 H       -6.4210    -0.0300     1.4450 H     1 <1>   0.1500 
 34 H       -7.3850    -2.1610     1.4420 H     1 <1>   0.4000 
 35 H       -7.3620    -4.4430     1.6850 H     1 <1>   0.0800 
 36 H       -5.6300    -4.4590     1.4990 H     1 <1>   0.0800 
 37 H       -5.8790    -4.2690    -0.9460 H     1 <1>   0.0800 
 38 H       -7.6120    -4.2250    -0.7790 H     1 <1>   0.0800 
 39 H       -8.8480    -6.2600    -0.4910 H     1 <1>   0.1500 
 40 H       -4.6070    -6.3160    -0.2240 H     1 <1>   0.1500 
 41 H       -4.6300    -8.7710    -0.2200 H     1 <1>   0.1500 
 42 H       -6.7740    -9.9810    -0.3540 H     1 <1>   0.1500 
 43 H      -10.3520    -7.5700    -1.2580 H     1 <1>   0.0800 
 44 H      -10.8560    -8.8960     1.4460 H     1 <1>   0.0800 
 45 H      -11.8460    -7.6310     0.7590 H     1 <1>   0.0800 
 46 H      -10.2050    -7.2860     1.2310 H     1 <1>   0.0800 
 47 H      -11.2880   -10.3690    -0.5750 H     1 <1>   0.0800 
 48 H      -10.9180    -9.7630    -2.1790 H     1 <1>   0.0800 
 49 H      -12.2810    -9.1250    -1.2970 H     1 <1>   0.0800 
@<TRIPOS>BOND
  1   1   2  2   
  2   2   3  am  
  3   2   4  1   
  4   3   5  1   
  5   3   6  1   
  6   4   7  ar  
  7   4   8  ar  
  8   5  25  1   
  9   5  26  1   
 10   5  27  1   
 11   6  28  1   
 12   6  29  1   
 13   6  30  1   
 14   7   9  ar  
 15   7  31  1   
 16   8  10  ar  
 17   8  32  1   
 18   9  11  ar  
 19  10  11  ar  
 20  10  33  1   
 21  11  12  1   
 22  12  13  1   
 23  12  34  1   
 24  13  14  1   
 25  13  35  1   
 26  13  36  1   
 27  14  15  1   
 28  14  37  1   
 29  14  38  1   
 30  15  16  ar  
 31  15  17  ar  
 32  16  18  ar  
 33  16  39  1   
 34  17  19  ar  
 35  17  40  1   
 36  18  20  1   
 37  18  21  ar  
 38  19  21  ar  
 39  19  41  1   
 40  20  22  1   
 41  21  42  1   
 42  22  23  1   
 43  22  24  1   
 44  22  43  1   
 45  23  44  1   
 46  23  45  1   
 47  23  46  1   
 48  24  47  1   
 49  24  48  1   
 50  24  49  1   
@<TRIPOS>SUBSTRUCTURE
  1 ****  13 GROUP 4 **** **** 0

# MOE 2024.06 (io_trps.svl 2023.06)
