@<TRIPOS>MOLECULE
NONAME
46 47 1 0 0 
SMALL
USER_CHARGES


@<TRIPOS>ATOM
  1 O       -0.4480     0.6900     1.8970 O.2   1 <1>  -0.5700 
  2 C       -0.1680     1.7280     1.3310 C.2   1 <1>   0.5690 
  3 N       -1.1500     2.6940     1.1750 N.am  1 <1>  -0.6600 
  4 C        1.3150     1.9070     0.8420 C.3   1 <1>   0.3410 
  5 C       -2.5830     2.3860     1.4660 C.3   1 <1>   0.1400 
  6 C       -0.9870     4.0270     0.5350 C.3   1 <1>   0.1400 
  7 O        1.3220     2.4880    -0.4510 O.3   1 <1>  -0.5600 
  8 C        2.0400     0.5470     0.7480 C.3   1 <1>  -0.2400 
  9 C        2.0720     2.8150     1.8300 C.3   1 <1>  -0.2400 
 10 C       -3.3790     2.3040     0.1480 C.3   1 <1>   0.0000 
 11 C       -1.7250     4.0350    -0.8080 C.3   1 <1>  -0.1600 
 12 C        2.5170     2.7820    -1.1070 C.3   1 <1>   0.1200 
 13 C       -4.8510     1.9470     0.4290 C.3   1 <1>   0.2000 
 14 C       -3.2040     3.6320    -0.6470 C.3   1 <1>  -0.1600 
 15 C       -2.9440     1.0980    -0.7060 C.3   1 <1>  -0.1600 
 16 C        2.1480     3.4820    -2.4080 C.3   1 <1>  -0.2400 
 17 O       -5.6240     3.0470     0.7550 O.3   1 <1>  -0.6800 
 18 C       -5.3850     1.2830    -0.8400 C.3   1 <1>  -0.1600 
 19 C       -4.1530     0.7450    -1.5800 C.3   1 <1>  -0.1600 
 20 H       -2.6740     1.4610     2.0080 H     1 <1>   0.0800 
 21 H       -2.9910     3.1650     2.0860 H     1 <1>   0.0800 
 22 H       -1.4100     4.7750     1.1830 H     1 <1>   0.0800 
 23 H        0.0450     4.2780     0.3860 H     1 <1>   0.0800 
 24 H        1.9910     0.0400     1.6960 H     1 <1>   0.0800 
 25 H        3.0790     0.6590     0.5020 H     1 <1>   0.0800 
 26 H        1.5560    -0.0720     0.0150 H     1 <1>   0.0800 
 27 H        1.9500     2.4280     2.8250 H     1 <1>   0.0800 
 28 H        1.6770     3.8130     1.8130 H     1 <1>   0.0800 
 29 H        3.1250     2.8400     1.6200 H     1 <1>   0.0800 
 30 H       -1.6660     5.0200    -1.2350 H     1 <1>   0.0800 
 31 H       -1.2210     3.3650    -1.4820 H     1 <1>   0.0800 
 32 H        3.1170     3.4330    -0.4970 H     1 <1>   0.0800 
 33 H        3.0450     1.8690    -1.3170 H     1 <1>   0.0800 
 34 H       -4.9090     1.2480     1.2470 H     1 <1>   0.0800 
 35 H       -3.6630     3.5570    -1.6170 H     1 <1>   0.0800 
 36 H       -3.6900     4.4300    -0.1150 H     1 <1>   0.0800 
 37 H       -2.0630     1.2850    -1.2930 H     1 <1>   0.0800 
 38 H       -2.7330     0.2640    -0.0580 H     1 <1>   0.0800 
 39 H        1.6120     4.3890    -2.2000 H     1 <1>   0.0800 
 40 H        1.5380     2.8350    -3.0130 H     1 <1>   0.0800 
 41 H        3.0400     3.7260    -2.9570 H     1 <1>   0.0800 
 42 H       -5.6150     3.6770     0.0110 H     1 <1>   0.4000 
 43 H       -6.0560     0.4830    -0.5830 H     1 <1>   0.0800 
 44 H       -5.8970     1.9940    -1.4650 H     1 <1>   0.0800 
 45 H       -4.2160    -0.3180    -1.7340 H     1 <1>   0.0800 
 46 H       -4.0640     1.2290    -2.5370 H     1 <1>   0.0800 
@<TRIPOS>BOND
  1   1   2  2   
  2   2   3  am  
  3   2   4  1   
  4   3   5  1   
  5   3   6  1   
  6   4   7  1   
  7   4   8  1   
  8   4   9  1   
  9   5  10  1   
 10   5  20  1   
 11   5  21  1   
 12   6  11  1   
 13   6  22  1   
 14   6  23  1   
 15   7  12  1   
 16   8  24  1   
 17   8  25  1   
 18   8  26  1   
 19   9  27  1   
 20   9  28  1   
 21   9  29  1   
 22  10  13  1   
 23  10  14  1   
 24  10  15  1   
 25  11  14  1   
 26  11  30  1   
 27  11  31  1   
 28  12  16  1   
 29  12  32  1   
 30  12  33  1   
 31  13  17  1   
 32  13  18  1   
 33  13  34  1   
 34  14  35  1   
 35  14  36  1   
 36  15  19  1   
 37  15  37  1   
 38  15  38  1   
 39  16  39  1   
 40  16  40  1   
 41  16  41  1   
 42  17  42  1   
 43  18  19  1   
 44  18  43  1   
 45  18  44  1   
 46  19  45  1   
 47  19  46  1   
@<TRIPOS>SUBSTRUCTURE
  1 ****   3 GROUP 4 **** **** 0

# MOE 2024.06 (io_trps.svl 2023.06)
