@<TRIPOS>MOLECULE
NONAME
15 15 1 0 0 
SMALL
USER_CHARGES


@<TRIPOS>ATOM
  1 S        0.0030     0.2620    -0.1530 S.o2  1 <1>   1.3330 
  2 O       -0.5990     0.7130     1.0810 O.2   1 <1>  -0.6500 
  3 O        0.3670     1.2000    -1.1880 O.2   1 <1>  -0.6500 
  4 N       -1.0640    -0.8230    -0.8590 N.am  1 <1>  -0.9140 
  5 C        1.4390    -0.7670     0.2030 C.3   1 <1>   0.0830 
  6 C       -1.4190    -1.9210     0.0130 C.3   1 <1>   0.3340 
  7 C        1.0730    -2.2140     0.5200 C.2   1 <1>  -0.2880 
  8 C       -0.1750    -2.6920     0.4350 C.2   1 <1>  -0.2880 
  9 H       -0.5990    -1.1850    -1.6850 H     1 <1>   0.4200 
 10 H        1.9780    -0.3410     1.0270 H     1 <1>   0.0800 
 11 H        2.0900    -0.7640    -0.6500 H     1 <1>   0.0800 
 12 H       -2.0860    -2.5770    -0.5220 H     1 <1>   0.0800 
 13 H       -1.9410    -1.5510     0.8810 H     1 <1>   0.0800 
 14 H        1.9160    -2.8120     0.8260 H     1 <1>   0.1500 
 15 H       -0.4100    -3.7120     0.6890 H     1 <1>   0.1500 
@<TRIPOS>BOND
  1   1   2  2   
  2   1   3  2   
  3   1   4  am  
  4   1   5  1   
  5   4   6  1   
  6   4   9  1   
  7   5   7  1   
  8   5  10  1   
  9   5  11  1   
 10   6   8  1   
 11   6  12  1   
 12   6  13  1   
 13   7   8  2   
 14   7  14  1   
 15   8  15  1   
@<TRIPOS>SUBSTRUCTURE
  1 ****   1 GROUP 4 **** **** 0

# MOE 2024.06 (io_trps.svl 2023.06)
