@<TRIPOS>MOLECULE
NONAME
53 56 1 0 0 
SMALL
USER_CHARGES


@<TRIPOS>ATOM
  1 O        0.2390    -0.8160    -0.7980 O.2   1 <1>  -0.5700 
  2 C        0.9900    -1.6740    -0.4160 C.2   1 <1>   0.5690 
  3 N        0.5680    -2.6860     0.3690 N.am  1 <1>  -0.7300 
  4 C        2.4540    -1.6470    -0.7960 C.3   1 <1>  -0.0990 
  5 C        1.4600    -3.7150     0.9350 C.3   1 <1>   0.1400 
  6 C        2.9380    -3.0680    -1.1440 C.3   1 <1>  -0.0800 
  7 C        2.5290    -4.1370    -0.1000 C.3   1 <1>  -0.0800 
  8 C        4.4650    -3.1520    -1.2960 C.3   1 <1>  -0.1600 
  9 C        3.8410    -4.5980     0.5460 C.3   1 <1>  -0.1600 
 10 C        4.8730    -4.4280    -0.5670 C.3   1 <1>   0.4230 
 11 N        6.3090    -4.4420    -0.1400 N.4   1 <1>  -0.9590 
 12 C        6.6650    -3.7890     1.1620 C.3   1 <1>   0.4860 
 13 C        6.8290    -5.8420    -0.1600 C.3   1 <1>   0.2630 
 14 C        6.6420    -2.2810     1.0170 C.ar  1 <1>  -0.1440 
 15 C        7.5650    -1.6450     0.1990 C.ar  1 <1>  -0.1500 
 16 C        5.6970    -1.5210     1.6940 C.ar  1 <1>  -0.1500 
 17 C        7.5330    -0.2690     0.0410 C.ar  1 <1>   0.0820 
 18 C        5.6590    -0.1460     1.5330 C.ar  1 <1>  -0.1500 
 19 O        8.4500     0.2960    -0.7830 O.3   1 <1>  -0.1650 
 20 C        6.5700     0.4810     0.7030 C.ar  1 <1>  -0.1500 
 21 C        8.9760     1.5220    -0.5370 C.ar  1 <1>   0.0820 
 22 C        9.1820     2.3750    -1.6090 C.ar  1 <1>  -0.1500 
 23 C        9.3240     1.9270     0.7470 C.ar  1 <1>  -0.1500 
 24 C        9.7180     3.6340    -1.4010 C.ar  1 <1>  -0.1500 
 25 C        9.8590     3.1870     0.9530 C.ar  1 <1>  -0.1500 
 26 C       10.0540     4.0400    -0.1200 C.ar  1 <1>  -0.1500 
 27 H       -0.4160    -2.6750     0.6510 H     1 <1>   0.3700 
 28 H        2.5890    -0.9900    -1.6360 H     1 <1>   0.0800 
 29 H        3.0020    -1.2480     0.0370 H     1 <1>   0.0800 
 30 H        1.9250    -3.3020     1.8150 H     1 <1>   0.0800 
 31 H        0.8790    -4.5720     1.2340 H     1 <1>   0.0800 
 32 H        2.4770    -3.3390    -2.0810 H     1 <1>   0.0800 
 33 H        2.1230    -4.9720    -0.6470 H     1 <1>   0.0800 
 34 H        4.9170    -2.2810    -0.8630 H     1 <1>   0.0800 
 35 H        4.7380    -3.2000    -2.3360 H     1 <1>   0.0800 
 36 H        3.7740    -5.6180     0.8800 H     1 <1>   0.0800 
 37 H        4.0520    -3.9510     1.3750 H     1 <1>   0.0800 
 38 H        4.7170    -5.2340    -1.2670 H     1 <1>   0.0800 
 39 H        6.8120    -3.9000    -0.8560 H     1 <1>   0.4500 
 40 H        5.9950    -4.1040     1.9440 H     1 <1>   0.0800 
 41 H        7.6630    -4.0780     1.4500 H     1 <1>   0.0800 
 42 H        6.3230    -6.4410     0.5810 H     1 <1>   0.0800 
 43 H        7.8870    -5.8550     0.0500 H     1 <1>   0.0800 
 44 H        6.6700    -6.2870    -1.1290 H     1 <1>   0.0800 
 45 H        8.3270    -2.1940    -0.3270 H     1 <1>   0.1500 
 46 H        4.9790    -1.9800     2.3510 H     1 <1>   0.1500 
 47 H        4.9200     0.4410     2.0530 H     1 <1>   0.1500 
 48 H        6.5290     1.5490     0.5720 H     1 <1>   0.1500 
 49 H        8.9220     2.0540    -2.6020 H     1 <1>   0.1500 
 50 H        9.1840     1.2640     1.5820 H     1 <1>   0.1500 
 51 H        9.8750     4.2980    -2.2340 H     1 <1>   0.1500 
 52 H       10.1260     3.5040     1.9460 H     1 <1>   0.1500 
 53 H       10.4700     5.0200     0.0410 H     1 <1>   0.1500 
@<TRIPOS>BOND
  1   1   2  2   
  2   2   3  am  
  3   2   4  1   
  4   3   5  1   
  5   3  27  1   
  6   4   6  1   
  7   4  28  1   
  8   4  29  1   
  9   5   7  1   
 10   5  30  1   
 11   5  31  1   
 12   6   7  1   
 13   6   8  1   
 14   6  32  1   
 15   7   9  1   
 16   7  33  1   
 17   8  10  1   
 18   8  34  1   
 19   8  35  1   
 20   9  10  1   
 21   9  36  1   
 22   9  37  1   
 23  10  11  1   
 24  10  38  1   
 25  11  12  1   
 26  11  13  1   
 27  11  39  1   
 28  12  14  1   
 29  12  40  1   
 30  12  41  1   
 31  13  42  1   
 32  13  43  1   
 33  13  44  1   
 34  14  15  ar  
 35  14  16  ar  
 36  15  17  ar  
 37  15  45  1   
 38  16  18  ar  
 39  16  46  1   
 40  17  19  1   
 41  17  20  ar  
 42  18  20  ar  
 43  18  47  1   
 44  19  21  1   
 45  20  48  1   
 46  21  22  ar  
 47  21  23  ar  
 48  22  24  ar  
 49  22  49  1   
 50  23  25  ar  
 51  23  50  1   
 52  24  26  ar  
 53  24  51  1   
 54  25  26  ar  
 55  25  52  1   
 56  26  53  1   
@<TRIPOS>SUBSTRUCTURE
  1 ****  14 GROUP 4 **** **** 0

# MOE 2024.06 (io_trps.svl 2023.06)
