@<TRIPOS>MOLECULE
NONAME
51 52 1 0 0 
SMALL
USER_CHARGES


@<TRIPOS>ATOM
  1 S        0.5580     1.1960    -0.0790 S.o2  1 <1>   1.3330 
  2 O        0.4120    -0.2120    -0.3690 O.2   1 <1>  -0.6500 
  3 O       -0.5300     2.1030    -0.3690 O.2   1 <1>  -0.6500 
  4 N        0.9090     1.3510     1.5770 N.am  1 <1>  -0.8490 
  5 C        2.0470     1.7790    -0.8910 C.3   1 <1>  -0.0550 
  6 C        0.7590     2.7230     2.0760 C.3   1 <1>   0.1160 
  7 C        0.1070     0.4370     2.3960 C.3   1 <1>   0.1160 
  8 C        3.2680     0.8470    -0.7290 C.3   1 <1>  -0.0800 
  9 C        4.4950     1.2560    -1.5310 C.3   1 <1>   0.2200 
 10 C        3.8200     0.7350     0.6970 C.3   1 <1>   0.1200 
 11 N        4.7130     2.7170    -1.4420 N.am  1 <1>  -0.7300 
 12 C        5.5900     0.5420    -0.7510 C.3   1 <1>   0.1200 
 13 O        5.2110     0.6430     0.5880 O.3   1 <1>  -0.5600 
 14 C        4.3910     3.6330    -2.3910 C.2   1 <1>   0.5690 
 15 O        3.8920     3.3020    -3.4390 O.2   1 <1>  -0.5700 
 16 C        4.6370     5.1130    -2.1220 C.3   1 <1>   0.1810 
 17 O        4.8440     5.3510    -0.7360 O.3   1 <1>  -0.3630 
 18 C        5.0780     6.6010    -0.2660 C.ar  1 <1>   0.0820 
 19 C        5.3540     6.7190     1.0860 C.ar  1 <1>  -0.1500 
 20 C        5.0560     7.7440    -1.0580 C.ar  1 <1>  -0.1500 
 21 C        5.6070     7.9540     1.6600 C.ar  1 <1>  -0.1440 
 22 C        5.3060     8.9790    -0.4890 C.ar  1 <1>  -0.1500 
 23 C        5.5820     9.0960     0.8660 C.ar  1 <1>  -0.1440 
 24 C        5.9080     8.0290     3.1510 C.3   1 <1>  -0.0970 
 25 C        5.8510    10.4760     1.4490 C.3   1 <1>  -0.0970 
 26 H        1.8420     1.8730    -1.9400 H     1 <1>   0.0800 
 27 H        2.2850     2.7590    -0.5270 H     1 <1>   0.0800 
 28 H        1.0720     2.7780     3.1050 H     1 <1>   0.0800 
 29 H       -0.2690     3.0410     2.0060 H     1 <1>   0.0800 
 30 H        1.3680     3.3990     1.5010 H     1 <1>   0.0800 
 31 H        0.3600     0.5470     3.4360 H     1 <1>   0.0800 
 32 H        0.3020    -0.5830     2.1090 H     1 <1>   0.0800 
 33 H       -0.9430     0.6380     2.2620 H     1 <1>   0.0800 
 34 H        2.9840    -0.1430    -1.0450 H     1 <1>   0.0800 
 35 H        4.4480     0.9400    -2.5600 H     1 <1>   0.0800 
 36 H        3.4470    -0.1380     1.2040 H     1 <1>   0.0800 
 37 H        3.6010     1.6140     1.2790 H     1 <1>   0.0800 
 38 H        5.0950     3.0450    -0.5480 H     1 <1>   0.3700 
 39 H        6.5600     0.9860    -0.8900 H     1 <1>   0.0800 
 40 H        5.6220    -0.5020    -1.0070 H     1 <1>   0.0800 
 41 H        3.7790     5.6750    -2.4400 H     1 <1>   0.0800 
 42 H        5.5100     5.4340    -2.6580 H     1 <1>   0.0800 
 43 H        5.3700     5.8270     1.6840 H     1 <1>   0.1500 
 44 H        4.8460     7.6990    -2.1090 H     1 <1>   0.1500 
 45 H        5.2850     9.8560    -1.1120 H     1 <1>   0.1500 
 46 H        5.9300     7.0480     3.5900 H     1 <1>   0.0800 
 47 H        5.1500     8.6050     3.6500 H     1 <1>   0.0800 
 48 H        6.8650     8.4900     3.3120 H     1 <1>   0.0800 
 49 H        5.7590    11.2390     0.6970 H     1 <1>   0.0800 
 50 H        6.8470    10.5180     1.8510 H     1 <1>   0.0800 
 51 H        5.1460    10.6900     2.2320 H     1 <1>   0.0800 
@<TRIPOS>BOND
  1   1   2  2   
  2   1   3  2   
  3   1   4  am  
  4   1   5  1   
  5   4   6  1   
  6   4   7  1   
  7   5   8  1   
  8   5  26  1   
  9   5  27  1   
 10   6  28  1   
 11   6  29  1   
 12   6  30  1   
 13   7  31  1   
 14   7  32  1   
 15   7  33  1   
 16   8   9  1   
 17   8  10  1   
 18   8  34  1   
 19   9  11  1   
 20   9  12  1   
 21   9  35  1   
 22  10  13  1   
 23  10  36  1   
 24  10  37  1   
 25  11  14  am  
 26  11  38  1   
 27  12  13  1   
 28  12  39  1   
 29  12  40  1   
 30  14  15  2   
 31  14  16  1   
 32  16  17  1   
 33  16  41  1   
 34  16  42  1   
 35  17  18  1   
 36  18  19  ar  
 37  18  20  ar  
 38  19  21  ar  
 39  19  43  1   
 40  20  22  ar  
 41  20  44  1   
 42  21  23  ar  
 43  21  24  1   
 44  22  23  ar  
 45  22  45  1   
 46  23  25  1   
 47  24  46  1   
 48  24  47  1   
 49  24  48  1   
 50  25  49  1   
 51  25  50  1   
 52  25  51  1   
@<TRIPOS>SUBSTRUCTURE
  1 ****  17 GROUP 4 **** **** 0

# MOE 2024.06 (io_trps.svl 2023.06)
