@<TRIPOS>MOLECULE
NONAME
41 44 1 0 0 
SMALL
USER_CHARGES


@<TRIPOS>ATOM
  1 CL      -0.8810    -1.1330    -2.7510 Cl    1 <1>  -0.1770 
  2 C       -1.9620    -1.3530    -1.4000 C.ar  1 <1>   0.1770 
  3 C       -2.6680    -0.2690    -0.9190 C.ar  1 <1>  -0.1500 
  4 C       -2.0930    -2.6100    -0.8370 C.ar  1 <1>  -0.1500 
  5 C       -3.5100    -0.4890     0.1520 C.ar  1 <1>   0.1900 
  6 C       -2.9550    -2.8270     0.2400 C.ar  1 <1>   0.0860 
  7 F       -4.1910     0.5160     0.6290 F     1 <1>  -0.1900 
  8 C       -3.6630    -1.7310     0.7360 C.ar  1 <1>  -0.1500 
  9 C       -3.0930    -4.1480     0.8240 C.2   1 <1>   0.5440 
 10 O       -2.0890    -4.7610     1.1270 O.2   1 <1>  -0.5700 
 11 N       -4.3260    -4.7310     1.0330 N.am  1 <1>  -0.6600 
 12 C       -5.5670    -4.3440     0.3070 C.3   1 <1>   0.1400 
 13 C       -4.4820    -5.9490     1.8780 C.3   1 <1>   0.1400 
 14 C       -6.0010    -5.5040    -0.5910 C.3   1 <1>  -0.1600 
 15 C       -4.9100    -7.1230     0.9980 C.3   1 <1>  -0.1600 
 16 C       -6.1830    -6.8030     0.2070 C.3   1 <1>   0.4610 
 17 O       -7.2040    -6.6110     1.1710 O.3   1 <1>  -0.5600 
 18 C       -6.5460    -7.9700    -0.7140 C.2   1 <1>  -0.1810 
 19 C       -8.5480    -6.7130     0.7610 C.3   1 <1>   0.1200 
 20 C       -7.7550    -8.5440    -0.6570 C.2   1 <1>  -0.1400 
 21 C       -5.6910    -8.5670    -1.7000 C.2   1 <1>  -0.1500 
 22 C       -8.8730    -8.1290     0.2600 C.3   1 <1>   0.0200 
 23 S       -7.9080    -9.8630    -1.7970 S.3   1 <1>  -0.0800 
 24 C       -6.2660    -9.5890    -2.3630 C.2   1 <1>  -0.1100 
 25 H       -2.5640     0.7060    -1.3580 H     1 <1>   0.1500 
 26 H       -1.5220    -3.4320    -1.2300 H     1 <1>   0.1500 
 27 H       -4.3240    -1.8510     1.5750 H     1 <1>   0.1500 
 28 H       -5.4080    -3.4710    -0.2980 H     1 <1>   0.0800 
 29 H       -6.3410    -4.1230     1.0240 H     1 <1>   0.0800 
 30 H       -5.2290    -5.7620     2.6310 H     1 <1>   0.0800 
 31 H       -3.5590    -6.1860     2.3800 H     1 <1>   0.0800 
 32 H       -5.2450    -5.6560    -1.3390 H     1 <1>   0.0800 
 33 H       -6.9090    -5.2560    -1.1060 H     1 <1>   0.0800 
 34 H       -5.0800    -7.9930     1.6050 H     1 <1>   0.0800 
 35 H       -4.1050    -7.3490     0.3240 H     1 <1>   0.0800 
 36 H       -8.7230    -5.9920    -0.0180 H     1 <1>   0.0800 
 37 H       -9.1690    -6.4660     1.6040 H     1 <1>   0.0800 
 38 H       -4.6900    -8.2070    -1.8660 H     1 <1>   0.1500 
 39 H       -9.8100    -8.1240    -0.2670 H     1 <1>   0.0800 
 40 H       -8.9420    -8.8120     1.0870 H     1 <1>   0.0800 
 41 H       -5.9010   -10.2330    -3.1430 H     1 <1>   0.1500 
@<TRIPOS>BOND
  1   1   2  1   
  2   2   3  ar  
  3   2   4  ar  
  4   3   5  ar  
  5   3  25  1   
  6   4   6  ar  
  7   4  26  1   
  8   5   7  1   
  9   5   8  ar  
 10   6   8  ar  
 11   6   9  1   
 12   8  27  1   
 13   9  10  2   
 14   9  11  am  
 15  11  12  1   
 16  11  13  1   
 17  12  14  1   
 18  12  28  1   
 19  12  29  1   
 20  13  15  1   
 21  13  30  1   
 22  13  31  1   
 23  14  16  1   
 24  14  32  1   
 25  14  33  1   
 26  15  16  1   
 27  15  34  1   
 28  15  35  1   
 29  16  17  1   
 30  16  18  1   
 31  17  19  1   
 32  18  20  2   
 33  18  21  1   
 34  19  22  1   
 35  19  36  1   
 36  19  37  1   
 37  20  22  1   
 38  20  23  1   
 39  21  24  2   
 40  21  38  1   
 41  22  39  1   
 42  22  40  1   
 43  23  24  1   
 44  24  41  1   
@<TRIPOS>SUBSTRUCTURE
  1 ****  12 GROUP 4 **** **** 0

# MOE 2024.06 (io_trps.svl 2023.06)
