@<TRIPOS>MOLECULE
NONAME
57 59 1 0 0 
SMALL
USER_CHARGES


@<TRIPOS>ATOM
  1 O        0.1990     0.2140    -0.7280 O.2   1 <1>  -0.5700 
  2 C        0.5450    -0.9360    -0.8540 C.2   1 <1>   0.5690 
  3 N        1.8180    -1.2380    -1.2710 N.am  1 <1>  -0.6600 
  4 C       -0.5230    -1.9740    -0.5430 C.3   1 <1>  -0.0990 
  5 C        2.3680    -2.6180    -1.4090 C.3   1 <1>   0.1400 
  6 C        2.7600    -0.1340    -1.6930 C.3   1 <1>   0.2010 
  7 C       -0.1070    -3.4400    -0.4220 C.3   1 <1>   0.1200 
  8 C        2.2810    -3.4790    -0.1100 C.3   1 <1>   0.2800 
  9 C        3.9660     0.0340    -0.7600 C.2   1 <1>   0.5690 
 10 O        0.9930    -3.5400     0.4260 O.3   1 <1>  -0.5600 
 11 C        2.7090    -4.9300    -0.3670 C.3   1 <1>  -0.1600 
 12 C        3.1360    -2.9050     1.0250 C.3   1 <1>  -0.1600 
 13 O        4.9720    -0.5820    -1.0440 O.2   1 <1>  -0.5700 
 14 N        3.8980     0.8090     0.3740 N.am  1 <1>  -0.6600 
 15 C        4.2130    -5.0550    -0.6040 C.3   1 <1>   0.3430 
 16 C        4.6290    -3.0560     0.7590 C.3   1 <1>   0.3430 
 17 C        5.0960     1.1070     1.2090 C.3   1 <1>   0.0600 
 18 C        2.6370     1.4490     0.8490 C.3   1 <1>   0.0600 
 19 N        4.9800    -4.4960     0.5530 N.4   1 <1>  -0.9590 
 20 C        6.4620    -4.6920     0.4150 C.3   1 <1>   0.4230 
 21 C        6.7910    -6.1790     0.2090 C.3   1 <1>  -0.1600 
 22 C        7.1910    -4.1570     1.6580 C.3   1 <1>  -0.1600 
 23 C        8.2970    -6.4280     0.2950 C.3   1 <1>   0.1200 
 24 C        8.6690    -4.5510     1.6440 C.3   1 <1>   0.1200 
 25 O        8.7540    -5.9300     1.5060 O.3   1 <1>  -0.5600 
 26 H       -1.2830    -1.8960    -1.2970 H     1 <1>   0.0800 
 27 H       -0.9820    -1.6880     0.3860 H     1 <1>   0.0800 
 28 H        3.3980    -2.5520    -1.7100 H     1 <1>   0.0800 
 29 H        1.8590    -3.1090    -2.2190 H     1 <1>   0.0800 
 30 H        2.2420     0.8040    -1.7690 H     1 <1>   0.0800 
 31 H        3.1280    -0.3550    -2.6780 H     1 <1>   0.0800 
 32 H        0.1030    -3.8910    -1.3750 H     1 <1>   0.0800 
 33 H       -0.9100    -3.9950     0.0340 H     1 <1>   0.0800 
 34 H        2.1880    -5.3160    -1.2240 H     1 <1>   0.0800 
 35 H        2.4420    -5.5400     0.4780 H     1 <1>   0.0800 
 36 H        2.8980    -3.4020     1.9490 H     1 <1>   0.0800 
 37 H        2.9090    -1.8620     1.1550 H     1 <1>   0.0800 
 38 H        4.4850    -4.5310    -1.5060 H     1 <1>   0.0800 
 39 H        4.4490    -6.0980    -0.7370 H     1 <1>   0.0800 
 40 H        5.1660    -2.6500     1.5990 H     1 <1>   0.0800 
 41 H        4.9060    -2.4990    -0.1160 H     1 <1>   0.0800 
 42 H        5.9790     0.6540     0.7920 H     1 <1>   0.0800 
 43 H        4.9480     0.7310     2.2060 H     1 <1>   0.0800 
 44 H        5.2500     2.1710     1.2530 H     1 <1>   0.0800 
 45 H        1.9440     0.6930     1.1770 H     1 <1>   0.0800 
 46 H        2.1820     2.0200     0.0580 H     1 <1>   0.0800 
 47 H        2.8340     2.1140     1.6720 H     1 <1>   0.0800 
 48 H        4.6910    -5.0050     1.3980 H     1 <1>   0.4500 
 49 H        6.8180    -4.1450    -0.4440 H     1 <1>   0.0800 
 50 H        6.4670    -6.5130    -0.7590 H     1 <1>   0.0800 
 51 H        6.3130    -6.7790     0.9630 H     1 <1>   0.0800 
 52 H        6.7500    -4.5550     2.5550 H     1 <1>   0.0800 
 53 H        7.1490    -3.0840     1.6960 H     1 <1>   0.0800 
 54 H        8.8350    -5.9460    -0.5060 H     1 <1>   0.0800 
 55 H        8.5120    -7.4830     0.2730 H     1 <1>   0.0800 
 56 H        9.1430    -4.2860     2.5740 H     1 <1>   0.0800 
 57 H        9.2060    -4.0850     0.8340 H     1 <1>   0.0800 
@<TRIPOS>BOND
  1   1   2  2   
  2   2   3  am  
  3   2   4  1   
  4   3   5  1   
  5   3   6  1   
  6   4   7  1   
  7   4  26  1   
  8   4  27  1   
  9   5   8  1   
 10   5  28  1   
 11   5  29  1   
 12   6   9  1   
 13   6  30  1   
 14   6  31  1   
 15   7  10  1   
 16   7  32  1   
 17   7  33  1   
 18   8  10  1   
 19   8  11  1   
 20   8  12  1   
 21   9  13  2   
 22   9  14  am  
 23  11  15  1   
 24  11  34  1   
 25  11  35  1   
 26  12  16  1   
 27  12  36  1   
 28  12  37  1   
 29  14  17  1   
 30  14  18  1   
 31  15  19  1   
 32  15  38  1   
 33  15  39  1   
 34  16  19  1   
 35  16  40  1   
 36  16  41  1   
 37  17  42  1   
 38  17  43  1   
 39  17  44  1   
 40  18  45  1   
 41  18  46  1   
 42  18  47  1   
 43  19  20  1   
 44  19  48  1   
 45  20  21  1   
 46  20  22  1   
 47  20  49  1   
 48  21  23  1   
 49  21  50  1   
 50  21  51  1   
 51  22  24  1   
 52  22  52  1   
 53  22  53  1   
 54  23  25  1   
 55  23  54  1   
 56  23  55  1   
 57  24  25  1   
 58  24  56  1   
 59  24  57  1   
@<TRIPOS>SUBSTRUCTURE
  1 ****  16 GROUP 4 **** **** 0

# MOE 2024.06 (io_trps.svl 2023.06)
