@<TRIPOS>MOLECULE
NONAME
58 62 1 0 0 
SMALL
USER_CHARGES


@<TRIPOS>ATOM
  1 O       -1.2100    -0.0150     0.6150 O.2   1 <1>  -0.5700 
  2 C       -1.9200     0.8760     0.1820 C.2   1 <1>   0.5440 
  3 N       -3.1640     0.5240    -0.2950 N.am  1 <1>  -0.6600 
  4 C       -1.4830     2.2610     0.2270 C.ar  1 <1>   0.0860 
  5 C       -3.4100    -0.8640    -0.7600 C.3   1 <1>   0.1400 
  6 C       -4.3680     1.1670     0.3100 C.3   1 <1>   0.1400 
  7 C       -0.6140     2.7150     1.2180 C.ar  1 <1>  -0.1500 
  8 C       -1.9030     3.1990    -0.7160 C.ar  1 <1>  -0.1500 
  9 C       -4.3900    -1.4720     0.2630 C.3   1 <1>   0.4230 
 10 C       -5.6790     0.3790    -0.0130 C.3   1 <1>  -0.1600 
 11 C       -0.2010     4.0320     1.2730 C.ar  1 <1>  -0.1500 
 12 C       -1.4900     4.5160    -0.6610 C.ar  1 <1>  -0.1500 
 13 N       -3.8680    -2.7260     0.9120 N.4   1 <1>  -0.9590 
 14 C       -5.8810    -1.2260    -0.2490 C.3   1 <1>   0.0000 
 15 C       -0.6290     4.9750     0.3370 C.ar  1 <1>   0.0540 
 16 C       -3.9300    -3.8520     0.0020 C.3   1 <1>   0.3430 
 17 C       -2.5030    -2.5500     1.5130 C.3   1 <1>   0.2630 
 18 C       -6.1640    -2.7910    -0.5790 C.3   1 <1>  -0.1600 
 19 C       -7.3960    -0.9060    -0.6990 C.3   1 <1>   0.1200 
 20 C       -0.1950     6.3600     0.4020 C.2   1 <1>   0.4620 
 21 C       -5.4090    -4.0580    -0.1230 C.3   1 <1>  -0.1600 
 22 O       -8.2120    -1.0190     0.4260 O.3   1 <1>  -0.6800 
 23 N        0.6020     6.8570     1.2810 N.2   1 <1>  -0.4100 
 24 N       -0.5980     7.2830    -0.4770 N.2   1 <1>  -0.5650 
 25 O        0.7530     8.1150     1.0140 O.3   1 <1>  -0.0190 
 26 C        0.0110     8.3080    -0.0460 C.2   1 <1>   0.3930 
 27 C       -0.0650     9.6990    -0.6630 C.3   1 <1>  -0.0150 
 28 C        1.1260    10.6090    -0.6930 C.3   1 <1>  -0.2000 
 29 C       -0.0460    10.9350     0.1850 C.3   1 <1>  -0.2000 
 30 H       -3.8570    -0.8320    -1.7390 H     1 <1>   0.0800 
 31 H       -2.4910    -1.4150    -0.8400 H     1 <1>   0.0800 
 32 H       -4.2330     1.2150     1.3790 H     1 <1>   0.0800 
 33 H       -4.4540     2.1810    -0.0460 H     1 <1>   0.0800 
 34 H       -0.2550     2.0170     1.9560 H     1 <1>   0.1500 
 35 H       -2.5580     2.8880    -1.5110 H     1 <1>   0.1500 
 36 H       -4.3250    -0.8340     1.1240 H     1 <1>   0.0800 
 37 H       -6.3880     0.7330     0.7210 H     1 <1>   0.0800 
 38 H       -5.9050     0.8780    -0.9420 H     1 <1>   0.0800 
 39 H        0.4700     4.3390     2.0580 H     1 <1>   0.1500 
 40 H       -1.8400     5.2070    -1.4100 H     1 <1>   0.1500 
 41 H       -4.5250    -2.9290     1.6770 H     1 <1>   0.4500 
 42 H       -3.4790    -3.6150    -0.9490 H     1 <1>   0.0800 
 43 H       -3.4600    -4.7250     0.4260 H     1 <1>   0.0800 
 44 H       -1.7600    -2.4080     0.7460 H     1 <1>   0.0800 
 45 H       -2.2330    -3.4160     2.0950 H     1 <1>   0.0800 
 46 H       -2.4860    -1.6850     2.1560 H     1 <1>   0.0800 
 47 H       -7.1620    -3.0970    -0.2970 H     1 <1>   0.0800 
 48 H       -6.1270    -2.8550    -1.6560 H     1 <1>   0.0800 
 49 H       -7.8030    -1.5550    -1.4600 H     1 <1>   0.0800 
 50 H       -7.6190     0.0620    -1.1160 H     1 <1>   0.0800 
 51 H       -5.5930    -4.8560    -0.8210 H     1 <1>   0.0800 
 52 H       -5.7960    -4.3880     0.8270 H     1 <1>   0.0800 
 53 H       -9.1500    -0.8440     0.2030 H     1 <1>   0.4000 
 54 H       -0.7080     9.7100    -1.5250 H     1 <1>   0.1000 
 55 H        2.0430    10.2860    -0.2310 H     1 <1>   0.1000 
 56 H        1.2970    11.2020    -1.5750 H     1 <1>   0.1000 
 57 H       -0.6890    11.7540    -0.0870 H     1 <1>   0.1000 
 58 H        0.0650    10.8350     1.2510 H     1 <1>   0.1000 
@<TRIPOS>BOND
  1   1   2  2   
  2   2   3  am  
  3   2   4  1   
  4   3   5  1   
  5   3   6  1   
  6   4   7  ar  
  7   4   8  ar  
  8   5   9  1   
  9   5  30  1   
 10   5  31  1   
 11   6  10  1   
 12   6  32  1   
 13   6  33  1   
 14   7  11  ar  
 15   7  34  1   
 16   8  12  ar  
 17   8  35  1   
 18   9  13  1   
 19   9  14  1   
 20   9  36  1   
 21  10  14  1   
 22  10  37  1   
 23  10  38  1   
 24  11  15  ar  
 25  11  39  1   
 26  12  15  ar  
 27  12  40  1   
 28  13  16  1   
 29  13  17  1   
 30  13  41  1   
 31  14  18  1   
 32  14  19  1   
 33  15  20  1   
 34  16  21  1   
 35  16  42  1   
 36  16  43  1   
 37  17  44  1   
 38  17  45  1   
 39  17  46  1   
 40  18  21  1   
 41  18  47  1   
 42  18  48  1   
 43  19  22  1   
 44  19  49  1   
 45  19  50  1   
 46  20  23  2   
 47  20  24  1   
 48  21  51  1   
 49  21  52  1   
 50  22  53  1   
 51  23  25  1   
 52  24  26  2   
 53  25  26  1   
 54  26  27  1   
 55  27  28  1   
 56  27  29  1   
 57  27  54  1   
 58  28  29  1   
 59  28  55  1   
 60  28  56  1   
 61  29  57  1   
 62  29  58  1   
@<TRIPOS>SUBSTRUCTURE
  1 ****   4 GROUP 4 **** **** 0

# MOE 2024.06 (io_trps.svl 2023.06)
