@<TRIPOS>MOLECULE
NONAME
46 47 1 0 0 
SMALL
USER_CHARGES


@<TRIPOS>ATOM
  1 O        0.2300    -0.8060     0.5920 O.3   1 <1>  -0.5600 
  2 C       -0.2040    -1.9780    -0.0340 C.3   1 <1>   0.2000 
  3 C       -0.0670     0.3670    -0.0930 C.3   1 <1>   0.1200 
  4 C       -0.5110    -3.0210     1.0530 C.3   1 <1>   0.2090 
  5 C        0.8990    -2.4660    -0.9850 C.3   1 <1>  -0.1600 
  6 C        0.4880     1.5350     0.7200 C.3   1 <1>  -0.1600 
  7 N       -0.7940    -4.3680     0.4590 N.pl3 1 <1>  -0.8380 
  8 C        0.5460    -3.8490    -1.5560 C.3   1 <1>  -0.1600 
  9 C        0.2010     2.8770     0.0370 C.3   1 <1>  -0.2400 
 10 C       -2.1090    -4.7420     0.2240 C.ar  1 <1>   0.4100 
 11 C        0.2680    -4.8740    -0.4500 C.3   1 <1>   0.2090 
 12 N       -2.8600    -3.8140    -0.3500 N.ar  1 <1>  -0.6200 
 13 C       -2.5840    -6.0150     0.5680 C.ar  1 <1>   0.0730 
 14 C       -4.1160    -4.1200    -0.5930 C.ar  1 <1>   0.1670 
 15 C       -1.6850    -6.9370     1.1950 C.1   1 <1>   0.4840 
 16 C       -3.9110    -6.3340     0.2980 C.ar  1 <1>  -0.1440 
 17 C       -4.7000    -5.3470    -0.2810 C.ar  1 <1>  -0.1430 
 18 C       -4.8990    -3.0020    -1.2600 C.3   1 <1>  -0.0970 
 19 N       -0.9980    -7.7170     1.6700 N.1   1 <1>  -0.5570 
 20 C       -4.4870    -7.7170     0.6270 C.3   1 <1>  -0.0970 
 21 C       -6.1820    -5.6110    -0.5680 C.3   1 <1>  -0.0970 
 22 H       -1.1130    -1.7770    -0.5750 H     1 <1>   0.0800 
 23 H       -1.1360     0.4480    -0.1910 H     1 <1>   0.0800 
 24 H        0.3920     0.3320    -1.0660 H     1 <1>   0.0800 
 25 H       -1.3610    -2.6940     1.6250 H     1 <1>   0.0800 
 26 H        0.3340    -3.1060     1.7130 H     1 <1>   0.0800 
 27 H        1.8260    -2.5330    -0.4420 H     1 <1>   0.0800 
 28 H        1.0210    -1.7700    -1.7950 H     1 <1>   0.0800 
 29 H        1.5510     1.4130     0.8320 H     1 <1>   0.0800 
 30 H        0.0360     1.5290     1.6970 H     1 <1>   0.0800 
 31 H        1.3540    -4.2030    -2.1700 H     1 <1>   0.0800 
 32 H       -0.3300    -3.7700    -2.1760 H     1 <1>   0.0800 
 33 H        0.6580     2.9100    -0.9360 H     1 <1>   0.0800 
 34 H        0.5990     3.6820     0.6300 H     1 <1>   0.0800 
 35 H       -0.8600     3.0250    -0.0710 H     1 <1>   0.0800 
 36 H       -0.0380    -5.8060    -0.8920 H     1 <1>   0.0800 
 37 H        1.1630    -5.0520     0.1230 H     1 <1>   0.0800 
 38 H       -4.2320    -2.2380    -1.6180 H     1 <1>   0.0800 
 39 H       -5.5740    -2.5580    -0.5520 H     1 <1>   0.0800 
 40 H       -5.4510    -3.3790    -2.1010 H     1 <1>   0.0800 
 41 H       -3.7240    -8.4640     0.7540 H     1 <1>   0.0800 
 42 H       -5.1240    -8.0600    -0.1680 H     1 <1>   0.0800 
 43 H       -5.0610    -7.6650     1.5350 H     1 <1>   0.0800 
 44 H       -6.7530    -4.7030    -0.6150 H     1 <1>   0.0800 
 45 H       -6.6240    -6.2060     0.2100 H     1 <1>   0.0800 
 46 H       -6.2840    -6.1300    -1.5040 H     1 <1>   0.0800 
@<TRIPOS>BOND
  1   1   2  1   
  2   1   3  1   
  3   2   4  1   
  4   2   5  1   
  5   2  22  1   
  6   3   6  1   
  7   3  23  1   
  8   3  24  1   
  9   4   7  1   
 10   4  25  1   
 11   4  26  1   
 12   5   8  1   
 13   5  27  1   
 14   5  28  1   
 15   6   9  1   
 16   6  29  1   
 17   6  30  1   
 18   7  10  1   
 19   7  11  1   
 20   8  11  1   
 21   8  31  1   
 22   8  32  1   
 23   9  33  1   
 24   9  34  1   
 25   9  35  1   
 26  10  12  ar  
 27  10  13  ar  
 28  11  36  1   
 29  11  37  1   
 30  12  14  ar  
 31  13  15  1   
 32  13  16  ar  
 33  14  17  ar  
 34  14  18  1   
 35  15  19  3   
 36  16  17  ar  
 37  16  20  1   
 38  17  21  1   
 39  18  38  1   
 40  18  39  1   
 41  18  40  1   
 42  20  41  1   
 43  20  42  1   
 44  20  43  1   
 45  21  44  1   
 46  21  45  1   
 47  21  46  1   
@<TRIPOS>SUBSTRUCTURE
  1 ****  10 GROUP 4 **** **** 0

# MOE 2024.06 (io_trps.svl 2023.06)
