@<TRIPOS>MOLECULE
NONAME
41 43 1 0 0 
SMALL
USER_CHARGES


@<TRIPOS>ATOM
  1 S       -1.3440    -1.1470     1.6520 S.3   1 <1>  -0.0800 
  2 C       -1.6880    -2.7200     0.9470 C.2   1 <1>  -0.1400 
  3 C       -2.2950    -1.5240     3.0770 C.2   1 <1>  -0.1100 
  4 C       -2.4700    -3.4410     1.7750 C.2   1 <1>  -0.1500 
  5 C       -1.0760    -2.9920    -0.4150 C.3   1 <1>   0.3200 
  6 C       -2.8160    -2.7610     2.9860 C.2   1 <1>  -0.1500 
  7 N       -1.5580    -4.2880    -0.9160 N.am  1 <1>  -0.7300 
  8 C       -0.8100    -5.2270    -1.5400 C.2   1 <1>   0.5690 
  9 O        0.3330    -5.0230    -1.8710 O.2   1 <1>  -0.5700 
 10 C       -1.4520    -6.5890    -1.8270 C.3   1 <1>   0.1710 
 11 N       -2.5490    -6.9680    -0.8820 N.3   1 <1>  -0.8100 
 12 C       -3.2970    -8.1210    -1.4050 C.3   1 <1>   0.2900 
 13 C       -1.9890    -7.2760     0.4510 C.3   1 <1>   0.0300 
 14 C       -4.5450    -8.3190    -0.5770 C.2   1 <1>  -0.3320 
 15 N       -5.3540    -7.2980    -0.2410 N.pl3 1 <1>   0.3000 
 16 C       -5.0830    -9.4310    -0.0300 C.2   1 <1>  -0.1500 
 17 N       -6.3980    -7.7080     0.5030 N.2   1 <1>  -0.7070 
 18 C       -6.2300    -8.9890     0.6230 C.2   1 <1>   0.2030 
 19 C       -7.1850    -9.8780     1.3980 C.3   1 <1>  -0.0140 
 20 C       -7.5720   -11.2340     0.8870 C.3   1 <1>  -0.2000 
 21 C       -8.5670   -10.1150     0.8700 C.3   1 <1>  -0.2000 
 22 H       -2.3630    -0.7700     3.8410 H     1 <1>   0.1500 
 23 H       -2.8290    -4.4400     1.5950 H     1 <1>   0.1500 
 24 H       -0.0010    -3.0020    -0.3390 H     1 <1>   0.0800 
 25 H       -1.3650    -2.2180    -1.1040 H     1 <1>   0.0800 
 26 H       -3.4380    -3.2340     3.7260 H     1 <1>   0.1500 
 27 H       -2.4890    -4.5720    -0.6030 H     1 <1>   0.3700 
 28 H       -0.6810    -7.3400    -1.8130 H     1 <1>   0.0800 
 29 H       -1.8450    -6.5400    -2.8270 H     1 <1>   0.0800 
 30 H       -2.6880    -9.0090    -1.3870 H     1 <1>   0.0800 
 31 H       -3.5910    -7.9300    -2.4240 H     1 <1>   0.0800 
 32 H       -1.4310    -6.4360     0.8300 H     1 <1>   0.0800 
 33 H       -1.3340    -8.1290     0.3990 H     1 <1>   0.0800 
 34 H       -2.7790    -7.4900     1.1510 H     1 <1>   0.0800 
 35 H       -5.1930    -6.3150    -0.4920 H     1 <1>   0.2700 
 36 H       -4.7360   -10.4470    -0.0670 H     1 <1>   0.1500 
 37 H       -7.0870    -9.7420     2.4610 H     1 <1>   0.1000 
 38 H       -7.7010   -12.0320     1.5960 H     1 <1>   0.1000 
 39 H       -7.1760   -11.5730    -0.0540 H     1 <1>   0.1000 
 40 H       -8.8280    -9.6510    -0.0660 H     1 <1>   0.1000 
 41 H       -9.3830   -10.1220     1.5700 H     1 <1>   0.1000 
@<TRIPOS>BOND
  1   1   2  1   
  2   1   3  1   
  3   2   4  2   
  4   2   5  1   
  5   3   6  2   
  6   3  22  1   
  7   4   6  1   
  8   4  23  1   
  9   5   7  1   
 10   5  24  1   
 11   5  25  1   
 12   6  26  1   
 13   7   8  am  
 14   7  27  1   
 15   8   9  2   
 16   8  10  1   
 17  10  11  1   
 18  10  28  1   
 19  10  29  1   
 20  11  12  1   
 21  11  13  1   
 22  12  14  1   
 23  12  30  1   
 24  12  31  1   
 25  13  32  1   
 26  13  33  1   
 27  13  34  1   
 28  14  15  1   
 29  14  16  2   
 30  15  17  1   
 31  15  35  1   
 32  16  18  1   
 33  16  36  1   
 34  17  18  2   
 35  18  19  1   
 36  19  20  1   
 37  19  21  1   
 38  19  37  1   
 39  20  21  1   
 40  20  38  1   
 41  20  39  1   
 42  21  40  1   
 43  21  41  1   
@<TRIPOS>SUBSTRUCTURE
  1 ****  11 GROUP 4 **** **** 0

# MOE 2024.06 (io_trps.svl 2023.06)
