@<TRIPOS>MOLECULE
NONAME
52 54 1 0 0 
SMALL
USER_CHARGES


@<TRIPOS>ATOM
  1 O       -3.8090     1.7430    -2.1440 O.2   1 <1>  -0.5700 
  2 C       -2.7760     1.7280    -1.4990 C.2   1 <1>   0.5440 
  3 N       -1.9840     0.6250    -1.6070 N.am  1 <1>  -0.7300 
  4 C       -2.4050     2.8530    -0.6540 C.ar  1 <1>   0.0860 
  5 C       -2.2980    -0.6170    -2.3450 C.3   1 <1>   0.2200 
  6 C       -1.5760     2.7410     0.4770 C.ar  1 <1>   0.0820 
  7 C       -2.8880     4.1250    -0.9710 C.ar  1 <1>  -0.1500 
  8 C       -2.7950    -1.7100    -1.4050 C.3   1 <1>  -0.0800 
  9 C       -0.9980    -1.2360    -2.8410 C.3   1 <1>   0.1200 
 10 O       -1.1130     1.5130     0.8250 O.3   1 <1>  -0.3630 
 11 C       -1.2490     3.8710     1.2260 C.ar  1 <1>  -0.1500 
 12 C       -2.5640     5.2410    -0.2240 C.ar  1 <1>  -0.1500 
 13 C       -1.5010    -2.3730    -0.9170 C.3   1 <1>   0.1200 
 14 C       -3.7300    -1.2530    -0.2690 C.3   1 <1>  -0.0170 
 15 O       -0.4700    -1.9170    -1.7430 O.3   1 <1>  -0.5600 
 16 C       -0.2250     1.2840     1.8950 C.3   1 <1>   0.1200 
 17 C       -1.7390     5.1130     0.8770 C.ar  1 <1>  -0.1500 
 18 C       -4.2160    -2.4420     0.5460 C.ar  1 <1>  -0.1430 
 19 C        0.0700    -0.2150     1.9390 C.3   1 <1>  -0.1600 
 20 C       -5.2410    -3.2530     0.1030 C.ar  1 <1>  -0.1500 
 21 C       -3.6610    -2.7730     1.7650 C.ar  1 <1>  -0.1500 
 22 C        1.0300    -0.5670     3.0800 C.3   1 <1>  -0.1600 
 23 C       -5.6450    -4.3290     0.8750 C.ar  1 <1>   0.1600 
 24 C       -4.1390    -3.8720     2.4590 C.ar  1 <1>   0.1600 
 25 C        1.3050    -2.0730     3.1160 C.3   1 <1>  -0.2400 
 26 N       -5.1160    -4.6600     2.0420 N.ar  1 <1>  -0.6200 
 27 H       -1.1950     0.5450    -0.9550 H     1 <1>   0.3700 
 28 H       -2.9860    -0.4140    -3.1480 H     1 <1>   0.0800 
 29 H       -3.5320     4.2370    -1.8270 H     1 <1>   0.1500 
 30 H       -3.3200    -2.4360    -2.0000 H     1 <1>   0.0800 
 31 H       -0.2940    -0.5010    -3.1870 H     1 <1>   0.0800 
 32 H       -1.1910    -1.9580    -3.6150 H     1 <1>   0.0800 
 33 H       -0.6140     3.8070     2.0890 H     1 <1>   0.1500 
 34 H       -2.9530     6.2070    -0.4980 H     1 <1>   0.1500 
 35 H       -1.5550    -3.4450    -0.9850 H     1 <1>   0.0800 
 36 H       -1.2610    -2.0860     0.0910 H     1 <1>   0.0800 
 37 H       -4.5760    -0.7370    -0.6890 H     1 <1>   0.0800 
 38 H       -3.2230    -0.5620     0.3810 H     1 <1>   0.0800 
 39 H        0.6760     1.8470     1.7190 H     1 <1>   0.0800 
 40 H       -0.6980     1.6060     2.8070 H     1 <1>   0.0800 
 41 H       -1.4840     5.9820     1.4600 H     1 <1>   0.1500 
 42 H       -0.8540    -0.7460     2.0770 H     1 <1>   0.0800 
 43 H        0.5060    -0.5150     1.0010 H     1 <1>   0.0800 
 44 H       -5.7290    -3.0560    -0.8350 H     1 <1>   0.1500 
 45 H       -2.8640    -2.1880     2.1830 H     1 <1>   0.1500 
 46 H        1.9610    -0.0420     2.9470 H     1 <1>   0.0800 
 47 H        0.6050    -0.2620     4.0220 H     1 <1>   0.0800 
 48 H       -6.4460    -4.9510     0.5130 H     1 <1>   0.1500 
 49 H       -3.6940    -4.1160     3.4090 H     1 <1>   0.1500 
 50 H        1.7470    -2.3970     2.1900 H     1 <1>   0.0800 
 51 H        0.3920    -2.6200     3.2740 H     1 <1>   0.0800 
 52 H        1.9850    -2.3050     3.9170 H     1 <1>   0.0800 
@<TRIPOS>BOND
  1   1   2  2   
  2   2   3  am  
  3   2   4  1   
  4   3   5  1   
  5   3  27  1   
  6   4   6  ar  
  7   4   7  ar  
  8   5   8  1   
  9   5   9  1   
 10   5  28  1   
 11   6  10  1   
 12   6  11  ar  
 13   7  12  ar  
 14   7  29  1   
 15   8  13  1   
 16   8  14  1   
 17   8  30  1   
 18   9  15  1   
 19   9  31  1   
 20   9  32  1   
 21  10  16  1   
 22  11  17  ar  
 23  11  33  1   
 24  12  17  ar  
 25  12  34  1   
 26  13  15  1   
 27  13  35  1   
 28  13  36  1   
 29  14  18  1   
 30  14  37  1   
 31  14  38  1   
 32  16  19  1   
 33  16  39  1   
 34  16  40  1   
 35  17  41  1   
 36  18  20  ar  
 37  18  21  ar  
 38  19  22  1   
 39  19  42  1   
 40  19  43  1   
 41  20  23  ar  
 42  20  44  1   
 43  21  24  ar  
 44  21  45  1   
 45  22  25  1   
 46  22  46  1   
 47  22  47  1   
 48  23  26  ar  
 49  23  48  1   
 50  24  26  ar  
 51  24  49  1   
 52  25  50  1   
 53  25  51  1   
 54  25  52  1   
@<TRIPOS>SUBSTRUCTURE
  1 ****  14 GROUP 4 **** **** 0

# MOE 2024.06 (io_trps.svl 2023.06)
