@<TRIPOS>MOLECULE
NONAME
48 50 1 0 0 
SMALL
USER_CHARGES


@<TRIPOS>ATOM
  1 F       -1.5400     2.0710    -2.2850 F     1 <1>  -0.1900 
  2 C       -1.8570     2.1510    -1.0120 C.ar  1 <1>   0.1900 
  3 C       -0.8620     2.3670    -0.0600 C.ar  1 <1>   0.1000 
  4 C       -3.1830     2.0120    -0.6530 C.ar  1 <1>   0.1600 
  5 N        0.5030     2.5140    -0.3170 N.pl3 1 <1>  -0.8380 
  6 C       -1.3290     2.4140     1.2420 C.ar  1 <1>  -0.1500 
  7 N       -3.6240     2.0660     0.6000 N.ar  1 <1>  -0.6200 
  8 C        0.9130     3.6680    -1.1640 C.3   1 <1>   0.2090 
  9 C        1.2150     1.2470    -0.6400 C.3   1 <1>   0.1290 
 10 C       -2.6790     2.2630     1.5130 C.ar  1 <1>   0.1600 
 11 C        1.3210     4.8490    -0.2680 C.3   1 <1>  -0.0800 
 12 C        1.6670     6.0840    -1.1160 C.3   1 <1>  -0.1600 
 13 C        2.5090     4.4990     0.6490 C.3   1 <1>  -0.1600 
 14 C        2.1260     7.2570    -0.2480 C.3   1 <1>   0.3430 
 15 C        2.9520     5.6970     1.4860 C.3   1 <1>   0.3430 
 16 N        3.2880     6.8390     0.5910 N.4   1 <1>  -0.9590 
 17 C        3.8530     7.9840     1.3560 C.3   1 <1>   0.4860 
 18 C        4.3950     9.0010     0.3710 C.ar  1 <1>  -0.1430 
 19 C        5.5820     8.7570    -0.3060 C.ar  1 <1>  -0.1500 
 20 C        3.7040    10.1810     0.1340 C.ar  1 <1>  -0.1500 
 21 C        6.0640     9.6770    -1.2200 C.ar  1 <1>  -0.1500 
 22 C        4.1880    11.1000    -0.7800 C.ar  1 <1>  -0.1500 
 23 C        5.3670    10.8470    -1.4580 C.ar  1 <1>  -0.1500 
 24 H       -3.9120     1.8480    -1.4270 H     1 <1>   0.1500 
 25 H       -0.6300     2.5650     2.0420 H     1 <1>   0.1500 
 26 H        0.0920     3.9640    -1.7950 H     1 <1>   0.0800 
 27 H        1.7340     3.3870    -1.8020 H     1 <1>   0.0800 
 28 H        0.8230     0.4430    -0.0400 H     1 <1>   0.0800 
 29 H        2.2650     1.3510    -0.4320 H     1 <1>   0.0800 
 30 H        1.0800     1.0010    -1.6790 H     1 <1>   0.0800 
 31 H       -3.0050     2.3040     2.5380 H     1 <1>   0.1500 
 32 H        0.4700     5.0910     0.3470 H     1 <1>   0.0800 
 33 H        0.7990     6.3890    -1.6740 H     1 <1>   0.0800 
 34 H        2.4400     5.8460    -1.8270 H     1 <1>   0.0800 
 35 H        3.3380     4.1400     0.0650 H     1 <1>   0.0800 
 36 H        2.2220     3.7060     1.3180 H     1 <1>   0.0800 
 37 H        1.3140     7.5770     0.3840 H     1 <1>   0.0800 
 38 H        2.4060     8.0810    -0.8860 H     1 <1>   0.0800 
 39 H        3.8100     5.4210     2.0780 H     1 <1>   0.0800 
 40 H        2.1540     5.9790     2.1550 H     1 <1>   0.0800 
 41 H        4.0230     6.5360    -0.0590 H     1 <1>   0.4500 
 42 H        4.6550     7.6480     1.9920 H     1 <1>   0.0800 
 43 H        3.0930     8.4360     1.9720 H     1 <1>   0.0800 
 44 H        6.1490     7.8580    -0.1320 H     1 <1>   0.1500 
 45 H        2.7880    10.4040     0.6540 H     1 <1>   0.1500 
 46 H        6.9860     9.4900    -1.7460 H     1 <1>   0.1500 
 47 H        3.6530    12.0170    -0.9640 H     1 <1>   0.1500 
 48 H        5.7440    11.5640    -2.1690 H     1 <1>   0.1500 
@<TRIPOS>BOND
  1   1   2  1   
  2   2   3  ar  
  3   2   4  ar  
  4   3   5  1   
  5   3   6  ar  
  6   4   7  ar  
  7   4  24  1   
  8   5   8  1   
  9   5   9  1   
 10   6  10  ar  
 11   6  25  1   
 12   7  10  ar  
 13   8  11  1   
 14   8  26  1   
 15   8  27  1   
 16   9  28  1   
 17   9  29  1   
 18   9  30  1   
 19  10  31  1   
 20  11  12  1   
 21  11  13  1   
 22  11  32  1   
 23  12  14  1   
 24  12  33  1   
 25  12  34  1   
 26  13  15  1   
 27  13  35  1   
 28  13  36  1   
 29  14  16  1   
 30  14  37  1   
 31  14  38  1   
 32  15  16  1   
 33  15  39  1   
 34  15  40  1   
 35  16  17  1   
 36  16  41  1   
 37  17  18  1   
 38  17  42  1   
 39  17  43  1   
 40  18  19  ar  
 41  18  20  ar  
 42  19  21  ar  
 43  19  44  1   
 44  20  22  ar  
 45  20  45  1   
 46  21  23  ar  
 47  21  46  1   
 48  22  23  ar  
 49  22  47  1   
 50  23  48  1   
@<TRIPOS>SUBSTRUCTURE
  1 ****  11 GROUP 4 **** **** 0

# MOE 2024.06 (io_trps.svl 2023.06)
