@<TRIPOS>MOLECULE
NONAME
44 46 1 0 0 
SMALL
USER_CHARGES


@<TRIPOS>ATOM
  1 CL       0.6560    -1.3470    -2.3160 Cl    1 <1>  -0.1770 
  2 C        0.0560    -2.7120    -1.4000 C.ar  1 <1>   0.1770 
  3 C       -0.6970    -3.6980    -2.0220 C.ar  1 <1>  -0.1440 
  4 C        0.3510    -2.7780    -0.0510 C.ar  1 <1>  -0.1500 
  5 C       -1.1530    -4.7610    -1.2580 C.ar  1 <1>  -0.1500 
  6 C       -1.0200    -3.6200    -3.5070 C.3   1 <1>  -0.0960 
  7 C       -0.1110    -3.8470     0.6960 C.ar  1 <1>  -0.1500 
  8 C       -0.8710    -4.8510     0.1030 C.ar  1 <1>   0.1170 
  9 N       -1.3610    -5.9580     0.8100 N.am  1 <1>  -0.5470 
 10 C       -1.4580    -6.2540     2.1400 C.2   1 <1>   0.5690 
 11 O       -1.1000    -5.5240     3.0320 O.2   1 <1>  -0.5700 
 12 C       -2.0680    -7.6130     2.4940 C.3   1 <1>   0.1710 
 13 N       -2.8360    -8.2510     1.3760 N.3   1 <1>  -0.8100 
 14 C       -3.0260    -9.6860     1.6420 C.3   1 <1>   0.2900 
 15 C       -4.1440    -7.5830     1.2040 C.3   1 <1>   0.0300 
 16 C       -3.5580   -10.3530     0.3940 C.2   1 <1>  -0.3320 
 17 N       -2.9930   -10.1740    -0.8140 N.pl3 1 <1>   0.3000 
 18 C       -4.6060   -11.1840     0.2090 C.2   1 <1>  -0.1500 
 19 N       -3.6390   -10.8580    -1.7760 N.2   1 <1>  -0.7070 
 20 C       -4.6040   -11.4650    -1.1530 C.2   1 <1>   0.2030 
 21 C       -5.6030   -12.3640    -1.8570 C.3   1 <1>  -0.0140 
 22 C       -6.0630   -13.6490    -1.2340 C.3   1 <1>  -0.2000 
 23 C       -5.1480   -13.6770    -2.4180 C.3   1 <1>  -0.2000 
 24 H        0.9360    -2.0010     0.4060 H     1 <1>   0.1500 
 25 H       -1.7390    -5.5330    -1.7200 H     1 <1>   0.1500 
 26 H       -1.5690    -2.7200    -3.7160 H     1 <1>   0.0800 
 27 H       -1.6110    -4.4620    -3.8200 H     1 <1>   0.0800 
 28 H       -0.1090    -3.6110    -4.0800 H     1 <1>   0.0800 
 29 H        0.1260    -3.8930     1.7430 H     1 <1>   0.1500 
 30 H       -1.8010    -6.6920     0.2480 H     1 <1>   0.3700 
 31 H       -2.7010    -7.4950     3.3560 H     1 <1>   0.0800 
 32 H       -1.2480    -8.2500     2.7750 H     1 <1>   0.0800 
 33 H       -3.7060    -9.8320     2.4650 H     1 <1>   0.0800 
 34 H       -2.0820   -10.1390     1.8940 H     1 <1>   0.0800 
 35 H       -4.0140    -6.5280     1.0330 H     1 <1>   0.0800 
 36 H       -4.7560    -7.7160     2.0800 H     1 <1>   0.0800 
 37 H       -4.6660    -7.9940     0.3550 H     1 <1>   0.0800 
 38 H       -2.1820    -9.5730    -1.0030 H     1 <1>   0.2700 
 39 H       -5.3100   -11.5660     0.9260 H     1 <1>   0.1500 
 40 H       -6.3060   -11.8020    -2.4440 H     1 <1>   0.1000 
 41 H       -7.0900   -13.9430    -1.3640 H     1 <1>   0.1000 
 42 H       -5.6650   -13.9420    -0.2790 H     1 <1>   0.1000 
 43 H       -4.1140   -13.9450    -2.2830 H     1 <1>   0.1000 
 44 H       -5.5310   -13.9790    -3.3770 H     1 <1>   0.1000 
@<TRIPOS>BOND
  1   1   2  1   
  2   2   3  ar  
  3   2   4  ar  
  4   3   5  ar  
  5   3   6  1   
  6   4   7  ar  
  7   4  24  1   
  8   5   8  ar  
  9   5  25  1   
 10   6  26  1   
 11   6  27  1   
 12   6  28  1   
 13   7   8  ar  
 14   7  29  1   
 15   8   9  1   
 16   9  10  am  
 17   9  30  1   
 18  10  11  2   
 19  10  12  1   
 20  12  13  1   
 21  12  31  1   
 22  12  32  1   
 23  13  14  1   
 24  13  15  1   
 25  14  16  1   
 26  14  33  1   
 27  14  34  1   
 28  15  35  1   
 29  15  36  1   
 30  15  37  1   
 31  16  17  1   
 32  16  18  2   
 33  17  19  1   
 34  17  38  1   
 35  18  20  1   
 36  18  39  1   
 37  19  20  2   
 38  20  21  1   
 39  21  22  1   
 40  21  23  1   
 41  21  40  1   
 42  22  23  1   
 43  22  41  1   
 44  22  42  1   
 45  23  43  1   
 46  23  44  1   
@<TRIPOS>SUBSTRUCTURE
  1 ****  13 GROUP 4 **** **** 0

# MOE 2024.06 (io_trps.svl 2023.06)
