@<TRIPOS>MOLECULE
NONAME
42 44 1 0 0 
SMALL
USER_CHARGES


@<TRIPOS>ATOM
  1 S        0.0900    -0.3850     1.3120 S.3   1 <1>  -0.3320 
  2 C       -0.0770    -2.0300     0.6400 C.ar  1 <1>   0.7220 
  3 C       -0.8590     0.7100     0.1630 C.3   1 <1>  -0.0100 
  4 N        0.5600    -2.9750     1.3110 N.ar  1 <1>  -0.6200 
  5 N       -0.8190    -2.1480    -0.4510 N.ar  1 <1>  -0.6200 
  6 C        0.4370    -4.1820     0.8200 C.ar  1 <1>   0.1600 
  7 C       -0.9230    -3.3690    -0.9170 C.ar  1 <1>   0.1600 
  8 C       -0.3190    -4.4450    -0.3020 C.ar  1 <1>  -0.1430 
  9 C       -0.4830    -5.8510    -0.8370 C.3   1 <1>   0.4870 
 10 N       -1.4240    -6.6220     0.0340 N.4   1 <1>  -0.9590 
 11 C       -1.4970    -8.0620    -0.3900 C.3   1 <1>   0.3430 
 12 C       -2.7830    -5.9930     0.0890 C.3   1 <1>   0.3430 
 13 C       -2.3840    -8.8960     0.5560 C.3   1 <1>   0.0580 
 14 C       -3.6710    -6.7690     1.0640 C.3   1 <1>  -0.1600 
 15 C       -2.5210   -10.3480     0.0970 C.2   1 <1>  -0.0380 
 16 C       -3.7760    -8.2560     0.6950 C.3   1 <1>  -0.1600 
 17 N       -2.9400   -11.2720     1.0230 N.pl3 1 <1>  -0.5500 
 18 C       -2.2770   -10.8260    -1.1480 C.2   1 <1>  -0.1360 
 19 C       -3.0930   -12.5930     0.6960 C.2   1 <1>   0.4400 
 20 C       -2.4460   -12.2070    -1.4370 C.2   1 <1>   0.7670 
 21 N       -2.8640   -13.0740    -0.4690 N.2   1 <1>  -0.6610 
 22 O       -2.2150   -12.6280    -2.5570 O.2   1 <1>  -0.5700 
 23 H       -0.7770     1.7170     0.5290 H     1 <1>   0.0800 
 24 H       -1.8820     0.3810     0.1630 H     1 <1>   0.0800 
 25 H       -0.4230     0.6180    -0.8160 H     1 <1>   0.0800 
 26 H        0.9580    -4.9700     1.3390 H     1 <1>   0.1500 
 27 H       -1.5110    -3.4990    -1.8120 H     1 <1>   0.1500 
 28 H        0.4810    -6.3350    -0.8570 H     1 <1>   0.0800 
 29 H       -0.8600    -5.8150    -1.8460 H     1 <1>   0.0800 
 30 H       -1.0510    -6.5900     0.9930 H     1 <1>   0.4500 
 31 H       -0.5080    -8.4930    -0.4080 H     1 <1>   0.0800 
 32 H       -1.9050    -8.1190    -1.3860 H     1 <1>   0.0800 
 33 H       -3.2330    -6.0030    -0.8910 H     1 <1>   0.0800 
 34 H       -2.7100    -4.9680     0.4190 H     1 <1>   0.0800 
 35 H       -1.9040    -8.9050     1.5200 H     1 <1>   0.0800 
 36 H       -4.6570    -6.3340     1.0560 H     1 <1>   0.0800 
 37 H       -3.2860    -6.6600     2.0630 H     1 <1>   0.0800 
 38 H       -4.3450    -8.7730     1.4490 H     1 <1>   0.0800 
 39 H       -4.3100    -8.3570    -0.2360 H     1 <1>   0.0800 
 40 H       -3.1650   -11.0070     1.9870 H     1 <1>   0.4000 
 41 H       -1.9550   -10.2340    -1.9800 H     1 <1>   0.1500 
 42 H       -3.4270   -13.2500     1.4810 H     1 <1>   0.0600 
@<TRIPOS>BOND
  1   1   2  1   
  2   1   3  1   
  3   2   4  ar  
  4   2   5  ar  
  5   3  23  1   
  6   3  24  1   
  7   3  25  1   
  8   4   6  ar  
  9   5   7  ar  
 10   6   8  ar  
 11   6  26  1   
 12   7   8  ar  
 13   7  27  1   
 14   8   9  1   
 15   9  10  1   
 16   9  28  1   
 17   9  29  1   
 18  10  11  1   
 19  10  12  1   
 20  10  30  1   
 21  11  13  1   
 22  11  31  1   
 23  11  32  1   
 24  12  14  1   
 25  12  33  1   
 26  12  34  1   
 27  13  15  1   
 28  13  16  1   
 29  13  35  1   
 30  14  16  1   
 31  14  36  1   
 32  14  37  1   
 33  15  17  1   
 34  15  18  2   
 35  16  38  1   
 36  16  39  1   
 37  17  19  1   
 38  17  40  1   
 39  18  20  1   
 40  18  41  1   
 41  19  21  2   
 42  19  42  1   
 43  20  21  1   
 44  20  22  2   
@<TRIPOS>SUBSTRUCTURE
  1 ****  10 GROUP 4 **** **** 0

# MOE 2024.06 (io_trps.svl 2023.06)
