@<TRIPOS>MOLECULE
NONAME
51 54 1 0 0 
SMALL
USER_CHARGES


@<TRIPOS>ATOM
  1 O        0.3380     1.6120     1.9710 O.2   1 <1>  -0.5700 
  2 C        0.4460     2.7200     1.4710 C.2   1 <1>   0.7150 
  3 N       -0.7070     3.4180     1.1560 N.am  1 <1>  -0.6600 
  4 C        1.7590     3.2820     1.2470 C.2   1 <1>   0.0550 
  5 C       -2.0540     2.9540     1.6070 C.3   1 <1>   0.1400 
  6 C       -0.7620     4.5140     0.1500 C.3   1 <1>   0.1400 
  7 O        2.7420     2.5410     0.7310 O.3   1 <1>  -0.2800 
  8 C        2.2480     4.5350     1.4880 C.2   1 <1>  -0.1500 
  9 C       -2.8770     2.4210     0.4190 C.3   1 <1>   0.0000 
 10 C       -1.5670     4.0590    -1.0720 C.3   1 <1>  -0.1600 
 11 C        3.8250     3.2840     0.6460 C.2   1 <1>   0.2030 
 12 C        3.5860     4.5360     1.0950 C.2   1 <1>  -0.1500 
 13 C       -4.2660     1.9600     0.8980 C.3   1 <1>   0.2000 
 14 C       -2.9530     3.5140    -0.6840 C.3   1 <1>  -0.1600 
 15 C       -2.3080     1.1070    -0.1460 C.3   1 <1>  -0.1600 
 16 O        4.9850     2.7900     0.1500 O.3   1 <1>  -0.1460 
 17 O       -5.1460     3.0330     1.0540 O.3   1 <1>  -0.5600 
 18 C       -4.7570     0.9720    -0.1630 C.3   1 <1>  -0.1600 
 19 C       -3.4910     0.3880    -0.8050 C.3   1 <1>  -0.1600 
 20 C        5.2260     1.4650    -0.0270 C.ar  1 <1>   0.0820 
 21 C       -6.3200     2.7380     1.7430 C.3   1 <1>   0.0400 
 22 C        5.9580     1.0870    -1.1430 C.ar  1 <1>  -0.1500 
 23 C        4.7960     0.4960     0.8730 C.ar  1 <1>  -0.1500 
 24 C        6.2490    -0.2480    -1.3670 C.ar  1 <1>  -0.1500 
 25 C        5.0850    -0.8380     0.6470 C.ar  1 <1>  -0.1500 
 26 C        5.8100    -1.2110    -0.4730 C.ar  1 <1>  -0.1500 
 27 H       -1.9580     2.1910     2.3600 H     1 <1>   0.0800 
 28 H       -2.5750     3.7840     2.0520 H     1 <1>   0.0800 
 29 H       -1.2340     5.3720     0.5960 H     1 <1>   0.0800 
 30 H        0.2240     4.8000    -0.1700 H     1 <1>   0.0800 
 31 H        1.7190     5.3720     1.9080 H     1 <1>   0.1500 
 32 H       -1.6890     4.8930    -1.7410 H     1 <1>   0.0800 
 33 H       -1.0050     3.3100    -1.6000 H     1 <1>   0.0800 
 34 H        4.2720     5.3610     1.1470 H     1 <1>   0.1500 
 35 H       -4.1620     1.4530     1.8440 H     1 <1>   0.0800 
 36 H       -3.4500     3.1350    -1.5590 H     1 <1>   0.0800 
 37 H       -3.5390     4.3400    -0.3200 H     1 <1>   0.0800 
 38 H       -1.4940     1.2540    -0.8320 H     1 <1>   0.0800 
 39 H       -1.9440     0.5000     0.6660 H     1 <1>   0.0800 
 40 H       -5.3550     0.1980     0.2830 H     1 <1>   0.0800 
 41 H       -5.3320     1.4910    -0.9110 H     1 <1>   0.0800 
 42 H       -3.4230    -0.6750    -0.6490 H     1 <1>   0.0800 
 43 H       -3.4980     0.5840    -1.8630 H     1 <1>   0.0800 
 44 H       -6.8960     3.6430     1.8240 H     1 <1>   0.0800 
 45 H       -6.0740     2.3760     2.7260 H     1 <1>   0.0800 
 46 H       -6.8820     2.0020     1.1960 H     1 <1>   0.0800 
 47 H        6.2960     1.8380    -1.8330 H     1 <1>   0.1500 
 48 H        4.2390     0.7770     1.7500 H     1 <1>   0.1500 
 49 H        6.8140    -0.5380    -2.2350 H     1 <1>   0.1500 
 50 H        4.7440    -1.5850     1.3420 H     1 <1>   0.1500 
 51 H        6.0330    -2.2490    -0.6470 H     1 <1>   0.1500 
@<TRIPOS>BOND
  1   1   2  2   
  2   2   3  am  
  3   2   4  1   
  4   3   5  1   
  5   3   6  1   
  6   4   7  1   
  7   4   8  2   
  8   5   9  1   
  9   5  27  1   
 10   5  28  1   
 11   6  10  1   
 12   6  29  1   
 13   6  30  1   
 14   7  11  1   
 15   8  12  1   
 16   8  31  1   
 17   9  13  1   
 18   9  14  1   
 19   9  15  1   
 20  10  14  1   
 21  10  32  1   
 22  10  33  1   
 23  11  12  2   
 24  11  16  1   
 25  12  34  1   
 26  13  17  1   
 27  13  18  1   
 28  13  35  1   
 29  14  36  1   
 30  14  37  1   
 31  15  19  1   
 32  15  38  1   
 33  15  39  1   
 34  16  20  1   
 35  17  21  1   
 36  18  19  1   
 37  18  40  1   
 38  18  41  1   
 39  19  42  1   
 40  19  43  1   
 41  20  22  ar  
 42  20  23  ar  
 43  21  44  1   
 44  21  45  1   
 45  21  46  1   
 46  22  24  ar  
 47  22  47  1   
 48  23  25  ar  
 49  23  48  1   
 50  24  26  ar  
 51  24  49  1   
 52  25  26  ar  
 53  25  50  1   
 54  26  51  1   
@<TRIPOS>SUBSTRUCTURE
  1 ****   2 GROUP 4 **** **** 0

# MOE 2024.06 (io_trps.svl 2023.06)
