@<TRIPOS>MOLECULE
NONAME
61 64 1 0 0 
SMALL
USER_CHARGES


@<TRIPOS>ATOM
  1 O       -2.2100     0.8690    -1.7960 O.2   1 <1>  -0.5700 
  2 C       -2.1400     0.9770    -0.5960 C.2   1 <1>   0.5690 
  3 N       -2.2190    -0.0970     0.2250 N.am  1 <1>  -0.7300 
  4 C       -1.9640     2.3700     0.0020 C.3   1 <1>  -0.0190 
  5 C       -2.3740    -1.4970    -0.2330 C.3   1 <1>   0.2200 
  6 C       -3.1630     3.2700    -0.3550 C.3   1 <1>  -0.1600 
  7 C       -0.6490     3.0090    -0.4860 C.3   1 <1>  -0.1600 
  8 C       -3.8010    -1.9510     0.0360 C.3   1 <1>  -0.0800 
  9 C       -1.5840    -2.4140     0.6890 C.3   1 <1>   0.1200 
 10 C       -2.9570     4.7150     0.0920 C.3   1 <1>   0.3430 
 11 C       -0.5080     4.4610    -0.0350 C.3   1 <1>   0.3430 
 12 C       -3.7320    -2.4560     1.4860 C.3   1 <1>   0.1200 
 13 C       -4.2340    -3.0550    -0.9470 C.3   1 <1>  -0.0170 
 14 O       -2.3780    -2.5540     1.8250 O.3   1 <1>  -0.5600 
 15 N       -1.6940     5.2420    -0.4970 N.4   1 <1>  -0.9590 
 16 C       -5.6700    -3.4890    -0.6970 C.ar  1 <1>  -0.1440 
 17 C       -1.5800     6.7170    -0.3020 C.3   1 <1>   0.4230 
 18 C       -6.7390    -2.7010    -1.0730 C.ar  1 <1>  -0.1500 
 19 C       -5.9820    -4.6880    -0.0870 C.ar  1 <1>  -0.1500 
 20 C       -0.5220     7.2940    -1.2510 C.3   1 <1>  -0.1600 
 21 C       -1.2820     7.1020     1.1580 C.3   1 <1>  -0.1600 
 22 C       -8.0310    -3.1330    -0.8210 C.ar  1 <1>   0.1600 
 23 C       -7.3090    -5.0260     0.1180 C.ar  1 <1>   0.1600 
 24 C       -0.4380     8.8210    -1.1070 C.3   1 <1>  -0.1600 
 25 C       -1.2020     8.6290     1.3080 C.3   1 <1>  -0.1600 
 26 N       -8.3420    -4.2770    -0.2330 N.ar  1 <1>  -0.6200 
 27 C       -0.1640     9.2270     0.3480 C.3   1 <1>  -0.1600 
 28 H       -2.1830    -0.0110     1.2430 H     1 <1>   0.3700 
 29 H       -1.9170     2.2760     1.0730 H     1 <1>   0.0800 
 30 H       -2.0790    -1.5950    -1.2640 H     1 <1>   0.0800 
 31 H       -4.0510     2.8790     0.1110 H     1 <1>   0.0800 
 32 H       -3.3300     3.2530    -1.4190 H     1 <1>   0.0800 
 33 H       -0.5980     2.9710    -1.5610 H     1 <1>   0.0800 
 34 H        0.1840     2.4410    -0.1090 H     1 <1>   0.0800 
 35 H       -4.4900    -1.1300    -0.0490 H     1 <1>   0.0800 
 36 H       -0.6250    -2.0100     0.9620 H     1 <1>   0.0800 
 37 H       -1.4590    -3.3880     0.2500 H     1 <1>   0.0800 
 38 H       -2.9060     4.7590     1.1680 H     1 <1>   0.0800 
 39 H       -3.7950     5.3120    -0.2340 H     1 <1>   0.0800 
 40 H        0.3970     4.8740    -0.4500 H     1 <1>   0.0800 
 41 H       -0.4380     4.5020     1.0400 H     1 <1>   0.0800 
 42 H       -4.1850    -3.4230     1.6130 H     1 <1>   0.0800 
 43 H       -4.1900    -1.7570     2.1630 H     1 <1>   0.0800 
 44 H       -3.5800    -3.9060    -0.8660 H     1 <1>   0.0800 
 45 H       -4.1590    -2.6840    -1.9550 H     1 <1>   0.0800 
 46 H       -1.7620     5.0910    -1.5120 H     1 <1>   0.4500 
 47 H       -2.5220     7.1680    -0.5700 H     1 <1>   0.0800 
 48 H       -6.5810    -1.7560    -1.5590 H     1 <1>   0.1500 
 49 H       -5.2090    -5.3620     0.2320 H     1 <1>   0.1500 
 50 H        0.4480     6.8840    -1.0310 H     1 <1>   0.0800 
 51 H       -0.7740     7.0580    -2.2700 H     1 <1>   0.0800 
 52 H       -2.0570     6.7380     1.8090 H     1 <1>   0.0800 
 53 H       -0.3420     6.6880     1.4740 H     1 <1>   0.0800 
 54 H       -8.8520    -2.5050    -1.1210 H     1 <1>   0.1500 
 55 H       -7.5340    -5.9650     0.5960 H     1 <1>   0.1500 
 56 H        0.3480     9.2030    -1.7370 H     1 <1>   0.0800 
 57 H       -1.3620     9.2690    -1.4330 H     1 <1>   0.0800 
 58 H       -2.1650     9.0660     1.1060 H     1 <1>   0.0800 
 59 H       -0.9360     8.8810     2.3210 H     1 <1>   0.0800 
 60 H       -0.1790    10.3010     0.4290 H     1 <1>   0.0800 
 61 H        0.8210     8.8970     0.6330 H     1 <1>   0.0800 
@<TRIPOS>BOND
  1   1   2  2   
  2   2   3  am  
  3   2   4  1   
  4   3   5  1   
  5   3  28  1   
  6   4   6  1   
  7   4   7  1   
  8   4  29  1   
  9   5   8  1   
 10   5   9  1   
 11   5  30  1   
 12   6  10  1   
 13   6  31  1   
 14   6  32  1   
 15   7  11  1   
 16   7  33  1   
 17   7  34  1   
 18   8  12  1   
 19   8  13  1   
 20   8  35  1   
 21   9  14  1   
 22   9  36  1   
 23   9  37  1   
 24  10  15  1   
 25  10  38  1   
 26  10  39  1   
 27  11  15  1   
 28  11  40  1   
 29  11  41  1   
 30  12  14  1   
 31  12  42  1   
 32  12  43  1   
 33  13  16  1   
 34  13  44  1   
 35  13  45  1   
 36  15  17  1   
 37  15  46  1   
 38  16  18  ar  
 39  16  19  ar  
 40  17  20  1   
 41  17  21  1   
 42  17  47  1   
 43  18  22  ar  
 44  18  48  1   
 45  19  23  ar  
 46  19  49  1   
 47  20  24  1   
 48  20  50  1   
 49  20  51  1   
 50  21  25  1   
 51  21  52  1   
 52  21  53  1   
 53  22  26  ar  
 54  22  54  1   
 55  23  26  ar  
 56  23  55  1   
 57  24  27  1   
 58  24  56  1   
 59  24  57  1   
 60  25  27  1   
 61  25  58  1   
 62  25  59  1   
 63  27  60  1   
 64  27  61  1   
@<TRIPOS>SUBSTRUCTURE
  1 ****   2 GROUP 4 **** **** 0

# MOE 2024.06 (io_trps.svl 2023.06)
