@<TRIPOS>MOLECULE
NONAME
45 47 1 0 0 
SMALL
USER_CHARGES


@<TRIPOS>ATOM
  1 O       -0.5310     0.2480    -0.3150 O.2   1 <1>  -0.5700 
  2 C       -1.4870     0.8820     0.1030 C.2   1 <1>   0.7160 
  3 N       -2.6660     0.1860     0.3150 N.am  1 <1>  -0.6600 
  4 C       -1.3300     2.3130     0.3380 C.2   1 <1>   0.2030 
  5 C       -2.7010    -1.3080     0.4360 C.3   1 <1>   0.1400 
  6 C       -4.0270     0.8040     0.3390 C.3   1 <1>   0.1400 
  7 N       -2.1090     3.1130     1.0100 N.2   1 <1>  -0.4100 
  8 C       -0.2590     3.0620    -0.1310 C.2   1 <1>  -0.1500 
  9 C       -3.7260    -1.9250    -0.5300 C.3   1 <1>   0.3440 
 10 C       -4.9980     0.0620    -0.6110 C.3   1 <1>   0.2000 
 11 O       -1.6300     4.3330     1.0070 O.3   1 <1>  -0.0190 
 12 C       -0.5120     4.2940     0.3180 C.2   1 <1>  -0.0400 
 13 O       -4.9770    -1.3140    -0.3520 O.3   1 <1>  -0.5600 
 14 C       -3.8530    -3.4270    -0.2910 C.ar  1 <1>  -0.1430 
 15 C       -6.4650     0.5430    -0.5210 C.3   1 <1>  -0.0800 
 16 C        0.2810     5.5720     0.1460 C.3   1 <1>  -0.0600 
 17 C       -3.0700    -4.3060    -1.0260 C.ar  1 <1>  -0.1500 
 18 C       -4.7270    -3.9370     0.6590 C.ar  1 <1>  -0.1500 
 19 C       -6.6120     2.0190    -0.9240 C.3   1 <1>  -0.2400 
 20 C       -7.1060     0.3190     0.8600 C.3   1 <1>  -0.2400 
 21 C       -3.1590    -5.6720    -0.8140 C.ar  1 <1>  -0.1500 
 22 C       -4.8170    -5.3010     0.8730 C.ar  1 <1>  -0.1500 
 23 C       -4.0320    -6.1700     0.1360 C.ar  1 <1>  -0.1500 
 24 H       -1.7340    -1.7340     0.2360 H     1 <1>   0.0800 
 25 H       -2.9700    -1.5720     1.4430 H     1 <1>   0.0800 
 26 H       -4.4030     0.7780     1.3450 H     1 <1>   0.0800 
 27 H       -3.9790     1.8300     0.0270 H     1 <1>   0.0800 
 28 H        0.5610     2.6850    -0.7150 H     1 <1>   0.1500 
 29 H       -3.4160    -1.7520    -1.5460 H     1 <1>   0.0800 
 30 H       -4.6620     0.2040    -1.6240 H     1 <1>   0.0800 
 31 H       -7.0210    -0.0390    -1.2380 H     1 <1>   0.0800 
 32 H        1.1670     5.3880    -0.4350 H     1 <1>   0.0800 
 33 H        0.5690     5.9540     1.1090 H     1 <1>   0.0800 
 34 H       -0.3190     6.3090    -0.3560 H     1 <1>   0.0800 
 35 H       -2.3850    -3.9340    -1.7680 H     1 <1>   0.1500 
 36 H       -5.3440    -3.2680     1.2350 H     1 <1>   0.1500 
 37 H       -6.1390     2.6670    -0.2080 H     1 <1>   0.0800 
 38 H       -7.6540     2.2830    -0.9770 H     1 <1>   0.0800 
 39 H       -6.1740     2.1900    -1.8910 H     1 <1>   0.0800 
 40 H       -6.6400     0.9280     1.6120 H     1 <1>   0.0800 
 41 H       -7.0180    -0.7140     1.1490 H     1 <1>   0.0800 
 42 H       -8.1520     0.5660     0.8250 H     1 <1>   0.0800 
 43 H       -2.5490    -6.3460    -1.3890 H     1 <1>   0.1500 
 44 H       -5.5000    -5.6850     1.6100 H     1 <1>   0.1500 
 45 H       -4.1020    -7.2310     0.3010 H     1 <1>   0.1500 
@<TRIPOS>BOND
  1   1   2  2   
  2   2   3  am  
  3   2   4  1   
  4   3   5  1   
  5   3   6  1   
  6   4   7  2   
  7   4   8  1   
  8   5   9  1   
  9   5  24  1   
 10   5  25  1   
 11   6  10  1   
 12   6  26  1   
 13   6  27  1   
 14   7  11  1   
 15   8  12  2   
 16   8  28  1   
 17   9  13  1   
 18   9  14  1   
 19   9  29  1   
 20  10  13  1   
 21  10  15  1   
 22  10  30  1   
 23  11  12  1   
 24  12  16  1   
 25  14  17  ar  
 26  14  18  ar  
 27  15  19  1   
 28  15  20  1   
 29  15  31  1   
 30  16  32  1   
 31  16  33  1   
 32  16  34  1   
 33  17  21  ar  
 34  17  35  1   
 35  18  22  ar  
 36  18  36  1   
 37  19  37  1   
 38  19  38  1   
 39  19  39  1   
 40  20  40  1   
 41  20  41  1   
 42  20  42  1   
 43  21  23  ar  
 44  21  43  1   
 45  22  23  ar  
 46  22  44  1   
 47  23  45  1   
@<TRIPOS>SUBSTRUCTURE
  1 ****   3 GROUP 4 **** **** 0

# MOE 2024.06 (io_trps.svl 2023.06)
