@<TRIPOS>MOLECULE
NONAME
53 55 1 0 0 
SMALL
USER_CHARGES


@<TRIPOS>ATOM
  1 S       -0.3170     0.3550     0.9190 S.o2  1 <1>   1.4470 
  2 O       -0.1890    -0.9470     1.5350 O.2   1 <1>  -0.6500 
  3 O       -0.8290     1.4350     1.7300 O.2   1 <1>  -0.6500 
  4 N       -1.4460     0.2150    -0.3210 N.am  1 <1>  -0.9140 
  5 C        1.2390     0.8200     0.1200 C.ar  1 <1>  -0.0090 
  6 C       -1.6730    -1.0600    -1.0060 C.3   1 <1>   0.2760 
  7 C        1.3440     1.9750    -0.6450 C.ar  1 <1>   0.0830 
  8 C        2.3740     0.0270     0.2560 C.ar  1 <1>  -0.1500 
  9 C       -2.3850    -2.1160    -0.1540 C.3   1 <1>  -0.0800 
 10 C       -0.4240    -1.7730    -1.5380 C.3   1 <1>   0.1200 
 11 O        0.2750     2.7790    -0.8140 O.3   1 <1>  -0.3630 
 12 C        2.5360     2.3150    -1.2650 C.ar  1 <1>  -0.1500 
 13 C        3.5770     0.3540    -0.3530 C.ar  1 <1>  -0.1430 
 14 C       -1.4370    -3.3170    -0.2420 C.3   1 <1>   0.1200 
 15 C       -3.7830    -2.4380    -0.7130 C.3   1 <1>  -0.0170 
 16 O       -0.7080    -3.1290    -1.4100 O.3   1 <1>  -0.5600 
 17 C        0.2720     3.9870    -0.0870 C.3   1 <1>   0.0400 
 18 C        3.6480     1.5090    -1.1190 C.ar  1 <1>  -0.1500 
 19 C        4.7920    -0.5550    -0.1750 C.3   1 <1>   0.0630 
 20 C       -4.4950    -3.5000     0.1130 C.ar  1 <1>  -0.1430 
 21 C        5.9400     0.1930     0.5090 C.3   1 <1>  -0.2400 
 22 C        5.2420    -1.1320    -1.5210 C.3   1 <1>  -0.2400 
 23 C       -4.6910    -4.7820    -0.3600 C.ar  1 <1>  -0.1500 
 24 C       -4.9850    -3.2360     1.3760 C.ar  1 <1>  -0.1500 
 25 C       -5.3470    -5.7110     0.4310 C.ar  1 <1>   0.1600 
 26 C       -5.6260    -4.2380     2.0860 C.ar  1 <1>   0.1600 
 27 N       -5.8190    -5.4700     1.6440 N.ar  1 <1>  -0.6200 
 28 H       -2.3110     0.5450     0.0970 H     1 <1>   0.4200 
 29 H       -2.2840    -0.8440    -1.8660 H     1 <1>   0.0800 
 30 H        2.3110    -0.8680     0.8520 H     1 <1>   0.1500 
 31 H       -2.4800    -1.8150     0.8730 H     1 <1>   0.0800 
 32 H        0.4540    -1.5750    -0.9540 H     1 <1>   0.0800 
 33 H       -0.2420    -1.5520    -2.5740 H     1 <1>   0.0800 
 34 H        2.5890     3.2060    -1.8650 H     1 <1>   0.1500 
 35 H       -1.9410    -4.2660    -0.2880 H     1 <1>   0.0800 
 36 H       -0.7440    -3.3190     0.5840 H     1 <1>   0.0800 
 37 H       -3.6960    -2.7730    -1.7320 H     1 <1>   0.0800 
 38 H       -4.3830    -1.5450    -0.7140 H     1 <1>   0.0800 
 39 H       -0.6520     4.4980    -0.2890 H     1 <1>   0.0800 
 40 H        1.1040     4.5910    -0.4010 H     1 <1>   0.0800 
 41 H        0.3430     3.7620     0.9630 H     1 <1>   0.0800 
 42 H        4.5670     1.7830    -1.6050 H     1 <1>   0.1500 
 43 H        4.5170    -1.3820     0.4590 H     1 <1>   0.0800 
 44 H        6.2940     1.0000    -0.1070 H     1 <1>   0.0800 
 45 H        6.7590    -0.4780     0.6990 H     1 <1>   0.0800 
 46 H        5.6050     0.5980     1.4470 H     1 <1>   0.0800 
 47 H        5.5750    -0.3530    -2.1820 H     1 <1>   0.0800 
 48 H        4.4240    -1.6520    -1.9880 H     1 <1>   0.0800 
 49 H        6.0490    -1.8280    -1.3760 H     1 <1>   0.0800 
 50 H       -4.3400    -5.0700    -1.3340 H     1 <1>   0.1500 
 51 H       -4.8740    -2.2620     1.8170 H     1 <1>   0.1500 
 52 H       -5.4900    -6.7060     0.0460 H     1 <1>   0.1500 
 53 H       -6.0000    -4.0130     3.0700 H     1 <1>   0.1500 
@<TRIPOS>BOND
  1   1   2  2   
  2   1   3  2   
  3   1   4  am  
  4   1   5  1   
  5   4   6  1   
  6   4  28  1   
  7   5   7  ar  
  8   5   8  ar  
  9   6   9  1   
 10   6  10  1   
 11   6  29  1   
 12   7  11  1   
 13   7  12  ar  
 14   8  13  ar  
 15   8  30  1   
 16   9  14  1   
 17   9  15  1   
 18   9  31  1   
 19  10  16  1   
 20  10  32  1   
 21  10  33  1   
 22  11  17  1   
 23  12  18  ar  
 24  12  34  1   
 25  13  18  ar  
 26  13  19  1   
 27  14  16  1   
 28  14  35  1   
 29  14  36  1   
 30  15  20  1   
 31  15  37  1   
 32  15  38  1   
 33  17  39  1   
 34  17  40  1   
 35  17  41  1   
 36  18  42  1   
 37  19  21  1   
 38  19  22  1   
 39  19  43  1   
 40  20  23  ar  
 41  20  24  ar  
 42  21  44  1   
 43  21  45  1   
 44  21  46  1   
 45  22  47  1   
 46  22  48  1   
 47  22  49  1   
 48  23  25  ar  
 49  23  50  1   
 50  24  26  ar  
 51  24  51  1   
 52  25  27  ar  
 53  25  52  1   
 54  26  27  ar  
 55  26  53  1   
@<TRIPOS>SUBSTRUCTURE
  1 ****   6 GROUP 4 **** **** 0

# MOE 2024.06 (io_trps.svl 2023.06)
