@<TRIPOS>MOLECULE
NONAME
55 58 1 0 0 
SMALL
USER_CHARGES


@<TRIPOS>ATOM
  1 O       -1.4380    -2.6700    -1.3660 O.2   1 <1>  -0.5700 
  2 C       -0.8380    -2.2780    -0.3790 C.2   1 <1>   0.5440 
  3 N       -1.3880    -1.2240     0.3080 N.am  1 <1>  -0.7300 
  4 C        0.3980    -2.9070     0.0930 C.ar  1 <1>   0.3960 
  5 C       -2.8250    -0.9150     0.3370 C.3   1 <1>   0.2200 
  6 N        1.2170    -2.1400     0.8440 N.ar  1 <1>  -0.6200 
  7 C        0.7240    -4.2530    -0.1970 C.ar  1 <1>   0.0820 
  8 C       -3.2470    -0.1560    -0.9210 C.3   1 <1>  -0.1600 
  9 C       -3.1630    -0.0770     1.5740 C.3   1 <1>  -0.1600 
 10 C        2.3550    -2.6720     1.2460 C.ar  1 <1>   0.1600 
 11 O       -0.0610    -5.1130    -0.8920 O.3   1 <1>  -0.3630 
 12 C        1.9290    -4.7760     0.2290 C.ar  1 <1>  -0.1500 
 13 C       -4.7720    -0.0090    -0.9240 C.3   1 <1>  -0.1600 
 14 C       -4.6770     0.2010     1.6690 C.3   1 <1>  -0.1600 
 15 C        2.7570    -3.9650     0.9650 C.ar  1 <1>  -0.1500 
 16 C       -1.3530    -5.4500    -0.4180 C.3   1 <1>   0.1200 
 17 C       -5.2980     0.6870     0.3430 C.3   1 <1>   0.2200 
 18 C       -2.2850    -5.6000    -1.6220 C.3   1 <1>   0.0960 
 19 N       -6.7770     0.5980     0.3640 N.am  1 <1>  -0.7300 
 20 N       -3.6720    -5.3450    -1.2040 N.pl3 1 <1>   0.3140 
 21 C       -7.5380    -0.5060     0.1530 C.2   1 <1>   0.5690 
 22 N       -4.3870    -6.2140    -0.4810 N.2   1 <1>  -0.4180 
 23 C       -4.3770    -4.2280    -1.3790 C.2   1 <1>  -0.3020 
 24 O       -8.2760    -0.5290    -0.7980 O.2   1 <1>  -0.5700 
 25 C       -7.5600    -1.6910     1.1090 C.3   1 <1>  -0.0990 
 26 N       -5.5220    -5.6720    -0.2020 N.2   1 <1>  -0.2270 
 27 C       -5.5350    -4.4470    -0.7400 C.2   1 <1>   0.0460 
 28 C       -6.5570    -2.8270     0.8200 C.3   1 <1>  -0.1600 
 29 C       -6.7000    -3.4930    -0.5550 C.3   1 <1>   0.0210 
 30 H       -0.8210    -0.8250     1.0600 H     1 <1>   0.3700 
 31 H       -3.3620    -1.8490     0.3790 H     1 <1>   0.0800 
 32 H       -2.9520    -0.6990    -1.8020 H     1 <1>   0.0800 
 33 H       -2.7780     0.8120    -0.9470 H     1 <1>   0.0800 
 34 H       -2.6360     0.8600     1.5220 H     1 <1>   0.0800 
 35 H       -2.8460    -0.5970     2.4620 H     1 <1>   0.0800 
 36 H        3.0090    -2.0470     1.8320 H     1 <1>   0.1500 
 37 H        2.1990    -5.7900    -0.0090 H     1 <1>   0.1500 
 38 H       -5.1910    -0.9920    -1.0100 H     1 <1>   0.0800 
 39 H       -5.0720     0.5530    -1.7900 H     1 <1>   0.0800 
 40 H       -4.8490     0.9480     2.4230 H     1 <1>   0.0800 
 41 H       -5.1550    -0.6930     2.0050 H     1 <1>   0.0800 
 42 H        3.7050    -4.3260     1.3220 H     1 <1>   0.1500 
 43 H       -1.7050    -4.6770     0.2410 H     1 <1>   0.0800 
 44 H       -1.2820    -6.3750     0.1270 H     1 <1>   0.0800 
 45 H       -5.0370     1.7290     0.2490 H     1 <1>   0.0800 
 46 H       -2.2210    -6.5930    -2.0240 H     1 <1>   0.0800 
 47 H       -2.0290    -4.8880    -2.3840 H     1 <1>   0.0800 
 48 H       -7.1690     1.3930    -0.1430 H     1 <1>   0.3700 
 49 H       -4.0110    -3.3700    -1.9130 H     1 <1>   0.1500 
 50 H       -8.5530    -2.1030     1.0900 H     1 <1>   0.0800 
 51 H       -7.3990    -1.3220     2.1040 H     1 <1>   0.0800 
 52 H       -6.6720    -3.5860     1.5750 H     1 <1>   0.0800 
 53 H       -5.5550    -2.4590     0.8990 H     1 <1>   0.0800 
 54 H       -7.6290    -4.0310    -0.6230 H     1 <1>   0.0800 
 55 H       -6.6790    -2.7570    -1.3380 H     1 <1>   0.0800 
@<TRIPOS>BOND
  1   1   2  2   
  2   2   3  am  
  3   2   4  1   
  4   3   5  1   
  5   3  30  1   
  6   4   6  ar  
  7   4   7  ar  
  8   5   8  1   
  9   5   9  1   
 10   5  31  1   
 11   6  10  ar  
 12   7  11  1   
 13   7  12  ar  
 14   8  13  1   
 15   8  32  1   
 16   8  33  1   
 17   9  14  1   
 18   9  34  1   
 19   9  35  1   
 20  10  15  ar  
 21  10  36  1   
 22  11  16  1   
 23  12  15  ar  
 24  12  37  1   
 25  13  17  1   
 26  13  38  1   
 27  13  39  1   
 28  14  17  1   
 29  14  40  1   
 30  14  41  1   
 31  15  42  1   
 32  16  18  1   
 33  16  43  1   
 34  16  44  1   
 35  17  19  1   
 36  17  45  1   
 37  18  20  1   
 38  18  46  1   
 39  18  47  1   
 40  19  21  am  
 41  19  48  1   
 42  20  22  1   
 43  20  23  1   
 44  21  24  2   
 45  21  25  1   
 46  22  26  2   
 47  23  27  2   
 48  23  49  1   
 49  25  28  1   
 50  25  50  1   
 51  25  51  1   
 52  26  27  1   
 53  27  29  1   
 54  28  29  1   
 55  28  52  1   
 56  28  53  1   
 57  29  54  1   
 58  29  55  1   
@<TRIPOS>SUBSTRUCTURE
  1 ****   5 GROUP 4 **** **** 0

# MOE 2024.06 (io_trps.svl 2023.06)
