@<TRIPOS>MOLECULE
NONAME
41 45 1 0 0 
SMALL
USER_CHARGES


@<TRIPOS>ATOM
  1 S       -0.1270     0.3140     1.5570 S.3   1 <1>  -0.0800 
  2 C       -0.1880     1.7960     0.6270 C.2   1 <1>  -0.1400 
  3 C        1.5520     0.6240     1.9740 C.2   1 <1>  -0.1100 
  4 C        0.9840     2.4430     0.6360 C.2   1 <1>  -0.1810 
  5 C       -1.4320     2.2590    -0.0800 C.3   1 <1>   0.0200 
  6 C        1.9840     1.7730     1.4180 C.2   1 <1>  -0.1500 
  7 C        1.1720     3.7550    -0.1360 C.3   1 <1>   0.4610 
  8 C       -1.2570     3.7610    -0.3540 C.3   1 <1>   0.1200 
  9 O        0.0120     4.0390    -0.9000 O.3   1 <1>  -0.5600 
 10 C        1.4110     4.9250     0.8310 C.3   1 <1>  -0.1600 
 11 C        2.3020     3.6120    -1.1720 C.3   1 <1>  -0.1600 
 12 C        2.0690     6.0930     0.1060 C.3   1 <1>   0.2090 
 13 C        3.6100     4.2430    -0.7010 C.3   1 <1>   0.2090 
 14 N        3.4200     5.6940    -0.3940 N.pl3 1 <1>  -0.8220 
 15 C        4.5000     6.3110     0.2600 C.2   1 <1>   0.2700 
 16 N        5.2540     5.7330     1.1500 N.2   1 <1>  -0.3380 
 17 N        4.8800     7.5850     0.0530 N.pl3 1 <1>   0.3340 
 18 N        6.1560     6.6250     1.5620 N.2   1 <1>  -0.3380 
 19 C        5.9290     7.7300     0.9060 C.2   1 <1>   0.1420 
 20 C        4.4590     8.6330    -0.7660 C.2   1 <1>  -0.1810 
 21 C        6.5950     8.9820     0.9680 C.2   1 <1>  -0.1050 
 22 C        5.0920     9.8340    -0.7130 C.2   1 <1>  -0.1500 
 23 C        6.1870    10.0140     0.1780 C.2   1 <1>  -0.1500 
 24 H        2.0440    -0.0960     2.6020 H     1 <1>   0.1500 
 25 H       -2.2970     2.0980     0.5360 H     1 <1>   0.0800 
 26 H       -1.5540     1.7210    -1.0030 H     1 <1>   0.0800 
 27 H        2.9740     2.1790     1.5320 H     1 <1>   0.1500 
 28 H       -1.3680     4.3190     0.5590 H     1 <1>   0.0800 
 29 H       -1.9980     4.0980    -1.0560 H     1 <1>   0.0800 
 30 H        2.0650     4.6170     1.6260 H     1 <1>   0.0800 
 31 H        0.4910     5.2380     1.2830 H     1 <1>   0.0800 
 32 H        2.0230     4.0960    -2.0910 H     1 <1>   0.0800 
 33 H        2.4680     2.5740    -1.3900 H     1 <1>   0.0800 
 34 H        2.1580     6.9280     0.7810 H     1 <1>   0.0800 
 35 H        1.4590     6.3970    -0.7280 H     1 <1>   0.0800 
 36 H        4.3580     4.1450    -1.4700 H     1 <1>   0.0800 
 37 H        3.9670     3.7280     0.1740 H     1 <1>   0.0800 
 38 H        3.6300     8.4160    -1.4160 H     1 <1>   0.1500 
 39 H        7.4190     9.0710     1.6540 H     1 <1>   0.1500 
 40 H        4.7930    10.6640    -1.3310 H     1 <1>   0.1500 
 41 H        6.6750    10.9740     0.2050 H     1 <1>   0.1500 
@<TRIPOS>BOND
  1   1   2  1   
  2   1   3  1   
  3   2   4  2   
  4   2   5  1   
  5   3   6  2   
  6   3  24  1   
  7   4   6  1   
  8   4   7  1   
  9   5   8  1   
 10   5  25  1   
 11   5  26  1   
 12   6  27  1   
 13   7   9  1   
 14   7  10  1   
 15   7  11  1   
 16   8   9  1   
 17   8  28  1   
 18   8  29  1   
 19  10  12  1   
 20  10  30  1   
 21  10  31  1   
 22  11  13  1   
 23  11  32  1   
 24  11  33  1   
 25  12  14  1   
 26  12  34  1   
 27  12  35  1   
 28  13  14  1   
 29  13  36  1   
 30  13  37  1   
 31  14  15  1   
 32  15  16  2   
 33  15  17  1   
 34  16  18  1   
 35  17  19  1   
 36  17  20  1   
 37  18  19  2   
 38  19  21  1   
 39  20  22  2   
 40  20  38  1   
 41  21  23  2   
 42  21  39  1   
 43  22  23  1   
 44  22  40  1   
 45  23  41  1   
@<TRIPOS>SUBSTRUCTURE
  1 ****  14 GROUP 4 **** **** 0

# MOE 2024.06 (io_trps.svl 2023.06)
