@<TRIPOS>MOLECULE
NONAME
37 38 1 0 0 
SMALL
USER_CHARGES


@<TRIPOS>ATOM
  1 S       -0.0570     0.1850     0.4190 S.o2  1 <1>   1.3330 
  2 O       -1.4950     0.2800     0.4500 O.2   1 <1>  -0.6500 
  3 O        0.6880    -0.0220     1.6380 O.2   1 <1>  -0.6500 
  4 N        0.4300     1.6250    -0.2820 N.am  1 <1>  -0.9140 
  5 C        0.4240    -1.0230    -0.7950 C.3   1 <1>  -0.1350 
  6 C        1.5240     2.3190     0.3730 C.3   1 <1>   0.2760 
  7 C        1.5080     3.7740    -0.0950 C.3   1 <1>  -0.1600 
  8 C        2.8620     1.6680     0.0110 C.3   1 <1>  -0.1600 
  9 C        2.6700     4.5610     0.5110 C.3   1 <1>   0.2090 
 10 C        4.0210     2.4430     0.6330 C.3   1 <1>   0.2090 
 11 N        3.9540     3.8690     0.2100 N.pl3 1 <1>  -0.8380 
 12 C        5.0870     4.5690    -0.1540 C.ar  1 <1>   0.7200 
 13 N        5.0930     5.8780     0.0900 N.ar  1 <1>  -0.6200 
 14 N        6.0740     3.8680    -0.7150 N.ar  1 <1>  -0.6200 
 15 C        6.1690     6.5480    -0.2580 C.ar  1 <1>   0.3930 
 16 C        7.1460     4.5450    -1.0620 C.ar  1 <1>   0.1600 
 17 O        6.1020     7.8720     0.0200 O.3   1 <1>  -0.3630 
 18 C        7.2410     5.8940    -0.8530 C.ar  1 <1>   0.1900 
 19 C        7.1320     8.8000    -0.2400 C.3   1 <1>   0.0400 
 20 F        8.3460     6.5020    -1.2270 F     1 <1>  -0.1900 
 21 H       -0.4010     2.2070    -0.1930 H     1 <1>   0.4200 
 22 H        0.1200    -2.0020    -0.4800 H     1 <1>   0.0800 
 23 H        1.4880    -1.0170    -0.9240 H     1 <1>   0.0800 
 24 H       -0.0400    -0.8040    -1.7370 H     1 <1>   0.0800 
 25 H        1.3870     2.3060     1.4440 H     1 <1>   0.0800 
 26 H        0.5870     4.2430     0.1960 H     1 <1>   0.0800 
 27 H        1.5920     3.8150    -1.1670 H     1 <1>   0.0800 
 28 H        2.9900     1.6540    -1.0570 H     1 <1>   0.0800 
 29 H        2.9000     0.6590     0.3770 H     1 <1>   0.0800 
 30 H        2.5550     4.6380     1.5790 H     1 <1>   0.0800 
 31 H        2.6650     5.5560     0.1000 H     1 <1>   0.0800 
 32 H        4.9500     1.9870     0.3380 H     1 <1>   0.0800 
 33 H        3.9590     2.3940     1.7070 H     1 <1>   0.0800 
 34 H        7.9620     4.0140    -1.5210 H     1 <1>   0.1500 
 35 H        6.8000     9.7670     0.0930 H     1 <1>   0.0800 
 36 H        7.3220     8.8260    -1.2990 H     1 <1>   0.0800 
 37 H        8.0130     8.5110     0.3050 H     1 <1>   0.0800 
@<TRIPOS>BOND
  1   1   2  2   
  2   1   3  2   
  3   1   4  am  
  4   1   5  1   
  5   4   6  1   
  6   4  21  1   
  7   5  22  1   
  8   5  23  1   
  9   5  24  1   
 10   6   7  1   
 11   6   8  1   
 12   6  25  1   
 13   7   9  1   
 14   7  26  1   
 15   7  27  1   
 16   8  10  1   
 17   8  28  1   
 18   8  29  1   
 19   9  11  1   
 20   9  30  1   
 21   9  31  1   
 22  10  11  1   
 23  10  32  1   
 24  10  33  1   
 25  11  12  1   
 26  12  13  ar  
 27  12  14  ar  
 28  13  15  ar  
 29  14  16  ar  
 30  15  17  1   
 31  15  18  ar  
 32  16  18  ar  
 33  16  34  1   
 34  17  19  1   
 35  18  20  1   
 36  19  35  1   
 37  19  36  1   
 38  19  37  1   
@<TRIPOS>SUBSTRUCTURE
  1 ****  11 GROUP 4 **** **** 0

# MOE 2024.06 (io_trps.svl 2023.06)
