@<TRIPOS>MOLECULE
NONAME
50 54 1 0 0 
SMALL
USER_CHARGES


@<TRIPOS>ATOM
  1 S       -0.3540    -0.6750     0.3600 S.o2  1 <1>   1.3330 
  2 O        0.4230    -0.3410     1.5300 O.2   1 <1>  -0.6500 
  3 O       -1.4100    -1.6540     0.4230 O.2   1 <1>  -0.6500 
  4 N        0.6880    -1.2780    -0.8030 N.am  1 <1>  -0.9140 
  5 C       -0.9560     0.8200    -0.3920 C.3   1 <1>  -0.1350 
  6 C        1.8360    -2.0300    -0.2960 C.3   1 <1>   0.1960 
  7 C        1.4320    -3.3010     0.4770 C.3   1 <1>  -0.0800 
  8 C        0.7100    -4.3210    -0.4200 C.3   1 <1>   0.2000 
  9 C        2.6100    -4.1660     0.9840 C.3   1 <1>  -0.0800 
 10 O        1.7790    -5.0300    -0.9180 O.3   1 <1>  -0.5600 
 11 C        0.0010    -5.3960     0.4160 C.3   1 <1>  -0.1600 
 12 C        2.3490    -5.4840     0.2600 C.3   1 <1>   0.2800 
 13 C        4.0590    -3.8160     0.6090 C.3   1 <1>   0.2090 
 14 C        1.1830    -6.2540     0.8810 C.3   1 <1>  -0.1600 
 15 C        3.7050    -6.1680     0.0620 C.3   1 <1>   0.2090 
 16 N        4.7140    -5.1160     0.3510 N.pl3 1 <1>  -0.8220 
 17 C        6.0550    -5.2130     0.0760 C.2   1 <1>   0.4620 
 18 S        6.7230    -6.7690    -0.3900 S.3   1 <1>  -0.0800 
 19 N        6.9260    -4.2730     0.1230 N.2   1 <1>  -0.5650 
 20 C        8.2910    -6.0310    -0.5140 C.2   1 <1>  -0.1100 
 21 C        8.2030    -4.7200    -0.2060 C.2   1 <1>   0.1730 
 22 C        9.3080    -3.7750    -0.1920 C.ar  1 <1>   0.0540 
 23 C        9.0960    -2.4080    -0.4000 C.ar  1 <1>  -0.1500 
 24 C       10.6200    -4.2050     0.0280 C.ar  1 <1>  -0.1500 
 25 C       10.1430    -1.5040    -0.3950 C.ar  1 <1>  -0.1500 
 26 C       11.6800    -3.3160     0.0350 C.ar  1 <1>  -0.1500 
 27 C       11.4220    -1.9760    -0.1780 C.ar  1 <1>   0.1900 
 28 F       12.4170    -1.1320    -0.1740 F     1 <1>  -0.1900 
 29 H        0.1150    -1.9180    -1.3490 H     1 <1>   0.4200 
 30 H       -0.1420     1.4950    -0.5710 H     1 <1>   0.0800 
 31 H       -1.6640     1.2980     0.2570 H     1 <1>   0.0800 
 32 H       -1.4360     0.6000    -1.3250 H     1 <1>   0.0800 
 33 H        2.4420    -2.3070    -1.1430 H     1 <1>   0.0800 
 34 H        2.4270    -1.3900     0.3390 H     1 <1>   0.0800 
 35 H        0.8140    -3.0330     1.3140 H     1 <1>   0.0800 
 36 H        0.1090    -3.9080    -1.2110 H     1 <1>   0.0800 
 37 H        2.5600    -4.3090     2.0490 H     1 <1>   0.0800 
 38 H       -0.5530    -4.9660     1.2310 H     1 <1>   0.0800 
 39 H       -0.6660    -5.9640    -0.2080 H     1 <1>   0.0800 
 40 H        4.5590    -3.2920     1.4060 H     1 <1>   0.0800 
 41 H        4.1240    -3.2360    -0.2930 H     1 <1>   0.0800 
 42 H        1.1270    -7.2450     0.4650 H     1 <1>   0.0800 
 43 H        1.2610    -6.3120     1.9520 H     1 <1>   0.0800 
 44 H        3.8010    -6.5410    -0.9430 H     1 <1>   0.0800 
 45 H        3.8240    -6.9690     0.7690 H     1 <1>   0.0800 
 46 H        9.1140    -6.6530    -0.8070 H     1 <1>   0.1500 
 47 H        8.0930    -2.0550    -0.5680 H     1 <1>   0.1500 
 48 H       10.8150    -5.2480     0.2010 H     1 <1>   0.1500 
 49 H        9.9750    -0.4540    -0.5560 H     1 <1>   0.1500 
 50 H       12.6890    -3.6480     0.2040 H     1 <1>   0.1500 
@<TRIPOS>BOND
  1   1   2  2   
  2   1   3  2   
  3   1   4  am  
  4   1   5  1   
  5   4   6  1   
  6   4  29  1   
  7   5  30  1   
  8   5  31  1   
  9   5  32  1   
 10   6   7  1   
 11   6  33  1   
 12   6  34  1   
 13   7   8  1   
 14   7   9  1   
 15   7  35  1   
 16   8  10  1   
 17   8  11  1   
 18   8  36  1   
 19   9  12  1   
 20   9  13  1   
 21   9  37  1   
 22  10  12  1   
 23  11  14  1   
 24  11  38  1   
 25  11  39  1   
 26  12  14  1   
 27  12  15  1   
 28  13  16  1   
 29  13  40  1   
 30  13  41  1   
 31  14  42  1   
 32  14  43  1   
 33  15  16  1   
 34  15  44  1   
 35  15  45  1   
 36  16  17  1   
 37  17  18  1   
 38  17  19  2   
 39  18  20  1   
 40  19  21  1   
 41  20  21  2   
 42  20  46  1   
 43  21  22  1   
 44  22  23  ar  
 45  22  24  ar  
 46  23  25  ar  
 47  23  47  1   
 48  24  26  ar  
 49  24  48  1   
 50  25  27  ar  
 51  25  49  1   
 52  26  27  ar  
 53  26  50  1   
 54  27  28  1   
@<TRIPOS>SUBSTRUCTURE
  1 ****  13 GROUP 4 **** **** 0

# MOE 2024.06 (io_trps.svl 2023.06)
