@<TRIPOS>MOLECULE
NONAME
64 67 1 0 0 
SMALL
USER_CHARGES


@<TRIPOS>ATOM
  1 O       -2.2980     0.1670    -1.2310 O.2   1 <1>  -0.5700 
  2 C       -1.5250     1.0470    -0.9060 C.2   1 <1>   0.5690 
  3 N       -0.1720     0.9200    -1.0980 N.am  1 <1>  -0.6600 
  4 C       -2.1130     2.2990    -0.2540 C.3   1 <1>   0.1810 
  5 C        0.8530     1.9210    -0.6790 C.3   1 <1>   0.1400 
  6 C        0.4070    -0.2340    -1.8430 C.3   1 <1>   0.1400 
  7 O       -3.5240     2.2910    -0.3980 O.3   1 <1>  -0.3620 
  8 C        1.5650     2.4690    -1.9210 C.3   1 <1>  -0.1600 
  9 C        1.1210     0.2770    -3.0990 C.3   1 <1>  -0.1600 
 10 C       -4.2830     2.7700     0.6030 C.ar  1 <1>   0.0820 
 11 C        2.1780     1.3390    -2.7600 C.3   1 <1>  -0.1600 
 12 C       -5.0780     1.9080     1.3580 C.ar  1 <1>  -0.1440 
 13 C       -4.2940     4.1370     0.8300 C.ar  1 <1>  -0.1500 
 14 C       -5.8880     2.4590     2.3430 C.ar  1 <1>  -0.1500 
 15 C       -5.0930     0.3850     1.2180 C.3   1 <1>   0.4860 
 16 C       -5.1040     4.6650     1.8180 C.ar  1 <1>  -0.1500 
 17 C       -5.9020     3.8240     2.5710 C.ar  1 <1>  -0.1500 
 18 N       -4.9330    -0.1360    -0.1680 N.4   1 <1>  -0.9590 
 19 C       -5.0890    -1.6220    -0.2450 C.3   1 <1>   0.5660 
 20 C       -5.8100     0.5150    -1.1890 C.3   1 <1>   0.3430 
 21 C       -4.2240    -2.3050     0.8140 C.ar  1 <1>  -0.1440 
 22 C       -4.8480    -2.1470    -1.6840 C.3   1 <1>   0.2000 
 23 C       -5.4940    -0.0440    -2.5890 C.3   1 <1>   0.1200 
 24 C       -2.8390    -2.3670     0.7280 C.ar  1 <1>  -0.1500 
 25 C       -4.8550    -2.8830     1.9080 C.ar  1 <1>  -0.1500 
 26 O       -5.6450    -1.4370    -2.6090 O.3   1 <1>  -0.5600 
 27 C       -5.2030    -3.6390    -1.7820 C.3   1 <1>   0.1200 
 28 C       -2.1000    -2.9750     1.7270 C.ar  1 <1>  -0.1500 
 29 C       -4.1160    -3.4920     2.9070 C.ar  1 <1>  -0.1500 
 30 O       -6.4520    -3.8790    -1.2120 O.3   1 <1>  -0.6800 
 31 C       -2.7370    -3.5350     2.8180 C.ar  1 <1>  -0.1500 
 32 H       -1.7390     3.1840    -0.7330 H     1 <1>   0.0800 
 33 H       -1.8680     2.3120     0.7930 H     1 <1>   0.0800 
 34 H        0.4150     2.7320    -0.1260 H     1 <1>   0.0800 
 35 H        1.5710     1.4370    -0.0390 H     1 <1>   0.0800 
 36 H        1.1090    -0.7480    -1.2080 H     1 <1>   0.0800 
 37 H       -0.3590    -0.9340    -2.1280 H     1 <1>   0.0800 
 38 H        0.8600     3.0220    -2.5160 H     1 <1>   0.0800 
 39 H        2.3400     3.1490    -1.6160 H     1 <1>   0.0800 
 40 H        1.5890    -0.5490    -3.6040 H     1 <1>   0.0800 
 41 H        0.3880     0.6940    -3.7680 H     1 <1>   0.0800 
 42 H        2.9790     0.8780    -2.2080 H     1 <1>   0.0800 
 43 H        2.5920     1.7420    -3.6680 H     1 <1>   0.0800 
 44 H       -3.6840     4.7900     0.2330 H     1 <1>   0.1500 
 45 H       -6.5170     1.8330     2.9540 H     1 <1>   0.1500 
 46 H       -6.0240     0.0200     1.6170 H     1 <1>   0.0800 
 47 H       -4.3030    -0.0150     1.8340 H     1 <1>   0.0800 
 48 H       -5.1170     5.7270     1.9980 H     1 <1>   0.1500 
 49 H       -6.5340     4.2360     3.3400 H     1 <1>   0.1500 
 50 H       -3.9570     0.0740    -0.4550 H     1 <1>   0.4500 
 51 H       -6.1130    -1.8610    -0.0120 H     1 <1>   0.0800 
 52 H       -6.8470     0.3330    -0.9610 H     1 <1>   0.0800 
 53 H       -5.6490     1.5800    -1.1920 H     1 <1>   0.0800 
 54 H       -3.8190    -2.0080    -1.9670 H     1 <1>   0.0800 
 55 H       -4.4870     0.2010    -2.8820 H     1 <1>   0.0800 
 56 H       -6.1740     0.3680    -3.3140 H     1 <1>   0.0800 
 57 H       -2.3100    -1.9540    -0.1110 H     1 <1>   0.1500 
 58 H       -5.9290    -2.8730     1.9930 H     1 <1>   0.1500 
 59 H       -4.4790    -4.2360    -1.2530 H     1 <1>   0.0800 
 60 H       -5.2260    -3.9450    -2.8140 H     1 <1>   0.0800 
 61 H       -1.0260    -3.0160     1.6550 H     1 <1>   0.1500 
 62 H       -4.6120    -3.9370     3.7530 H     1 <1>   0.1500 
 63 H       -6.7730    -4.7730    -1.4520 H     1 <1>   0.4000 
 64 H       -2.1610    -4.0090     3.5950 H     1 <1>   0.1500 
@<TRIPOS>BOND
  1   1   2  2   
  2   2   3  am  
  3   2   4  1   
  4   3   5  1   
  5   3   6  1   
  6   4   7  1   
  7   4  32  1   
  8   4  33  1   
  9   5   8  1   
 10   5  34  1   
 11   5  35  1   
 12   6   9  1   
 13   6  36  1   
 14   6  37  1   
 15   7  10  1   
 16   8  11  1   
 17   8  38  1   
 18   8  39  1   
 19   9  11  1   
 20   9  40  1   
 21   9  41  1   
 22  10  12  ar  
 23  10  13  ar  
 24  11  42  1   
 25  11  43  1   
 26  12  14  ar  
 27  12  15  1   
 28  13  16  ar  
 29  13  44  1   
 30  14  17  ar  
 31  14  45  1   
 32  15  18  1   
 33  15  46  1   
 34  15  47  1   
 35  16  17  ar  
 36  16  48  1   
 37  17  49  1   
 38  18  19  1   
 39  18  20  1   
 40  18  50  1   
 41  19  21  1   
 42  19  22  1   
 43  19  51  1   
 44  20  23  1   
 45  20  52  1   
 46  20  53  1   
 47  21  24  ar  
 48  21  25  ar  
 49  22  26  1   
 50  22  27  1   
 51  22  54  1   
 52  23  26  1   
 53  23  55  1   
 54  23  56  1   
 55  24  28  ar  
 56  24  57  1   
 57  25  29  ar  
 58  25  58  1   
 59  27  30  1   
 60  27  59  1   
 61  27  60  1   
 62  28  31  ar  
 63  28  61  1   
 64  29  31  ar  
 65  29  62  1   
 66  30  63  1   
 67  31  64  1   
@<TRIPOS>SUBSTRUCTURE
  1 ****   1 GROUP 4 **** **** 0

# MOE 2024.06 (io_trps.svl 2023.06)
