@<TRIPOS>MOLECULE
NONAME
46 48 1 0 0 
SMALL
USER_CHARGES


@<TRIPOS>ATOM
  1 S       -0.6220     0.1890     0.1500 S.3   1 <1>  -0.3320 
  2 C       -2.1340    -0.7840     0.0160 C.ar  1 <1>   0.1020 
  3 C        0.7830    -0.9630    -0.1820 C.3   1 <1>  -0.0100 
  4 C       -3.3250    -0.1230     0.2460 C.ar  1 <1>  -0.1500 
  5 C       -2.1160    -2.1320    -0.3040 C.ar  1 <1>  -0.1500 
  6 C       -4.5350    -0.8010     0.1610 C.ar  1 <1>   0.1170 
  7 C       -3.3170    -2.8160    -0.3930 C.ar  1 <1>  -0.1500 
  8 N       -5.7220    -0.0900     0.3850 N.am  1 <1>  -0.5470 
  9 C       -4.5110    -2.1550    -0.1650 C.ar  1 <1>  -0.1500 
 10 C       -6.9740    -0.5000     0.7490 C.2   1 <1>   0.6900 
 11 O       -7.1870    -1.6500     1.0840 O.2   1 <1>  -0.5700 
 12 N       -7.9860     0.4270     0.7530 N.am  1 <1>  -0.6600 
 13 C       -9.3130     0.0970     1.3510 C.3   1 <1>   0.1400 
 14 C       -7.9570     1.6740    -0.0710 C.3   1 <1>   0.1400 
 15 C      -10.3670    -0.1490     0.2480 C.3   1 <1>   0.0000 
 16 C       -9.3600     2.0670    -0.5680 C.3   1 <1>  -0.1600 
 17 C      -11.7790    -0.0810     0.8600 C.3   1 <1>   0.2000 
 18 C      -10.1700     0.8210    -0.9620 C.3   1 <1>  -0.1600 
 19 C      -10.3440    -1.6000    -0.2580 C.3   1 <1>  -0.1600 
 20 O      -12.2510     1.2140     0.9690 O.3   1 <1>  -0.6800 
 21 C      -12.6840    -0.9120    -0.0510 C.3   1 <1>  -0.1600 
 22 C      -11.7460    -1.8530    -0.8220 C.3   1 <1>  -0.1600 
 23 H        1.6930    -0.3970    -0.0980 H     1 <1>   0.0800 
 24 H        0.6660    -1.3500    -1.1780 H     1 <1>   0.0800 
 25 H        0.7510    -1.7460     0.5530 H     1 <1>   0.0800 
 26 H       -3.3030     0.9200     0.4940 H     1 <1>   0.1500 
 27 H       -1.1980    -2.6550    -0.4830 H     1 <1>   0.1500 
 28 H       -3.3250    -3.8640    -0.6400 H     1 <1>   0.1500 
 29 H       -5.6320     0.9180     0.3920 H     1 <1>   0.3700 
 30 H       -5.4340    -2.7010    -0.2430 H     1 <1>   0.1500 
 31 H       -9.2380    -0.7590     2.0000 H     1 <1>   0.0800 
 32 H       -9.6210     0.9290     1.9610 H     1 <1>   0.0800 
 33 H       -7.5390     2.4780     0.5090 H     1 <1>   0.0800 
 34 H       -7.3290     1.5090    -0.9300 H     1 <1>   0.0800 
 35 H       -9.8750     2.6090     0.2060 H     1 <1>   0.0800 
 36 H       -9.2630     2.7260    -1.4120 H     1 <1>   0.0800 
 37 H      -11.7740    -0.5150     1.8460 H     1 <1>   0.0800 
 38 H       -9.6170     0.3220    -1.7380 H     1 <1>   0.0800 
 39 H      -11.1120     1.1080    -1.3950 H     1 <1>   0.0800 
 40 H       -9.5680    -1.7830    -0.9820 H     1 <1>   0.0800 
 41 H      -10.1800    -2.2690     0.5710 H     1 <1>   0.0800 
 42 H      -12.2320     1.6390     0.0910 H     1 <1>   0.4000 
 43 H      -13.3820    -1.4750     0.5440 H     1 <1>   0.0800 
 44 H      -13.2240    -0.2900    -0.7420 H     1 <1>   0.0800 
 45 H      -12.0310    -2.8850    -0.7050 H     1 <1>   0.0800 
 46 H      -11.7660    -1.6040    -1.8690 H     1 <1>   0.0800 
@<TRIPOS>BOND
  1   1   2  1   
  2   1   3  1   
  3   2   4  ar  
  4   2   5  ar  
  5   3  23  1   
  6   3  24  1   
  7   3  25  1   
  8   4   6  ar  
  9   4  26  1   
 10   5   7  ar  
 11   5  27  1   
 12   6   8  1   
 13   6   9  ar  
 14   7   9  ar  
 15   7  28  1   
 16   8  10  am  
 17   8  29  1   
 18   9  30  1   
 19  10  11  2   
 20  10  12  am  
 21  12  13  1   
 22  12  14  1   
 23  13  15  1   
 24  13  31  1   
 25  13  32  1   
 26  14  16  1   
 27  14  33  1   
 28  14  34  1   
 29  15  17  1   
 30  15  18  1   
 31  15  19  1   
 32  16  18  1   
 33  16  35  1   
 34  16  36  1   
 35  17  20  1   
 36  17  21  1   
 37  17  37  1   
 38  18  38  1   
 39  18  39  1   
 40  19  22  1   
 41  19  40  1   
 42  19  41  1   
 43  20  42  1   
 44  21  22  1   
 45  21  43  1   
 46  21  44  1   
 47  22  45  1   
 48  22  46  1   
@<TRIPOS>SUBSTRUCTURE
  1 ****  10 GROUP 4 **** **** 0

# MOE 2024.06 (io_trps.svl 2023.06)
