@<TRIPOS>MOLECULE
NONAME
40 42 1 0 0 
SMALL
USER_CHARGES


@<TRIPOS>ATOM
  1 O       -1.4060     0.6670    -2.1710 O.2   1 <1>  -0.5700 
  2 C       -1.6650     1.1150    -1.0690 C.2   1 <1>   0.5440 
  3 N       -2.1900     0.2690    -0.1110 N.am  1 <1>  -0.6600 
  4 C       -1.4800     2.5310    -0.8270 C.ar  1 <1>   0.0860 
  5 C       -2.2600    -1.2050    -0.3230 C.3   1 <1>   0.1400 
  6 C       -2.8240     0.7740     1.1400 C.3   1 <1>   0.1400 
  7 C       -0.6120     3.0230     0.1520 C.ar  1 <1>   0.0820 
  8 C       -2.1920     3.4580    -1.5920 C.ar  1 <1>  -0.1500 
  9 C       -3.7300    -1.6510    -0.4580 C.3   1 <1>  -0.0800 
 10 C       -3.9060    -0.1880     1.6510 C.3   1 <1>  -0.1600 
 11 O        0.0990     2.1540     0.9170 O.3   1 <1>  -0.3630 
 12 C       -0.4710     4.4010     0.3440 C.ar  1 <1>   0.0820 
 13 C       -2.0650     4.8200    -1.3890 C.ar  1 <1>  -0.1500 
 14 C       -4.6550    -0.8260     0.4770 C.3   1 <1>   0.2000 
 15 C       -3.8510    -3.1750    -0.2700 C.3   1 <1>   0.1200 
 16 C        0.7820     2.6530     2.0520 C.3   1 <1>   0.1200 
 17 O        0.3880     4.9000     1.2680 O.3   1 <1>  -0.3630 
 18 C       -1.2030     5.2930    -0.4160 C.ar  1 <1>  -0.1500 
 19 O       -5.6810    -1.5940     1.0000 O.3   1 <1>  -0.6800 
 20 O       -2.9610    -3.8330    -1.1040 O.3   1 <1>  -0.6800 
 21 C        1.3910     4.0250     1.7430 C.3   1 <1>   0.1200 
 22 H       -1.7060    -1.4940    -1.2000 H     1 <1>   0.0800 
 23 H       -1.8010    -1.6940     0.5190 H     1 <1>   0.0800 
 24 H       -2.0680     0.9100     1.8950 H     1 <1>   0.0800 
 25 H       -3.2770     1.7310     0.9410 H     1 <1>   0.0800 
 26 H       -2.8530     3.0910    -2.3580 H     1 <1>   0.1500 
 27 H       -4.0360    -1.4260    -1.4630 H     1 <1>   0.0800 
 28 H       -4.5900     0.3600     2.2740 H     1 <1>   0.0800 
 29 H       -3.4390    -0.9500     2.2480 H     1 <1>   0.0800 
 30 H       -2.6290     5.5120    -1.9900 H     1 <1>   0.1500 
 31 H       -5.1150    -0.0430    -0.1030 H     1 <1>   0.0800 
 32 H       -4.8450    -3.5150    -0.5090 H     1 <1>   0.0800 
 33 H       -3.6140    -3.4550     0.7420 H     1 <1>   0.0800 
 34 H        0.0770     2.7310     2.8600 H     1 <1>   0.0800 
 35 H        1.5470     1.9450     2.3160 H     1 <1>   0.0800 
 36 H       -1.0890     6.3500    -0.2490 H     1 <1>   0.1500 
 37 H       -5.3390    -2.1870     1.6950 H     1 <1>   0.4000 
 38 H       -3.1450    -3.6210    -2.0400 H     1 <1>   0.4000 
 39 H        2.1490     3.9380     0.9840 H     1 <1>   0.0800 
 40 H        1.8230     4.4610     2.6260 H     1 <1>   0.0800 
@<TRIPOS>BOND
  1   1   2  2   
  2   2   3  am  
  3   2   4  1   
  4   3   5  1   
  5   3   6  1   
  6   4   7  ar  
  7   4   8  ar  
  8   5   9  1   
  9   5  22  1   
 10   5  23  1   
 11   6  10  1   
 12   6  24  1   
 13   6  25  1   
 14   7  11  1   
 15   7  12  ar  
 16   8  13  ar  
 17   8  26  1   
 18   9  14  1   
 19   9  15  1   
 20   9  27  1   
 21  10  14  1   
 22  10  28  1   
 23  10  29  1   
 24  11  16  1   
 25  12  17  1   
 26  12  18  ar  
 27  13  18  ar  
 28  13  30  1   
 29  14  19  1   
 30  14  31  1   
 31  15  20  1   
 32  15  32  1   
 33  15  33  1   
 34  16  21  1   
 35  16  34  1   
 36  16  35  1   
 37  17  21  1   
 38  18  36  1   
 39  19  37  1   
 40  20  38  1   
 41  21  39  1   
 42  21  40  1   
@<TRIPOS>SUBSTRUCTURE
  1 ****   3 GROUP 4 **** **** 0

# MOE 2024.06 (io_trps.svl 2023.06)
