@<TRIPOS>MOLECULE
NONAME
56 60 1 0 0 
SMALL
USER_CHARGES


@<TRIPOS>ATOM
  1 O        0.2360     0.8880     0.6080 O.2   1 <1>  -0.5700 
  2 C       -0.5710     1.6330     0.1040 C.2   1 <1>   0.5690 
  3 N       -1.9160     1.4990     0.3620 N.am  1 <1>  -0.6600 
  4 C       -0.0740     2.7360    -0.8300 C.3   1 <1>   0.0820 
  5 C       -2.9950     2.4170    -0.1300 C.3   1 <1>   0.1400 
  6 C       -2.4320     0.3760     1.2000 C.3   1 <1>   0.1400 
  7 C        1.4070     2.6860    -1.1930 C.2   1 <1>  -0.1810 
  8 C       -3.7970     3.0130     1.0440 C.3   1 <1>   0.1440 
  9 C       -3.2340     0.9240     2.3870 C.3   1 <1>  -0.1600 
 10 C        2.3970     3.5510    -0.9130 C.2   1 <1>  -0.0400 
 11 C        2.0540     1.6960    -1.9360 C.2   1 <1>   0.1080 
 12 C       -4.8970     3.8880     0.4730 C.ar  1 <1>   0.1660 
 13 C       -4.3530     1.8750     1.9260 C.3   1 <1>  -0.1600 
 14 C       -2.9550     4.0250     1.8690 C.3   1 <1>  -0.1600 
 15 O        3.4940     3.0990    -1.4600 O.3   1 <1>  -0.0190 
 16 C        2.4520     4.8510    -0.1380 C.3   1 <1>  -0.0600 
 17 N        3.2980     1.9760    -2.0860 N.2   1 <1>  -0.4100 
 18 C        1.4120     0.4450    -2.4980 C.3   1 <1>  -0.0590 
 19 N       -5.9610     3.4520    -0.1570 N.ar  1 <1>  -0.6200 
 20 C       -4.6440     5.2100     0.6690 C.ar  1 <1>  -0.1440 
 21 C       -3.3400     5.4370     1.3920 C.3   1 <1>  -0.0170 
 22 C       -6.8150     4.3910    -0.5860 C.ar  1 <1>   0.6200 
 23 C       -5.5620     6.1120     0.1970 C.ar  1 <1>   0.1600 
 24 N       -6.6460     5.7130    -0.4280 N.ar  1 <1>  -0.6200 
 25 C       -8.0170     3.9420    -1.2780 C.ar  1 <1>   0.0000 
 26 C       -8.0600     2.7230    -1.9620 C.ar  1 <1>  -0.1500 
 27 C       -9.1870     4.7090    -1.2900 C.ar  1 <1>  -0.1500 
 28 C       -9.1990     2.2950    -2.6200 C.ar  1 <1>  -0.1500 
 29 C      -10.3300     4.2870    -1.9450 C.ar  1 <1>  -0.1500 
 30 C      -10.3380     3.0770    -2.6130 C.ar  1 <1>  -0.1500 
 31 H       -0.2870     3.6790    -0.3670 H     1 <1>   0.0800 
 32 H       -0.6340     2.6830    -1.7440 H     1 <1>   0.0800 
 33 H       -3.6650     1.8530    -0.7580 H     1 <1>   0.0800 
 34 H       -2.5950     3.2180    -0.7230 H     1 <1>   0.0800 
 35 H       -1.6240    -0.2340     1.5670 H     1 <1>   0.0800 
 36 H       -3.0650    -0.2490     0.5920 H     1 <1>   0.0800 
 37 H       -2.5610     1.4340     3.0540 H     1 <1>   0.0800 
 38 H       -3.6640     0.1010     2.9290 H     1 <1>   0.0800 
 39 H       -5.0720     1.3120     1.3570 H     1 <1>   0.0800 
 40 H       -4.8690     2.2830     2.7780 H     1 <1>   0.0800 
 41 H       -1.8970     3.8510     1.7820 H     1 <1>   0.0800 
 42 H       -3.2170     3.9460     2.9090 H     1 <1>   0.0800 
 43 H        1.4900     5.0930     0.2720 H     1 <1>   0.0800 
 44 H        2.7690     5.6460    -0.7880 H     1 <1>   0.0800 
 45 H        3.1590     4.7570     0.6670 H     1 <1>   0.0800 
 46 H        0.5220     0.6960    -3.0420 H     1 <1>   0.0800 
 47 H        1.1630    -0.2240    -1.6940 H     1 <1>   0.0800 
 48 H        2.0980    -0.0510    -3.1600 H     1 <1>   0.0800 
 49 H       -2.6070     5.8240     0.7060 H     1 <1>   0.0800 
 50 H       -3.4600     6.1140     2.2200 H     1 <1>   0.0800 
 51 H       -5.4080     7.1690     0.3290 H     1 <1>   0.1500 
 52 H       -7.1840     2.0990    -1.9810 H     1 <1>   0.1500 
 53 H       -9.2010     5.6540    -0.7750 H     1 <1>   0.1500 
 54 H       -9.1980     1.3510    -3.1370 H     1 <1>   0.1500 
 55 H      -11.2130     4.9020    -1.9350 H     1 <1>   0.1500 
 56 H      -11.2260     2.7460    -3.1240 H     1 <1>   0.1500 
@<TRIPOS>BOND
  1   1   2  2   
  2   2   3  am  
  3   2   4  1   
  4   3   5  1   
  5   3   6  1   
  6   4   7  1   
  7   4  31  1   
  8   4  32  1   
  9   5   8  1   
 10   5  33  1   
 11   5  34  1   
 12   6   9  1   
 13   6  35  1   
 14   6  36  1   
 15   7  10  2   
 16   7  11  1   
 17   8  12  1   
 18   8  13  1   
 19   8  14  1   
 20   9  13  1   
 21   9  37  1   
 22   9  38  1   
 23  10  15  1   
 24  10  16  1   
 25  11  17  2   
 26  11  18  1   
 27  12  19  ar  
 28  12  20  ar  
 29  13  39  1   
 30  13  40  1   
 31  14  21  1   
 32  14  41  1   
 33  14  42  1   
 34  15  17  1   
 35  16  43  1   
 36  16  44  1   
 37  16  45  1   
 38  18  46  1   
 39  18  47  1   
 40  18  48  1   
 41  19  22  ar  
 42  20  21  1   
 43  20  23  ar  
 44  21  49  1   
 45  21  50  1   
 46  22  24  ar  
 47  22  25  1   
 48  23  24  ar  
 49  23  51  1   
 50  25  26  ar  
 51  25  27  ar  
 52  26  28  ar  
 53  26  52  1   
 54  27  29  ar  
 55  27  53  1   
 56  28  30  ar  
 57  28  54  1   
 58  29  30  ar  
 59  29  55  1   
 60  30  56  1   
@<TRIPOS>SUBSTRUCTURE
  1 ****   5 GROUP 4 **** **** 0

# MOE 2024.06 (io_trps.svl 2023.06)
