@<TRIPOS>MOLECULE
NONAME
42 43 1 0 0 
SMALL
USER_CHARGES


@<TRIPOS>ATOM
  1 O        2.9850    -0.4170    -1.9110 O.2   1 <1>  -0.5700 
  2 C        2.5200    -0.7570    -0.8500 C.2   1 <1>   0.5690 
  3 N        2.2360     0.1120     0.1700 N.am  1 <1>  -0.4940 
  4 C        2.1970    -2.2440    -0.6190 C.3   1 <1>   0.2810 
  5 C        2.2480     1.5250     0.2200 C.2   1 <1>  -0.0880 
  6 N        0.8540    -2.4640     0.0570 N.am  1 <1>  -0.6600 
  7 C        3.3640    -2.8440     0.1940 C.3   1 <1>  -0.1600 
  8 N        3.2020     2.3810    -0.2530 N.pl3 1 <1>   0.3140 
  9 C        1.2880     2.2940     0.7860 C.2   1 <1>  -0.1810 
 10 C       -0.2610    -1.7030    -0.1980 C.2   1 <1>   0.5690 
 11 C        0.6280    -3.7800     0.7330 C.3   1 <1>   0.1400 
 12 C        3.0950    -4.2560     0.7120 C.3   1 <1>  -0.1600 
 13 N        2.8660     3.6690     0.0030 N.2   1 <1>  -0.7070 
 14 C        4.5070     2.0850    -0.8880 C.3   1 <1>   0.0960 
 15 C        1.7270     3.6010     0.6160 C.2   1 <1>   0.1390 
 16 C       -0.0060     1.8810     1.4640 C.3   1 <1>  -0.0590 
 17 O       -1.1700    -1.6390     0.5930 O.2   1 <1>  -0.5700 
 18 C       -0.4290    -0.9280    -1.4870 C.3   1 <1>  -0.1790 
 19 C        1.8280    -4.2320     1.5620 C.3   1 <1>  -0.1600 
 20 C        5.4560     1.3440     0.0640 C.3   1 <1>  -0.2400 
 21 H        1.7260    -0.3290     0.9400 H     1 <1>   0.3700 
 22 H        2.1670    -2.7320    -1.5770 H     1 <1>   0.0800 
 23 H        3.5760    -2.2050     1.0350 H     1 <1>   0.0800 
 24 H        4.2460    -2.8530    -0.4230 H     1 <1>   0.0800 
 25 H        0.4220    -4.5190    -0.0220 H     1 <1>   0.0800 
 26 H       -0.2350    -3.7240     1.3760 H     1 <1>   0.0800 
 27 H        3.9280    -4.5910     1.3070 H     1 <1>   0.0800 
 28 H        2.9750    -4.9370    -0.1140 H     1 <1>   0.0800 
 29 H        4.9520     3.0210    -1.1720 H     1 <1>   0.0800 
 30 H        4.3420     1.5210    -1.7850 H     1 <1>   0.0800 
 31 H        1.1900     4.4720     0.9530 H     1 <1>   0.1500 
 32 H       -0.0930     0.8110     1.5140 H     1 <1>   0.0800 
 33 H       -0.8450     2.2650     0.9130 H     1 <1>   0.0800 
 34 H       -0.0380     2.2740     2.4640 H     1 <1>   0.0800 
 35 H        0.1320    -1.3750    -2.2850 H     1 <1>   0.0800 
 36 H       -0.1190     0.0910    -1.3510 H     1 <1>   0.0800 
 37 H       -1.4670    -0.9290    -1.7650 H     1 <1>   0.0800 
 38 H        1.6350    -5.2170     1.9490 H     1 <1>   0.0800 
 39 H        1.9500    -3.5700     2.4020 H     1 <1>   0.0800 
 40 H        5.6110     1.9250     0.9560 H     1 <1>   0.0800 
 41 H        6.4050     1.1940    -0.4180 H     1 <1>   0.0800 
 42 H        5.0530     0.3830     0.3270 H     1 <1>   0.0800 
@<TRIPOS>BOND
  1   1   2  2   
  2   2   3  am  
  3   2   4  1   
  4   3   5  1   
  5   3  21  1   
  6   4   6  1   
  7   4   7  1   
  8   4  22  1   
  9   5   8  1   
 10   5   9  2   
 11   6  10  am  
 12   6  11  1   
 13   7  12  1   
 14   7  23  1   
 15   7  24  1   
 16   8  13  1   
 17   8  14  1   
 18   9  15  1   
 19   9  16  1   
 20  10  17  2   
 21  10  18  1   
 22  11  19  1   
 23  11  25  1   
 24  11  26  1   
 25  12  19  1   
 26  12  27  1   
 27  12  28  1   
 28  13  15  2   
 29  14  20  1   
 30  14  29  1   
 31  14  30  1   
 32  15  31  1   
 33  16  32  1   
 34  16  33  1   
 35  16  34  1   
 36  18  35  1   
 37  18  36  1   
 38  18  37  1   
 39  19  38  1   
 40  19  39  1   
 41  20  40  1   
 42  20  41  1   
 43  20  42  1   
@<TRIPOS>SUBSTRUCTURE
  1 ****   3 GROUP 4 **** **** 0

# MOE 2024.06 (io_trps.svl 2023.06)
