@<TRIPOS>MOLECULE
NONAME
44 46 1 0 0 
SMALL
USER_CHARGES


@<TRIPOS>ATOM
  1 S       -0.0280     0.0740     0.4330 S.o2  1 <1>   1.3330 
  2 O       -0.6290     1.3620     0.6970 O.2   1 <1>  -0.6500 
  3 O        0.1440    -0.8680     1.5160 O.2   1 <1>  -0.6500 
  4 N       -0.9250    -0.6940    -0.7870 N.am  1 <1>  -0.8490 
  5 C        1.5480     0.3690    -0.3700 C.3   1 <1>  -0.0550 
  6 C       -2.3610    -0.4160    -0.6810 C.3   1 <1>   0.1160 
  7 C       -0.7010    -2.1420    -0.8500 C.3   1 <1>   0.1160 
  8 C        2.5550     1.1380     0.5100 C.3   1 <1>  -0.0800 
  9 C        3.7710     1.5680    -0.2930 C.3   1 <1>   0.2200 
 10 C        3.1790     0.2410     1.5870 C.3   1 <1>   0.1200 
 11 N        4.4120     2.7210     0.3780 N.am  1 <1>  -0.7300 
 12 C        4.6710     0.3450    -0.1700 C.3   1 <1>   0.1200 
 13 O        4.4100    -0.1970     1.0900 O.3   1 <1>  -0.5600 
 14 C        4.6220     3.9490    -0.1720 C.2   1 <1>   0.7160 
 15 O        4.2480     4.1410    -1.3110 O.2   1 <1>  -0.5700 
 16 C        5.2700     4.9740     0.6190 C.2   1 <1>  -0.0860 
 17 C        6.0600     6.0490     0.0430 C.ar  1 <1>   0.0000 
 18 C        5.2140     5.0420     1.9720 C.2   1 <1>  -0.1100 
 19 C        6.5870     6.9110     0.9970 C.ar  1 <1>   0.0400 
 20 C        6.3650     6.3280    -1.2910 C.ar  1 <1>  -0.1500 
 21 S        6.1120     6.4020     2.6160 S.3   1 <1>  -0.0800 
 22 C        7.3750     8.0060     0.6980 C.ar  1 <1>  -0.1500 
 23 C        7.1520     7.4190    -1.6190 C.ar  1 <1>  -0.1500 
 24 C        7.6570     8.2580    -0.6320 C.ar  1 <1>  -0.1500 
 25 H        1.9750    -0.5670    -0.6740 H     1 <1>   0.0800 
 26 H        1.3600     0.9450    -1.2550 H     1 <1>   0.0800 
 27 H       -2.8960    -0.9050    -1.4770 H     1 <1>   0.0800 
 28 H       -2.5390     0.6430    -0.7590 H     1 <1>   0.0800 
 29 H       -2.7400    -0.7620     0.2670 H     1 <1>   0.0800 
 30 H       -1.2190    -2.5600    -1.6970 H     1 <1>   0.0800 
 31 H       -1.0570    -2.6190     0.0490 H     1 <1>   0.0800 
 32 H        0.3500    -2.3520    -0.9580 H     1 <1>   0.0800 
 33 H        2.0570     1.9880     0.9450 H     1 <1>   0.0800 
 34 H        3.5430     1.8020    -1.3200 H     1 <1>   0.0800 
 35 H        2.5820    -0.6200     1.8320 H     1 <1>   0.0800 
 36 H        3.3730     0.8020     2.4850 H     1 <1>   0.0800 
 37 H        4.8360     2.5040     1.2810 H     1 <1>   0.3700 
 38 H        5.7160     0.5880    -0.2520 H     1 <1>   0.0800 
 39 H        4.4110    -0.3960    -0.9050 H     1 <1>   0.0800 
 40 H        4.7140     4.4170     2.6900 H     1 <1>   0.1500 
 41 H        5.9880     5.6960    -2.0750 H     1 <1>   0.1500 
 42 H        7.7530     8.6380     1.4820 H     1 <1>   0.1500 
 43 H        7.3760     7.6220    -2.6520 H     1 <1>   0.1500 
 44 H        8.2670     9.1020    -0.9050 H     1 <1>   0.1500 
@<TRIPOS>BOND
  1   1   2  2   
  2   1   3  2   
  3   1   4  am  
  4   1   5  1   
  5   4   6  1   
  6   4   7  1   
  7   5   8  1   
  8   5  25  1   
  9   5  26  1   
 10   6  27  1   
 11   6  28  1   
 12   6  29  1   
 13   7  30  1   
 14   7  31  1   
 15   7  32  1   
 16   8   9  1   
 17   8  10  1   
 18   8  33  1   
 19   9  11  1   
 20   9  12  1   
 21   9  34  1   
 22  10  13  1   
 23  10  35  1   
 24  10  36  1   
 25  11  14  am  
 26  11  37  1   
 27  12  13  1   
 28  12  38  1   
 29  12  39  1   
 30  14  15  2   
 31  14  16  1   
 32  16  17  1   
 33  16  18  2   
 34  17  19  ar  
 35  17  20  ar  
 36  18  21  1   
 37  18  40  1   
 38  19  21  1   
 39  19  22  ar  
 40  20  23  ar  
 41  20  41  1   
 42  22  24  ar  
 43  22  42  1   
 44  23  24  ar  
 45  23  43  1   
 46  24  44  1   
@<TRIPOS>SUBSTRUCTURE
  1 ****  11 GROUP 4 **** **** 0

# MOE 2024.06 (io_trps.svl 2023.06)
