@<TRIPOS>MOLECULE
NONAME
45 48 1 0 0 
SMALL
USER_CHARGES


@<TRIPOS>ATOM
  1 O       -0.6960     0.2540    -1.6010 O.2   1 <1>  -0.5700 
  2 C       -1.6160     0.8680    -1.0980 C.2   1 <1>   0.5440 
  3 N       -2.7640     0.1930    -0.7580 N.am  1 <1>  -0.6600 
  4 C       -1.4870     2.2830    -0.8540 C.ar  1 <1>   0.0860 
  5 C       -3.8550     0.7370     0.0900 C.3   1 <1>   0.1400 
  6 C       -2.9280    -1.2710    -0.9400 C.3   1 <1>   0.1400 
  7 C       -0.5410     2.8000     0.0370 C.ar  1 <1>   0.0000 
  8 C       -2.2890     3.2310    -1.4630 C.ar  1 <1>  -0.1500 
  9 C       -4.7180    -0.4720     0.4590 C.3   1 <1>   0.2000 
 10 C       -3.8520    -1.7040     0.2000 C.3   1 <1>  -0.0800 
 11 C       -0.5060     4.1540     0.2470 C.ar  1 <1>   0.3970 
 12 C        0.4800     2.3320     0.8840 C.2   1 <1>   0.1080 
 13 C       -2.1530     4.5910    -1.1740 C.ar  1 <1>   0.1660 
 14 O       -5.1010    -0.4360     1.7900 O.3   1 <1>  -0.6800 
 15 C       -4.6850    -2.9610    -0.1050 C.3   1 <1>  -0.0170 
 16 O        0.4400     4.4000     1.1370 O.3   1 <1>  -0.0190 
 17 N       -1.2810     5.0790    -0.3220 N.ar  1 <1>  -0.5670 
 18 N        1.0340     3.2930     1.5220 N.2   1 <1>  -0.4100 
 19 C        0.8930     0.8820     1.0370 C.3   1 <1>  -0.0590 
 20 C       -3.0480     5.6000    -1.8620 C.3   1 <1>  -0.0970 
 21 C       -3.8050    -4.1810    -0.3270 C.ar  1 <1>   0.1670 
 22 N       -3.2700    -4.3110    -1.5300 N.ar  1 <1>  -0.6200 
 23 C       -3.5960    -5.0880     0.7110 C.ar  1 <1>   0.1600 
 24 C       -2.5170    -5.3950    -1.6250 C.ar  1 <1>   0.1600 
 25 N       -2.8420    -6.1710     0.6190 N.ar  1 <1>  -0.6200 
 26 C       -2.3100    -6.2940    -0.5850 C.ar  1 <1>   0.1600 
 27 H       -3.4360     1.1970     0.9680 H     1 <1>   0.0800 
 28 H       -4.4340     1.4540    -0.4640 H     1 <1>   0.0800 
 29 H       -3.3840    -1.4570    -1.8980 H     1 <1>   0.0800 
 30 H       -1.9820    -1.7840    -0.8950 H     1 <1>   0.0800 
 31 H       -3.0280     2.9100    -2.1750 H     1 <1>   0.1500 
 32 H       -5.6070    -0.4830    -0.1500 H     1 <1>   0.0800 
 33 H       -3.2270    -1.8900     1.0560 H     1 <1>   0.0800 
 34 H       -4.3180    -0.4420     2.3740 H     1 <1>   0.4000 
 35 H       -5.2860    -2.8010    -0.9830 H     1 <1>   0.0800 
 36 H       -5.3560    -3.1470     0.7150 H     1 <1>   0.0800 
 37 H        0.0380     0.2720     1.2600 H     1 <1>   0.0800 
 38 H        1.6080     0.7840     1.8350 H     1 <1>   0.0800 
 39 H        1.3450     0.5350     0.1260 H     1 <1>   0.0800 
 40 H       -3.7290     5.1230    -2.5420 H     1 <1>   0.0800 
 41 H       -2.4440     6.3010    -2.4100 H     1 <1>   0.0800 
 42 H       -3.6150     6.1400    -1.1250 H     1 <1>   0.0800 
 43 H       -4.0700    -4.9100     1.6590 H     1 <1>   0.1500 
 44 H       -2.0410    -5.5810    -2.5710 H     1 <1>   0.1500 
 45 H       -1.6790    -7.1470    -0.7590 H     1 <1>   0.1500 
@<TRIPOS>BOND
  1   1   2  2   
  2   2   3  am  
  3   2   4  1   
  4   3   5  1   
  5   3   6  1   
  6   4   7  ar  
  7   4   8  ar  
  8   5   9  1   
  9   5  27  1   
 10   5  28  1   
 11   6  10  1   
 12   6  29  1   
 13   6  30  1   
 14   7  11  ar  
 15   7  12  1   
 16   8  13  ar  
 17   8  31  1   
 18   9  10  1   
 19   9  14  1   
 20   9  32  1   
 21  10  15  1   
 22  10  33  1   
 23  11  16  1   
 24  11  17  ar  
 25  12  18  2   
 26  12  19  1   
 27  13  17  ar  
 28  13  20  1   
 29  14  34  1   
 30  15  21  1   
 31  15  35  1   
 32  15  36  1   
 33  16  18  1   
 34  19  37  1   
 35  19  38  1   
 36  19  39  1   
 37  20  40  1   
 38  20  41  1   
 39  20  42  1   
 40  21  22  ar  
 41  21  23  ar  
 42  22  24  ar  
 43  23  25  ar  
 44  23  43  1   
 45  24  26  ar  
 46  24  44  1   
 47  25  26  ar  
 48  26  45  1   
@<TRIPOS>SUBSTRUCTURE
  1 ****   3 GROUP 4 **** **** 0

# MOE 2024.06 (io_trps.svl 2023.06)
