@<TRIPOS>MOLECULE
NONAME
54 58 1 0 0 
SMALL
USER_CHARGES


@<TRIPOS>ATOM
  1 S       -0.4160     0.5280     0.6780 S.3   1 <1>  -0.0800 
  2 C       -1.2750    -0.9520     0.2320 C.2   1 <1>   0.4620 
  3 C        1.0790    -0.1830     0.1170 C.ar  1 <1>   0.0400 
  4 N       -0.5300    -1.8630    -0.2750 N.2   1 <1>  -0.5650 
  5 N       -2.6270    -1.0230     0.4480 N.pl3 1 <1>  -0.8220 
  6 C        0.7910    -1.4530    -0.3490 C.ar  1 <1>   0.2270 
  7 C        2.3460     0.3680     0.1120 C.ar  1 <1>  -0.1500 
  8 C       -3.4340    -2.1840    -0.0030 C.3   1 <1>   0.2090 
  9 C       -3.4800     0.0620     0.9630 C.3   1 <1>   0.2090 
 10 C        1.8400    -2.2140    -0.8490 C.ar  1 <1>  -0.1500 
 11 C        3.3780    -0.4070    -0.3910 C.ar  1 <1>  -0.1500 
 12 C       -4.8830    -1.7940     0.2920 C.3   1 <1>   0.2800 
 13 C       -4.8530    -0.5840     1.2270 C.3   1 <1>  -0.0800 
 14 C        3.1240    -1.6910    -0.8680 C.ar  1 <1>  -0.1500 
 15 O       -5.5530    -1.2560    -0.7940 O.3   1 <1>  -0.5600 
 16 C       -5.8750    -2.8540     0.7680 C.3   1 <1>  -0.1600 
 17 C       -6.1650     0.1460     0.8300 C.3   1 <1>  -0.0800 
 18 C       -6.7210    -0.8530    -0.2000 C.3   1 <1>   0.2000 
 19 C       -7.2010    -2.1540     0.4600 C.3   1 <1>  -0.1600 
 20 C       -5.9410     1.5200     0.1730 C.3   1 <1>   0.3430 
 21 N       -7.1080     2.4520     0.3210 N.4   1 <1>  -0.9590 
 22 C       -8.3370     1.9600    -0.3950 C.3   1 <1>   0.3430 
 23 C       -6.7080     3.8130    -0.1620 C.3   1 <1>   0.2630 
 24 C       -9.5790     2.8220    -0.1380 C.3   1 <1>   0.1200 
 25 O      -10.6560     2.1540    -0.7010 O.3   1 <1>  -0.5600 
 26 C      -11.8790     2.8080    -0.5630 C.3   1 <1>   0.0400 
 27 H        2.5150     1.3620     0.4860 H     1 <1>   0.1500 
 28 H       -3.2860    -2.3770    -1.0520 H     1 <1>   0.0800 
 29 H       -3.1490    -3.0480     0.5710 H     1 <1>   0.0800 
 30 H       -3.0630     0.4720     1.8680 H     1 <1>   0.0800 
 31 H       -3.5150     0.8220     0.2040 H     1 <1>   0.0800 
 32 H        1.6340    -3.2030    -1.2150 H     1 <1>   0.1500 
 33 H        4.3820    -0.0170    -0.4140 H     1 <1>   0.1500 
 34 H       -4.8800    -0.9160     2.2500 H     1 <1>   0.0800 
 35 H        3.9360    -2.2830    -1.2560 H     1 <1>   0.1500 
 36 H       -5.7660    -3.7500     0.1830 H     1 <1>   0.0800 
 37 H       -5.7530    -3.0870     1.8110 H     1 <1>   0.0800 
 38 H       -6.8130     0.2360     1.6830 H     1 <1>   0.0800 
 39 H       -7.4010    -0.4630    -0.9360 H     1 <1>   0.0800 
 40 H       -7.7880    -1.9690     1.3420 H     1 <1>   0.0800 
 41 H       -7.7810    -2.7310    -0.2390 H     1 <1>   0.0800 
 42 H       -5.6970     1.3800    -0.8690 H     1 <1>   0.0800 
 43 H       -5.0910     1.9820     0.6460 H     1 <1>   0.0800 
 44 H       -7.3300     2.5150     1.3250 H     1 <1>   0.4500 
 45 H       -8.1520     1.9220    -1.4560 H     1 <1>   0.0800 
 46 H       -8.5700     0.9650    -0.0560 H     1 <1>   0.0800 
 47 H       -6.4860     3.7860    -1.2170 H     1 <1>   0.0800 
 48 H       -5.8310     4.1550     0.3640 H     1 <1>   0.0800 
 49 H       -7.5010     4.5230     0.0050 H     1 <1>   0.0800 
 50 H       -9.4930     3.7850    -0.6120 H     1 <1>   0.0800 
 51 H       -9.7640     2.9290     0.9170 H     1 <1>   0.0800 
 52 H      -12.6370     2.2030    -1.0310 H     1 <1>   0.0800 
 53 H      -11.8330     3.7660    -1.0510 H     1 <1>   0.0800 
 54 H      -12.1100     2.9250     0.4820 H     1 <1>   0.0800 
@<TRIPOS>BOND
  1   1   2  1   
  2   1   3  1   
  3   2   4  2   
  4   2   5  1   
  5   3   6  ar  
  6   3   7  ar  
  7   4   6  1   
  8   5   8  1   
  9   5   9  1   
 10   6  10  ar  
 11   7  11  ar  
 12   7  27  1   
 13   8  12  1   
 14   8  28  1   
 15   8  29  1   
 16   9  13  1   
 17   9  30  1   
 18   9  31  1   
 19  10  14  ar  
 20  10  32  1   
 21  11  14  ar  
 22  11  33  1   
 23  12  13  1   
 24  12  15  1   
 25  12  16  1   
 26  13  17  1   
 27  13  34  1   
 28  14  35  1   
 29  15  18  1   
 30  16  19  1   
 31  16  36  1   
 32  16  37  1   
 33  17  18  1   
 34  17  20  1   
 35  17  38  1   
 36  18  19  1   
 37  18  39  1   
 38  19  40  1   
 39  19  41  1   
 40  20  21  1   
 41  20  42  1   
 42  20  43  1   
 43  21  22  1   
 44  21  23  1   
 45  21  44  1   
 46  22  24  1   
 47  22  45  1   
 48  22  46  1   
 49  23  47  1   
 50  23  48  1   
 51  23  49  1   
 52  24  25  1   
 53  24  50  1   
 54  24  51  1   
 55  25  26  1   
 56  26  52  1   
 57  26  53  1   
 58  26  54  1   
@<TRIPOS>SUBSTRUCTURE
  1 ****   9 GROUP 4 **** **** 0

# MOE 2024.06 (io_trps.svl 2023.06)
