@<TRIPOS>MOLECULE
NONAME
46 48 1 0 0 
SMALL
USER_CHARGES


@<TRIPOS>ATOM
  1 O        0.6900    -1.4060    -0.3580 O.3   1 <1>  -0.5600 
  2 C        0.2160    -2.3590     0.5690 C.3   1 <1>   0.4180 
  3 C        0.5420    -0.0510    -0.0200 C.3   1 <1>   0.1200 
  4 C       -1.1040    -1.9090     1.1820 C.2   1 <1>  -0.2880 
  5 C        1.2930    -2.5900     1.6340 C.3   1 <1>  -0.1600 
  6 C        0.0100    -3.6540    -0.2260 C.3   1 <1>  -0.1600 
  7 C       -0.9410     0.3160     0.1140 C.3   1 <1>  -0.0220 
  8 C       -1.6530    -0.7100     0.9760 C.2   1 <1>  -0.2760 
  9 C        2.6330    -3.0260     1.0290 C.3   1 <1>   0.3430 
 10 C        1.3150    -4.3860    -0.5660 C.3   1 <1>   0.3430 
 11 C       -2.9880    -0.2650     1.5460 C.3   1 <1>  -0.1020 
 12 N        2.4710    -3.4730    -0.3890 N.4   1 <1>  -0.9590 
 13 C        3.7340    -3.9840    -0.9820 C.3   1 <1>   0.4860 
 14 C        4.7590    -2.8730    -0.9950 C.ar  1 <1>  -0.1440 
 15 C        5.7340    -2.8330    -0.0040 C.ar  1 <1>   0.3930 
 16 C        4.7460    -1.8950    -1.9690 C.ar  1 <1>  -0.1500 
 17 O        5.7050    -3.8060     0.9360 O.3   1 <1>  -0.3620 
 18 N        6.6700    -1.8980     0.0840 N.ar  1 <1>  -0.6200 
 19 C        5.7220    -0.9230    -1.8890 C.ar  1 <1>  -0.1500 
 20 C        6.7150    -3.8850     1.9280 C.3   1 <1>   0.0400 
 21 C        6.6450    -0.9710    -0.8590 C.ar  1 <1>   0.1600 
 22 H        1.0010     0.5390    -0.7940 H     1 <1>   0.0800 
 23 H        1.0570     0.1330     0.9070 H     1 <1>   0.0800 
 24 H       -1.5660    -2.6600     1.7990 H     1 <1>   0.1500 
 25 H        0.9550    -3.3570     2.3070 H     1 <1>   0.0800 
 26 H        1.4300    -1.7050     2.2280 H     1 <1>   0.0800 
 27 H       -0.5310    -3.4280    -1.1280 H     1 <1>   0.0800 
 28 H       -0.6050    -4.3300     0.3400 H     1 <1>   0.0800 
 29 H       -1.3990     0.3590    -0.8580 H     1 <1>   0.0800 
 30 H       -1.0130     1.2910     0.5610 H     1 <1>   0.0800 
 31 H        3.0610    -3.8160     1.6250 H     1 <1>   0.0800 
 32 H        3.3140    -2.1890     1.0560 H     1 <1>   0.0800 
 33 H        1.2680    -4.7400    -1.5830 H     1 <1>   0.0800 
 34 H        1.4300    -5.2380     0.0850 H     1 <1>   0.0800 
 35 H       -3.6640    -0.0090     0.7500 H     1 <1>   0.0800 
 36 H       -2.8560     0.5940     2.1790 H     1 <1>   0.0800 
 37 H       -3.4330    -1.0520     2.1290 H     1 <1>   0.0800 
 38 H        2.2060    -2.6040    -0.8910 H     1 <1>   0.4500 
 39 H        3.5590    -4.3130    -1.9930 H     1 <1>   0.0800 
 40 H        4.1010    -4.8220    -0.4120 H     1 <1>   0.0800 
 41 H        4.0200    -1.8760    -2.7650 H     1 <1>   0.1500 
 42 H        5.7720    -0.1330    -2.6180 H     1 <1>   0.1500 
 43 H        6.5190    -4.7380     2.5510 H     1 <1>   0.0800 
 44 H        6.7000    -2.9850     2.5170 H     1 <1>   0.0800 
 45 H        7.6710    -3.9940     1.4440 H     1 <1>   0.0800 
 46 H        7.4020    -0.2050    -0.8080 H     1 <1>   0.1500 
@<TRIPOS>BOND
  1   1   2  1   
  2   1   3  1   
  3   2   4  1   
  4   2   5  1   
  5   2   6  1   
  6   3   7  1   
  7   3  22  1   
  8   3  23  1   
  9   4   8  2   
 10   4  24  1   
 11   5   9  1   
 12   5  25  1   
 13   5  26  1   
 14   6  10  1   
 15   6  27  1   
 16   6  28  1   
 17   7   8  1   
 18   7  29  1   
 19   7  30  1   
 20   8  11  1   
 21   9  12  1   
 22   9  31  1   
 23   9  32  1   
 24  10  12  1   
 25  10  33  1   
 26  10  34  1   
 27  11  35  1   
 28  11  36  1   
 29  11  37  1   
 30  12  13  1   
 31  12  38  1   
 32  13  14  1   
 33  13  39  1   
 34  13  40  1   
 35  14  15  ar  
 36  14  16  ar  
 37  15  17  1   
 38  15  18  ar  
 39  16  19  ar  
 40  16  41  1   
 41  17  20  1   
 42  18  21  ar  
 43  19  21  ar  
 44  19  42  1   
 45  20  43  1   
 46  20  44  1   
 47  20  45  1   
 48  21  46  1   
@<TRIPOS>SUBSTRUCTURE
  1 ****   9 GROUP 4 **** **** 0

# MOE 2024.06 (io_trps.svl 2023.06)
