@<TRIPOS>MOLECULE
NONAME
49 51 1 0 0 
SMALL
USER_CHARGES


@<TRIPOS>ATOM
  1 CL      -2.3030    -0.1020    -3.2810 Cl    1 <1>  -0.1770 
  2 C       -3.1530    -0.5690    -1.8310 C.ar  1 <1>   0.1770 
  3 C       -3.2090    -1.9020    -1.4770 C.ar  1 <1>  -0.1500 
  4 C       -3.7570     0.4020    -1.0580 C.ar  1 <1>  -0.1500 
  5 C       -3.8840    -2.2870    -0.3270 C.ar  1 <1>  -0.1440 
  6 C       -4.4320     0.0250     0.0890 C.ar  1 <1>  -0.1500 
  7 C       -4.5030    -1.3150     0.4580 C.ar  1 <1>  -0.1430 
  8 C       -3.9120    -3.7660     0.0370 C.3   1 <1>  -0.0960 
  9 C       -5.2730    -1.6800     1.7180 C.3   1 <1>   0.4870 
 10 N       -6.7180    -1.4420     1.4800 N.4   1 <1>  -0.9590 
 11 C       -7.5570    -1.5210     2.7060 C.3   1 <1>   0.3430 
 12 C       -7.2910    -2.2200     0.3540 C.3   1 <1>   0.3430 
 13 C       -9.0400    -1.2990     2.3690 C.3   1 <1>  -0.1600 
 14 C       -8.6120    -1.5800    -0.0780 C.3   1 <1>  -0.1600 
 15 C       -9.2600    -0.6680     0.9850 C.3   1 <1>   0.2800 
 16 O       -8.5280     0.5400     0.9790 O.3   1 <1>  -0.5600 
 17 C      -10.7640    -0.4360     0.7230 C.3   1 <1>  -0.1600 
 18 C       -9.1820     1.7380     0.6580 C.3   1 <1>   0.1200 
 19 C      -11.0290     0.4430    -0.5070 C.3   1 <1>   0.2800 
 20 C       -9.9910     1.5720    -0.6320 C.3   1 <1>  -0.1600 
 21 O      -10.9210    -0.3560    -1.6190 O.3   1 <1>  -0.6800 
 22 C      -12.4640     0.9700    -0.5030 C.3   1 <1>  -0.2400 
 23 H       -2.7200    -2.6230    -2.1080 H     1 <1>   0.1500 
 24 H       -3.6940     1.4340    -1.3550 H     1 <1>   0.1500 
 25 H       -4.8970     0.7910     0.6870 H     1 <1>   0.1500 
 26 H       -3.3970    -4.3520    -0.7050 H     1 <1>   0.0800 
 27 H       -4.9230    -4.1260     0.0950 H     1 <1>   0.0800 
 28 H       -3.4210    -3.9280     0.9800 H     1 <1>   0.0800 
 29 H       -4.9280    -1.0630     2.5310 H     1 <1>   0.0800 
 30 H       -5.1050    -2.7110     1.9780 H     1 <1>   0.0800 
 31 H       -6.8290    -0.4600     1.1620 H     1 <1>   0.4500 
 32 H       -7.2410    -0.7550     3.3960 H     1 <1>   0.0800 
 33 H       -7.4360    -2.4790     3.1840 H     1 <1>   0.0800 
 34 H       -7.4610    -3.2370     0.6680 H     1 <1>   0.0800 
 35 H       -6.6130    -2.2310    -0.4850 H     1 <1>   0.0800 
 36 H       -9.4850    -0.6840     3.1300 H     1 <1>   0.0800 
 37 H       -9.5440    -2.2480     2.4040 H     1 <1>   0.0800 
 38 H       -9.2900    -2.3730    -0.3350 H     1 <1>   0.0800 
 39 H       -8.4470    -1.0170    -0.9790 H     1 <1>   0.0800 
 40 H      -11.1840     0.0460     1.5870 H     1 <1>   0.0800 
 41 H      -11.2810    -1.3740     0.6170 H     1 <1>   0.0800 
 42 H       -8.4310     2.5000     0.5350 H     1 <1>   0.0800 
 43 H       -9.8180     2.0120     1.4820 H     1 <1>   0.0800 
 44 H       -9.3010     1.3750    -1.4340 H     1 <1>   0.0800 
 45 H      -10.4770     2.5060    -0.8480 H     1 <1>   0.0800 
 46 H      -11.2220     0.1380    -2.4050 H     1 <1>   0.4000 
 47 H      -12.6210     1.6090     0.3470 H     1 <1>   0.0800 
 48 H      -13.1620     0.1550    -0.4430 H     1 <1>   0.0800 
 49 H      -12.6650     1.5420    -1.3910 H     1 <1>   0.0800 
@<TRIPOS>BOND
  1   1   2  1   
  2   2   3  ar  
  3   2   4  ar  
  4   3   5  ar  
  5   3  23  1   
  6   4   6  ar  
  7   4  24  1   
  8   5   7  ar  
  9   5   8  1   
 10   6   7  ar  
 11   6  25  1   
 12   7   9  1   
 13   8  26  1   
 14   8  27  1   
 15   8  28  1   
 16   9  10  1   
 17   9  29  1   
 18   9  30  1   
 19  10  11  1   
 20  10  12  1   
 21  10  31  1   
 22  11  13  1   
 23  11  32  1   
 24  11  33  1   
 25  12  14  1   
 26  12  34  1   
 27  12  35  1   
 28  13  15  1   
 29  13  36  1   
 30  13  37  1   
 31  14  15  1   
 32  14  38  1   
 33  14  39  1   
 34  15  16  1   
 35  15  17  1   
 36  16  18  1   
 37  17  19  1   
 38  17  40  1   
 39  17  41  1   
 40  18  20  1   
 41  18  42  1   
 42  18  43  1   
 43  19  20  1   
 44  19  21  1   
 45  19  22  1   
 46  20  44  1   
 47  20  45  1   
 48  21  46  1   
 49  22  47  1   
 50  22  48  1   
 51  22  49  1   
@<TRIPOS>SUBSTRUCTURE
  1 ****  12 GROUP 4 **** **** 0

# MOE 2024.06 (io_trps.svl 2023.06)
