@<TRIPOS>MOLECULE
NONAME
37 37 1 0 0 
SMALL
USER_CHARGES


@<TRIPOS>ATOM
  1 BR      -2.8450    -0.4200     1.3550 Br    1 <1>  -0.1110 
  2 C       -3.2020     1.1610     0.3180 C.ar  1 <1>   0.1110 
  3 C       -3.8360     1.0220    -0.9010 C.ar  1 <1>  -0.1500 
  4 C       -2.8160     2.3930     0.8190 C.ar  1 <1>  -0.1500 
  5 C       -4.0790     2.1790    -1.6150 C.ar  1 <1>   0.1110 
  6 C       -3.0630     3.5380     0.0740 C.ar  1 <1>  -0.1440 
  7 BR      -4.9650     2.0450    -3.3170 Br    1 <1>  -0.1110 
  8 C       -3.7090     3.4310    -1.1510 C.ar  1 <1>  -0.1500 
  9 C       -2.6420     4.9020     0.6040 C.3   1 <1>  -0.0160 
 10 C       -3.7130     5.4820     1.5440 C.3   1 <1>   0.1140 
 11 N       -4.0480     6.8840     1.1250 N.am  1 <1>  -0.7300 
 12 C       -3.2610     5.4200     3.0180 C.2   1 <1>   0.9060 
 13 C       -4.9090     7.2520     0.1570 C.2   1 <1>   0.7800 
 14 O       -3.1970     6.4820     3.6580 O.co2 1 <1>  -0.9000 
 15 O       -2.9570     4.3320     3.5240 O.co2 1 <1>  -0.9000 
 16 O       -5.3000     6.4820    -0.6980 O.2   1 <1>  -0.5700 
 17 O       -5.3000     8.5250     0.1910 O.3   1 <1>  -0.4300 
 18 C       -6.1970     9.1630    -0.6900 C.3   1 <1>   0.2800 
 19 C       -6.2920    10.6040    -0.1880 C.3   1 <1>  -0.2400 
 20 C       -5.6340     9.1610    -2.1160 C.3   1 <1>  -0.2400 
 21 C       -7.5810     8.5070    -0.6060 C.3   1 <1>  -0.2400 
 22 H       -4.1290     0.0590    -1.2750 H     1 <1>   0.1500 
 23 H       -2.3390     2.4610     1.7840 H     1 <1>   0.1500 
 24 H       -3.9300     4.3090    -1.7330 H     1 <1>   0.1500 
 25 H       -2.4770     5.5650    -0.2250 H     1 <1>   0.0800 
 26 H       -1.7090     4.8070     1.1310 H     1 <1>   0.0800 
 27 H       -4.6070     4.8900     1.4690 H     1 <1>   0.0800 
 28 H       -3.8780     7.5310     1.9070 H     1 <1>   0.3700 
 29 H       -5.3240    11.0710    -0.2150 H     1 <1>   0.0800 
 30 H       -6.6600    10.6220     0.8220 H     1 <1>   0.0800 
 31 H       -6.9620    11.1740    -0.8050 H     1 <1>   0.0800 
 32 H       -4.6350     9.5580    -2.1230 H     1 <1>   0.0800 
 33 H       -6.2490     9.7680    -2.7550 H     1 <1>   0.0800 
 34 H       -5.6210     8.1680    -2.5260 H     1 <1>   0.0800 
 35 H       -7.9080     8.4590     0.4170 H     1 <1>   0.0800 
 36 H       -7.5650     7.5150    -1.0170 H     1 <1>   0.0800 
 37 H       -8.2950     9.0800    -1.1680 H     1 <1>   0.0800 
@<TRIPOS>BOND
  1   1   2  1   
  2   2   3  ar  
  3   2   4  ar  
  4   3   5  ar  
  5   3  22  1   
  6   4   6  ar  
  7   4  23  1   
  8   5   7  1   
  9   5   8  ar  
 10   6   8  ar  
 11   6   9  1   
 12   8  24  1   
 13   9  10  1   
 14   9  25  1   
 15   9  26  1   
 16  10  11  1   
 17  10  12  1   
 18  10  27  1   
 19  11  13  am  
 20  11  28  1   
 21  12  14  ar  
 22  12  15  ar  
 23  13  16  2   
 24  13  17  1   
 25  17  18  1   
 26  18  19  1   
 27  18  20  1   
 28  18  21  1   
 29  19  29  1   
 30  19  30  1   
 31  19  31  1   
 32  20  32  1   
 33  20  33  1   
 34  20  34  1   
 35  21  35  1   
 36  21  36  1   
 37  21  37  1   
@<TRIPOS>SUBSTRUCTURE
  1 ****  10 GROUP 4 **** **** 0

# MOE 2024.06 (io_trps.svl 2023.06)
