@<TRIPOS>MOLECULE
NONAME
51 53 1 0 0 
SMALL
USER_CHARGES


@<TRIPOS>ATOM
  1 O       -2.4230    -2.6650     3.4180 O.3   1 <1>  -0.6800 
  2 C       -3.0390    -3.1100     2.2590 C.3   1 <1>   0.2000 
  3 C       -2.0870    -4.0480     1.4930 C.3   1 <1>   0.2090 
  4 C       -3.4150    -1.8790     1.4290 C.3   1 <1>  -0.1600 
  5 N       -2.6670    -4.4170     0.1580 N.pl3 1 <1>  -0.8380 
  6 C       -3.9690    -2.3070     0.0610 C.3   1 <1>  -0.1600 
  7 C       -2.9650    -5.6850    -0.2280 C.ar  1 <1>   0.4100 
  8 C       -2.9930    -3.2230    -0.6850 C.3   1 <1>   0.2090 
  9 N       -3.9980    -5.8580    -1.0330 N.ar  1 <1>  -0.6200 
 10 C       -2.1950    -6.7790     0.2180 C.ar  1 <1>  -0.1500 
 11 C       -4.3020    -7.0870    -1.3950 C.ar  1 <1>   0.7710 
 12 C       -2.5400    -8.0310    -0.1650 C.ar  1 <1>   0.2110 
 13 N       -3.6100    -8.1610    -0.9780 N.ar  1 <1>  -0.1790 
 14 N       -5.3590    -7.2080    -2.2100 N.pl3 1 <1>  -0.8690 
 15 C       -5.8690    -8.3650    -3.0060 C.3   1 <1>   0.2090 
 16 C       -6.8000    -9.2780    -2.1970 C.3   1 <1>   0.0960 
 17 N       -6.0640    -9.9430    -1.1030 N.pl3 1 <1>   0.3140 
 18 N       -4.9200   -10.6170    -1.3520 N.2   1 <1>  -0.7070 
 19 C       -6.3520    -9.9540     0.2180 C.2   1 <1>  -0.3320 
 20 C       -4.5630   -11.1130    -0.2100 C.2   1 <1>   0.1080 
 21 C       -5.4080   -10.7130     0.8190 C.2   1 <1>  -0.1810 
 22 C       -7.5510    -9.2390     0.8300 C.3   1 <1>  -0.0600 
 23 C       -3.3650   -12.0260    -0.0580 C.3   1 <1>  -0.0590 
 24 C       -5.2670   -11.1010     2.2820 C.3   1 <1>  -0.0590 
 25 H       -2.4370    -3.3550     4.1080 H     1 <1>   0.4000 
 26 H       -3.9300    -3.6460     2.5390 H     1 <1>   0.0800 
 27 H       -1.9200    -4.9240     2.0900 H     1 <1>   0.0800 
 28 H       -1.1460    -3.5470     1.3360 H     1 <1>   0.0800 
 29 H       -2.5410    -1.2680     1.2810 H     1 <1>   0.0800 
 30 H       -4.1540    -1.3010     1.9540 H     1 <1>   0.0800 
 31 H       -4.1610    -1.4340    -0.5380 H     1 <1>   0.0800 
 32 H       -4.9020    -2.8280     0.1890 H     1 <1>   0.0800 
 33 H       -3.4210    -3.5190    -1.6280 H     1 <1>   0.0800 
 34 H       -2.0840    -2.6860    -0.8950 H     1 <1>   0.0800 
 35 H       -1.3420    -6.6020     0.8450 H     1 <1>   0.1500 
 36 H       -2.0080    -8.9160     0.1430 H     1 <1>   0.1500 
 37 H       -3.9880    -9.0850    -1.2340 H     1 <1>   0.4570 
 38 H       -5.8110    -6.3100    -2.4190 H     1 <1>   0.4000 
 39 H       -5.0450    -8.9380    -3.4000 H     1 <1>   0.0800 
 40 H       -6.4160    -7.9810    -3.8510 H     1 <1>   0.0800 
 41 H       -7.1950   -10.0440    -2.8370 H     1 <1>   0.0800 
 42 H       -7.6200    -8.7110    -1.8000 H     1 <1>   0.0800 
 43 H       -8.4650    -9.6440     0.4340 H     1 <1>   0.0800 
 44 H       -7.5100    -8.1860     0.6120 H     1 <1>   0.0800 
 45 H       -7.5700    -9.3560     1.8970 H     1 <1>   0.0800 
 46 H       -2.7480   -11.9830    -0.9370 H     1 <1>   0.0800 
 47 H       -3.7060   -13.0380     0.0690 H     1 <1>   0.0800 
 48 H       -2.7810   -11.7460     0.7980 H     1 <1>   0.0800 
 49 H       -6.1250   -10.7920     2.8500 H     1 <1>   0.0800 
 50 H       -4.3920   -10.6420     2.7050 H     1 <1>   0.0800 
 51 H       -5.1780   -12.1690     2.3690 H     1 <1>   0.0800 
@<TRIPOS>BOND
  1   1   2  1   
  2   1  25  1   
  3   2   3  1   
  4   2   4  1   
  5   2  26  1   
  6   3   5  1   
  7   3  27  1   
  8   3  28  1   
  9   4   6  1   
 10   4  29  1   
 11   4  30  1   
 12   5   7  1   
 13   5   8  1   
 14   6   8  1   
 15   6  31  1   
 16   6  32  1   
 17   7   9  ar  
 18   7  10  ar  
 19   8  33  1   
 20   8  34  1   
 21   9  11  ar  
 22  10  12  ar  
 23  10  35  1   
 24  11  13  ar  
 25  11  14  1   
 26  12  13  ar  
 27  12  36  1   
 28  13  37  1   
 29  14  15  1   
 30  14  38  1   
 31  15  16  1   
 32  15  39  1   
 33  15  40  1   
 34  16  17  1   
 35  16  41  1   
 36  16  42  1   
 37  17  18  1   
 38  17  19  1   
 39  18  20  2   
 40  19  21  2   
 41  19  22  1   
 42  20  21  1   
 43  20  23  1   
 44  21  24  1   
 45  22  43  1   
 46  22  44  1   
 47  22  45  1   
 48  23  46  1   
 49  23  47  1   
 50  23  48  1   
 51  24  49  1   
 52  24  50  1   
 53  24  51  1   
@<TRIPOS>SUBSTRUCTURE
  1 ****  11 GROUP 4 **** **** 0

# MOE 2024.06 (io_trps.svl 2023.06)
