@<TRIPOS>MOLECULE
NONAME
41 43 1 0 0 
SMALL
USER_CHARGES


@<TRIPOS>ATOM
  1 O       -0.3870     0.1610     0.2210 O.2   1 <1>  -0.5700 
  2 C       -1.4460     0.7610     0.2160 C.2   1 <1>   0.7160 
  3 N       -2.6140     0.0330     0.1710 N.am  1 <1>  -0.6600 
  4 C       -1.4630     2.2060     0.2390 C.2   1 <1>  -0.0860 
  5 C       -3.9230     0.5780    -0.2670 C.3   1 <1>   0.1400 
  6 C       -2.6160    -1.4490     0.1040 C.3   1 <1>   0.1400 
  7 C       -0.6780     3.0920    -0.4350 C.2   1 <1>  -0.0400 
  8 C       -2.3220     3.0270     1.0020 C.2   1 <1>  -0.1500 
  9 C       -4.7070    -0.6350    -0.7680 C.3   1 <1>   0.2000 
 10 C       -4.0850    -1.8410    -0.0670 C.3   1 <1>  -0.0800 
 11 O       -1.0080     4.3290    -0.1520 O.3   1 <1>  -0.2800 
 12 C        0.4560     2.8630    -1.4130 C.3   1 <1>  -0.0600 
 13 C       -1.9950     4.3010     0.7140 C.2   1 <1>  -0.0400 
 14 O       -6.0520    -0.5430    -0.4490 O.3   1 <1>  -0.6800 
 15 C       -4.3040    -3.1520    -0.8420 C.3   1 <1>  -0.0170 
 16 C       -2.5550     5.6140     1.2150 C.3   1 <1>  -0.0600 
 17 C       -3.7280    -4.3490    -0.1020 C.ar  1 <1>   0.1670 
 18 N       -2.4290    -4.5610    -0.2420 N.ar  1 <1>  -0.6200 
 19 C       -4.5590    -5.1540     0.6760 C.ar  1 <1>   0.1600 
 20 C       -2.0210    -5.6180     0.4410 C.ar  1 <1>   0.1600 
 21 N       -4.1530    -6.2090     1.3610 N.ar  1 <1>  -0.6200 
 22 C       -2.8540    -6.4150     1.2170 C.ar  1 <1>   0.1600 
 23 H       -4.4180     1.0290     0.5740 H     1 <1>   0.0800 
 24 H       -3.7910     1.3000    -1.0550 H     1 <1>   0.0800 
 25 H       -2.0320    -1.7650    -0.7450 H     1 <1>   0.0800 
 26 H       -2.1920    -1.8740     0.9980 H     1 <1>   0.0800 
 27 H       -3.0740     2.6690     1.6800 H     1 <1>   0.1500 
 28 H       -4.6140    -0.7120    -1.8380 H     1 <1>   0.0800 
 29 H       -4.5040    -1.9360     0.9200 H     1 <1>   0.0800 
 30 H        0.6150     1.8130    -1.5750 H     1 <1>   0.0800 
 31 H        1.3600     3.2930    -1.0210 H     1 <1>   0.0800 
 32 H        0.2250     3.3300    -2.3520 H     1 <1>   0.0800 
 33 H       -6.1720    -0.4750     0.5180 H     1 <1>   0.4000 
 34 H       -3.8440    -3.0870    -1.8130 H     1 <1>   0.0800 
 35 H       -5.3580    -3.3000    -0.9950 H     1 <1>   0.0800 
 36 H       -3.3490     5.4370     1.9160 H     1 <1>   0.0800 
 37 H       -2.9350     6.1840     0.3870 H     1 <1>   0.0800 
 38 H       -1.7770     6.1760     1.6980 H     1 <1>   0.0800 
 39 H       -5.6050    -4.9130     0.7360 H     1 <1>   0.1500 
 40 H       -0.9760    -5.8650     0.3850 H     1 <1>   0.1500 
 41 H       -2.4290    -7.2540     1.7360 H     1 <1>   0.1500 
@<TRIPOS>BOND
  1   1   2  2   
  2   2   3  am  
  3   2   4  1   
  4   3   5  1   
  5   3   6  1   
  6   4   7  2   
  7   4   8  1   
  8   5   9  1   
  9   5  23  1   
 10   5  24  1   
 11   6  10  1   
 12   6  25  1   
 13   6  26  1   
 14   7  11  1   
 15   7  12  1   
 16   8  13  2   
 17   8  27  1   
 18   9  10  1   
 19   9  14  1   
 20   9  28  1   
 21  10  15  1   
 22  10  29  1   
 23  11  13  1   
 24  12  30  1   
 25  12  31  1   
 26  12  32  1   
 27  13  16  1   
 28  14  33  1   
 29  15  17  1   
 30  15  34  1   
 31  15  35  1   
 32  16  36  1   
 33  16  37  1   
 34  16  38  1   
 35  17  18  ar  
 36  17  19  ar  
 37  18  20  ar  
 38  19  21  ar  
 39  19  39  1   
 40  20  22  ar  
 41  20  40  1   
 42  21  22  ar  
 43  22  41  1   
@<TRIPOS>SUBSTRUCTURE
  1 ****   3 GROUP 4 **** **** 0

# MOE 2024.06 (io_trps.svl 2023.06)
