@<TRIPOS>MOLECULE
NONAME
50 52 1 0 0 
SMALL
USER_CHARGES


@<TRIPOS>ATOM
  1 O       -0.9190    -0.4680    -0.5710 O.2   1 <1>  -0.5700 
  2 C       -1.6870     0.2980     0.0040 C.2   1 <1>   0.6160 
  3 N       -1.5140     1.6740    -0.1550 N.am  1 <1>  -0.4690 
  4 C       -2.7800    -0.1860     0.7920 C.2   1 <1>   0.0290 
  5 C       -2.4330     2.5550     0.3810 C.2   1 <1>  -0.0290 
  6 C       -0.3300     2.1740    -0.9210 C.3   1 <1>   0.0600 
  7 C       -3.6750     0.7110     1.3280 C.2   1 <1>  -0.1380 
  8 C       -2.8730    -1.6070     0.9840 C.2   1 <1>   0.6160 
  9 C       -3.4880     2.0890     1.1040 C.2   1 <1>  -0.1500 
 10 C       -2.2660     4.0520     0.1570 C.3   1 <1>  -0.1020 
 11 C       -4.8780     0.3050     2.1730 C.3   1 <1>  -0.1020 
 12 O       -2.6190    -2.0730     2.0800 O.2   1 <1>  -0.5700 
 13 N       -3.3200    -2.4470    -0.0120 N.am  1 <1>  -0.6600 
 14 C       -3.4610    -3.9270     0.2130 C.3   1 <1>   0.3640 
 15 C       -3.7140    -1.9460    -1.3670 C.3   1 <1>   0.1400 
 16 C       -2.2610    -4.7190    -0.3400 C.ar  1 <1>  -0.1440 
 17 C       -4.8150    -4.4470    -0.3740 C.3   1 <1>   0.2000 
 18 C       -4.3420    -3.0470    -2.2340 C.3   1 <1>   0.1200 
 19 C       -2.2220    -6.0930    -0.1300 C.ar  1 <1>  -0.1500 
 20 C       -1.1980    -4.1310    -1.0210 C.ar  1 <1>  -0.1500 
 21 O       -5.3020    -3.7300    -1.4890 O.3   1 <1>  -0.5600 
 22 C       -5.9250    -4.4100     0.6830 C.3   1 <1>   0.1200 
 23 C       -1.1770    -6.8620    -0.6120 C.ar  1 <1>  -0.1500 
 24 C       -0.1510    -4.8960    -1.5040 C.ar  1 <1>  -0.1500 
 25 O       -5.7350    -5.4230     1.6190 O.3   1 <1>  -0.6800 
 26 C       -0.1410    -6.2640    -1.3050 C.ar  1 <1>  -0.1500 
 27 H        0.1210     3.0030    -0.4090 H     1 <1>   0.0800 
 28 H       -0.6410     2.4830    -1.9030 H     1 <1>   0.0800 
 29 H        0.4210     1.4090    -1.0220 H     1 <1>   0.0800 
 30 H       -4.2060     2.7690     1.5280 H     1 <1>   0.1500 
 31 H       -2.2220     4.2690    -0.8950 H     1 <1>   0.0800 
 32 H       -1.3660     4.4000     0.6310 H     1 <1>   0.0800 
 33 H       -3.0930     4.5950     0.5750 H     1 <1>   0.0800 
 34 H       -5.7740     0.7430     1.7720 H     1 <1>   0.0800 
 35 H       -4.7450     0.6520     3.1820 H     1 <1>   0.0800 
 36 H       -5.0130    -0.7610     2.2030 H     1 <1>   0.0800 
 37 H       -3.4740    -4.1230     1.2720 H     1 <1>   0.0800 
 38 H       -4.4270    -1.1480    -1.2550 H     1 <1>   0.0800 
 39 H       -2.8500    -1.5550    -1.8740 H     1 <1>   0.0800 
 40 H       -4.7020    -5.4630    -0.7030 H     1 <1>   0.0800 
 41 H       -3.6000    -3.7470    -2.5770 H     1 <1>   0.0800 
 42 H       -4.8290    -2.6150    -3.0900 H     1 <1>   0.0800 
 43 H       -3.0080    -6.5780     0.4210 H     1 <1>   0.1500 
 44 H       -1.1590    -3.0680    -1.1780 H     1 <1>   0.1500 
 45 H       -6.8890    -4.5540     0.2270 H     1 <1>   0.0800 
 46 H       -5.9090    -3.4680     1.2040 H     1 <1>   0.0800 
 47 H       -1.1670    -7.9240    -0.4440 H     1 <1>   0.1500 
 48 H        0.6580    -4.4200    -2.0290 H     1 <1>   0.1500 
 49 H       -6.0400    -6.2820     1.2660 H     1 <1>   0.4000 
 50 H        0.6740    -6.8580    -1.6800 H     1 <1>   0.1500 
@<TRIPOS>BOND
  1   1   2  2   
  2   2   3  am  
  3   2   4  1   
  4   3   5  1   
  5   3   6  1   
  6   4   7  2   
  7   4   8  1   
  8   5   9  2   
  9   5  10  1   
 10   6  27  1   
 11   6  28  1   
 12   6  29  1   
 13   7   9  1   
 14   7  11  1   
 15   8  12  2   
 16   8  13  am  
 17   9  30  1   
 18  10  31  1   
 19  10  32  1   
 20  10  33  1   
 21  11  34  1   
 22  11  35  1   
 23  11  36  1   
 24  13  14  1   
 25  13  15  1   
 26  14  16  1   
 27  14  17  1   
 28  14  37  1   
 29  15  18  1   
 30  15  38  1   
 31  15  39  1   
 32  16  19  ar  
 33  16  20  ar  
 34  17  21  1   
 35  17  22  1   
 36  17  40  1   
 37  18  21  1   
 38  18  41  1   
 39  18  42  1   
 40  19  23  ar  
 41  19  43  1   
 42  20  24  ar  
 43  20  44  1   
 44  22  25  1   
 45  22  45  1   
 46  22  46  1   
 47  23  26  ar  
 48  23  47  1   
 49  24  26  ar  
 50  24  48  1   
 51  25  49  1   
 52  26  50  1   
@<TRIPOS>SUBSTRUCTURE
  1 ****  13 GROUP 4 **** **** 0

# MOE 2024.06 (io_trps.svl 2023.06)
