@<TRIPOS>MOLECULE
NONAME
49 51 1 0 0 
SMALL
USER_CHARGES


@<TRIPOS>ATOM
  1 O        0.2670     0.4700    -0.9760 O.2   1 <1>  -0.5700 
  2 C        1.1040    -0.2100    -0.4370 C.2   1 <1>   0.5690 
  3 N        0.8620    -1.4710    -0.0130 N.am  1 <1>  -0.7300 
  4 C        2.4830     0.3720    -0.2260 C.3   1 <1>  -0.0990 
  5 C       -0.4260    -2.1750    -0.1450 C.3   1 <1>   0.2200 
  6 C        2.5590     1.7400    -0.9060 C.3   1 <1>   0.3430 
  7 C       -0.8760    -2.6340     1.2350 C.3   1 <1>  -0.1600 
  8 C       -0.1930    -3.4830    -0.8900 C.3   1 <1>  -0.1600 
  9 N        3.8650     2.4250    -0.6600 N.4   1 <1>  -0.9590 
 10 C       -0.1030    -3.9270     1.5200 C.3   1 <1>  -0.1600 
 11 C        0.3370    -4.4720     0.1550 C.3   1 <1>  -0.1600 
 12 C        3.7660     3.8580    -1.0610 C.3   1 <1>   0.4860 
 13 C        5.0140     1.7460    -1.3440 C.3   1 <1>   0.2630 
 14 C        4.9860     4.5970    -0.5420 C.ar  1 <1>  -0.1440 
 15 C        5.0700     4.9960     0.7680 C.ar  1 <1>  -0.1500 
 16 C        6.0480     4.8780    -1.4160 C.ar  1 <1>  -0.1500 
 17 C        6.2070     5.6670     1.2600 C.ar  1 <1>   0.0000 
 18 C        7.1620     5.5270    -0.9560 C.ar  1 <1>  -0.1500 
 19 C        7.2810     5.9330     0.3810 C.ar  1 <1>   0.3100 
 20 C        6.3320     6.0900     2.5950 C.ar  1 <1>  -0.1500 
 21 N        8.4160     6.5600     0.7760 N.ar  1 <1>  -0.6200 
 22 C        7.4800     6.7220     2.9650 C.ar  1 <1>  -0.1500 
 23 C        8.4910     6.9320     2.0170 C.ar  1 <1>   0.1600 
 24 H        1.5770    -2.0320     0.4510 H     1 <1>   0.3700 
 25 H        3.2010    -0.3040    -0.6480 H     1 <1>   0.0800 
 26 H        2.6480     0.4710     0.8300 H     1 <1>   0.0800 
 27 H       -1.1610    -1.5520    -0.6300 H     1 <1>   0.0800 
 28 H        1.7540     2.3490    -0.5230 H     1 <1>   0.0800 
 29 H        2.3950     1.6200    -1.9660 H     1 <1>   0.0800 
 30 H       -1.9270    -2.8620     1.1890 H     1 <1>   0.0800 
 31 H       -0.7240    -1.8810     1.9880 H     1 <1>   0.0800 
 32 H        0.4690    -3.3660    -1.7300 H     1 <1>   0.0800 
 33 H       -1.1420    -3.8390    -1.2530 H     1 <1>   0.0800 
 34 H        4.0550     2.4320     0.3520 H     1 <1>   0.4500 
 35 H       -0.7240    -4.6350     2.0430 H     1 <1>   0.0800 
 36 H        0.7620    -3.7150     2.1250 H     1 <1>   0.0800 
 37 H        1.4120    -4.5160     0.1100 H     1 <1>   0.0800 
 38 H       -0.0560    -5.4590    -0.0190 H     1 <1>   0.0800 
 39 H        2.8810     4.3010    -0.6340 H     1 <1>   0.0800 
 40 H        3.7060     3.9470    -2.1340 H     1 <1>   0.0800 
 41 H        4.8670     1.7430    -2.4120 H     1 <1>   0.0800 
 42 H        5.1060     0.7270    -1.0050 H     1 <1>   0.0800 
 43 H        5.9370     2.2580    -1.1230 H     1 <1>   0.0800 
 44 H        4.2680     4.8130     1.4620 H     1 <1>   0.1500 
 45 H        5.9920     4.5890    -2.4520 H     1 <1>   0.1500 
 46 H        7.9860     5.7520    -1.6090 H     1 <1>   0.1500 
 47 H        5.5350     5.9140     3.2950 H     1 <1>   0.1500 
 48 H        7.6320     7.0690     3.9720 H     1 <1>   0.1500 
 49 H        9.3880     7.4340     2.3420 H     1 <1>   0.1500 
@<TRIPOS>BOND
  1   1   2  2   
  2   2   3  am  
  3   2   4  1   
  4   3   5  1   
  5   3  24  1   
  6   4   6  1   
  7   4  25  1   
  8   4  26  1   
  9   5   7  1   
 10   5   8  1   
 11   5  27  1   
 12   6   9  1   
 13   6  28  1   
 14   6  29  1   
 15   7  10  1   
 16   7  30  1   
 17   7  31  1   
 18   8  11  1   
 19   8  32  1   
 20   8  33  1   
 21   9  12  1   
 22   9  13  1   
 23   9  34  1   
 24  10  11  1   
 25  10  35  1   
 26  10  36  1   
 27  11  37  1   
 28  11  38  1   
 29  12  14  1   
 30  12  39  1   
 31  12  40  1   
 32  13  41  1   
 33  13  42  1   
 34  13  43  1   
 35  14  15  ar  
 36  14  16  ar  
 37  15  17  ar  
 38  15  44  1   
 39  16  18  ar  
 40  16  45  1   
 41  17  19  ar  
 42  17  20  ar  
 43  18  19  ar  
 44  18  46  1   
 45  19  21  ar  
 46  20  22  ar  
 47  20  47  1   
 48  21  23  ar  
 49  22  23  ar  
 50  22  48  1   
 51  23  49  1   
@<TRIPOS>SUBSTRUCTURE
  1 ****   9 GROUP 4 **** **** 0

# MOE 2024.06 (io_trps.svl 2023.06)
