@<TRIPOS>MOLECULE
NONAME
49 50 1 0 0 
SMALL
USER_CHARGES


@<TRIPOS>ATOM
  1 O        1.5700    -1.1330    -2.0160 O.2   1 <1>  -0.5700 
  2 C        1.8650    -1.3640    -0.8670 C.2   1 <1>   0.5690 
  3 N        2.0810    -0.3880     0.0700 N.am  1 <1>  -0.4940 
  4 C        2.0160    -2.8270    -0.4290 C.3   1 <1>   0.1710 
  5 C        2.0400     1.0260    -0.0100 C.2   1 <1>  -0.0880 
  6 N        0.8280    -3.4360     0.2280 N.3   1 <1>  -0.8100 
  7 N        1.2350     1.7990    -0.7940 N.pl3 1 <1>   0.3140 
  8 C        2.7890     1.8840     0.7240 C.2   1 <1>  -0.1810 
  9 C       -0.3270    -3.4740    -0.6950 C.3   1 <1>   0.2530 
 10 C        0.4860    -2.8110     1.5150 C.3   1 <1>   0.0300 
 11 N        1.4490     3.1130    -0.5720 N.2   1 <1>  -0.7070 
 12 C        0.1700     1.3900    -1.7190 C.3   1 <1>   0.0160 
 13 C        2.3790     3.1550     0.3280 C.2   1 <1>   0.1080 
 14 C        3.8580     1.5700     1.7560 C.3   1 <1>  -0.0590 
 15 C       -1.4860    -4.2710    -0.1110 C.ar  1 <1>  -0.1430 
 16 C        2.9230     4.4710     0.8550 C.3   1 <1>   0.0210 
 17 C       -2.7410    -3.6960     0.0240 C.ar  1 <1>  -0.1500 
 18 C       -1.3010    -5.5850     0.2900 C.ar  1 <1>  -0.1500 
 19 C        4.1130     4.9510     0.0190 C.3   1 <1>  -0.2400 
 20 C       -3.7930    -4.4250     0.5510 C.ar  1 <1>  -0.1500 
 21 C       -2.3530    -6.3140     0.8170 C.ar  1 <1>  -0.1500 
 22 C       -3.6050    -5.7370     0.9520 C.ar  1 <1>  -0.1430 
 23 C       -4.7580    -6.5370     1.5290 C.3   1 <1>  -0.0970 
 24 H        2.3730    -0.7380     0.9810 H     1 <1>   0.3700 
 25 H        2.8570    -2.9030     0.2370 H     1 <1>   0.0800 
 26 H        2.2580    -3.4070    -1.3020 H     1 <1>   0.0800 
 27 H       -0.0280    -3.9400    -1.6180 H     1 <1>   0.0800 
 28 H       -0.6490    -2.4720    -0.9200 H     1 <1>   0.0800 
 29 H        1.3530    -2.7720     2.1500 H     1 <1>   0.0800 
 30 H       -0.2650    -3.3970     2.0190 H     1 <1>   0.0800 
 31 H        0.1010    -1.8160     1.3680 H     1 <1>   0.0800 
 32 H       -0.3390     0.5340    -1.3210 H     1 <1>   0.0800 
 33 H        0.6080     1.1490    -2.6690 H     1 <1>   0.0800 
 34 H       -0.5240     2.2010    -1.8380 H     1 <1>   0.0800 
 35 H        4.0720     0.5180     1.7780 H     1 <1>   0.0800 
 36 H        3.5260     1.8780     2.7310 H     1 <1>   0.0800 
 37 H        4.7640     2.0960     1.5130 H     1 <1>   0.0800 
 38 H        3.2160     4.3570     1.8810 H     1 <1>   0.0800 
 39 H        2.1380     5.2060     0.8150 H     1 <1>   0.0800 
 40 H       -2.9050    -2.6780    -0.2810 H     1 <1>   0.1500 
 41 H       -0.3290    -6.0370     0.1940 H     1 <1>   0.1500 
 42 H        4.9070     4.2270     0.0490 H     1 <1>   0.0800 
 43 H        4.4780     5.8900     0.3950 H     1 <1>   0.0800 
 44 H        3.8070     5.0810    -1.0050 H     1 <1>   0.0800 
 45 H       -4.7610    -3.9660     0.6480 H     1 <1>   0.1500 
 46 H       -2.1890    -7.3320     1.1220 H     1 <1>   0.1500 
 47 H       -5.4520    -5.8880     2.0320 H     1 <1>   0.0800 
 48 H       -4.3960    -7.2610     2.2370 H     1 <1>   0.0800 
 49 H       -5.2740    -7.0520     0.7380 H     1 <1>   0.0800 
@<TRIPOS>BOND
  1   1   2  2   
  2   2   3  am  
  3   2   4  1   
  4   3   5  1   
  5   3  24  1   
  6   4   6  1   
  7   4  25  1   
  8   4  26  1   
  9   5   7  1   
 10   5   8  2   
 11   6   9  1   
 12   6  10  1   
 13   7  11  1   
 14   7  12  1   
 15   8  13  1   
 16   8  14  1   
 17   9  15  1   
 18   9  27  1   
 19   9  28  1   
 20  10  29  1   
 21  10  30  1   
 22  10  31  1   
 23  11  13  2   
 24  12  32  1   
 25  12  33  1   
 26  12  34  1   
 27  13  16  1   
 28  14  35  1   
 29  14  36  1   
 30  14  37  1   
 31  15  17  ar  
 32  15  18  ar  
 33  16  19  1   
 34  16  38  1   
 35  16  39  1   
 36  17  20  ar  
 37  17  40  1   
 38  18  21  ar  
 39  18  41  1   
 40  19  42  1   
 41  19  43  1   
 42  19  44  1   
 43  20  22  ar  
 44  20  45  1   
 45  21  22  ar  
 46  21  46  1   
 47  22  23  1   
 48  23  47  1   
 49  23  48  1   
 50  23  49  1   
@<TRIPOS>SUBSTRUCTURE
  1 ****   2 GROUP 4 **** **** 0

# MOE 2024.06 (io_trps.svl 2023.06)
