@<TRIPOS>MOLECULE
NONAME
50 52 1 0 0 
SMALL
USER_CHARGES


@<TRIPOS>ATOM
  1 O        0.7560    -0.2420    -1.9490 O.2   1 <1>  -0.5700 
  2 C        1.1590    -1.2340    -1.3840 C.2   1 <1>   0.5690 
  3 N        2.2000    -1.1810    -0.4830 N.am  1 <1>  -0.6600 
  4 C        0.4670    -2.5460    -1.7360 C.3   1 <1>   0.0440 
  5 C        2.8160     0.1320    -0.1210 C.3   1 <1>   0.2200 
  6 C        2.7140    -2.3950     0.2220 C.3   1 <1>   0.0600 
  7 C       -0.6030    -2.9480    -0.7180 C.ar  1 <1>  -0.1440 
  8 C        4.2720     0.2100    -0.5870 C.3   1 <1>  -0.1600 
  9 C        2.7110     0.4170     1.3800 C.3   1 <1>  -0.1600 
 10 C       -0.4790    -4.0770     0.0890 C.ar  1 <1>   0.0820 
 11 C       -1.7380    -2.1600    -0.6110 C.ar  1 <1>  -0.1500 
 12 C        4.8880     1.5360    -0.1320 C.3   1 <1>   0.1200 
 13 C        3.4260     1.7320     1.7040 C.3   1 <1>   0.1200 
 14 O        0.6550    -4.8140    -0.0110 O.3   1 <1>  -0.3630 
 15 C       -1.5030    -4.4160     0.9700 C.ar  1 <1>  -0.1500 
 16 C       -2.7470    -2.4910     0.2760 C.ar  1 <1>  -0.1500 
 17 O        4.7450     1.6640     1.2510 O.3   1 <1>  -0.5600 
 18 C        1.1100    -5.6120     1.0610 C.3   1 <1>   0.2630 
 19 C       -2.6310    -3.6220     1.0640 C.ar  1 <1>  -0.1500 
 20 C        2.6250    -5.7050     0.9750 C.ar  1 <1>  -0.1440 
 21 C        3.4160    -5.3050     2.0430 C.ar  1 <1>  -0.1500 
 22 C        3.2320    -6.1790    -0.1780 C.ar  1 <1>  -0.1500 
 23 C        4.7950    -5.3750     1.9560 C.ar  1 <1>  -0.1500 
 24 C        4.6120    -6.2500    -0.2660 C.ar  1 <1>  -0.1500 
 25 C        5.3940    -5.8470     0.8020 C.ar  1 <1>  -0.1500 
 26 H        1.1980    -3.3170    -1.8770 H     1 <1>   0.0800 
 27 H       -0.0140    -2.4190    -2.6890 H     1 <1>   0.0800 
 28 H        2.2850     0.9230    -0.6240 H     1 <1>   0.0800 
 29 H        2.8830    -3.1940    -0.4780 H     1 <1>   0.0800 
 30 H        1.9960    -2.7130     0.9560 H     1 <1>   0.0800 
 31 H        3.6450    -2.1960     0.7190 H     1 <1>   0.0800 
 32 H        4.3090     0.1470    -1.6590 H     1 <1>   0.0800 
 33 H        4.8560    -0.5920    -0.1760 H     1 <1>   0.0800 
 34 H        3.1690    -0.3620     1.9600 H     1 <1>   0.0800 
 35 H        1.6760     0.4930     1.6590 H     1 <1>   0.0800 
 36 H       -1.8400    -1.2780    -1.2220 H     1 <1>   0.1500 
 37 H        4.4090     2.3740    -0.6070 H     1 <1>   0.0800 
 38 H        5.9410     1.5600    -0.3570 H     1 <1>   0.0800 
 39 H        3.4510     1.8960     2.7670 H     1 <1>   0.0800 
 40 H        2.9410     2.5690     1.2300 H     1 <1>   0.0800 
 41 H       -1.4420    -5.2950     1.5820 H     1 <1>   0.1500 
 42 H       -3.6230    -1.8690     0.3490 H     1 <1>   0.1500 
 43 H        0.6560    -6.5830     0.9770 H     1 <1>   0.0800 
 44 H        0.8210    -5.1470     1.9880 H     1 <1>   0.0800 
 45 H       -3.4210    -3.8830     1.7470 H     1 <1>   0.1500 
 46 H        2.9640    -4.9350     2.9470 H     1 <1>   0.1500 
 47 H        2.6290    -6.4890    -1.0140 H     1 <1>   0.1500 
 48 H        5.4040    -5.0630     2.7870 H     1 <1>   0.1500 
 49 H        5.0750    -6.6170    -1.1640 H     1 <1>   0.1500 
 50 H        6.4670    -5.9020     0.7340 H     1 <1>   0.1500 
@<TRIPOS>BOND
  1   1   2  2   
  2   2   3  am  
  3   2   4  1   
  4   3   5  1   
  5   3   6  1   
  6   4   7  1   
  7   4  26  1   
  8   4  27  1   
  9   5   8  1   
 10   5   9  1   
 11   5  28  1   
 12   6  29  1   
 13   6  30  1   
 14   6  31  1   
 15   7  10  ar  
 16   7  11  ar  
 17   8  12  1   
 18   8  32  1   
 19   8  33  1   
 20   9  13  1   
 21   9  34  1   
 22   9  35  1   
 23  10  14  1   
 24  10  15  ar  
 25  11  16  ar  
 26  11  36  1   
 27  12  17  1   
 28  12  37  1   
 29  12  38  1   
 30  13  17  1   
 31  13  39  1   
 32  13  40  1   
 33  14  18  1   
 34  15  19  ar  
 35  15  41  1   
 36  16  19  ar  
 37  16  42  1   
 38  18  20  1   
 39  18  43  1   
 40  18  44  1   
 41  19  45  1   
 42  20  21  ar  
 43  20  22  ar  
 44  21  23  ar  
 45  21  46  1   
 46  22  24  ar  
 47  22  47  1   
 48  23  25  ar  
 49  23  48  1   
 50  24  25  ar  
 51  24  49  1   
 52  25  50  1   
@<TRIPOS>SUBSTRUCTURE
  1 ****   6 GROUP 4 **** **** 0

# MOE 2024.06 (io_trps.svl 2023.06)
