@<TRIPOS>MOLECULE
NONAME
52 54 1 0 0 
SMALL
USER_CHARGES


@<TRIPOS>ATOM
  1 S       -0.5740    -0.3760    -2.2260 S.o2  1 <1>   1.4470 
  2 O        0.0420     0.2460    -3.3790 O.2   1 <1>  -0.6500 
  3 O       -1.5740    -1.4040    -2.4330 O.2   1 <1>  -0.6500 
  4 N       -1.3230     0.8560    -1.3310 N.am  1 <1>  -0.8490 
  5 C        0.7240    -0.9840    -1.1140 C.ar  1 <1>  -0.0090 
  6 C       -2.1450     1.7140    -2.1860 C.3   1 <1>   0.1960 
  7 C       -2.0900     0.3280    -0.2000 C.3   1 <1>   0.1960 
  8 C        1.5360    -0.1030    -0.4110 C.ar  1 <1>  -0.1500 
  9 C        0.9490    -2.3430    -0.9440 C.ar  1 <1>  -0.1500 
 10 C       -2.6690     2.9010    -1.3760 C.3   1 <1>  -0.1600 
 11 C       -2.6560     1.4760     0.6400 C.3   1 <1>  -0.1600 
 12 C        2.5340    -0.5470     0.4420 C.ar  1 <1>  -0.1430 
 13 C        1.9430    -2.8030    -0.0980 C.ar  1 <1>  -0.1500 
 14 C       -3.5350     2.4290    -0.1900 C.3   1 <1>   0.2800 
 15 C        2.7410    -1.9120     0.6000 C.ar  1 <1>  -0.1430 
 16 C        3.3810     0.4790     1.1830 C.3   1 <1>  -0.0970 
 17 O       -3.7390     3.5520     0.6350 O.3   1 <1>  -0.5600 
 18 C       -4.9000     1.7570    -0.6070 C.3   1 <1>   0.2000 
 19 C        3.8250    -2.4520     1.5220 C.3   1 <1>  -0.0970 
 20 C       -4.8740     4.3250     0.4180 C.3   1 <1>   0.1200 
 21 O       -5.3320     2.2130    -1.8660 O.3   1 <1>  -0.6800 
 22 C       -6.0220     2.0150     0.4380 C.3   1 <1>   0.2800 
 23 C       -6.1410     3.5210     0.7510 C.3   1 <1>  -0.1600 
 24 O       -5.6960     1.3630     1.6110 O.3   1 <1>  -0.6800 
 25 C       -7.3770     1.4210     0.0320 C.3   1 <1>  -0.2400 
 26 H       -1.5490     2.0940    -3.0000 H     1 <1>   0.0800 
 27 H       -2.9600     1.1470    -2.6070 H     1 <1>   0.0800 
 28 H       -2.8850    -0.3060    -0.5550 H     1 <1>   0.0800 
 29 H       -1.4470    -0.2690     0.4250 H     1 <1>   0.0800 
 30 H        1.3730     0.9540    -0.5420 H     1 <1>   0.1500 
 31 H        0.3390    -3.0510    -1.4800 H     1 <1>   0.1500 
 32 H       -3.2190     3.5560    -2.0240 H     1 <1>   0.0800 
 33 H       -1.8230     3.4520    -1.0040 H     1 <1>   0.0800 
 34 H       -1.8300     2.0240     1.0560 H     1 <1>   0.0800 
 35 H       -3.2140     1.0650     1.4590 H     1 <1>   0.0800 
 36 H        2.0910    -3.8630     0.0100 H     1 <1>   0.1500 
 37 H        3.0680     1.4800     0.9490 H     1 <1>   0.0800 
 38 H        4.4140     0.3740     0.9030 H     1 <1>   0.0800 
 39 H        3.2880     0.3370     2.2440 H     1 <1>   0.0800 
 40 H       -4.7710     0.6970    -0.7190 H     1 <1>   0.0800 
 41 H        3.8410    -3.5270     1.5100 H     1 <1>   0.0800 
 42 H        3.6460    -2.1290     2.5310 H     1 <1>   0.0800 
 43 H        4.7890    -2.0980     1.2040 H     1 <1>   0.0800 
 44 H       -4.8050     5.1930     1.0500 H     1 <1>   0.0800 
 45 H       -4.8700     4.6500    -0.6080 H     1 <1>   0.0800 
 46 H       -5.4930     3.1740    -1.8300 H     1 <1>   0.4000 
 47 H       -6.9410     3.9470     0.1720 H     1 <1>   0.0800 
 48 H       -6.3960     3.6710     1.7850 H     1 <1>   0.0800 
 49 H       -6.3570     1.5690     2.2960 H     1 <1>   0.4000 
 50 H       -7.7330     1.8770    -0.8730 H     1 <1>   0.0800 
 51 H       -8.1130     1.5830     0.7990 H     1 <1>   0.0800 
 52 H       -7.2770     0.3650    -0.1490 H     1 <1>   0.0800 
@<TRIPOS>BOND
  1   1   2  2   
  2   1   3  2   
  3   1   4  am  
  4   1   5  1   
  5   4   6  1   
  6   4   7  1   
  7   5   8  ar  
  8   5   9  ar  
  9   6  10  1   
 10   6  26  1   
 11   6  27  1   
 12   7  11  1   
 13   7  28  1   
 14   7  29  1   
 15   8  12  ar  
 16   8  30  1   
 17   9  13  ar  
 18   9  31  1   
 19  10  14  1   
 20  10  32  1   
 21  10  33  1   
 22  11  14  1   
 23  11  34  1   
 24  11  35  1   
 25  12  15  ar  
 26  12  16  1   
 27  13  15  ar  
 28  13  36  1   
 29  14  17  1   
 30  14  18  1   
 31  15  19  1   
 32  16  37  1   
 33  16  38  1   
 34  16  39  1   
 35  17  20  1   
 36  18  21  1   
 37  18  22  1   
 38  18  40  1   
 39  19  41  1   
 40  19  42  1   
 41  19  43  1   
 42  20  23  1   
 43  20  44  1   
 44  20  45  1   
 45  21  46  1   
 46  22  23  1   
 47  22  24  1   
 48  22  25  1   
 49  23  47  1   
 50  23  48  1   
 51  24  49  1   
 52  25  50  1   
 53  25  51  1   
 54  25  52  1   
@<TRIPOS>SUBSTRUCTURE
  1 ****   7 GROUP 4 **** **** 0

# MOE 2024.06 (io_trps.svl 2023.06)
