@<TRIPOS>MOLECULE
NONAME
46 48 1 0 0 
SMALL
USER_CHARGES


@<TRIPOS>ATOM
  1 O       -0.2830    -3.2420     1.3130 O.2   1 <1>  -0.5700 
  2 C        0.8060    -2.9420     0.8810 C.2   1 <1>   0.5690 
  3 N        1.0060    -2.7000    -0.4520 N.am  1 <1>  -0.6600 
  4 C        1.9630    -2.8870     1.8650 C.3   1 <1>  -0.0990 
  5 C        2.3310    -2.4010    -1.0600 C.3   1 <1>   0.1400 
  6 C       -0.1450    -2.7460    -1.4200 C.3   1 <1>   0.2010 
  7 C        3.2230    -2.2200     1.2960 C.3   1 <1>  -0.1600 
  8 C        3.4870    -2.7480    -0.1160 C.3   1 <1>  -0.1600 
  9 C       -0.5350    -4.1700    -1.8160 C.2   1 <1>   0.5690 
 10 O       -0.5120    -4.4950    -2.9800 O.2   1 <1>  -0.5700 
 11 N       -0.8910    -5.0360    -0.8360 N.am  1 <1>  -0.7300 
 12 C       -1.1960    -6.4710    -1.0050 C.3   1 <1>   0.2200 
 13 C       -2.4180    -6.8220    -0.1730 C.3   1 <1>  -0.0800 
 14 C       -0.0950    -7.3150    -0.3580 C.3   1 <1>   0.1200 
 15 C       -1.7810    -7.0900     1.1900 C.3   1 <1>   0.1200 
 16 C       -3.1370    -8.0630    -0.7340 C.3   1 <1>  -0.0170 
 17 O       -0.5380    -7.6640     0.9230 O.3   1 <1>  -0.5600 
 18 C       -4.3590    -8.4280     0.0940 C.ar  1 <1>  -0.1440 
 19 C       -4.3520    -9.4840     0.9830 C.ar  1 <1>  -0.1500 
 20 C       -5.5410    -7.7230    -0.0030 C.ar  1 <1>  -0.1500 
 21 C       -5.4930    -9.7740     1.7120 C.ar  1 <1>   0.1600 
 22 C       -6.6270    -8.0950     0.7720 C.ar  1 <1>   0.1600 
 23 N       -6.6320    -9.1040     1.6280 N.ar  1 <1>  -0.6200 
 24 H        1.6440    -2.3640     2.7480 H     1 <1>   0.0800 
 25 H        2.1920    -3.8980     2.1470 H     1 <1>   0.0800 
 26 H        2.4420    -2.9580    -1.9760 H     1 <1>   0.0800 
 27 H        2.3680    -1.3510    -1.2980 H     1 <1>   0.0800 
 28 H       -1.0010    -2.2760    -0.9710 H     1 <1>   0.0800 
 29 H        0.1030    -2.1940    -2.3080 H     1 <1>   0.0800 
 30 H        3.0800    -1.1530     1.2590 H     1 <1>   0.0800 
 31 H        4.0650    -2.4250     1.9360 H     1 <1>   0.0800 
 32 H        3.6140    -3.8170    -0.0900 H     1 <1>   0.0800 
 33 H        4.3960    -2.3220    -0.5020 H     1 <1>   0.0800 
 34 H       -0.8090    -4.6990     0.1370 H     1 <1>   0.3700 
 35 H       -1.3150    -6.7000    -2.0510 H     1 <1>   0.0800 
 36 H       -3.1130    -6.0030    -0.1240 H     1 <1>   0.0800 
 37 H        0.8350    -6.7800    -0.2800 H     1 <1>   0.0800 
 38 H        0.0540    -8.2280    -0.9070 H     1 <1>   0.0800 
 39 H       -2.3550    -7.7540     1.8110 H     1 <1>   0.0800 
 40 H       -1.6070    -6.1670     1.7170 H     1 <1>   0.0800 
 41 H       -2.4610    -8.9010    -0.7650 H     1 <1>   0.0800 
 42 H       -3.4530    -7.8660    -1.7440 H     1 <1>   0.0800 
 43 H       -3.4690   -10.0820     1.1170 H     1 <1>   0.1500 
 44 H       -5.6280    -6.8880    -0.6740 H     1 <1>   0.1500 
 45 H       -5.4670   -10.6000     2.4020 H     1 <1>   0.1500 
 46 H       -7.5400    -7.5320     0.6830 H     1 <1>   0.1500 
@<TRIPOS>BOND
  1   1   2  2   
  2   2   3  am  
  3   2   4  1   
  4   3   5  1   
  5   3   6  1   
  6   4   7  1   
  7   4  24  1   
  8   4  25  1   
  9   5   8  1   
 10   5  26  1   
 11   5  27  1   
 12   6   9  1   
 13   6  28  1   
 14   6  29  1   
 15   7   8  1   
 16   7  30  1   
 17   7  31  1   
 18   8  32  1   
 19   8  33  1   
 20   9  10  2   
 21   9  11  am  
 22  11  12  1   
 23  11  34  1   
 24  12  13  1   
 25  12  14  1   
 26  12  35  1   
 27  13  15  1   
 28  13  16  1   
 29  13  36  1   
 30  14  17  1   
 31  14  37  1   
 32  14  38  1   
 33  15  17  1   
 34  15  39  1   
 35  15  40  1   
 36  16  18  1   
 37  16  41  1   
 38  16  42  1   
 39  18  19  ar  
 40  18  20  ar  
 41  19  21  ar  
 42  19  43  1   
 43  20  22  ar  
 44  20  44  1   
 45  21  23  ar  
 46  21  45  1   
 47  22  23  ar  
 48  22  46  1   
@<TRIPOS>SUBSTRUCTURE
  1 ****  11 GROUP 4 **** **** 0

# MOE 2024.06 (io_trps.svl 2023.06)
