@<TRIPOS>MOLECULE
NONAME
47 49 1 0 0 
SMALL
USER_CHARGES


@<TRIPOS>ATOM
  1 CL       2.7550     0.2580    -1.1410 Cl    1 <1>  -0.1770 
  2 C        1.3930     1.2960    -0.7820 C.ar  1 <1>   0.1770 
  3 C        1.4210     2.2010     0.2770 C.ar  1 <1>  -0.1440 
  4 C        0.2850     1.1780    -1.6020 C.ar  1 <1>  -0.1500 
  5 C        0.3000     2.9950     0.4840 C.ar  1 <1>  -0.1500 
  6 C        2.6180     2.3620     1.2150 C.3   1 <1>   0.3640 
  7 C       -0.8230     1.9730    -1.3780 C.ar  1 <1>  -0.1500 
  8 C       -0.8120     2.8820    -0.3350 C.ar  1 <1>  -0.1500 
  9 N        2.8430     1.0730     1.9140 N.am  1 <1>  -0.7300 
 10 C        3.8890     2.9050     0.5010 C.3   1 <1>   0.2610 
 11 C        4.0470     0.4660     1.9930 C.2   1 <1>   0.5690 
 12 O        5.0820     2.5200     1.1770 O.3   1 <1>  -0.5600 
 13 C        3.8080     4.4320     0.3900 C.2   1 <1>   0.5690 
 14 O        4.1720    -0.5830     2.5730 O.2   1 <1>  -0.5700 
 15 C        5.2500     1.1260     1.3180 C.3   1 <1>   0.1810 
 16 O        2.8460     4.9440    -0.1330 O.2   1 <1>  -0.5700 
 17 N        4.8240     5.1870     0.8780 N.am  1 <1>  -0.7300 
 18 C        4.9700     6.6430     0.7260 C.3   1 <1>   0.3210 
 19 C        6.3140     6.9180     0.0870 C.2   1 <1>  -0.1810 
 20 C        6.6870     6.6400    -1.2250 C.2   1 <1>   0.1080 
 21 C        7.4120     7.4760     0.6400 C.2   1 <1>  -0.3020 
 22 N        7.9110     6.9900    -1.4680 N.2   1 <1>  -0.7070 
 23 C        5.8160     6.0000    -2.2830 C.3   1 <1>  -0.0590 
 24 N        8.3610     7.5120    -0.3150 N.pl3 1 <1>   0.3140 
 25 C        9.7350     8.0350    -0.1790 C.3   1 <1>   0.0960 
 26 C        9.7570     9.5670    -0.2670 C.3   1 <1>  -0.2400 
 27 H        0.2930     0.4670    -2.4090 H     1 <1>   0.1500 
 28 H        0.2820     3.7170     1.2820 H     1 <1>   0.1500 
 29 H        2.3550     3.0810     1.9720 H     1 <1>   0.0800 
 30 H       -1.6890     1.8880    -2.0120 H     1 <1>   0.1500 
 31 H       -1.6720     3.5070    -0.1600 H     1 <1>   0.1500 
 32 H        2.0330     0.6020     2.3190 H     1 <1>   0.3700 
 33 H        3.9480     2.5170    -0.4980 H     1 <1>   0.0800 
 34 H        5.3990     0.6960     0.3440 H     1 <1>   0.0800 
 35 H        6.1290     0.9580     1.9130 H     1 <1>   0.0800 
 36 H        5.6530     4.7000     1.2330 H     1 <1>   0.3700 
 37 H        4.1790     7.0430     0.1140 H     1 <1>   0.0800 
 38 H        4.9220     7.1080     1.6950 H     1 <1>   0.0800 
 39 H        7.5710     7.8440     1.6370 H     1 <1>   0.1500 
 40 H        4.7780     6.2100    -2.1020 H     1 <1>   0.0800 
 41 H        5.9680     4.9380    -2.2770 H     1 <1>   0.0800 
 42 H        6.0830     6.3850    -3.2500 H     1 <1>   0.0800 
 43 H       10.1330     7.7080     0.7630 H     1 <1>   0.0800 
 44 H       10.3320     7.6140    -0.9680 H     1 <1>   0.0800 
 45 H        9.1740     9.9970     0.5270 H     1 <1>   0.0800 
 46 H        9.3580     9.8840    -1.2150 H     1 <1>   0.0800 
 47 H       10.7680     9.9230    -0.1850 H     1 <1>   0.0800 
@<TRIPOS>BOND
  1   1   2  1   
  2   2   3  ar  
  3   2   4  ar  
  4   3   5  ar  
  5   3   6  1   
  6   4   7  ar  
  7   4  27  1   
  8   5   8  ar  
  9   5  28  1   
 10   6   9  1   
 11   6  10  1   
 12   6  29  1   
 13   7   8  ar  
 14   7  30  1   
 15   8  31  1   
 16   9  11  am  
 17   9  32  1   
 18  10  12  1   
 19  10  13  1   
 20  10  33  1   
 21  11  14  2   
 22  11  15  1   
 23  12  15  1   
 24  13  16  2   
 25  13  17  am  
 26  15  34  1   
 27  15  35  1   
 28  17  18  1   
 29  17  36  1   
 30  18  19  1   
 31  18  37  1   
 32  18  38  1   
 33  19  20  1   
 34  19  21  2   
 35  20  22  2   
 36  20  23  1   
 37  21  24  1   
 38  21  39  1   
 39  22  24  1   
 40  23  40  1   
 41  23  41  1   
 42  23  42  1   
 43  24  25  1   
 44  25  26  1   
 45  25  43  1   
 46  25  44  1   
 47  26  45  1   
 48  26  46  1   
 49  26  47  1   
@<TRIPOS>SUBSTRUCTURE
  1 ****  13 GROUP 4 **** **** 0

# MOE 2024.06 (io_trps.svl 2023.06)
