@<TRIPOS>MOLECULE
NONAME
40 42 1 0 0 
SMALL
USER_CHARGES


@<TRIPOS>ATOM
  1 CL       3.5950     0.9750     1.6870 Cl    1 <1>  -0.1400 
  2 C        3.4490    -0.4110     0.6300 C.2   1 <1>   0.1400 
  3 C        3.8290    -0.3350    -0.6750 C.2   1 <1>  -0.0410 
  4 C        2.9290    -1.6040     1.1660 C.2   1 <1>  -0.1500 
  5 N        3.6960    -1.4450    -1.4760 N.am  1 <1>  -0.5390 
  6 C        2.7840    -2.7130     0.3650 C.2   1 <1>   0.0290 
  7 C        3.1910    -2.6330    -1.0080 C.2   1 <1>   0.6160 
  8 C        2.2640    -3.9510     0.8750 C.2   1 <1>   0.6160 
  9 O        3.1210    -3.5480    -1.8140 O.2   1 <1>  -0.5700 
 10 O        2.7590    -4.3980     1.8950 O.2   1 <1>  -0.5700 
 11 N        1.2140    -4.6480     0.3050 N.am  1 <1>  -0.6600 
 12 C        0.1900    -4.0310    -0.6000 C.3   1 <1>   0.2200 
 13 C        1.2380    -6.1420     0.3780 C.3   1 <1>   0.0600 
 14 C       -1.1080    -4.8420    -0.6710 C.3   1 <1>  -0.1600 
 15 C       -0.2980    -2.6660    -0.1050 C.3   1 <1>  -0.1600 
 16 C       -2.1710    -3.8610    -1.1750 C.3   1 <1>  -0.0800 
 17 C       -1.6840    -2.4640    -0.7310 C.3   1 <1>  -0.0800 
 18 C       -3.5980    -4.2510    -0.7360 C.3   1 <1>   0.1400 
 19 C       -2.6640    -1.7170     0.1960 C.3   1 <1>  -0.0990 
 20 N       -4.4740    -3.0630    -0.7560 N.am  1 <1>  -0.7300 
 21 C       -4.0840    -1.8500    -0.3110 C.2   1 <1>   0.5690 
 22 O       -4.8330    -0.9090    -0.3070 O.2   1 <1>  -0.5700 
 23 H        4.2330     0.5680    -1.1020 H     1 <1>   0.1500 
 24 H        2.6570    -1.6280     2.2070 H     1 <1>   0.1500 
 25 H        3.9800    -1.4600    -2.4590 H     1 <1>   0.3700 
 26 H        0.5940    -3.9360    -1.5940 H     1 <1>   0.0800 
 27 H        1.1230    -6.5620    -0.6060 H     1 <1>   0.0800 
 28 H        0.4470    -6.4910     1.0170 H     1 <1>   0.0800 
 29 H        2.1750    -6.4880     0.7800 H     1 <1>   0.0800 
 30 H       -1.0160    -5.6870    -1.3290 H     1 <1>   0.0800 
 31 H       -1.3700    -5.1720     0.3200 H     1 <1>   0.0800 
 32 H       -0.3780    -2.6910     0.9680 H     1 <1>   0.0800 
 33 H        0.3590    -1.8690    -0.4010 H     1 <1>   0.0800 
 34 H       -2.1490    -3.8810    -2.2520 H     1 <1>   0.0800 
 35 H       -1.5710    -1.8710    -1.6250 H     1 <1>   0.0800 
 36 H       -3.5870    -4.6430     0.2670 H     1 <1>   0.0800 
 37 H       -3.9910    -5.0090    -1.3930 H     1 <1>   0.0800 
 38 H       -2.4000    -0.6770     0.2560 H     1 <1>   0.0800 
 39 H       -2.6350    -2.1320     1.1870 H     1 <1>   0.0800 
 40 H       -5.4440    -3.1640    -1.0620 H     1 <1>   0.3700 
@<TRIPOS>BOND
  1   1   2  1   
  2   2   3  2   
  3   2   4  1   
  4   3   5  1   
  5   3  23  1   
  6   4   6  2   
  7   4  24  1   
  8   5   7  am  
  9   5  25  1   
 10   6   7  1   
 11   6   8  1   
 12   7   9  2   
 13   8  10  2   
 14   8  11  am  
 15  11  12  1   
 16  11  13  1   
 17  12  14  1   
 18  12  15  1   
 19  12  26  1   
 20  13  27  1   
 21  13  28  1   
 22  13  29  1   
 23  14  16  1   
 24  14  30  1   
 25  14  31  1   
 26  15  17  1   
 27  15  32  1   
 28  15  33  1   
 29  16  17  1   
 30  16  18  1   
 31  16  34  1   
 32  17  19  1   
 33  17  35  1   
 34  18  20  1   
 35  18  36  1   
 36  18  37  1   
 37  19  21  1   
 38  19  38  1   
 39  19  39  1   
 40  20  21  am  
 41  20  40  1   
 42  21  22  2   
@<TRIPOS>SUBSTRUCTURE
  1 ****  15 GROUP 4 **** **** 0

# MOE 2024.06 (io_trps.svl 2023.06)
