@<TRIPOS>MOLECULE
NONAME
51 54 1 0 0 
SMALL
USER_CHARGES


@<TRIPOS>ATOM
  1 O        0.1460     1.5640    -1.6440 O.2   1 <1>  -0.5700 
  2 C       -0.0290     2.6900    -1.2390 C.2   1 <1>   0.5690 
  3 N       -1.0210     3.0280    -0.3580 N.am  1 <1>  -0.5090 
  4 C        0.8850     3.7900    -1.7700 C.3   1 <1>   0.1810 
  5 C       -1.3490     4.4610    -0.0680 C.3   1 <1>   0.3640 
  6 C       -1.9200     2.0270     0.2640 C.3   1 <1>   0.0490 
  7 O        0.9520     4.8820    -0.8920 O.3   1 <1>  -0.5600 
  8 C       -2.7320     4.7820    -0.6370 C.ar  1 <1>  -0.1440 
  9 C       -0.3030     5.4790    -0.6030 C.3   1 <1>   0.2610 
 10 C       -1.9800     1.9490     1.7580 C.3   1 <1>  -0.2000 
 11 C       -1.3350     0.8490     0.9780 C.3   1 <1>  -0.2000 
 12 C       -3.6470     5.4940     0.1280 C.ar  1 <1>   0.1600 
 13 C       -3.1090     4.3820    -1.9080 C.ar  1 <1>  -0.1500 
 14 C       -0.1290     6.6180     0.4090 C.2   1 <1>   0.5690 
 15 N       -4.8710     5.8190    -0.2570 N.ar  1 <1>  -0.6200 
 16 C       -4.3790     4.7160    -2.3250 C.ar  1 <1>  -0.1500 
 17 O       -1.1040     7.1320     0.9030 O.2   1 <1>  -0.5700 
 18 N        1.1170     7.0290     0.7420 N.am  1 <1>  -0.7300 
 19 C       -5.2080     5.4240    -1.4730 C.ar  1 <1>   0.1600 
 20 C        1.4620     8.1900     1.6100 C.3   1 <1>   0.2840 
 21 C        2.7890     8.8420     1.2140 C.ar  1 <1>   0.4770 
 22 N        3.7540     8.0310     0.7890 N.ar  1 <1>  -0.6200 
 23 N        2.8500    10.1600     1.3380 N.ar  1 <1>  -0.6200 
 24 C        4.8840     8.6100     0.4560 C.ar  1 <1>   0.1670 
 25 C        3.9880    10.7180     0.9980 C.ar  1 <1>   0.1670 
 26 C        5.0490     9.9720     0.5440 C.ar  1 <1>  -0.1500 
 27 C        5.9990     7.7100    -0.0320 C.3   1 <1>  -0.0970 
 28 C        4.0790    12.2230     1.1270 C.3   1 <1>  -0.0970 
 29 H        0.5330     4.1320    -2.7260 H     1 <1>   0.0800 
 30 H        1.8810     3.4000    -1.8830 H     1 <1>   0.0800 
 31 H       -1.3900     4.5640     1.0030 H     1 <1>   0.0800 
 32 H       -2.8280     1.8770    -0.2980 H     1 <1>   0.1000 
 33 H       -0.6650     5.9140    -1.5160 H     1 <1>   0.0800 
 34 H       -1.3410     2.5740     2.3570 H     1 <1>   0.1000 
 35 H       -2.9250     1.7470     2.2290 H     1 <1>   0.1000 
 36 H       -1.8410    -0.0970     0.9030 H     1 <1>   0.1000 
 37 H       -0.2640     0.7440     0.9960 H     1 <1>   0.1000 
 38 H       -3.3600     5.8210     1.1150 H     1 <1>   0.1500 
 39 H       -2.4520     3.8240    -2.5520 H     1 <1>   0.1500 
 40 H       -4.7290     4.4300    -3.3000 H     1 <1>   0.1500 
 41 H        1.9340     6.5810     0.3060 H     1 <1>   0.3700 
 42 H       -6.2000     5.6780    -1.8070 H     1 <1>   0.1500 
 43 H        0.6760     8.9230     1.5570 H     1 <1>   0.0800 
 44 H        1.5400     7.8540     2.6280 H     1 <1>   0.0800 
 45 H        5.9760    10.4360     0.2680 H     1 <1>   0.1500 
 46 H        6.8820     8.2770    -0.2610 H     1 <1>   0.0800 
 47 H        5.6790     7.1890    -0.9160 H     1 <1>   0.0800 
 48 H        6.2360     6.9880     0.7280 H     1 <1>   0.0800 
 49 H        5.0450    12.5800     0.8240 H     1 <1>   0.0800 
 50 H        3.9070    12.5070     2.1500 H     1 <1>   0.0800 
 51 H        3.3280    12.6820     0.5110 H     1 <1>   0.0800 
@<TRIPOS>BOND
  1   1   2  2   
  2   2   3  am  
  3   2   4  1   
  4   3   5  1   
  5   3   6  1   
  6   4   7  1   
  7   4  29  1   
  8   4  30  1   
  9   5   8  1   
 10   5   9  1   
 11   5  31  1   
 12   6  10  1   
 13   6  11  1   
 14   6  32  1   
 15   7   9  1   
 16   8  12  ar  
 17   8  13  ar  
 18   9  14  1   
 19   9  33  1   
 20  10  11  1   
 21  10  34  1   
 22  10  35  1   
 23  11  36  1   
 24  11  37  1   
 25  12  15  ar  
 26  12  38  1   
 27  13  16  ar  
 28  13  39  1   
 29  14  17  2   
 30  14  18  am  
 31  15  19  ar  
 32  16  19  ar  
 33  16  40  1   
 34  18  20  1   
 35  18  41  1   
 36  19  42  1   
 37  20  21  1   
 38  20  43  1   
 39  20  44  1   
 40  21  22  ar  
 41  21  23  ar  
 42  22  24  ar  
 43  23  25  ar  
 44  24  26  ar  
 45  24  27  1   
 46  25  26  ar  
 47  25  28  1   
 48  26  45  1   
 49  27  46  1   
 50  27  47  1   
 51  27  48  1   
 52  28  49  1   
 53  28  50  1   
 54  28  51  1   
@<TRIPOS>SUBSTRUCTURE
  1 ****  14 GROUP 4 **** **** 0

# MOE 2024.06 (io_trps.svl 2023.06)
