@<TRIPOS>MOLECULE
NONAME
51 54 1 0 0 
SMALL
USER_CHARGES


@<TRIPOS>ATOM
  1 S       -0.1660     0.0100     2.1070 S.o2  1 <1>   1.3330 
  2 O       -0.8230    -1.2060     2.5240 O.2   1 <1>  -0.6500 
  3 O       -0.0760     1.1330     3.0120 O.2   1 <1>  -0.6500 
  4 N       -0.9400     0.5520     0.7010 N.am  1 <1>  -0.8490 
  5 C        1.4900    -0.3640     1.5530 C.3   1 <1>  -0.0550 
  6 C       -2.1410     1.3510     1.0300 C.3   1 <1>   0.1960 
  7 C       -1.3060    -0.5500    -0.2000 C.3   1 <1>   0.1960 
  8 C        2.1580     0.8780     0.9790 C.3   1 <1>   0.1200 
  9 C       -2.7680     1.9920    -0.2250 C.3   1 <1>   0.1440 
 10 C       -1.8690     0.0030    -1.5150 C.3   1 <1>  -0.1600 
 11 O        3.4190     0.5020     0.4790 O.3   1 <1>  -0.3620 
 12 C       -3.9990     2.7740     0.1920 C.ar  1 <1>   0.1670 
 13 C       -3.0930     0.8970    -1.2610 C.3   1 <1>  -0.1600 
 14 C       -1.8500     3.0990    -0.8140 C.3   1 <1>  -0.1600 
 15 C        4.2250     1.3990    -0.1540 C.ar  1 <1>   0.0820 
 16 N       -5.1450     2.2520     0.5600 N.ar  1 <1>  -0.6200 
 17 C       -3.7750     4.1190     0.1580 C.ar  1 <1>  -0.1440 
 18 C       -2.3690     4.4450    -0.2790 C.3   1 <1>  -0.0170 
 19 C        5.4000     0.9450    -0.7460 C.ar  1 <1>   0.1900 
 20 C        3.9340     2.7600    -0.2450 C.ar  1 <1>  -0.1500 
 21 C       -6.0710     3.1470     0.8710 C.ar  1 <1>   0.7200 
 22 C       -4.8080     4.9510     0.5170 C.ar  1 <1>   0.1600 
 23 F        5.7070    -0.3270    -0.6820 F     1 <1>  -0.1900 
 24 C        6.2710     1.7870    -1.4110 C.ar  1 <1>  -0.1500 
 25 C        4.8010     3.6150    -0.9100 C.ar  1 <1>  -0.1500 
 26 N       -5.9750     4.4690     0.8830 N.ar  1 <1>  -0.6200 
 27 N       -7.2490     2.6500     1.2520 N.pl3 1 <1>  -0.9000 
 28 C        5.9640     3.1350    -1.4920 C.ar  1 <1>  -0.1500 
 29 H        1.4600    -1.1290     0.8040 H     1 <1>   0.0800 
 30 H        2.0690    -0.7180     2.3840 H     1 <1>   0.0800 
 31 H       -1.8810     2.1390     1.7170 H     1 <1>   0.0800 
 32 H       -2.8700     0.7230     1.5160 H     1 <1>   0.0800 
 33 H       -2.0420    -1.1820     0.2720 H     1 <1>   0.0800 
 34 H       -0.4410    -1.1510    -0.4180 H     1 <1>   0.0800 
 35 H        2.2970     1.6220     1.7450 H     1 <1>   0.0800 
 36 H        1.5790     1.2830     0.1660 H     1 <1>   0.0800 
 37 H       -2.1520    -0.8170    -2.1510 H     1 <1>   0.0800 
 38 H       -1.0990     0.5590    -2.0210 H     1 <1>   0.0800 
 39 H       -3.4370     1.3380    -2.1800 H     1 <1>   0.0800 
 40 H       -3.8930     0.2840    -0.8800 H     1 <1>   0.0800 
 41 H       -1.9410     3.1080    -1.8850 H     1 <1>   0.0800 
 42 H       -0.8140     2.9470    -0.5660 H     1 <1>   0.0800 
 43 H       -2.3540     5.2060    -1.0410 H     1 <1>   0.0800 
 44 H       -1.7910     4.7650     0.5700 H     1 <1>   0.0800 
 45 H        3.0470     3.1740     0.1950 H     1 <1>   0.1500 
 46 H       -4.6770     6.0190     0.5060 H     1 <1>   0.1500 
 47 H        7.1680     1.3930    -1.8540 H     1 <1>   0.1500 
 48 H        4.5690     4.6650    -0.9750 H     1 <1>   0.1500 
 49 H       -7.8340     3.2920     1.7780 H     1 <1>   0.4000 
 50 H       -7.2290     1.6840     1.5610 H     1 <1>   0.4000 
 51 H        6.6290     3.8080    -2.0060 H     1 <1>   0.1500 
@<TRIPOS>BOND
  1   1   2  2   
  2   1   3  2   
  3   1   4  am  
  4   1   5  1   
  5   4   6  1   
  6   4   7  1   
  7   5   8  1   
  8   5  29  1   
  9   5  30  1   
 10   6   9  1   
 11   6  31  1   
 12   6  32  1   
 13   7  10  1   
 14   7  33  1   
 15   7  34  1   
 16   8  11  1   
 17   8  35  1   
 18   8  36  1   
 19   9  12  1   
 20   9  13  1   
 21   9  14  1   
 22  10  13  1   
 23  10  37  1   
 24  10  38  1   
 25  11  15  1   
 26  12  16  ar  
 27  12  17  ar  
 28  13  39  1   
 29  13  40  1   
 30  14  18  1   
 31  14  41  1   
 32  14  42  1   
 33  15  19  ar  
 34  15  20  ar  
 35  16  21  ar  
 36  17  18  1   
 37  17  22  ar  
 38  18  43  1   
 39  18  44  1   
 40  19  23  1   
 41  19  24  ar  
 42  20  25  ar  
 43  20  45  1   
 44  21  26  ar  
 45  21  27  1   
 46  22  26  ar  
 47  22  46  1   
 48  24  28  ar  
 49  24  47  1   
 50  25  28  ar  
 51  25  48  1   
 52  27  49  1   
 53  27  50  1   
 54  28  51  1   
@<TRIPOS>SUBSTRUCTURE
  1 ****   4 GROUP 4 **** **** 0

# MOE 2024.06 (io_trps.svl 2023.06)
