@<TRIPOS>MOLECULE
NONAME
51 54 1 0 0 
SMALL
USER_CHARGES


@<TRIPOS>ATOM
  1 N       -0.0080    -0.2380    -0.2320 N.ar  1 <1>  -0.6200 
  2 C        1.1130     0.4640    -0.3120 C.ar  1 <1>   0.7710 
  3 C        0.0520    -1.5000     0.1500 C.ar  1 <1>   0.4100 
  4 N        2.3000    -0.0800     0.0060 N.ar  1 <1>  -0.1790 
  5 N        1.0690     1.7630    -0.7180 N.pl3 1 <1>  -0.8380 
  6 N       -1.1120    -2.2020     0.2010 N.pl3 1 <1>  -0.8380 
  7 C        1.2820    -2.0940     0.4950 C.ar  1 <1>  -0.1500 
  8 C        2.4190    -1.3630     0.4180 C.ar  1 <1>   0.2180 
  9 C        2.2270     2.6850    -0.9420 C.3   1 <1>   0.2090 
 10 C       -0.2330     2.4690    -0.9640 C.3   1 <1>   0.2090 
 11 C       -2.4550    -1.5150     0.1410 C.3   1 <1>   0.2090 
 12 C       -1.1880    -3.7080     0.1940 C.3   1 <1>   0.2090 
 13 C        3.7950    -1.9000     0.7700 C.3   1 <1>  -0.0970 
 14 C        2.1520     3.8380     0.0620 C.3   1 <1>  -0.1600 
 15 C       -0.3680     3.6290     0.0280 C.3   1 <1>  -0.1600 
 16 C       -3.5660    -2.3000     0.8700 C.3   1 <1>   0.2090 
 17 C       -2.5200    -4.2480    -0.3630 C.3   1 <1>   0.2090 
 18 C        0.8220     4.5960    -0.0580 C.3   1 <1>  -0.1600 
 19 N       -3.7030    -3.7130     0.3870 N.pl3 1 <1>  -0.8380 
 20 C       -4.9700    -4.1960     0.0770 C.ar  1 <1>   0.4100 
 21 N       -5.1290    -4.7300    -1.1280 N.ar  1 <1>  -0.6200 
 22 C       -6.0280    -4.1140     1.0010 C.ar  1 <1>   0.1600 
 23 C       -6.3650    -5.1470    -1.3430 C.ar  1 <1>   0.1600 
 24 N       -7.2650    -4.5250     0.7880 N.ar  1 <1>  -0.6200 
 25 C       -7.3990    -5.0470    -0.4210 C.ar  1 <1>   0.1600 
 26 H        3.0930     0.5420    -0.0630 H     1 <1>   0.4570 
 27 H        1.2950    -3.1140     0.8260 H     1 <1>   0.1500 
 28 H        2.1710     3.0820    -1.9440 H     1 <1>   0.0800 
 29 H        3.1730     2.1830    -0.8480 H     1 <1>   0.0800 
 30 H       -1.0810     1.8150    -0.8570 H     1 <1>   0.0800 
 31 H       -0.2460     2.8500    -1.9720 H     1 <1>   0.0800 
 32 H       -2.7370    -1.3890    -0.8890 H     1 <1>   0.0800 
 33 H       -2.3850    -0.5370     0.5850 H     1 <1>   0.0800 
 34 H       -1.0700    -4.0720     1.1990 H     1 <1>   0.0800 
 35 H       -0.3890    -4.1060    -0.4070 H     1 <1>   0.0800 
 36 H        4.2250    -1.3340     1.5780 H     1 <1>   0.0800 
 37 H        4.4490    -1.8500    -0.0830 H     1 <1>   0.0800 
 38 H        3.7290    -2.9290     1.0810 H     1 <1>   0.0800 
 39 H        2.9650     4.5200    -0.1140 H     1 <1>   0.0800 
 40 H        2.2580     3.4510     1.0610 H     1 <1>   0.0800 
 41 H       -0.4410     3.2270     1.0240 H     1 <1>   0.0800 
 42 H       -1.2790     4.1630    -0.1740 H     1 <1>   0.0800 
 43 H       -4.4980    -1.7790     0.7340 H     1 <1>   0.0800 
 44 H       -3.3440    -2.3120     1.9230 H     1 <1>   0.0800 
 45 H       -2.5240    -5.3220    -0.3020 H     1 <1>   0.0800 
 46 H       -2.6020    -3.9770    -1.4010 H     1 <1>   0.0800 
 47 H        0.7900     5.1130    -1.0030 H     1 <1>   0.0800 
 48 H        0.7490     5.3350     0.7230 H     1 <1>   0.0800 
 49 H       -5.8100    -3.6870     1.9600 H     1 <1>   0.1500 
 50 H       -6.5710    -5.5900    -2.3000 H     1 <1>   0.1500 
 51 H       -8.3730    -5.4140    -0.6920 H     1 <1>   0.1500 
@<TRIPOS>BOND
  1   1   2  ar  
  2   1   3  ar  
  3   2   4  ar  
  4   2   5  1   
  5   3   6  1   
  6   3   7  ar  
  7   4   8  ar  
  8   4  26  1   
  9   5   9  1   
 10   5  10  1   
 11   6  11  1   
 12   6  12  1   
 13   7   8  ar  
 14   7  27  1   
 15   8  13  1   
 16   9  14  1   
 17   9  28  1   
 18   9  29  1   
 19  10  15  1   
 20  10  30  1   
 21  10  31  1   
 22  11  16  1   
 23  11  32  1   
 24  11  33  1   
 25  12  17  1   
 26  12  34  1   
 27  12  35  1   
 28  13  36  1   
 29  13  37  1   
 30  13  38  1   
 31  14  18  1   
 32  14  39  1   
 33  14  40  1   
 34  15  18  1   
 35  15  41  1   
 36  15  42  1   
 37  16  19  1   
 38  16  43  1   
 39  16  44  1   
 40  17  19  1   
 41  17  45  1   
 42  17  46  1   
 43  18  47  1   
 44  18  48  1   
 45  19  20  1   
 46  20  21  ar  
 47  20  22  ar  
 48  21  23  ar  
 49  22  24  ar  
 50  22  49  1   
 51  23  25  ar  
 52  23  50  1   
 53  24  25  ar  
 54  25  51  1   
@<TRIPOS>SUBSTRUCTURE
  1 ****   6 GROUP 4 **** **** 0

# MOE 2024.06 (io_trps.svl 2023.06)
