@<TRIPOS>MOLECULE
NONAME
47 49 1 0 0 
SMALL
USER_CHARGES


@<TRIPOS>ATOM
  1 O        4.3870    -1.5860    -1.8410 O.2   1 <1>  -0.5700 
  2 C        3.4670    -1.6020    -1.0420 C.2   1 <1>   0.5440 
  3 N        3.2590    -0.4350    -0.3530 N.am  1 <1>  -0.6600 
  4 C        2.6740    -2.7890    -0.8060 C.ar  1 <1>   0.0860 
  5 C        4.0370    -0.2390     0.9220 C.3   1 <1>   0.2200 
  6 C        2.8230     0.7640    -1.1350 C.3   1 <1>   0.1400 
  7 C        1.5510    -2.7690     0.0200 C.ar  1 <1>   0.1600 
  8 C        2.9870    -4.0140    -1.3880 C.ar  1 <1>  -0.1500 
  9 C        3.3900     0.7880     1.8650 C.3   1 <1>   0.1200 
 10 C        5.5180     0.1310     0.6410 C.3   1 <1>   0.3430 
 11 C        3.6030     2.0600    -0.8440 C.3   1 <1>  -0.0800 
 12 N        0.7780    -3.7960     0.3150 N.ar  1 <1>  -0.6200 
 13 C        2.1890    -5.0950    -1.0980 C.ar  1 <1>  -0.1500 
 14 O        3.8290     2.0780     1.5620 O.3   1 <1>  -0.5600 
 15 N        5.7440     0.6430    -0.7550 N.4   1 <1>  -0.9590 
 16 C        3.1960     2.6980     0.4940 C.3   1 <1>   0.1200 
 17 C        5.1350     1.9840    -1.0200 C.3   1 <1>   0.3430 
 18 C        1.0980    -4.9620    -0.2400 C.ar  1 <1>   0.4100 
 19 C        7.1850     0.6070    -1.1260 C.3   1 <1>   0.2630 
 20 N        0.3030    -6.0500     0.0650 N.pl3 1 <1>  -0.8380 
 21 C        0.8900    -7.3760     0.3890 C.3   1 <1>   0.1290 
 22 C       -1.1090    -5.8610     0.4990 C.3   1 <1>   0.1290 
 23 H        4.0310    -1.1770     1.4510 H     1 <1>   0.0800 
 24 H        2.9090     0.5420    -2.1870 H     1 <1>   0.0800 
 25 H        1.7760     0.9310    -0.9390 H     1 <1>   0.0800 
 26 H        1.2700    -1.8340     0.4700 H     1 <1>   0.1500 
 27 H        3.8300    -4.1090    -2.0510 H     1 <1>   0.1500 
 28 H        3.7060     0.5890     2.8740 H     1 <1>   0.0800 
 29 H        2.3140     0.7420     1.8350 H     1 <1>   0.0800 
 30 H        6.1080    -0.7590     0.7840 H     1 <1>   0.0800 
 31 H        5.8520     0.8590     1.3630 H     1 <1>   0.0800 
 32 H        3.2640     2.7650    -1.5820 H     1 <1>   0.0800 
 33 H        2.3880    -6.0530    -1.5380 H     1 <1>   0.1500 
 34 H        5.2360    -0.0490    -1.3540 H     1 <1>   0.4500 
 35 H        2.1300     2.6630     0.6480 H     1 <1>   0.0800 
 36 H        3.5000     3.7310     0.5130 H     1 <1>   0.0800 
 37 H        5.5950     2.7190    -0.3790 H     1 <1>   0.0800 
 38 H        5.3610     2.2570    -2.0370 H     1 <1>   0.0800 
 39 H        7.7500     1.2820    -0.5040 H     1 <1>   0.0800 
 40 H        7.3110     0.8950    -2.1570 H     1 <1>   0.0800 
 41 H        7.5760    -0.3900    -1.0020 H     1 <1>   0.0800 
 42 H        0.5510    -7.7000     1.3580 H     1 <1>   0.0800 
 43 H        1.9650    -7.3220     0.4090 H     1 <1>   0.0800 
 44 H        0.5870    -8.0970    -0.3500 H     1 <1>   0.0800 
 45 H       -1.7020    -6.7090     0.2060 H     1 <1>   0.0800 
 46 H       -1.5230    -4.9790     0.0410 H     1 <1>   0.0800 
 47 H       -1.1470    -5.7470     1.5680 H     1 <1>   0.0800 
@<TRIPOS>BOND
  1   1   2  2   
  2   2   3  am  
  3   2   4  1   
  4   3   5  1   
  5   3   6  1   
  6   4   7  ar  
  7   4   8  ar  
  8   5   9  1   
  9   5  10  1   
 10   5  23  1   
 11   6  11  1   
 12   6  24  1   
 13   6  25  1   
 14   7  12  ar  
 15   7  26  1   
 16   8  13  ar  
 17   8  27  1   
 18   9  14  1   
 19   9  28  1   
 20   9  29  1   
 21  10  15  1   
 22  10  30  1   
 23  10  31  1   
 24  11  16  1   
 25  11  17  1   
 26  11  32  1   
 27  12  18  ar  
 28  13  18  ar  
 29  13  33  1   
 30  14  16  1   
 31  15  17  1   
 32  15  19  1   
 33  15  34  1   
 34  16  35  1   
 35  16  36  1   
 36  17  37  1   
 37  17  38  1   
 38  18  20  1   
 39  19  39  1   
 40  19  40  1   
 41  19  41  1   
 42  20  21  1   
 43  20  22  1   
 44  21  42  1   
 45  21  43  1   
 46  21  44  1   
 47  22  45  1   
 48  22  46  1   
 49  22  47  1   
@<TRIPOS>SUBSTRUCTURE
  1 ****   2 GROUP 4 **** **** 0

# MOE 2024.06 (io_trps.svl 2023.06)
