@<TRIPOS>MOLECULE
NONAME
52 55 1 0 0 
SMALL
USER_CHARGES


@<TRIPOS>ATOM
  1 O        0.1120     0.9710     0.5550 O.2   1 <1>  -0.5700 
  2 C        0.0380     2.0240    -0.0250 C.2   1 <1>   0.5690 
  3 N       -0.1190     3.1780     0.6610 N.am  1 <1>  -0.7300 
  4 C        0.0950     2.0650    -1.5570 C.3   1 <1>   0.1810 
  5 C       -0.2150     4.5080     0.0140 C.3   1 <1>   0.3640 
  6 O        0.3950     3.3500    -2.0600 O.3   1 <1>  -0.5600 
  7 C       -1.3360     5.3120     0.6660 C.ar  1 <1>  -0.1440 
  8 C       -0.4100     4.3880    -1.5160 C.3   1 <1>   0.2610 
  9 C       -2.5600     4.7330     0.9760 C.ar  1 <1>  -0.1500 
 10 C       -1.1350     6.6560     0.9490 C.ar  1 <1>  -0.1500 
 11 C       -0.1580     5.7450    -2.1890 C.2   1 <1>   0.5690 
 12 C       -3.5620     5.4840     1.5640 C.ar  1 <1>  -0.1500 
 13 C       -2.1370     7.4070     1.5370 C.ar  1 <1>  -0.1500 
 14 O       -1.1260     6.2850    -2.6770 O.2   1 <1>  -0.5700 
 15 N        1.0800     6.3570    -2.2210 N.am  1 <1>  -0.6600 
 16 C       -3.3510     6.8210     1.8460 C.ar  1 <1>  -0.1500 
 17 C        1.2340     7.7350    -2.7690 C.3   1 <1>   0.1400 
 18 C        2.3770     5.7220    -1.8470 C.3   1 <1>   0.1400 
 19 C        1.9170     8.6240    -1.7270 C.3   1 <1>  -0.1600 
 20 C        3.0820     6.5810    -0.7930 C.3   1 <1>  -0.1600 
 21 C        3.2600     8.0280    -1.2760 C.3   1 <1>   0.0630 
 22 C        3.9170     8.8880    -0.1990 C.ar  1 <1>  -0.1430 
 23 C        5.1640     9.4530    -0.4280 C.ar  1 <1>  -0.1500 
 24 C        3.2890     9.1180     1.0200 C.ar  1 <1>  -0.1500 
 25 C        5.7650    10.2320     0.5470 C.ar  1 <1>   0.0830 
 26 C        3.8930     9.8970     1.9930 C.ar  1 <1>  -0.1500 
 27 O        6.9700    10.7800     0.3280 O.3   1 <1>  -0.5330 
 28 C        5.1350    10.4570     1.7570 C.ar  1 <1>  -0.1500 
 29 H       -0.1900     3.1450     1.6790 H     1 <1>   0.3700 
 30 H       -0.8520     1.7560    -1.9590 H     1 <1>   0.0800 
 31 H        0.8560     1.3910    -1.9040 H     1 <1>   0.0800 
 32 H        0.7100     5.0200     0.2030 H     1 <1>   0.0800 
 33 H       -1.4350     4.1250    -1.7090 H     1 <1>   0.0800 
 34 H       -2.7440     3.6940     0.7610 H     1 <1>   0.1500 
 35 H       -0.2000     7.1320     0.7080 H     1 <1>   0.1500 
 36 H       -4.5080     5.0280     1.8020 H     1 <1>   0.1500 
 37 H       -1.9750     8.4490     1.7510 H     1 <1>   0.1500 
 38 H       -4.1310     7.4050     2.3030 H     1 <1>   0.1500 
 39 H        1.8260     7.6930    -3.6670 H     1 <1>   0.0800 
 40 H        0.2770     8.1590    -3.0240 H     1 <1>   0.0800 
 41 H        2.2410     4.7290    -1.4620 H     1 <1>   0.0800 
 42 H        2.9920     5.6470    -2.7280 H     1 <1>   0.0800 
 43 H        2.0820     9.6000    -2.1470 H     1 <1>   0.0800 
 44 H        1.2540     8.7380    -0.8890 H     1 <1>   0.0800 
 45 H        2.5090     6.5610     0.1150 H     1 <1>   0.0800 
 46 H        4.0470     6.1570    -0.5780 H     1 <1>   0.0800 
 47 H        3.9060     8.0050    -2.1370 H     1 <1>   0.0800 
 48 H        5.6680     9.2890    -1.3620 H     1 <1>   0.1500 
 49 H        2.3230     8.6920     1.2240 H     1 <1>   0.1500 
 50 H        3.3980    10.0680     2.9330 H     1 <1>   0.1500 
 51 H        7.3340    10.5700    -0.5490 H     1 <1>   0.4500 
 52 H        5.6180    11.0640     2.5010 H     1 <1>   0.1500 
@<TRIPOS>BOND
  1   1   2  2   
  2   2   3  am  
  3   2   4  1   
  4   3   5  1   
  5   3  29  1   
  6   4   6  1   
  7   4  30  1   
  8   4  31  1   
  9   5   7  1   
 10   5   8  1   
 11   5  32  1   
 12   6   8  1   
 13   7   9  ar  
 14   7  10  ar  
 15   8  11  1   
 16   8  33  1   
 17   9  12  ar  
 18   9  34  1   
 19  10  13  ar  
 20  10  35  1   
 21  11  14  2   
 22  11  15  am  
 23  12  16  ar  
 24  12  36  1   
 25  13  16  ar  
 26  13  37  1   
 27  15  17  1   
 28  15  18  1   
 29  16  38  1   
 30  17  19  1   
 31  17  39  1   
 32  17  40  1   
 33  18  20  1   
 34  18  41  1   
 35  18  42  1   
 36  19  21  1   
 37  19  43  1   
 38  19  44  1   
 39  20  21  1   
 40  20  45  1   
 41  20  46  1   
 42  21  22  1   
 43  21  47  1   
 44  22  23  ar  
 45  22  24  ar  
 46  23  25  ar  
 47  23  48  1   
 48  24  26  ar  
 49  24  49  1   
 50  25  27  1   
 51  25  28  ar  
 52  26  28  ar  
 53  26  50  1   
 54  27  51  1   
 55  28  52  1   
@<TRIPOS>SUBSTRUCTURE
  1 ****  15 GROUP 4 **** **** 0

# MOE 2024.06 (io_trps.svl 2023.06)
