@<TRIPOS>MOLECULE
NONAME
48 50 1 0 0 
SMALL
USER_CHARGES


@<TRIPOS>ATOM
  1 O       -0.3830     0.1810     1.2660 O.2   1 <1>  -0.5700 
  2 C       -1.2390     0.8280     0.7090 C.2   1 <1>   0.5690 
  3 N       -2.3120     0.1950     0.1290 N.am  1 <1>  -0.6600 
  4 C       -1.0290     2.3490     0.6940 C.3   1 <1>  -0.0190 
  5 C       -3.4950     0.7830    -0.5530 C.3   1 <1>   0.1400 
  6 C       -2.3910    -1.2890     0.0940 C.3   1 <1>   0.1400 
  7 C       -2.1550     3.1630     1.3640 C.3   1 <1>  -0.1600 
  8 C       -0.6910     2.8990    -0.7070 C.3   1 <1>  -0.1600 
  9 C       -4.2270    -0.4050    -1.1750 C.3   1 <1>   0.2000 
 10 C       -3.8200    -1.6150    -0.3420 C.3   1 <1>  -0.0800 
 11 C       -1.8220     4.6570     1.3750 C.3   1 <1>   0.1400 
 12 C       -0.4100     4.4030    -0.6640 C.3   1 <1>   0.1400 
 13 O       -5.6030    -0.2390    -1.1310 O.3   1 <1>  -0.6800 
 14 C       -3.9600    -2.9390    -1.1140 C.3   1 <1>  -0.0170 
 15 N       -1.5580     5.1010    -0.0210 N.am  1 <1>  -0.6600 
 16 C       -3.5810    -4.1350    -0.2570 C.ar  1 <1>   0.1670 
 17 C       -2.2920     6.0340    -0.7080 C.2   1 <1>   0.5690 
 18 N       -2.2910    -4.4170    -0.1730 N.ar  1 <1>  -0.6200 
 19 C       -4.5720    -4.8690     0.3940 C.ar  1 <1>   0.1600 
 20 O       -2.0500     6.3280    -1.8540 O.2   1 <1>  -0.5700 
 21 C       -3.4560     6.7370    -0.0500 C.3   1 <1>  -0.1790 
 22 C       -2.0600    -5.4650     0.6000 C.ar  1 <1>   0.1600 
 23 N       -4.3440    -5.9180     1.1670 N.ar  1 <1>  -0.6200 
 24 C       -3.0530    -6.1900     1.2480 C.ar  1 <1>   0.1600 
 25 H       -0.1510     2.5190     1.2940 H     1 <1>   0.0800 
 26 H       -4.1240     1.2580     0.1780 H     1 <1>   0.0800 
 27 H       -3.2050     1.4810    -1.3150 H     1 <1>   0.0800 
 28 H       -1.6760    -1.6590    -0.6220 H     1 <1>   0.0800 
 29 H       -2.1670    -1.7120     1.0600 H     1 <1>   0.0800 
 30 H       -2.2920     2.8200     2.3750 H     1 <1>   0.0800 
 31 H       -3.0830     3.0390     0.8430 H     1 <1>   0.0800 
 32 H       -1.4960     2.7290    -1.3940 H     1 <1>   0.0800 
 33 H        0.1760     2.3900    -1.0900 H     1 <1>   0.0800 
 34 H       -3.9300    -0.5180    -2.2040 H     1 <1>   0.0800 
 35 H       -4.4210    -1.6550     0.5500 H     1 <1>   0.0800 
 36 H       -0.9420     4.8320     1.9710 H     1 <1>   0.0800 
 37 H       -2.6340     5.2050     1.8170 H     1 <1>   0.0800 
 38 H       -0.2490     4.7690    -1.6640 H     1 <1>   0.0800 
 39 H        0.4830     4.5970    -0.0940 H     1 <1>   0.0800 
 40 H       -5.9080    -0.1520    -0.2070 H     1 <1>   0.4000 
 41 H       -3.3320    -2.9230    -1.9880 H     1 <1>   0.0800 
 42 H       -4.9760    -3.0460    -1.4500 H     1 <1>   0.0800 
 43 H       -5.5990    -4.5740     0.2710 H     1 <1>   0.1500 
 44 H       -3.1140     7.2840     0.8080 H     1 <1>   0.0800 
 45 H       -4.1990     6.0190     0.2420 H     1 <1>   0.0800 
 46 H       -3.9000     7.4280    -0.7430 H     1 <1>   0.0800 
 47 H       -1.0350    -5.7650     0.7280 H     1 <1>   0.1500 
 48 H       -2.7650    -7.0290     1.8570 H     1 <1>   0.1500 
@<TRIPOS>BOND
  1   1   2  2   
  2   2   3  am  
  3   2   4  1   
  4   3   5  1   
  5   3   6  1   
  6   4   7  1   
  7   4   8  1   
  8   4  25  1   
  9   5   9  1   
 10   5  26  1   
 11   5  27  1   
 12   6  10  1   
 13   6  28  1   
 14   6  29  1   
 15   7  11  1   
 16   7  30  1   
 17   7  31  1   
 18   8  12  1   
 19   8  32  1   
 20   8  33  1   
 21   9  10  1   
 22   9  13  1   
 23   9  34  1   
 24  10  14  1   
 25  10  35  1   
 26  11  15  1   
 27  11  36  1   
 28  11  37  1   
 29  12  15  1   
 30  12  38  1   
 31  12  39  1   
 32  13  40  1   
 33  14  16  1   
 34  14  41  1   
 35  14  42  1   
 36  15  17  am  
 37  16  18  ar  
 38  16  19  ar  
 39  17  20  2   
 40  17  21  1   
 41  18  22  ar  
 42  19  23  ar  
 43  19  43  1   
 44  21  44  1   
 45  21  45  1   
 46  21  46  1   
 47  22  24  ar  
 48  22  47  1   
 49  23  24  ar  
 50  24  48  1   
@<TRIPOS>SUBSTRUCTURE
  1 ****   3 GROUP 4 **** **** 0

# MOE 2024.06 (io_trps.svl 2023.06)
