@<TRIPOS>MOLECULE
NONAME
49 51 1 0 0 
SMALL
USER_CHARGES


@<TRIPOS>ATOM
  1 O        1.3310    -0.8170     1.4420 O.co2 1 <1>  -0.9000 
  2 C        1.2810     0.2700     0.8570 C.2   1 <1>   0.9060 
  3 O        0.8760     1.2850     1.4160 O.co2 1 <1>  -0.9000 
  4 C        2.0310     0.3780    -0.4820 C.3   1 <1>  -0.1060 
  5 C        3.4850     0.0130    -0.1350 C.3   1 <1>   0.4230 
  6 C        2.0600     1.8260    -1.0480 C.3   1 <1>  -0.1600 
  7 C        1.4240    -0.5960    -1.5360 C.3   1 <1>  -0.1600 
  8 N        3.5580    -1.4600     0.1720 N.4   1 <1>  -0.9590 
  9 C        3.9800     0.9830     0.9790 C.3   1 <1>   0.3430 
 10 C        2.6200     2.8650    -0.0600 C.3   1 <1>   0.3430 
 11 C        2.4680    -1.5720    -2.1010 C.3   1 <1>  -0.1600 
 12 C        3.2180    -2.3330    -0.9960 C.3   1 <1>   0.3430 
 13 C        4.7560    -1.9520     0.9090 C.3   1 <1>   0.2630 
 14 N        3.9150     2.4260     0.5520 N.4   1 <1>  -0.9590 
 15 C        4.2340     3.3390     1.6810 C.3   1 <1>   0.5240 
 16 C        5.1440     4.4230     1.1140 C.2   1 <1>   0.1080 
 17 N        5.8330     4.2560     0.0180 N.2   1 <1>  -0.7070 
 18 C        5.3410     5.6800     1.6720 C.2   1 <1>  -0.1500 
 19 N        6.5030     5.4180    -0.1480 N.pl3 1 <1>   0.3140 
 20 C        6.2130     6.2870     0.8400 C.2   1 <1>  -0.3020 
 21 C        7.4210     5.6590    -1.2820 C.3   1 <1>   0.0960 
 22 C        8.8840     5.4860    -0.8590 C.3   1 <1>  -0.2400 
 23 H        4.0970     0.1930    -1.0030 H     1 <1>   0.0800 
 24 H        1.0540     2.1260    -1.2900 H     1 <1>   0.0800 
 25 H        2.6320     1.8630    -1.9580 H     1 <1>   0.0800 
 26 H        0.6370    -1.1740    -1.0770 H     1 <1>   0.0800 
 27 H        0.9660    -0.0520    -2.3450 H     1 <1>   0.0800 
 28 H        2.7250    -1.5690     0.8180 H     1 <1>   0.4500 
 29 H        4.9970     0.7390     1.2350 H     1 <1>   0.0800 
 30 H        3.3650     0.8470     1.8550 H     1 <1>   0.0800 
 31 H        1.8930     3.0290     0.7200 H     1 <1>   0.0800 
 32 H        2.7580     3.8060    -0.5680 H     1 <1>   0.0800 
 33 H        3.1770    -1.0370    -2.7080 H     1 <1>   0.0800 
 34 H        1.9810    -2.2860    -2.7440 H     1 <1>   0.0800 
 35 H        4.1160    -2.7580    -1.4150 H     1 <1>   0.0800 
 36 H        2.5980    -3.1440    -0.6490 H     1 <1>   0.0800 
 37 H        5.6450    -1.8170     0.3160 H     1 <1>   0.0800 
 38 H        4.6440    -3.0020     1.1310 H     1 <1>   0.0800 
 39 H        4.8670    -1.4240     1.8420 H     1 <1>   0.0800 
 40 H        4.6760     2.6690    -0.1150 H     1 <1>   0.4500 
 41 H        3.3370     3.7660     2.0990 H     1 <1>   0.0800 
 42 H        4.7660     2.8110     2.4550 H     1 <1>   0.0800 
 43 H        4.8940     6.0740     2.5690 H     1 <1>   0.1500 
 44 H        6.6390     7.2730     0.8970 H     1 <1>   0.1500 
 45 H        7.1810     4.9650    -2.0670 H     1 <1>   0.0800 
 46 H        7.2570     6.6570    -1.6480 H     1 <1>   0.0800 
 47 H        9.0520     4.4860    -0.4970 H     1 <1>   0.0800 
 48 H        9.1400     6.1910    -0.0870 H     1 <1>   0.0800 
 49 H        9.5300     5.6550    -1.7020 H     1 <1>   0.0800 
@<TRIPOS>BOND
  1   1   2  ar  
  2   2   3  ar  
  3   2   4  1   
  4   4   5  1   
  5   4   6  1   
  6   4   7  1   
  7   5   8  1   
  8   5   9  1   
  9   5  23  1   
 10   6  10  1   
 11   6  24  1   
 12   6  25  1   
 13   7  11  1   
 14   7  26  1   
 15   7  27  1   
 16   8  12  1   
 17   8  13  1   
 18   8  28  1   
 19   9  14  1   
 20   9  29  1   
 21   9  30  1   
 22  10  14  1   
 23  10  31  1   
 24  10  32  1   
 25  11  12  1   
 26  11  33  1   
 27  11  34  1   
 28  12  35  1   
 29  12  36  1   
 30  13  37  1   
 31  13  38  1   
 32  13  39  1   
 33  14  15  1   
 34  14  40  1   
 35  15  16  1   
 36  15  41  1   
 37  15  42  1   
 38  16  17  2   
 39  16  18  1   
 40  17  19  1   
 41  18  20  2   
 42  18  43  1   
 43  19  20  1   
 44  19  21  1   
 45  20  44  1   
 46  21  22  1   
 47  21  45  1   
 48  21  46  1   
 49  22  47  1   
 50  22  48  1   
 51  22  49  1   
@<TRIPOS>SUBSTRUCTURE
  1 ****  14 GROUP 4 **** **** 0

# MOE 2024.06 (io_trps.svl 2023.06)
