@<TRIPOS>MOLECULE
NONAME
52 53 1 0 0 
SMALL
USER_CHARGES


@<TRIPOS>ATOM
  1 O        0.3510     1.0570     0.0630 O.2   1 <1>  -0.5700 
  2 C        0.2730     2.2550    -0.0440 C.2   1 <1>   0.5690 
  3 N       -0.5610     2.9640     0.7480 N.am  1 <1>  -0.7300 
  4 C        1.0960     2.9900    -1.1030 C.3   1 <1>   0.1810 
  5 C       -0.7540     4.4310     0.6400 C.3   1 <1>   0.3640 
  6 O        1.2430     4.3610    -0.8120 O.3   1 <1>  -0.5600 
  7 C       -2.2480     4.7270     0.5430 C.ar  1 <1>  -0.1440 
  8 C        0.0240     5.0460    -0.5520 C.3   1 <1>   0.2610 
  9 C       -3.0900     3.9600    -0.2530 C.ar  1 <1>  -0.1500 
 10 C       -2.7830     5.7910     1.2560 C.ar  1 <1>  -0.1500 
 11 C        0.2360     6.5480    -0.3000 C.2   1 <1>   0.5690 
 12 C       -4.4420     4.2470    -0.3280 C.ar  1 <1>  -0.1500 
 13 C       -4.1350     6.0790     1.1810 C.ar  1 <1>  -0.1500 
 14 O       -0.5320     7.2940    -0.8640 O.2   1 <1>  -0.5700 
 15 N        1.2120     7.0500     0.5430 N.am  1 <1>  -0.6600 
 16 C       -4.9660     5.3060     0.3900 C.ar  1 <1>  -0.1500 
 17 C        2.1680     6.2200     1.3360 C.3   1 <1>   0.1400 
 18 C        1.3340     8.5240     0.7430 C.3   1 <1>   0.1400 
 19 C        3.5470     6.1910     0.6730 C.3   1 <1>  -0.1600 
 20 C        2.0400     9.1790    -0.4500 C.3   1 <1>  -0.1600 
 21 C        4.4600     5.1570     1.3430 C.3   1 <1>  -0.1600 
 22 C        2.2150    10.6870    -0.2280 C.3   1 <1>  -0.1600 
 23 C        5.8410     5.1340     0.6810 C.3   1 <1>  -0.2400 
 24 C        2.9190    11.3400    -1.4210 C.3   1 <1>  -0.2400 
 25 H       -1.1530     2.4630     1.4130 H     1 <1>   0.3700 
 26 H        0.6220     2.8940    -2.0620 H     1 <1>   0.0800 
 27 H        2.0790     2.5590    -1.1540 H     1 <1>   0.0800 
 28 H       -0.3860     4.8710     1.5500 H     1 <1>   0.0800 
 29 H       -0.5780     4.9550    -1.4380 H     1 <1>   0.0800 
 30 H       -2.7020     3.1320    -0.8220 H     1 <1>   0.1500 
 31 H       -2.1530     6.4110     1.8700 H     1 <1>   0.1500 
 32 H       -5.0860     3.6460    -0.9450 H     1 <1>   0.1500 
 33 H       -4.5400     6.9070     1.7360 H     1 <1>   0.1500 
 34 H       -6.0160     5.5310     0.3320 H     1 <1>   0.1500 
 35 H        2.2520     6.6190     2.3320 H     1 <1>   0.0800 
 36 H        1.8030     5.2140     1.4280 H     1 <1>   0.0800 
 37 H        0.3500     8.9480     0.8500 H     1 <1>   0.0800 
 38 H        1.8810     8.7270     1.6470 H     1 <1>   0.0800 
 39 H        3.4330     5.9400    -0.3680 H     1 <1>   0.0800 
 40 H        4.0010     7.1620     0.7480 H     1 <1>   0.0800 
 41 H        3.0040     8.7290    -0.5980 H     1 <1>   0.0800 
 42 H        1.4530     9.0200    -1.3370 H     1 <1>   0.0800 
 43 H        4.5720     5.3920     2.3880 H     1 <1>   0.0800 
 44 H        4.0160     4.1790     1.2640 H     1 <1>   0.0800 
 45 H        1.2500    11.1450    -0.0940 H     1 <1>   0.0800 
 46 H        2.7950    10.8590     0.6620 H     1 <1>   0.0800 
 47 H        6.3150     6.0960     0.7640 H     1 <1>   0.0800 
 48 H        5.7530     4.8800    -0.3610 H     1 <1>   0.0800 
 49 H        6.4660     4.4010     1.1590 H     1 <1>   0.0800 
 50 H        2.3450    11.1960    -2.3200 H     1 <1>   0.0800 
 51 H        3.8960    10.9120    -1.5630 H     1 <1>   0.0800 
 52 H        3.0300    12.3960    -1.2510 H     1 <1>   0.0800 
@<TRIPOS>BOND
  1   1   2  2   
  2   2   3  am  
  3   2   4  1   
  4   3   5  1   
  5   3  25  1   
  6   4   6  1   
  7   4  26  1   
  8   4  27  1   
  9   5   7  1   
 10   5   8  1   
 11   5  28  1   
 12   6   8  1   
 13   7   9  ar  
 14   7  10  ar  
 15   8  11  1   
 16   8  29  1   
 17   9  12  ar  
 18   9  30  1   
 19  10  13  ar  
 20  10  31  1   
 21  11  14  2   
 22  11  15  am  
 23  12  16  ar  
 24  12  32  1   
 25  13  16  ar  
 26  13  33  1   
 27  15  17  1   
 28  15  18  1   
 29  16  34  1   
 30  17  19  1   
 31  17  35  1   
 32  17  36  1   
 33  18  20  1   
 34  18  37  1   
 35  18  38  1   
 36  19  21  1   
 37  19  39  1   
 38  19  40  1   
 39  20  22  1   
 40  20  41  1   
 41  20  42  1   
 42  21  23  1   
 43  21  43  1   
 44  21  44  1   
 45  22  24  1   
 46  22  45  1   
 47  22  46  1   
 48  23  47  1   
 49  23  48  1   
 50  23  49  1   
 51  24  50  1   
 52  24  51  1   
 53  24  52  1   
@<TRIPOS>SUBSTRUCTURE
  1 ****  11 GROUP 4 **** **** 0

# MOE 2024.06 (io_trps.svl 2023.06)
