@<TRIPOS>MOLECULE
NONAME
56 58 1 0 0 
SMALL
USER_CHARGES


@<TRIPOS>ATOM
  1 F       -1.0330     0.1440     0.0430 F     1 <1>  -0.1900 
  2 C       -2.3270     0.3350     0.0970 C.ar  1 <1>   0.1900 
  3 C       -3.0470     0.8500    -0.9870 C.ar  1 <1>   0.0830 
  4 C       -2.9480     0.0020     1.2850 C.ar  1 <1>  -0.1500 
  5 O       -2.5510     1.2150    -2.2050 O.3   1 <1>  -0.3630 
  6 C       -4.4130     1.0160    -0.8300 C.ar  1 <1>  -0.1500 
  7 C       -4.3140     0.1800     1.4080 C.ar  1 <1>  -0.1500 
  8 C       -1.1880     1.0980    -2.5460 C.3   1 <1>   0.0400 
  9 C       -5.0770     0.6870     0.3540 C.ar  1 <1>   0.0530 
 10 C       -6.5000     0.8850     0.4730 C.2   1 <1>   0.0870 
 11 O       -7.0470     1.9450    -0.0660 O.3   1 <1>  -0.0190 
 12 C       -7.5020     0.1820     1.0700 C.2   1 <1>  -0.0860 
 13 N       -8.3370     2.0110     0.1280 N.2   1 <1>  -0.4100 
 14 C       -8.6380     0.9610     0.8070 C.2   1 <1>   0.3720 
 15 C       -7.4860    -1.0610     1.7810 C.2   1 <1>   0.7160 
 16 N       -9.9500     0.6510     1.2030 N.pl3 1 <1>  -0.8210 
 17 O       -6.5670    -1.8490     1.6660 O.2   1 <1>  -0.5700 
 18 N       -8.5260    -1.3980     2.5840 N.am  1 <1>  -0.7300 
 19 C      -10.6330    -0.3280     0.3090 C.3   1 <1>   0.1290 
 20 C      -10.8160     1.8260     1.5020 C.3   1 <1>   0.1290 
 21 C       -8.8800    -2.7900     2.9280 C.3   1 <1>   0.3210 
 22 C       -9.7680    -3.3630     1.8330 C.2   1 <1>   0.1080 
 23 N      -11.0630    -3.4440     1.9110 N.2   1 <1>  -0.7070 
 24 C       -9.2890    -3.8410     0.6190 C.2   1 <1>  -0.1500 
 25 N      -11.4380    -3.9950     0.7420 N.pl3 1 <1>   0.3000 
 26 C      -10.3850    -4.2370    -0.0680 C.2   1 <1>  -0.3320 
 27 C      -10.5220    -4.8400    -1.4600 C.3   1 <1>   0.1800 
 28 C       -9.1420    -4.9990    -2.1090 C.3   1 <1>  -0.2400 
 29 C      -11.1860    -6.2170    -1.3570 C.3   1 <1>  -0.2400 
 30 C      -11.3770    -3.9130    -2.3310 C.3   1 <1>  -0.2400 
 31 H       -2.3690    -0.3930     2.1000 H     1 <1>   0.1500 
 32 H       -4.9780     1.4110    -1.6550 H     1 <1>   0.1500 
 33 H       -4.7960    -0.0780     2.3350 H     1 <1>   0.1500 
 34 H       -1.0660     1.4420    -3.5580 H     1 <1>   0.0800 
 35 H       -0.8950     0.0660    -2.4750 H     1 <1>   0.0800 
 36 H       -0.6060     1.7120    -1.8810 H     1 <1>   0.0800 
 37 H       -9.3460    -0.7830     2.4730 H     1 <1>   0.3700 
 38 H       -9.9400    -1.0840    -0.0200 H     1 <1>   0.0800 
 39 H      -11.0300     0.1740    -0.5570 H     1 <1>   0.0800 
 40 H      -11.4350    -0.8100     0.8410 H     1 <1>   0.0800 
 41 H      -10.2870     2.5170     2.1350 H     1 <1>   0.0800 
 42 H      -11.7090     1.5050     2.0110 H     1 <1>   0.0800 
 43 H      -11.0870     2.3300     0.5900 H     1 <1>   0.0800 
 44 H       -9.4090    -2.8050     3.8640 H     1 <1>   0.0800 
 45 H       -7.9910    -3.3890     3.0260 H     1 <1>   0.0800 
 46 H       -8.2520    -3.8650     0.3280 H     1 <1>   0.1500 
 47 H      -12.4200    -4.1990     0.5210 H     1 <1>   0.2700 
 48 H       -8.5220    -5.6460    -1.5150 H     1 <1>   0.0800 
 49 H       -8.6560    -4.0430    -2.1940 H     1 <1>   0.0800 
 50 H       -9.2310    -5.4230    -3.0930 H     1 <1>   0.0800 
 51 H      -10.6050    -6.8580    -0.7170 H     1 <1>   0.0800 
 52 H      -11.2540    -6.6760    -2.3270 H     1 <1>   0.0800 
 53 H      -12.1770    -6.1390    -0.9500 H     1 <1>   0.0800 
 54 H      -10.9280    -2.9370    -2.3800 H     1 <1>   0.0800 
 55 H      -12.3680    -3.8130    -1.9280 H     1 <1>   0.0800 
 56 H      -11.4560    -4.3030    -3.3300 H     1 <1>   0.0800 
@<TRIPOS>BOND
  1   1   2  1   
  2   2   3  ar  
  3   2   4  ar  
  4   3   5  1   
  5   3   6  ar  
  6   4   7  ar  
  7   4  31  1   
  8   5   8  1   
  9   6   9  ar  
 10   6  32  1   
 11   7   9  ar  
 12   7  33  1   
 13   8  34  1   
 14   8  35  1   
 15   8  36  1   
 16   9  10  1   
 17  10  11  1   
 18  10  12  2   
 19  11  13  1   
 20  12  14  1   
 21  12  15  1   
 22  13  14  2   
 23  14  16  1   
 24  15  17  2   
 25  15  18  am  
 26  16  19  1   
 27  16  20  1   
 28  18  21  1   
 29  18  37  1   
 30  19  38  1   
 31  19  39  1   
 32  19  40  1   
 33  20  41  1   
 34  20  42  1   
 35  20  43  1   
 36  21  22  1   
 37  21  44  1   
 38  21  45  1   
 39  22  23  2   
 40  22  24  1   
 41  23  25  1   
 42  24  26  2   
 43  24  46  1   
 44  25  26  1   
 45  25  47  1   
 46  26  27  1   
 47  27  28  1   
 48  27  29  1   
 49  27  30  1   
 50  28  48  1   
 51  28  49  1   
 52  28  50  1   
 53  29  51  1   
 54  29  52  1   
 55  29  53  1   
 56  30  54  1   
 57  30  55  1   
 58  30  56  1   
@<TRIPOS>SUBSTRUCTURE
  1 ****  12 GROUP 4 **** **** 0

# MOE 2024.06 (io_trps.svl 2023.06)
