@<TRIPOS>MOLECULE
NONAME
36 37 1 0 0 
SMALL
USER_CHARGES


@<TRIPOS>ATOM
  1 F       -0.9840    -0.6800     1.0970 F     1 <1>  -0.3400 
  2 C       -0.1000    -1.6180     0.7690 C.3   1 <1>   1.2010 
  3 F        0.4850    -1.9780     1.9100 F     1 <1>  -0.3400 
  4 F        0.8430    -1.0120     0.0550 F     1 <1>  -0.3400 
  5 C       -0.7410    -2.8270     0.0300 C.2   1 <1>   0.1080 
  6 N       -1.4010    -2.7800    -1.1050 N.2   1 <1>  -0.7070 
  7 C       -0.6840    -4.1310     0.5030 C.2   1 <1>  -0.1500 
  8 N       -1.7640    -4.0430    -1.3640 N.pl3 1 <1>   0.3140 
  9 C       -1.3550    -4.9020    -0.3970 C.2   1 <1>  -0.2370 
 10 C       -2.5330    -4.3540    -2.5810 C.3   1 <1>   0.0160 
 11 C       -1.6140    -6.3140    -0.4040 C.2   1 <1>   0.7150 
 12 O       -1.6350    -6.9270    -1.4580 O.2   1 <1>  -0.5700 
 13 N       -1.8740    -7.0020     0.7560 N.am  1 <1>  -0.6600 
 14 C       -1.8650    -8.4930     0.7600 C.3   1 <1>   0.3200 
 15 C       -2.5730    -6.3880     1.9270 C.3   1 <1>   0.1400 
 16 C       -3.2370    -9.0160     0.3740 C.2   1 <1>   0.0060 
 17 C       -3.9880    -5.9290     1.5530 C.3   1 <1>   0.1200 
 18 N       -4.0820    -9.5640     1.1880 N.2   1 <1>  -0.5650 
 19 N       -3.6900    -8.9200    -0.8940 N.pl3 1 <1>   0.0330 
 20 O       -4.6360    -5.4870     2.6960 O.3   1 <1>  -0.6800 
 21 C       -5.1420    -9.8470     0.4050 C.2   1 <1>   0.0770 
 22 C       -4.9220    -9.4580    -0.8690 C.2   1 <1>  -0.3020 
 23 H       -0.1950    -4.4570     1.4060 H     1 <1>   0.1500 
 24 H       -2.8070    -3.4390    -3.0720 H     1 <1>   0.0800 
 25 H       -3.4190    -4.8980    -2.3140 H     1 <1>   0.0800 
 26 H       -1.9260    -4.9460    -3.2390 H     1 <1>   0.0800 
 27 H       -1.6050    -8.8550     1.7390 H     1 <1>   0.0800 
 28 H       -1.1290    -8.8610     0.0660 H     1 <1>   0.0800 
 29 H       -2.0110    -5.5470     2.2910 H     1 <1>   0.0800 
 30 H       -2.6410    -7.1120     2.7200 H     1 <1>   0.0800 
 31 H       -4.5650    -6.7350     1.1340 H     1 <1>   0.0800 
 32 H       -3.9490    -5.1050     0.8620 H     1 <1>   0.0800 
 33 H       -3.1780    -8.4870    -1.6740 H     1 <1>   0.2700 
 34 H       -4.9260    -6.2480     3.2380 H     1 <1>   0.4000 
 35 H       -6.0220   -10.3230     0.8070 H     1 <1>   0.1500 
 36 H       -5.5550    -9.5330    -1.7350 H     1 <1>   0.1500 
@<TRIPOS>BOND
  1   1   2  1   
  2   2   3  1   
  3   2   4  1   
  4   2   5  1   
  5   5   6  2   
  6   5   7  1   
  7   6   8  1   
  8   7   9  2   
  9   7  23  1   
 10   8   9  1   
 11   8  10  1   
 12   9  11  1   
 13  10  24  1   
 14  10  25  1   
 15  10  26  1   
 16  11  12  2   
 17  11  13  am  
 18  13  14  1   
 19  13  15  1   
 20  14  16  1   
 21  14  27  1   
 22  14  28  1   
 23  15  17  1   
 24  15  29  1   
 25  15  30  1   
 26  16  18  2   
 27  16  19  1   
 28  17  20  1   
 29  17  31  1   
 30  17  32  1   
 31  18  21  1   
 32  19  22  1   
 33  19  33  1   
 34  20  34  1   
 35  21  22  2   
 36  21  35  1   
 37  22  36  1   
@<TRIPOS>SUBSTRUCTURE
  1 ****  11 GROUP 4 **** **** 0

# MOE 2024.06 (io_trps.svl 2023.06)
