@<TRIPOS>MOLECULE
NONAME
48 51 1 0 0 
SMALL
USER_CHARGES


@<TRIPOS>ATOM
  1 O       -1.6670     0.0170    -0.4960 O.2   1 <1>  -0.5700 
  2 C       -2.1320    -1.0930    -0.4610 C.2   1 <1>   0.5690 
  3 N       -1.8150    -1.9730    -1.4370 N.am  1 <1>  -0.7300 
  4 C       -3.0550    -1.4560     0.6820 C.3   1 <1>  -0.0990 
  5 C       -2.2110    -3.3960    -1.5890 C.3   1 <1>   0.1400 
  6 C       -2.5310    -2.6380     1.4940 C.3   1 <1>   0.1400 
  7 C       -1.8840    -4.2290    -0.3390 C.3   1 <1>   0.1400 
  8 N       -2.8190    -3.9160     0.7830 N.am  1 <1>  -0.6600 
  9 C       -3.8780    -4.7130     1.1670 C.2   1 <1>   0.5690 
 10 O       -4.5570    -4.4130     2.1250 O.2   1 <1>  -0.5700 
 11 C       -4.2590    -5.9750     0.3690 C.3   1 <1>   0.2610 
 12 O       -3.4450    -7.0700     0.7240 O.3   1 <1>  -0.5600 
 13 C       -5.7710    -6.2960     0.5040 C.3   1 <1>   0.3640 
 14 C       -3.6800    -8.2240    -0.0440 C.3   1 <1>   0.1810 
 15 N       -6.1280    -7.7160     0.1710 N.am  1 <1>  -0.5090 
 16 C       -6.5150    -5.3160    -0.3990 C.ar  1 <1>  -0.1440 
 17 C       -5.1450    -8.6560    -0.0300 C.2   1 <1>   0.5690 
 18 C       -7.5070    -8.1270     0.5540 C.3   1 <1>   0.0490 
 19 C       -6.5470    -5.4960    -1.7750 C.ar  1 <1>   0.1600 
 20 C       -7.1400    -4.2060     0.1370 C.ar  1 <1>  -0.1500 
 21 O       -5.3730    -9.8320    -0.1990 O.2   1 <1>  -0.5700 
 22 C       -8.2700    -9.0590    -0.3350 C.3   1 <1>  -0.2000 
 23 C       -8.7070    -7.6380    -0.2020 C.3   1 <1>  -0.2000 
 24 N       -7.1170    -4.6710    -2.6360 N.ar  1 <1>  -0.6200 
 25 C       -7.7530    -3.3430    -0.7460 C.ar  1 <1>  -0.1500 
 26 C       -7.7110    -3.6170    -2.1020 C.ar  1 <1>   0.1600 
 27 H       -1.2150    -1.5880    -2.1720 H     1 <1>   0.3700 
 28 H       -3.1230    -0.6030     1.3320 H     1 <1>   0.0800 
 29 H       -4.0410    -1.6620     0.3100 H     1 <1>   0.0800 
 30 H       -3.2630    -3.4580    -1.8100 H     1 <1>   0.0800 
 31 H       -1.6710    -3.8060    -2.4250 H     1 <1>   0.0800 
 32 H       -3.0090    -2.6390     2.4590 H     1 <1>   0.0800 
 33 H       -1.4720    -2.5370     1.6610 H     1 <1>   0.0800 
 34 H       -0.8700    -4.0340    -0.0320 H     1 <1>   0.0800 
 35 H       -1.9380    -5.2740    -0.5840 H     1 <1>   0.0800 
 36 H       -4.0640    -5.7690    -0.6660 H     1 <1>   0.0800 
 37 H       -6.0750    -6.1330     1.5240 H     1 <1>   0.0800 
 38 H       -3.3660    -8.0380    -1.0550 H     1 <1>   0.0800 
 39 H       -3.0760    -9.0140     0.3650 H     1 <1>   0.0800 
 40 H       -7.6020    -8.2730     1.6170 H     1 <1>   0.1000 
 41 H       -6.0780    -6.3700    -2.1970 H     1 <1>   0.1500 
 42 H       -7.1460    -4.0120     1.1970 H     1 <1>   0.1500 
 43 H       -7.8180    -9.3800    -1.2580 H     1 <1>   0.1000 
 44 H       -8.8670    -9.8290     0.1210 H     1 <1>   0.1000 
 45 H       -9.6130    -7.4380     0.3410 H     1 <1>   0.1000 
 46 H       -8.6130    -7.0220    -1.0770 H     1 <1>   0.1000 
 47 H       -8.2570    -2.4630    -0.3880 H     1 <1>   0.1500 
 48 H       -8.1920    -2.9330    -2.7810 H     1 <1>   0.1500 
@<TRIPOS>BOND
  1   1   2  2   
  2   2   3  am  
  3   2   4  1   
  4   3   5  1   
  5   3  27  1   
  6   4   6  1   
  7   4  28  1   
  8   4  29  1   
  9   5   7  1   
 10   5  30  1   
 11   5  31  1   
 12   6   8  1   
 13   6  32  1   
 14   6  33  1   
 15   7   8  1   
 16   7  34  1   
 17   7  35  1   
 18   8   9  am  
 19   9  10  2   
 20   9  11  1   
 21  11  12  1   
 22  11  13  1   
 23  11  36  1   
 24  12  14  1   
 25  13  15  1   
 26  13  16  1   
 27  13  37  1   
 28  14  17  1   
 29  14  38  1   
 30  14  39  1   
 31  15  17  am  
 32  15  18  1   
 33  16  19  ar  
 34  16  20  ar  
 35  17  21  2   
 36  18  22  1   
 37  18  23  1   
 38  18  40  1   
 39  19  24  ar  
 40  19  41  1   
 41  20  25  ar  
 42  20  42  1   
 43  22  23  1   
 44  22  43  1   
 45  22  44  1   
 46  23  45  1   
 47  23  46  1   
 48  24  26  ar  
 49  25  26  ar  
 50  25  47  1   
 51  26  48  1   
@<TRIPOS>SUBSTRUCTURE
  1 ****  11 GROUP 4 **** **** 0

# MOE 2024.06 (io_trps.svl 2023.06)
