@<TRIPOS>MOLECULE
NONAME
58 62 1 0 0 
SMALL
USER_CHARGES


@<TRIPOS>ATOM
  1 N        0.4680    -0.1220     0.8660 N.ar  1 <1>  -0.1790 
  2 C        1.4250    -0.4580    -0.0100 C.ar  1 <1>   0.4610 
  3 C       -0.6960    -0.8380     1.0420 C.ar  1 <1>   0.2110 
  4 N        2.5930     0.2260     0.0400 N.pl3 1 <1>  -0.8380 
  5 C        1.1640    -1.5670    -0.8910 C.ar  1 <1>   0.0000 
  6 C       -0.9300    -1.9370     0.2880 C.ar  1 <1>  -0.1500 
  7 C        2.7040     1.7390     0.0530 C.3   1 <1>   0.2090 
  8 C        3.9000    -0.5110    -0.0090 C.3   1 <1>   0.2090 
  9 C        0.0040    -2.3340    -0.7020 C.ar  1 <1>   0.0000 
 10 C        1.9770    -1.9220    -1.9840 C.ar  1 <1>   0.1600 
 11 C        4.0590     2.3050     0.5840 C.3   1 <1>   0.0000 
 12 C        4.8200    -0.0900     1.1440 C.3   1 <1>  -0.1600 
 13 C       -0.1800    -3.4370    -1.5370 C.ar  1 <1>  -0.1500 
 14 N        1.7980    -2.9470    -2.7730 N.ar  1 <1>  -0.6200 
 15 C        3.8500     3.6840     1.2640 C.3   1 <1>   0.3430 
 16 C        4.5920     1.3410     1.6660 C.3   1 <1>  -0.1600 
 17 C        5.1190     2.4780    -0.5380 C.3   1 <1>  -0.1600 
 18 C        0.7250    -3.7030    -2.5300 C.ar  1 <1>   0.1600 
 19 N        3.5570     4.7990     0.3040 N.4   1 <1>  -0.9590 
 20 C        4.8170     3.6550    -1.4790 C.3   1 <1>  -0.1600 
 21 C        4.6360     4.9620    -0.7140 C.3   1 <1>   0.3430 
 22 C        3.3330     6.0880     1.0230 C.3   1 <1>   0.4860 
 23 C        2.7610     7.0880     0.0390 C.ar  1 <1>  -0.1430 
 24 C        1.4320     7.0060    -0.3520 C.ar  1 <1>  -0.1500 
 25 C        3.5650     8.0930    -0.4810 C.ar  1 <1>  -0.1500 
 26 C        0.9190     7.9090    -1.2670 C.ar  1 <1>  -0.1500 
 27 C        3.0500     8.9950    -1.3950 C.ar  1 <1>  -0.1500 
 28 C        1.7280     8.9010    -1.7900 C.ar  1 <1>  -0.1500 
 29 H        0.6910     0.6310     1.5100 H     1 <1>   0.4570 
 30 H       -1.3890    -0.5030     1.7980 H     1 <1>   0.1500 
 31 H       -1.8240    -2.5270     0.4110 H     1 <1>   0.1500 
 32 H        1.9090     2.1340     0.6580 H     1 <1>   0.0800 
 33 H        2.5380     2.0950    -0.9500 H     1 <1>   0.0800 
 34 H        4.3810    -0.3230    -0.9520 H     1 <1>   0.0800 
 35 H        3.7400    -1.5760     0.0580 H     1 <1>   0.0800 
 36 H        2.8220    -1.3010    -2.2160 H     1 <1>   0.1500 
 37 H        5.8370    -0.1930     0.8070 H     1 <1>   0.0800 
 38 H        4.7000    -0.7830     1.9590 H     1 <1>   0.0800 
 39 H       -1.0350    -4.0750    -1.4070 H     1 <1>   0.1500 
 40 H        4.7510     3.9270     1.8050 H     1 <1>   0.0800 
 41 H        3.0540     3.6050     1.9860 H     1 <1>   0.0800 
 42 H        3.8760     1.2870     2.4690 H     1 <1>   0.0800 
 43 H        5.5130     1.7070     2.0890 H     1 <1>   0.0800 
 44 H        5.2180     1.5920    -1.1350 H     1 <1>   0.0800 
 45 H        6.0830     2.6520    -0.0870 H     1 <1>   0.0800 
 46 H        0.5840    -4.5560    -3.1740 H     1 <1>   0.1500 
 47 H        2.6930     4.6220    -0.2200 H     1 <1>   0.4500 
 48 H        3.9430     3.4600    -2.0740 H     1 <1>   0.0800 
 49 H        5.6390     3.7730    -2.1650 H     1 <1>   0.0800 
 50 H        5.5630     5.2260    -0.2290 H     1 <1>   0.0800 
 51 H        4.3810     5.7500    -1.4070 H     1 <1>   0.0800 
 52 H        4.2580     6.4590     1.4330 H     1 <1>   0.0800 
 53 H        2.6320     5.9510     1.8310 H     1 <1>   0.0800 
 54 H        0.7750     6.2530     0.0470 H     1 <1>   0.1500 
 55 H        4.5960     8.1930    -0.1850 H     1 <1>   0.1500 
 56 H       -0.1130     7.8480    -1.5730 H     1 <1>   0.1500 
 57 H        3.6730     9.7760    -1.7990 H     1 <1>   0.1500 
 58 H        1.3270     9.6050    -2.5000 H     1 <1>   0.1500 
@<TRIPOS>BOND
  1   1   2  ar  
  2   1   3  ar  
  3   1  29  1   
  4   2   4  1   
  5   2   5  ar  
  6   3   6  ar  
  7   3  30  1   
  8   4   7  1   
  9   4   8  1   
 10   5   9  ar  
 11   5  10  ar  
 12   6   9  ar  
 13   6  31  1   
 14   7  11  1   
 15   7  32  1   
 16   7  33  1   
 17   8  12  1   
 18   8  34  1   
 19   8  35  1   
 20   9  13  ar  
 21  10  14  ar  
 22  10  36  1   
 23  11  15  1   
 24  11  16  1   
 25  11  17  1   
 26  12  16  1   
 27  12  37  1   
 28  12  38  1   
 29  13  18  ar  
 30  13  39  1   
 31  14  18  ar  
 32  15  19  1   
 33  15  40  1   
 34  15  41  1   
 35  16  42  1   
 36  16  43  1   
 37  17  20  1   
 38  17  44  1   
 39  17  45  1   
 40  18  46  1   
 41  19  21  1   
 42  19  22  1   
 43  19  47  1   
 44  20  21  1   
 45  20  48  1   
 46  20  49  1   
 47  21  50  1   
 48  21  51  1   
 49  22  23  1   
 50  22  52  1   
 51  22  53  1   
 52  23  24  ar  
 53  23  25  ar  
 54  24  26  ar  
 55  24  54  1   
 56  25  27  ar  
 57  25  55  1   
 58  26  28  ar  
 59  26  56  1   
 60  27  28  ar  
 61  27  57  1   
 62  28  58  1   
@<TRIPOS>SUBSTRUCTURE
  1 ****   7 GROUP 4 **** **** 0

# MOE 2024.06 (io_trps.svl 2023.06)
