@<TRIPOS>MOLECULE
NONAME
48 51 1 0 0 
SMALL
USER_CHARGES


@<TRIPOS>ATOM
  1 O        2.1230    -0.8340     1.9650 O.3   1 <1>  -0.6800 
  2 C        1.1340    -1.0770     1.0180 C.3   1 <1>   0.2000 
  3 C        1.7040    -1.7480    -0.2460 C.3   1 <1>   0.0000 
  4 C        0.0840    -2.0380     1.5770 C.3   1 <1>  -0.1600 
  5 C        2.7410    -2.8330     0.1380 C.3   1 <1>   0.3430 
  6 C        2.3010    -0.6980    -1.2230 C.3   1 <1>  -0.1600 
  7 C        0.4590    -2.4450    -0.8140 C.3   1 <1>  -0.1600 
  8 C       -0.3090    -2.9570     0.4100 C.3   1 <1>  -0.1600 
  9 N        4.0520    -2.1780     0.3650 N.4   1 <1>  -0.9590 
 10 C        3.5860    -1.2040    -1.9000 C.3   1 <1>  -0.1600 
 11 C        4.6610    -1.6180    -0.8820 C.3   1 <1>   0.3430 
 12 C        4.9870    -2.9890     1.1830 C.3   1 <1>   0.4860 
 13 C        6.1700    -2.1200     1.5600 C.ar  1 <1>  -0.1440 
 14 C        7.3940    -2.2060     0.8460 C.ar  1 <1>   0.0000 
 15 C        6.0210    -1.2340     2.5960 C.ar  1 <1>  -0.1500 
 16 C        8.4400    -1.3270     1.2080 C.ar  1 <1>   0.0000 
 17 C        7.6400    -3.1140    -0.2140 C.ar  1 <1>  -0.1500 
 18 C        7.0680    -0.3840     2.9600 C.ar  1 <1>  -0.1500 
 19 C        8.2470    -0.4300     2.2760 C.ar  1 <1>  -0.1500 
 20 C        9.6550    -1.3660     0.4950 C.ar  1 <1>  -0.1500 
 21 C        8.8300    -3.1320    -0.8860 C.ar  1 <1>  -0.1500 
 22 C        9.8490    -2.2450    -0.5310 C.ar  1 <1>  -0.1500 
 23 H        1.7250    -0.3740     2.7350 H     1 <1>   0.4000 
 24 H        0.6660    -0.1390     0.7610 H     1 <1>   0.0800 
 25 H        0.4800    -2.6290     2.3860 H     1 <1>   0.0800 
 26 H       -0.7730    -1.4890     1.9250 H     1 <1>   0.0800 
 27 H        2.8280    -3.5550    -0.6570 H     1 <1>   0.0800 
 28 H        2.4100    -3.3380     1.0300 H     1 <1>   0.0800 
 29 H        1.5830    -0.4140    -1.9740 H     1 <1>   0.0800 
 30 H        2.5510     0.1980    -0.6780 H     1 <1>   0.0800 
 31 H       -0.1630    -1.7280    -1.3240 H     1 <1>   0.0800 
 32 H        0.6970    -3.2370    -1.5030 H     1 <1>   0.0800 
 33 H       -0.0220    -3.9710     0.6320 H     1 <1>   0.0800 
 34 H       -1.3720    -2.9360     0.2340 H     1 <1>   0.0800 
 35 H        3.7950    -1.3680     0.9610 H     1 <1>   0.4500 
 36 H        3.9890    -0.4390    -2.5410 H     1 <1>   0.0800 
 37 H        3.3520    -2.0470    -2.5270 H     1 <1>   0.0800 
 38 H        5.2600    -0.7600    -0.6210 H     1 <1>   0.0800 
 39 H        5.3130    -2.3450    -1.3380 H     1 <1>   0.0800 
 40 H        4.4900    -3.3110     2.0840 H     1 <1>   0.0800 
 41 H        5.3030    -3.8640     0.6440 H     1 <1>   0.0800 
 42 H        5.1010    -1.1630     3.1530 H     1 <1>   0.1500 
 43 H        6.8890    -3.8200    -0.5100 H     1 <1>   0.1500 
 44 H        6.9310     0.3030     3.7790 H     1 <1>   0.1500 
 45 H        9.0570     0.2250     2.5490 H     1 <1>   0.1500 
 46 H       10.4380    -0.6850     0.7770 H     1 <1>   0.1500 
 47 H        9.0060    -3.8260    -1.6900 H     1 <1>   0.1500 
 48 H       10.7810    -2.2710    -1.0710 H     1 <1>   0.1500 
@<TRIPOS>BOND
  1   1   2  1   
  2   1  23  1   
  3   2   3  1   
  4   2   4  1   
  5   2  24  1   
  6   3   5  1   
  7   3   6  1   
  8   3   7  1   
  9   4   8  1   
 10   4  25  1   
 11   4  26  1   
 12   5   9  1   
 13   5  27  1   
 14   5  28  1   
 15   6  10  1   
 16   6  29  1   
 17   6  30  1   
 18   7   8  1   
 19   7  31  1   
 20   7  32  1   
 21   8  33  1   
 22   8  34  1   
 23   9  11  1   
 24   9  12  1   
 25   9  35  1   
 26  10  11  1   
 27  10  36  1   
 28  10  37  1   
 29  11  38  1   
 30  11  39  1   
 31  12  13  1   
 32  12  40  1   
 33  12  41  1   
 34  13  14  ar  
 35  13  15  ar  
 36  14  16  ar  
 37  14  17  ar  
 38  15  18  ar  
 39  15  42  1   
 40  16  19  ar  
 41  16  20  ar  
 42  17  21  ar  
 43  17  43  1   
 44  18  19  ar  
 45  18  44  1   
 46  19  45  1   
 47  20  22  ar  
 48  20  46  1   
 49  21  22  ar  
 50  21  47  1   
 51  22  48  1   
@<TRIPOS>SUBSTRUCTURE
  1 ****   9 GROUP 4 **** **** 0

# MOE 2024.06 (io_trps.svl 2023.06)
