@<TRIPOS>MOLECULE
NONAME
50 52 1 0 0 
SMALL
USER_CHARGES


@<TRIPOS>ATOM
  1 F       -1.0000     0.3100     0.6810 F     1 <1>  -0.3400 
  2 C       -2.2300    -0.1850     0.6180 C.3   1 <1>   1.1640 
  3 F       -2.9490     0.6940    -0.0710 F     1 <1>  -0.3400 
  4 F       -2.7050    -0.1680     1.8560 F     1 <1>  -0.3400 
  5 C       -2.2640    -1.6000     0.0140 C.ar  1 <1>  -0.1440 
  6 C       -3.2600    -1.9830    -0.8780 C.ar  1 <1>  -0.1500 
  7 C       -1.2940    -2.5330     0.3620 C.ar  1 <1>  -0.1500 
  8 C       -3.2820    -3.2610    -1.4100 C.ar  1 <1>  -0.1500 
  9 C       -1.3140    -3.8110    -0.1680 C.ar  1 <1>  -0.1500 
 10 C       -2.3100    -4.1840    -1.0580 C.ar  1 <1>  -0.1440 
 11 C       -2.3440    -5.5850    -1.6430 C.3   1 <1>   0.4870 
 12 N       -2.7480    -6.5510    -0.6000 N.4   1 <1>  -0.9590 
 13 C       -2.6290    -7.9630    -1.1060 C.3   1 <1>   0.3430 
 14 C       -4.1090    -6.2740    -0.0590 C.3   1 <1>   0.3430 
 15 C       -3.4000    -8.9890    -0.2560 C.3   1 <1>  -0.1060 
 16 C       -4.3390    -7.1220     1.1980 C.3   1 <1>  -0.1600 
 17 C       -4.7900    -9.1240    -0.8530 C.2   1 <1>   0.9060 
 18 C       -3.5540    -8.4450     1.1820 C.3   1 <1>   0.2000 
 19 C       -2.7560   -10.3980    -0.3280 C.3   1 <1>  -0.0170 
 20 O       -5.0570    -8.5150    -1.8960 O.co2 1 <1>  -0.9000 
 21 O       -5.6270    -9.7870    -0.2440 O.co2 1 <1>  -0.9000 
 22 O       -2.2950    -8.1620     1.7090 O.3   1 <1>  -0.6800 
 23 C       -1.3410   -10.4990     0.2320 C.ar  1 <1>  -0.1440 
 24 C       -1.1460   -10.8870     1.5490 C.ar  1 <1>  -0.1500 
 25 C       -0.2390   -10.2200    -0.5620 C.ar  1 <1>  -0.1500 
 26 C        0.1310   -10.9610     2.0760 C.ar  1 <1>  -0.1500 
 27 C        1.0390   -10.2950    -0.0370 C.ar  1 <1>  -0.1500 
 28 C        1.2250   -10.6600     1.2850 C.ar  1 <1>  -0.1500 
 29 H       -4.0310    -1.2870    -1.1690 H     1 <1>   0.1500 
 30 H       -0.5100    -2.2660     1.0540 H     1 <1>   0.1500 
 31 H       -4.0660    -3.5260    -2.1010 H     1 <1>   0.1500 
 32 H       -0.5450    -4.5090     0.1200 H     1 <1>   0.1500 
 33 H       -1.3660    -5.8380    -2.0170 H     1 <1>   0.0800 
 34 H       -3.0440    -5.6250    -2.4620 H     1 <1>   0.0800 
 35 H       -2.1270    -6.4960     0.2210 H     1 <1>   0.4500 
 36 H       -2.9680    -8.0220    -2.1280 H     1 <1>   0.0800 
 37 H       -1.5870    -8.2300    -1.0980 H     1 <1>   0.0800 
 38 H       -4.2180    -5.2310     0.1900 H     1 <1>   0.0800 
 39 H       -4.8490    -6.5230    -0.8050 H     1 <1>   0.0800 
 40 H       -5.3910    -7.3460     1.2470 H     1 <1>   0.0800 
 41 H       -4.0990    -6.5580     2.0820 H     1 <1>   0.0800 
 42 H       -4.0320    -9.1710     1.8210 H     1 <1>   0.0800 
 43 H       -3.3860   -11.0940     0.2020 H     1 <1>   0.0800 
 44 H       -2.7480   -10.7280    -1.3540 H     1 <1>   0.0800 
 45 H       -1.7490    -8.9840     1.7010 H     1 <1>   0.4000 
 46 H       -1.9890   -11.1360     2.1730 H     1 <1>   0.1500 
 47 H       -0.3650    -9.9520    -1.5960 H     1 <1>   0.1500 
 48 H        0.2750   -11.2570     3.1020 H     1 <1>   0.1500 
 49 H        1.8920   -10.0750    -0.6560 H     1 <1>   0.1500 
 50 H        2.2180   -10.7180     1.6940 H     1 <1>   0.1500 
@<TRIPOS>BOND
  1   1   2  1   
  2   2   3  1   
  3   2   4  1   
  4   2   5  1   
  5   5   6  ar  
  6   5   7  ar  
  7   6   8  ar  
  8   6  29  1   
  9   7   9  ar  
 10   7  30  1   
 11   8  10  ar  
 12   8  31  1   
 13   9  10  ar  
 14   9  32  1   
 15  10  11  1   
 16  11  12  1   
 17  11  33  1   
 18  11  34  1   
 19  12  13  1   
 20  12  14  1   
 21  12  35  1   
 22  13  15  1   
 23  13  36  1   
 24  13  37  1   
 25  14  16  1   
 26  14  38  1   
 27  14  39  1   
 28  15  17  1   
 29  15  18  1   
 30  15  19  1   
 31  16  18  1   
 32  16  40  1   
 33  16  41  1   
 34  17  20  ar  
 35  17  21  ar  
 36  18  22  1   
 37  18  42  1   
 38  19  23  1   
 39  19  43  1   
 40  19  44  1   
 41  22  45  1   
 42  23  24  ar  
 43  23  25  ar  
 44  24  26  ar  
 45  24  46  1   
 46  25  27  ar  
 47  25  47  1   
 48  26  28  ar  
 49  26  48  1   
 50  27  28  ar  
 51  27  49  1   
 52  28  50  1   
@<TRIPOS>SUBSTRUCTURE
  1 ****  12 GROUP 4 **** **** 0

# MOE 2024.06 (io_trps.svl 2023.06)
