@<TRIPOS>MOLECULE
NONAME
48 51 1 0 0 
SMALL
USER_CHARGES


@<TRIPOS>ATOM
  1 F       -2.1910    -2.0040     0.5040 F     1 <1>  -0.1900 
  2 C       -2.0060    -0.8180    -0.0080 C.ar  1 <1>   0.1900 
  3 C       -2.9860     0.1580     0.1540 C.ar  1 <1>   0.0860 
  4 C       -0.8270    -0.5960    -0.6950 C.ar  1 <1>  -0.1500 
  5 C       -4.2180    -0.0900     0.8670 C.2   1 <1>   0.5440 
  6 C       -2.7190     1.4080    -0.4050 C.ar  1 <1>  -0.1500 
  7 C       -0.5970     0.6520    -1.2460 C.ar  1 <1>  -0.1500 
  8 O       -4.3970     0.4670     1.9330 O.2   1 <1>  -0.5700 
  9 N       -5.2090    -0.9080     0.3590 N.am  1 <1>  -0.6600 
 10 C       -1.5450     1.6530    -1.0980 C.ar  1 <1>  -0.1500 
 11 C       -5.1840    -1.5140    -1.0010 C.3   1 <1>   0.1400 
 12 C       -6.4320    -1.2450     1.1380 C.3   1 <1>   0.1400 
 13 C       -5.2680    -3.0370    -0.8760 C.3   1 <1>  -0.1600 
 14 C       -6.5260    -2.7640     1.2880 C.3   1 <1>  -0.1600 
 15 C       -6.5020    -3.4790    -0.0750 C.3   1 <1>   0.4240 
 16 O       -7.6060    -3.0310    -0.8270 O.3   1 <1>  -0.5600 
 17 C       -6.5120    -5.0140     0.0980 C.ar  1 <1>  -0.1430 
 18 C       -8.8330    -3.6530    -0.6010 C.3   1 <1>   0.1200 
 19 C       -7.5710    -5.7850    -0.3730 C.ar  1 <1>  -0.1430 
 20 C       -5.4590    -5.6580     0.7380 C.ar  1 <1>  -0.1500 
 21 C       -8.7390    -5.1040    -1.0590 C.3   1 <1>  -0.0170 
 22 C       -7.5690    -7.1620    -0.2170 C.ar  1 <1>  -0.1500 
 23 C       -5.4570    -7.0310     0.8970 C.ar  1 <1>  -0.1500 
 24 C       -6.5080    -7.7940     0.4210 C.ar  1 <1>   0.0830 
 25 O       -6.4290    -9.1350     0.6150 O.3   1 <1>  -0.3620 
 26 C       -7.4360   -10.0040     0.1480 C.3   1 <1>   0.0400 
 27 H       -0.1040    -1.3860    -0.7920 H     1 <1>   0.1500 
 28 H       -3.4480     2.1920    -0.2870 H     1 <1>   0.1500 
 29 H        0.3160     0.8480    -1.7850 H     1 <1>   0.1500 
 30 H       -1.3650     2.6270    -1.5210 H     1 <1>   0.1500 
 31 H       -4.2920    -1.2420    -1.5350 H     1 <1>   0.0800 
 32 H       -6.0290    -1.1470    -1.5610 H     1 <1>   0.0800 
 33 H       -7.2960    -0.8690     0.6170 H     1 <1>   0.0800 
 34 H       -6.4060    -0.7890     2.1130 H     1 <1>   0.0800 
 35 H       -4.3720    -3.3850    -0.3980 H     1 <1>   0.0800 
 36 H       -5.3060    -3.4830    -1.8530 H     1 <1>   0.0800 
 37 H       -7.4150    -3.0270     1.8290 H     1 <1>   0.0800 
 38 H       -5.6910    -3.0890     1.8790 H     1 <1>   0.0800 
 39 H       -9.5790    -3.1260    -1.1690 H     1 <1>   0.0800 
 40 H       -9.0760    -3.5910     0.4450 H     1 <1>   0.0800 
 41 H       -4.6260    -5.0950     1.1230 H     1 <1>   0.1500 
 42 H       -8.6000    -5.1350    -2.1250 H     1 <1>   0.0800 
 43 H       -9.6570    -5.6100    -0.8220 H     1 <1>   0.0800 
 44 H       -8.3970    -7.7280    -0.5960 H     1 <1>   0.1500 
 45 H       -4.6390    -7.5210     1.3920 H     1 <1>   0.1500 
 46 H       -7.1560   -11.0090     0.4060 H     1 <1>   0.0800 
 47 H       -7.5130    -9.9080    -0.9200 H     1 <1>   0.0800 
 48 H       -8.3650    -9.7490     0.6270 H     1 <1>   0.0800 
@<TRIPOS>BOND
  1   1   2  1   
  2   2   3  ar  
  3   2   4  ar  
  4   3   5  1   
  5   3   6  ar  
  6   4   7  ar  
  7   4  27  1   
  8   5   8  2   
  9   5   9  am  
 10   6  10  ar  
 11   6  28  1   
 12   7  10  ar  
 13   7  29  1   
 14   9  11  1   
 15   9  12  1   
 16  10  30  1   
 17  11  13  1   
 18  11  31  1   
 19  11  32  1   
 20  12  14  1   
 21  12  33  1   
 22  12  34  1   
 23  13  15  1   
 24  13  35  1   
 25  13  36  1   
 26  14  15  1   
 27  14  37  1   
 28  14  38  1   
 29  15  16  1   
 30  15  17  1   
 31  16  18  1   
 32  17  19  ar  
 33  17  20  ar  
 34  18  21  1   
 35  18  39  1   
 36  18  40  1   
 37  19  21  1   
 38  19  22  ar  
 39  20  23  ar  
 40  20  41  1   
 41  21  42  1   
 42  21  43  1   
 43  22  24  ar  
 44  22  44  1   
 45  23  24  ar  
 46  23  45  1   
 47  24  25  1   
 48  25  26  1   
 49  26  46  1   
 50  26  47  1   
 51  26  48  1   
@<TRIPOS>SUBSTRUCTURE
  1 ****  13 GROUP 4 **** **** 0

# MOE 2024.06 (io_trps.svl 2023.06)
