@<TRIPOS>MOLECULE
NONAME
47 49 1 0 0 
SMALL
USER_CHARGES


@<TRIPOS>ATOM
  1 O        1.8350    -0.3850    -0.8400 O.2   1 <1>  -0.5700 
  2 C        2.3120     0.7020    -0.6140 C.2   1 <1>   0.5690 
  3 N        1.9910     1.4250     0.5070 N.am  1 <1>  -0.6600 
  4 C        3.3130     1.2420    -1.6210 C.3   1 <1>  -0.0990 
  5 C        2.4560     2.8220     0.7430 C.3   1 <1>   0.1400 
  6 C        1.0380     0.9060     1.5260 C.3   1 <1>   0.0600 
  7 C        3.6250     2.7400    -1.4670 C.3   1 <1>  -0.1600 
  8 C        3.7750     3.1580     0.0140 C.3   1 <1>   0.0000 
  9 C        4.0160     4.6800     0.1120 C.3   1 <1>  -0.1600 
 10 C        4.9560     2.4460     0.7180 C.3   1 <1>  -0.1600 
 11 C        5.3940     5.1090    -0.4030 C.3   1 <1>   0.2090 
 12 C        6.3230     2.8850     0.1870 C.3   1 <1>   0.2090 
 13 N        6.4610     4.3600     0.3090 N.pl3 1 <1>  -0.8210 
 14 C        7.7610     4.8270     0.0910 C.2   1 <1>   0.5990 
 15 N        8.0400     5.8020    -0.7120 N.2   1 <1>  -0.7070 
 16 N        8.7980     4.2610     0.7280 N.2   1 <1>  -0.5650 
 17 N        9.3660     5.8980    -0.5850 N.pl3 1 <1>   0.3140 
 18 C        9.7750     4.9620     0.2790 C.2   1 <1>   0.2490 
 19 C       10.1740     6.8960    -1.3130 C.3   1 <1>   0.0960 
 20 O       11.0790     4.8080     0.6150 O.3   1 <1>  -0.3430 
 21 C       10.2730     8.2070    -0.5230 C.3   1 <1>  -0.2400 
 22 C       11.4070     3.8180     1.5680 C.3   1 <1>   0.0400 
 23 H        2.9350     1.0570    -2.6100 H     1 <1>   0.0800 
 24 H        4.2170     0.6720    -1.5140 H     1 <1>   0.0800 
 25 H        2.5860     2.9800     1.8000 H     1 <1>   0.0800 
 26 H        1.6820     3.4890     0.4060 H     1 <1>   0.0800 
 27 H        0.7360    -0.1010     1.2910 H     1 <1>   0.0800 
 28 H        0.1610     1.5280     1.5550 H     1 <1>   0.0800 
 29 H        1.5070     0.9040     2.4940 H     1 <1>   0.0800 
 30 H        2.8110     3.2960    -1.9000 H     1 <1>   0.0800 
 31 H        4.5080     2.9730    -2.0330 H     1 <1>   0.0800 
 32 H        3.9470     4.9900     1.1400 H     1 <1>   0.0800 
 33 H        3.2600     5.2120    -0.4350 H     1 <1>   0.0800 
 34 H        4.8720     1.3790     0.6310 H     1 <1>   0.0800 
 35 H        4.9350     2.6730     1.7690 H     1 <1>   0.0800 
 36 H        5.5210     6.1640    -0.2240 H     1 <1>   0.0800 
 37 H        5.4800     4.9390    -1.4620 H     1 <1>   0.0800 
 38 H        6.4460     2.5960    -0.8420 H     1 <1>   0.0800 
 39 H        7.0900     2.3980     0.7650 H     1 <1>   0.0800 
 40 H        9.7090     7.0740    -2.2660 H     1 <1>   0.0800 
 41 H       11.1540     6.4880    -1.4790 H     1 <1>   0.0800 
 42 H        9.2910     8.6160    -0.3610 H     1 <1>   0.0800 
 43 H       10.8560     8.9230    -1.0750 H     1 <1>   0.0800 
 44 H       10.7490     8.0360     0.4260 H     1 <1>   0.0800 
 45 H       12.4700     3.8360     1.7250 H     1 <1>   0.0800 
 46 H       11.1040     2.8570     1.1890 H     1 <1>   0.0800 
 47 H       10.8910     4.0360     2.4860 H     1 <1>   0.0800 
@<TRIPOS>BOND
  1   1   2  2   
  2   2   3  am  
  3   2   4  1   
  4   3   5  1   
  5   3   6  1   
  6   4   7  1   
  7   4  23  1   
  8   4  24  1   
  9   5   8  1   
 10   5  25  1   
 11   5  26  1   
 12   6  27  1   
 13   6  28  1   
 14   6  29  1   
 15   7   8  1   
 16   7  30  1   
 17   7  31  1   
 18   8   9  1   
 19   8  10  1   
 20   9  11  1   
 21   9  32  1   
 22   9  33  1   
 23  10  12  1   
 24  10  34  1   
 25  10  35  1   
 26  11  13  1   
 27  11  36  1   
 28  11  37  1   
 29  12  13  1   
 30  12  38  1   
 31  12  39  1   
 32  13  14  1   
 33  14  15  2   
 34  14  16  1   
 35  15  17  1   
 36  16  18  2   
 37  17  18  1   
 38  17  19  1   
 39  18  20  1   
 40  19  21  1   
 41  19  40  1   
 42  19  41  1   
 43  20  22  1   
 44  21  42  1   
 45  21  43  1   
 46  21  44  1   
 47  22  45  1   
 48  22  46  1   
 49  22  47  1   
@<TRIPOS>SUBSTRUCTURE
  1 ****  13 GROUP 4 **** **** 0

# MOE 2024.06 (io_trps.svl 2023.06)
