@<TRIPOS>MOLECULE
NONAME
22 22 1 0 0 
SMALL
USER_CHARGES


@<TRIPOS>ATOM
  1 O       -0.1640    -0.6670     0.0690 O.3   1 <1>  -0.3630 
  2 C        1.0860    -1.2040     0.0690 C.ar  1 <1>   0.3920 
  3 C       -0.3730     0.7260    -0.0710 C.3   1 <1>   0.0400 
  4 N        2.0950    -0.3440    -0.0700 N.ar  1 <1>  -0.6200 
  5 C        1.2580    -2.5980     0.2120 C.ar  1 <1>   0.0830 
  6 C        3.3090    -0.8690    -0.0700 C.ar  1 <1>   0.1600 
  7 O        0.2880    -3.5520     0.3600 O.3   1 <1>  -0.3630 
  8 C        2.5420    -3.1000     0.2060 C.ar  1 <1>  -0.1500 
  9 C        3.5920    -2.2180     0.0620 C.ar  1 <1>  -0.1440 
 10 C       -1.0910    -3.2610     0.3930 C.3   1 <1>   0.0400 
 11 C        5.0200    -2.7360     0.0520 C.3   1 <1>  -0.0970 
 12 H       -1.4300     0.9140    -0.0420 H     1 <1>   0.0800 
 13 H        0.0360     1.0450    -1.0140 H     1 <1>   0.0800 
 14 H        0.1170     1.2340     0.7410 H     1 <1>   0.0800 
 15 H        4.1260    -0.1780    -0.1830 H     1 <1>   0.1500 
 16 H        2.7070    -4.1570     0.3130 H     1 <1>   0.1500 
 17 H       -1.6260    -4.1850     0.5180 H     1 <1>   0.0800 
 18 H       -1.3730    -2.7990    -0.5360 H     1 <1>   0.0800 
 19 H       -1.2900    -2.6080     1.2250 H     1 <1>   0.0800 
 20 H        5.7230    -1.9300    -0.0660 H     1 <1>   0.0800 
 21 H        5.1520    -3.4280    -0.7610 H     1 <1>   0.0800 
 22 H        5.2320    -3.2430     0.9760 H     1 <1>   0.0800 
@<TRIPOS>BOND
  1   1   2  1   
  2   1   3  1   
  3   2   4  ar  
  4   2   5  ar  
  5   3  12  1   
  6   3  13  1   
  7   3  14  1   
  8   4   6  ar  
  9   5   7  1   
 10   5   8  ar  
 11   6   9  ar  
 12   6  15  1   
 13   7  10  1   
 14   8   9  ar  
 15   8  16  1   
 16   9  11  1   
 17  10  17  1   
 18  10  18  1   
 19  10  19  1   
 20  11  20  1   
 21  11  21  1   
 22  11  22  1   
@<TRIPOS>SUBSTRUCTURE
  1 ****   2 GROUP 4 **** **** 0

# MOE 2024.06 (io_trps.svl 2023.06)
