@<TRIPOS>MOLECULE
NONAME
51 54 1 0 0 
SMALL
USER_CHARGES


@<TRIPOS>ATOM
  1 O       -0.6550     0.5000    -1.6730 O.2   1 <1>  -0.5700 
  2 C       -1.6300     1.0680    -1.2140 C.2   1 <1>   0.7160 
  3 N       -2.8780     0.5090    -1.4050 N.am  1 <1>  -0.6600 
  4 C       -1.4610     2.2990    -0.4780 C.2   1 <1>  -0.0860 
  5 C       -3.1150    -0.5550    -2.4190 C.3   1 <1>   0.1400 
  6 C       -4.0350     0.7510    -0.5000 C.3   1 <1>   0.1400 
  7 C       -0.5720     2.6740     0.4870 C.2   1 <1>  -0.3320 
  8 C       -2.2440     3.4430    -0.6470 C.2   1 <1>   0.1390 
  9 C       -3.4590    -1.8660    -1.7090 C.3   1 <1>  -0.1600 
 10 C       -4.3850    -0.5500     0.2250 C.3   1 <1>  -0.1600 
 11 N       -0.8590     3.9420     0.8320 N.pl3 1 <1>   0.3140 
 12 C        0.5580     1.8520     1.0920 C.3   1 <1>  -0.0600 
 13 N       -1.9020     4.4160     0.1340 N.2   1 <1>  -0.7070 
 14 C       -4.6520    -1.7050    -0.7560 C.3   1 <1>   0.4240 
 15 C       -0.1700     4.7790     1.8230 C.3   1 <1>   0.0160 
 16 O       -5.7370    -1.3370    -1.5760 O.3   1 <1>  -0.5600 
 17 C       -4.9240    -3.0260    -0.0030 C.ar  1 <1>  -0.1430 
 18 C       -7.0220    -1.5580    -1.0840 C.3   1 <1>   0.1200 
 19 C       -6.1540    -3.6700    -0.0980 C.ar  1 <1>  -0.1430 
 20 C       -3.9370    -3.5970     0.7940 C.ar  1 <1>  -0.1500 
 21 C       -7.2480    -3.0600    -0.9510 C.3   1 <1>  -0.0170 
 22 C       -6.3860    -4.8570     0.5790 C.ar  1 <1>  -0.1500 
 23 C       -4.1690    -4.7800     1.4720 C.ar  1 <1>  -0.1500 
 24 C       -5.3910    -5.4200     1.3700 C.ar  1 <1>   0.0820 
 25 O       -5.5360    -6.5760     2.0650 O.3   1 <1>  -0.3620 
 26 C       -6.7340    -7.3170     2.0120 C.3   1 <1>   0.0400 
 27 H       -2.2450    -0.6940    -3.0390 H     1 <1>   0.0800 
 28 H       -3.9300    -0.2580    -3.0570 H     1 <1>   0.0800 
 29 H       -4.8760     1.0870    -1.0840 H     1 <1>   0.0800 
 30 H       -3.8070     1.5070     0.2300 H     1 <1>   0.0800 
 31 H       -3.0520     3.5110    -1.3550 H     1 <1>   0.1500 
 32 H       -2.5890    -2.1890    -1.1700 H     1 <1>   0.0800 
 33 H       -3.6890    -2.6250    -2.4350 H     1 <1>   0.0800 
 34 H       -5.2370    -0.4010     0.8600 H     1 <1>   0.0800 
 35 H       -3.5610    -0.8070     0.8640 H     1 <1>   0.0800 
 36 H        0.5740     0.8630     0.6690 H     1 <1>   0.0800 
 37 H        0.4290     1.7650     2.1550 H     1 <1>   0.0800 
 38 H        1.5050     2.3190     0.8870 H     1 <1>   0.0800 
 39 H        0.8590     4.8860     1.5380 H     1 <1>   0.0800 
 40 H       -0.2400     4.3140     2.7870 H     1 <1>   0.0800 
 41 H       -0.6370     5.7460     1.8540 H     1 <1>   0.0800 
 42 H       -7.7200    -1.1320    -1.7820 H     1 <1>   0.0800 
 43 H       -7.1280    -1.0640    -0.1340 H     1 <1>   0.0800 
 44 H       -2.9760    -3.1270     0.8960 H     1 <1>   0.1500 
 45 H       -7.2400    -3.5110    -1.9270 H     1 <1>   0.0800 
 46 H       -8.2100    -3.2350    -0.5040 H     1 <1>   0.0800 
 47 H       -7.3430    -5.3320     0.4820 H     1 <1>   0.1500 
 48 H       -3.4010    -5.2160     2.0850 H     1 <1>   0.1500 
 49 H       -6.6140    -8.1900     2.6280 H     1 <1>   0.0800 
 50 H       -6.9180    -7.6100     0.9940 H     1 <1>   0.0800 
 51 H       -7.5370    -6.7100     2.3910 H     1 <1>   0.0800 
@<TRIPOS>BOND
  1   1   2  2   
  2   2   3  am  
  3   2   4  1   
  4   3   5  1   
  5   3   6  1   
  6   4   7  2   
  7   4   8  1   
  8   5   9  1   
  9   5  27  1   
 10   5  28  1   
 11   6  10  1   
 12   6  29  1   
 13   6  30  1   
 14   7  11  1   
 15   7  12  1   
 16   8  13  2   
 17   8  31  1   
 18   9  14  1   
 19   9  32  1   
 20   9  33  1   
 21  10  14  1   
 22  10  34  1   
 23  10  35  1   
 24  11  13  1   
 25  11  15  1   
 26  12  36  1   
 27  12  37  1   
 28  12  38  1   
 29  14  16  1   
 30  14  17  1   
 31  15  39  1   
 32  15  40  1   
 33  15  41  1   
 34  16  18  1   
 35  17  19  ar  
 36  17  20  ar  
 37  18  21  1   
 38  18  42  1   
 39  18  43  1   
 40  19  21  1   
 41  19  22  ar  
 42  20  23  ar  
 43  20  44  1   
 44  21  45  1   
 45  21  46  1   
 46  22  24  ar  
 47  22  47  1   
 48  23  24  ar  
 49  23  48  1   
 50  24  25  1   
 51  25  26  1   
 52  26  49  1   
 53  26  50  1   
 54  26  51  1   
@<TRIPOS>SUBSTRUCTURE
  1 ****  10 GROUP 4 **** **** 0

# MOE 2024.06 (io_trps.svl 2023.06)
