@<TRIPOS>MOLECULE
NONAME
43 44 1 0 0 
SMALL
USER_CHARGES


@<TRIPOS>ATOM
  1 S        0.7940     1.3640    -0.3240 S.o2  1 <1>   1.5000 
  2 O        1.0660     1.9460     0.9730 O.2   1 <1>  -0.6500 
  3 O        0.2510     2.1860    -1.3780 O.2   1 <1>  -0.6500 
  4 N        2.2610     0.8490    -0.9540 N.am  1 <1>  -0.9140 
  5 C       -0.1670    -0.1590    -0.1680 C.2   1 <1>  -0.0220 
  6 C        3.4190     1.6550    -0.5150 C.3   1 <1>   0.2570 
  7 S        0.2610    -1.2810     1.1220 S.3   1 <1>  -0.0800 
  8 C       -1.1960    -0.6680    -0.8790 C.2   1 <1>  -0.1500 
  9 C        3.3750     3.1320    -0.9380 C.2   1 <1>   0.5690 
 10 C       -0.9930    -2.4090     0.6440 C.2   1 <1>  -0.1100 
 11 C       -1.6670    -1.9400    -0.4210 C.2   1 <1>  -0.1500 
 12 O        3.9190     3.4590    -1.9660 O.2   1 <1>  -0.5700 
 13 N        2.7250     4.0280    -0.1600 N.am  1 <1>  -0.7300 
 14 C        2.4860     5.4380    -0.4980 C.3   1 <1>   0.4000 
 15 C        3.3590     6.3110     0.4090 C.2   1 <1>   0.0060 
 16 C        0.9790     5.7060    -0.3690 C.3   1 <1>  -0.1600 
 17 N        2.9820     6.8190     1.5450 N.2   1 <1>  -0.5650 
 18 N        4.6430     6.6140     0.0880 N.pl3 1 <1>   0.0480 
 19 C        0.5830     7.1080    -0.8620 C.3   1 <1>  -0.1600 
 20 C        4.0640     7.4860     1.9800 C.2   1 <1>   0.0770 
 21 C        5.0860     7.3720     1.1060 C.2   1 <1>  -0.3020 
 22 C        5.4350     6.1950    -1.0850 C.3   1 <1>   0.0160 
 23 C       -0.9310     7.3160    -0.7620 C.3   1 <1>  -0.2400 
 24 H        2.1530     1.0180    -1.9550 H     1 <1>   0.4200 
 25 H        4.3100     1.2230    -0.9350 H     1 <1>   0.0800 
 26 H        3.5140     1.5990     0.5560 H     1 <1>   0.0800 
 27 H       -1.6520    -0.1880    -1.7290 H     1 <1>   0.1500 
 28 H       -1.0930    -3.3130     1.2180 H     1 <1>   0.1500 
 29 H       -2.4850    -2.4380    -0.9120 H     1 <1>   0.1500 
 30 H        2.2500     3.7280     0.7000 H     1 <1>   0.3700 
 31 H        2.7620     5.6080    -1.5230 H     1 <1>   0.0800 
 32 H        0.6860     5.5950     0.6600 H     1 <1>   0.0800 
 33 H        0.4490     4.9740    -0.9540 H     1 <1>   0.0800 
 34 H        0.8910     7.2350    -1.8860 H     1 <1>   0.0800 
 35 H        1.0800     7.8560    -0.2670 H     1 <1>   0.0800 
 36 H        4.0500     8.0210     2.9150 H     1 <1>   0.1500 
 37 H        6.0780     7.7790     1.1570 H     1 <1>   0.1500 
 38 H        4.8600     6.3350    -1.9820 H     1 <1>   0.0800 
 39 H        5.6940     5.1570    -0.9850 H     1 <1>   0.0800 
 40 H        6.3320     6.7830    -1.1430 H     1 <1>   0.0800 
 41 H       -1.4520     6.5920    -1.3630 H     1 <1>   0.0800 
 42 H       -1.1900     8.3010    -1.1090 H     1 <1>   0.0800 
 43 H       -1.2540     7.2170     0.2590 H     1 <1>   0.0800 
@<TRIPOS>BOND
  1   1   2  2   
  2   1   3  2   
  3   1   4  am  
  4   1   5  1   
  5   4   6  1   
  6   4  24  1   
  7   5   7  1   
  8   5   8  2   
  9   6   9  1   
 10   6  25  1   
 11   6  26  1   
 12   7  10  1   
 13   8  11  1   
 14   8  27  1   
 15   9  12  2   
 16   9  13  am  
 17  10  11  2   
 18  10  28  1   
 19  11  29  1   
 20  13  14  1   
 21  13  30  1   
 22  14  15  1   
 23  14  16  1   
 24  14  31  1   
 25  15  17  2   
 26  15  18  1   
 27  16  19  1   
 28  16  32  1   
 29  16  33  1   
 30  17  20  1   
 31  18  21  1   
 32  18  22  1   
 33  19  23  1   
 34  19  34  1   
 35  19  35  1   
 36  20  21  2   
 37  20  36  1   
 38  21  37  1   
 39  22  38  1   
 40  22  39  1   
 41  22  40  1   
 42  23  41  1   
 43  23  42  1   
 44  23  43  1   
@<TRIPOS>SUBSTRUCTURE
  1 ****  13 GROUP 4 **** **** 0

# MOE 2024.06 (io_trps.svl 2023.06)
