@<TRIPOS>MOLECULE
NONAME
46 47 1 0 0 
SMALL
USER_CHARGES


@<TRIPOS>ATOM
  1 S        0.5240     0.3590    -1.4200 S.o2  1 <1>   1.3330 
  2 O        0.8180    -0.9940    -1.8370 O.2   1 <1>  -0.6500 
  3 O       -0.2580     1.2190    -2.2790 O.2   1 <1>  -0.6500 
  4 N       -0.2820     0.2760     0.0740 N.am  1 <1>  -0.8490 
  5 C        2.0770     1.1670    -1.0230 C.3   1 <1>  -0.0550 
  6 C       -0.9610     1.5260     0.4360 C.3   1 <1>   0.1160 
  7 C       -1.2380    -0.8350     0.1230 C.3   1 <1>   0.1160 
  8 C        3.0360     0.3110    -0.1680 C.3   1 <1>  -0.0800 
  9 C        4.4200     0.9070     0.0340 C.3   1 <1>   0.2200 
 10 C        2.5730     0.0410     1.2700 C.3   1 <1>   0.1200 
 11 N        4.3330     2.3550     0.3490 N.am  1 <1>  -0.7300 
 12 C        4.8600     0.1620     1.2850 C.3   1 <1>   0.1200 
 13 O        3.7150     0.0930     2.0780 O.3   1 <1>  -0.5600 
 14 C        4.5780     3.3690    -0.5330 C.2   1 <1>   0.5440 
 15 O        4.8120     3.0690    -1.6860 O.2   1 <1>  -0.5700 
 16 C        4.5540     4.7580    -0.1180 C.ar  1 <1>   0.0860 
 17 C        3.8650     5.1760     1.0180 C.ar  1 <1>   0.1600 
 18 C        5.2120     5.7450    -0.8380 C.ar  1 <1>  -0.1500 
 19 N        3.7970     6.4130     1.4740 N.ar  1 <1>  -0.6200 
 20 C        5.1570     7.0500    -0.3920 C.ar  1 <1>  -0.1440 
 21 C        4.4430     7.3290     0.7710 C.ar  1 <1>   0.1670 
 22 C        5.8750     8.1310    -1.1900 C.3   1 <1>  -0.0970 
 23 C        4.3470     8.7410     1.3220 C.3   1 <1>  -0.0970 
 24 H        2.5770     1.4010    -1.9430 H     1 <1>   0.0800 
 25 H        1.8760     2.0960    -0.5280 H     1 <1>   0.0800 
 26 H       -1.3770     1.4480     1.4260 H     1 <1>   0.0800 
 27 H       -1.7540     1.7410    -0.2610 H     1 <1>   0.0800 
 28 H       -0.2630     2.3460     0.4260 H     1 <1>   0.0800 
 29 H       -1.7250    -0.8680     1.0820 H     1 <1>   0.0800 
 30 H       -0.7240    -1.7710    -0.0240 H     1 <1>   0.0800 
 31 H       -1.9810    -0.7240    -0.6500 H     1 <1>   0.0800 
 32 H        3.1590    -0.6430    -0.6520 H     1 <1>   0.0800 
 33 H        5.0780     0.7330    -0.8020 H     1 <1>   0.0800 
 34 H        2.1160    -0.9290     1.3670 H     1 <1>   0.0800 
 35 H        1.8940     0.7990     1.6210 H     1 <1>   0.0800 
 36 H        4.1780     2.5380     1.3440 H     1 <1>   0.3700 
 37 H        5.6460     0.6650     1.8200 H     1 <1>   0.0800 
 38 H        5.1610    -0.8430     1.0480 H     1 <1>   0.0800 
 39 H        3.3290     4.4400     1.5880 H     1 <1>   0.1500 
 40 H        5.7520     5.4800    -1.7320 H     1 <1>   0.1500 
 41 H        6.2290     7.7450    -2.1290 H     1 <1>   0.0800 
 42 H        6.7190     8.4990    -0.6350 H     1 <1>   0.0800 
 43 H        5.2070     8.9480    -1.3960 H     1 <1>   0.0800 
 44 H        5.2860     9.2530     1.2330 H     1 <1>   0.0800 
 45 H        4.0790     8.7140     2.3630 H     1 <1>   0.0800 
 46 H        3.5900     9.2840     0.7880 H     1 <1>   0.0800 
@<TRIPOS>BOND
  1   1   2  2   
  2   1   3  2   
  3   1   4  am  
  4   1   5  1   
  5   4   6  1   
  6   4   7  1   
  7   5   8  1   
  8   5  24  1   
  9   5  25  1   
 10   6  26  1   
 11   6  27  1   
 12   6  28  1   
 13   7  29  1   
 14   7  30  1   
 15   7  31  1   
 16   8   9  1   
 17   8  10  1   
 18   8  32  1   
 19   9  11  1   
 20   9  12  1   
 21   9  33  1   
 22  10  13  1   
 23  10  34  1   
 24  10  35  1   
 25  11  14  am  
 26  11  36  1   
 27  12  13  1   
 28  12  37  1   
 29  12  38  1   
 30  14  15  2   
 31  14  16  1   
 32  16  17  ar  
 33  16  18  ar  
 34  17  19  ar  
 35  17  39  1   
 36  18  20  ar  
 37  18  40  1   
 38  19  21  ar  
 39  20  21  ar  
 40  20  22  1   
 41  21  23  1   
 42  22  41  1   
 43  22  42  1   
 44  22  43  1   
 45  23  44  1   
 46  23  45  1   
 47  23  46  1   
@<TRIPOS>SUBSTRUCTURE
  1 ****  11 GROUP 4 **** **** 0

# MOE 2024.06 (io_trps.svl 2023.06)
