@<TRIPOS>MOLECULE
NONAME
33 34 1 0 0 
SMALL
USER_CHARGES


@<TRIPOS>ATOM
  1 CL      -0.3180     0.2200     2.0100 Cl    1 <1>  -0.1770 
  2 C       -0.3650     1.6130     0.9600 C.ar  1 <1>   0.1770 
  3 C       -1.5320     2.3310     0.7040 C.ar  1 <1>  -0.0090 
  4 C        0.8520     1.9570     0.3950 C.ar  1 <1>  -0.1500 
  5 S       -3.1460     1.9160     1.4010 S.o2  1 <1>   1.4470 
  6 C       -1.4010     3.4240    -0.1470 C.ar  1 <1>   0.1770 
  7 C        0.9440     3.0450    -0.4520 C.ar  1 <1>  -0.1500 
  8 O       -3.1360     0.6820     2.1500 O.2   1 <1>  -0.6500 
  9 O       -3.6540     3.1020     2.0570 O.2   1 <1>  -0.6500 
 10 N       -4.0740     1.6320     0.0090 N.am  1 <1>  -0.8490 
 11 CL      -2.7610     4.4420    -0.5630 Cl    1 <1>  -0.1770 
 12 C       -0.1920     3.7810    -0.7210 C.ar  1 <1>  -0.1500 
 13 C       -3.7890     0.3490    -0.6690 C.3   1 <1>   0.1960 
 14 C       -5.5110     1.9640     0.1250 C.3   1 <1>   0.1960 
 15 C       -4.5490    -0.8750    -0.1050 C.3   1 <1>   0.2000 
 16 C       -6.4530     0.7720    -0.1060 C.3   1 <1>  -0.1600 
 17 O       -4.7690    -1.7160    -1.1800 O.3   1 <1>  -0.6800 
 18 C       -5.8930    -0.4980     0.5560 C.3   1 <1>  -0.1860 
 19 C       -6.9290    -1.6100     0.6630 C.2   1 <1>   0.9060 
 20 O       -7.8360    -1.4740     1.4880 O.co2 1 <1>  -0.9000 
 21 O       -6.8640    -2.6030    -0.0760 O.co2 1 <1>  -0.9000 
 22 H        1.7260     1.3710     0.6210 H     1 <1>   0.1500 
 23 H        1.8890     3.3150    -0.8940 H     1 <1>   0.1500 
 24 H       -0.1470     4.6350    -1.3740 H     1 <1>   0.1500 
 25 H       -4.0750     0.4690    -1.7000 H     1 <1>   0.0800 
 26 H       -2.7340     0.1430    -0.6500 H     1 <1>   0.0800 
 27 H       -5.7200     2.3570     1.1060 H     1 <1>   0.0800 
 28 H       -5.7450     2.7410    -0.5820 H     1 <1>   0.0800 
 29 H       -3.9400    -1.4130     0.6010 H     1 <1>   0.0800 
 30 H       -7.4180     1.0010     0.3120 H     1 <1>   0.0800 
 31 H       -6.5900     0.6020    -1.1600 H     1 <1>   0.0800 
 32 H       -5.5800    -2.2670    -0.9300 H     1 <1>   0.4000 
 33 H       -5.6700    -0.2400     1.5740 H     1 <1>   0.0800 
@<TRIPOS>BOND
  1   1   2  1   
  2   2   3  ar  
  3   2   4  ar  
  4   3   5  1   
  5   3   6  ar  
  6   4   7  ar  
  7   4  22  1   
  8   5   8  2   
  9   5   9  2   
 10   5  10  am  
 11   6  11  1   
 12   6  12  ar  
 13   7  12  ar  
 14   7  23  1   
 15  10  13  1   
 16  10  14  1   
 17  12  24  1   
 18  13  15  1   
 19  13  25  1   
 20  13  26  1   
 21  14  16  1   
 22  14  27  1   
 23  14  28  1   
 24  15  17  1   
 25  15  18  1   
 26  15  29  1   
 27  16  18  1   
 28  16  30  1   
 29  16  31  1   
 30  17  32  1   
 31  18  19  1   
 32  18  33  1   
 33  19  20  ar  
 34  19  21  ar  
@<TRIPOS>SUBSTRUCTURE
  1 ****  10 GROUP 4 **** **** 0

# MOE 2024.06 (io_trps.svl 2023.06)
