@<TRIPOS>MOLECULE
NONAME
56 60 1 0 0 
SMALL
USER_CHARGES


@<TRIPOS>ATOM
  1 O        0.3890     0.8020     1.1380 O.3   1 <1>  -0.0190 
  2 N        1.0930    -0.2680     0.9110 N.2   1 <1>  -0.4100 
  3 C        0.6120     1.7330     0.2490 C.2   1 <1>  -0.0400 
  4 C        1.7790    -0.0260    -0.1460 C.2   1 <1>   0.1080 
  5 C        1.5130     1.2540    -0.6240 C.2   1 <1>  -0.1500 
  6 C       -0.1350     3.0500     0.3720 C.3   1 <1>   0.0200 
  7 C        2.7410    -1.0090    -0.7770 C.3   1 <1>  -0.0590 
  8 C        0.4920     4.1740    -0.4720 C.3   1 <1>  -0.0800 
  9 C       -0.2750     5.4980    -0.4640 C.3   1 <1>   0.2000 
 10 C        1.8980     4.5590    -0.0050 C.3   1 <1>   0.2090 
 11 O       -0.6640     5.8140     0.8420 O.3   1 <1>  -0.5600 
 12 C        0.7850     6.5150    -0.8940 C.3   1 <1>   0.2090 
 13 N        2.0970     5.9880    -0.3950 N.pl3 1 <1>  -0.8380 
 14 C       -2.0380     5.7950     1.0800 C.3   1 <1>   0.0400 
 15 C        3.2300     6.6800    -0.1580 C.ar  1 <1>   0.4610 
 16 N        3.2840     7.9820    -0.4400 N.ar  1 <1>  -0.1790 
 17 C        4.4030     6.0970     0.3880 C.ar  1 <1>  -0.1500 
 18 C        4.3910     8.7860    -0.2430 C.ar  1 <1>   0.3610 
 19 C        5.5360     6.8190     0.6130 C.ar  1 <1>  -0.1440 
 20 C        5.5620     8.2120     0.2950 C.ar  1 <1>   0.0000 
 21 C        4.3510    10.1460    -0.5730 C.ar  1 <1>  -0.1500 
 22 C        6.7700     6.1470     1.2040 C.3   1 <1>  -0.0970 
 23 C        6.6790     9.0450     0.4860 C.ar  1 <1>  -0.1500 
 24 C        5.4630    10.9240    -0.3720 C.ar  1 <1>  -0.1430 
 25 C        6.6140    10.3740     0.1530 C.ar  1 <1>  -0.1430 
 26 C        5.6430    12.3970    -0.6510 C.3   1 <1>  -0.0170 
 27 C        7.6990    11.4160     0.2860 C.3   1 <1>  -0.0170 
 28 C        6.9470    12.7420     0.0870 C.3   1 <1>  -0.1600 
 29 H        1.9500     1.7010    -1.4970 H     1 <1>   0.1500 
 30 H       -1.1530     2.8880     0.0670 H     1 <1>   0.0800 
 31 H       -0.1450     3.3390     1.4090 H     1 <1>   0.0800 
 32 H        2.4760    -1.1700    -1.8060 H     1 <1>   0.0800 
 33 H        2.6990    -1.9480    -0.2560 H     1 <1>   0.0800 
 34 H        3.7420    -0.6250    -0.7230 H     1 <1>   0.0800 
 35 H        0.5610     3.8420    -1.4930 H     1 <1>   0.0800 
 36 H       -1.1290     5.5010    -1.1220 H     1 <1>   0.0800 
 37 H        2.6410     3.9240    -0.4570 H     1 <1>   0.0800 
 38 H        1.9620     4.4780     1.0690 H     1 <1>   0.0800 
 39 H        0.5510     7.4840    -0.4880 H     1 <1>   0.0800 
 40 H        0.8120     6.5640    -1.9700 H     1 <1>   0.0800 
 41 H       -2.2010     6.0210     2.1200 H     1 <1>   0.0800 
 42 H       -2.4310     4.8180     0.8590 H     1 <1>   0.0800 
 43 H       -2.5160     6.5420     0.4700 H     1 <1>   0.0800 
 44 H        2.4450     8.4040    -0.8150 H     1 <1>   0.4570 
 45 H        4.3770     5.0510     0.6270 H     1 <1>   0.1500 
 46 H        3.4610    10.5900    -0.9820 H     1 <1>   0.1500 
 47 H        6.5920     5.1020     1.3910 H     1 <1>   0.0800 
 48 H        7.0360     6.6120     2.1370 H     1 <1>   0.0800 
 49 H        7.5990     6.2280     0.5240 H     1 <1>   0.0800 
 50 H        7.5920     8.6500     0.8940 H     1 <1>   0.1500 
 51 H        5.7600    12.5530    -1.7100 H     1 <1>   0.0800 
 52 H        4.8180    12.9820    -0.2840 H     1 <1>   0.0800 
 53 H        8.1780    11.3740     1.2490 H     1 <1>   0.0800 
 54 H        8.4300    11.2760    -0.4910 H     1 <1>   0.0800 
 55 H        7.5380    13.4600    -0.4540 H     1 <1>   0.0800 
 56 H        6.7020    13.1490     1.0530 H     1 <1>   0.0800 
@<TRIPOS>BOND
  1   1   2  1   
  2   1   3  1   
  3   2   4  2   
  4   3   5  2   
  5   3   6  1   
  6   4   5  1   
  7   4   7  1   
  8   5  29  1   
  9   6   8  1   
 10   6  30  1   
 11   6  31  1   
 12   7  32  1   
 13   7  33  1   
 14   7  34  1   
 15   8   9  1   
 16   8  10  1   
 17   8  35  1   
 18   9  11  1   
 19   9  12  1   
 20   9  36  1   
 21  10  13  1   
 22  10  37  1   
 23  10  38  1   
 24  11  14  1   
 25  12  13  1   
 26  12  39  1   
 27  12  40  1   
 28  13  15  1   
 29  14  41  1   
 30  14  42  1   
 31  14  43  1   
 32  15  16  ar  
 33  15  17  ar  
 34  16  18  ar  
 35  16  44  1   
 36  17  19  ar  
 37  17  45  1   
 38  18  20  ar  
 39  18  21  ar  
 40  19  20  ar  
 41  19  22  1   
 42  20  23  ar  
 43  21  24  ar  
 44  21  46  1   
 45  22  47  1   
 46  22  48  1   
 47  22  49  1   
 48  23  25  ar  
 49  23  50  1   
 50  24  25  ar  
 51  24  26  1   
 52  25  27  1   
 53  26  28  1   
 54  26  51  1   
 55  26  52  1   
 56  27  28  1   
 57  27  53  1   
 58  27  54  1   
 59  28  55  1   
 60  28  56  1   
@<TRIPOS>SUBSTRUCTURE
  1 ****  15 GROUP 4 **** **** 0

# MOE 2024.06 (io_trps.svl 2023.06)
