@<TRIPOS>MOLECULE
NONAME
54 57 1 0 0 
SMALL
USER_CHARGES


@<TRIPOS>ATOM
  1 S        0.1200     0.7140     1.6460 S.3   1 <1>  -0.0800 
  2 C       -1.2100     1.6300     0.9520 C.2   1 <1>  -0.1400 
  3 C       -1.0040    -0.2890     2.5540 C.2   1 <1>  -0.1100 
  4 C       -2.3850     1.1790     1.4100 C.2   1 <1>  -0.1810 
  5 C       -0.9960     2.7670    -0.0410 C.3   1 <1>   0.4600 
  6 C       -2.2780     0.0810     2.3210 C.2   1 <1>  -0.1500 
  7 C       -3.6650     1.8330     0.9440 C.3   1 <1>   0.0210 
  8 O       -2.2570     3.2080    -0.5060 O.3   1 <1>  -0.5600 
  9 C       -0.2520     2.2700    -1.2940 C.3   1 <1>  -0.1600 
 10 C       -0.2850     3.9590     0.6220 C.3   1 <1>  -0.1600 
 11 C       -3.3390     3.2370     0.3980 C.3   1 <1>   0.1200 
 12 C        1.2340     2.6340    -1.2810 C.3   1 <1>   0.1400 
 13 C        0.3540     4.8590    -0.4320 C.3   1 <1>   0.1400 
 14 N        1.4320     4.1160    -1.1590 N.am  1 <1>  -0.6600 
 15 C        2.5800     4.6710    -1.6860 C.2   1 <1>   0.5690 
 16 O        3.4340     3.9660    -2.1710 O.2   1 <1>  -0.5700 
 17 C        2.8920     6.1700    -1.6860 C.3   1 <1>  -0.0190 
 18 C        3.3570     6.6210    -0.2940 C.3   1 <1>   0.1400 
 19 C        1.8050     7.0780    -2.2870 C.3   1 <1>  -0.1600 
 20 N        3.3920     8.1060    -0.1090 N.am  1 <1>  -0.6600 
 21 C        2.3400     8.5110    -2.3580 C.3   1 <1>  -0.0990 
 22 C        2.8930     9.0020    -1.0310 C.2   1 <1>   0.5690 
 23 C        3.9830     8.5150     1.1970 C.3   1 <1>   0.2200 
 24 O        2.8700    10.1960    -0.8540 O.2   1 <1>  -0.5700 
 25 C        2.9380     9.1970     2.0800 C.3   1 <1>  -0.2400 
 26 C        5.2250     9.3810     0.9860 C.3   1 <1>  -0.2400 
 27 H       -0.5850    -1.0610     3.1750 H     1 <1>   0.1500 
 28 H       -3.1520    -0.3730     2.7530 H     1 <1>   0.1500 
 29 H       -4.3560     1.9210     1.7620 H     1 <1>   0.0800 
 30 H       -4.1190     1.2370     0.1730 H     1 <1>   0.0800 
 31 H       -0.6860     2.7060    -2.1760 H     1 <1>   0.0800 
 32 H       -0.3540     1.2040    -1.3780 H     1 <1>   0.0800 
 33 H        0.4900     3.6050     1.2770 H     1 <1>   0.0800 
 34 H       -0.9740     4.5200     1.2230 H     1 <1>   0.0800 
 35 H       -3.0910     3.9000     1.2080 H     1 <1>   0.0800 
 36 H       -4.1900     3.6370    -0.1240 H     1 <1>   0.0800 
 37 H        1.6870     2.2780    -2.1910 H     1 <1>   0.0800 
 38 H        1.7250     2.1470    -0.4560 H     1 <1>   0.0800 
 39 H        0.7490     5.7290     0.0550 H     1 <1>   0.0800 
 40 H       -0.3970     5.1730    -1.1380 H     1 <1>   0.0800 
 41 H        3.7510     6.2810    -2.3250 H     1 <1>   0.0800 
 42 H        4.3440     6.2240    -0.1260 H     1 <1>   0.0800 
 43 H        2.7160     6.2070     0.4610 H     1 <1>   0.0800 
 44 H        0.9180     7.0830    -1.6840 H     1 <1>   0.0800 
 45 H        1.5430     6.7350    -3.2740 H     1 <1>   0.0800 
 46 H        1.5530     9.1730    -2.6710 H     1 <1>   0.0800 
 47 H        3.1290     8.5720    -3.0850 H     1 <1>   0.0800 
 48 H        4.3040     7.6270     1.7170 H     1 <1>   0.0800 
 49 H        2.6410    10.1430     1.6650 H     1 <1>   0.0800 
 50 H        3.3500     9.3780     3.0560 H     1 <1>   0.0800 
 51 H        2.0740     8.5690     2.1850 H     1 <1>   0.0800 
 52 H        4.9650    10.3310     0.5570 H     1 <1>   0.0800 
 53 H        5.9200     8.8780     0.3390 H     1 <1>   0.0800 
 54 H        5.7060     9.5620     1.9300 H     1 <1>   0.0800 
@<TRIPOS>BOND
  1   1   2  1   
  2   1   3  1   
  3   2   4  2   
  4   2   5  1   
  5   3   6  2   
  6   3  27  1   
  7   4   6  1   
  8   4   7  1   
  9   5   8  1   
 10   5   9  1   
 11   5  10  1   
 12   6  28  1   
 13   7  11  1   
 14   7  29  1   
 15   7  30  1   
 16   8  11  1   
 17   9  12  1   
 18   9  31  1   
 19   9  32  1   
 20  10  13  1   
 21  10  33  1   
 22  10  34  1   
 23  11  35  1   
 24  11  36  1   
 25  12  14  1   
 26  12  37  1   
 27  12  38  1   
 28  13  14  1   
 29  13  39  1   
 30  13  40  1   
 31  14  15  am  
 32  15  16  2   
 33  15  17  1   
 34  17  18  1   
 35  17  19  1   
 36  17  41  1   
 37  18  20  1   
 38  18  42  1   
 39  18  43  1   
 40  19  21  1   
 41  19  44  1   
 42  19  45  1   
 43  20  22  am  
 44  20  23  1   
 45  21  22  1   
 46  21  46  1   
 47  21  47  1   
 48  22  24  2   
 49  23  25  1   
 50  23  26  1   
 51  23  48  1   
 52  25  49  1   
 53  25  50  1   
 54  25  51  1   
 55  26  52  1   
 56  26  53  1   
 57  26  54  1   
@<TRIPOS>SUBSTRUCTURE
  1 ****  13 GROUP 4 **** **** 0

# MOE 2024.06 (io_trps.svl 2023.06)
