@<TRIPOS>MOLECULE
NONAME
42 44 1 0 0 
SMALL
USER_CHARGES


@<TRIPOS>ATOM
  1 CL      -1.4060    -0.0030    -1.6930 Cl    1 <1>  -0.1770 
  2 C       -1.7320    -1.6130    -1.1030 C.ar  1 <1>   0.1770 
  3 C       -0.6820    -2.4150    -0.7000 C.ar  1 <1>  -0.1500 
  4 C       -3.0350    -2.0680    -1.0460 C.ar  1 <1>  -0.1500 
  5 C       -0.9470    -3.6900    -0.2340 C.ar  1 <1>  -0.1500 
  6 C       -3.2850    -3.3470    -0.5810 C.ar  1 <1>  -0.1500 
  7 C       -2.2510    -4.1880    -0.1630 C.ar  1 <1>   0.0530 
  8 C       -2.4930    -5.5310     0.3070 C.2   1 <1>   0.0870 
  9 O       -1.6240    -6.4690     0.0050 O.3   1 <1>  -0.0190 
 10 C       -3.4790    -6.1280     1.0310 C.2   1 <1>  -0.2330 
 11 N       -1.9600    -7.6440     0.4630 N.2   1 <1>  -0.4100 
 12 C       -3.0680    -7.4600     1.0860 C.2   1 <1>   0.3720 
 13 C       -4.6800    -5.6270     1.6330 C.2   1 <1>   1.0330 
 14 N       -3.7740    -8.4670     1.7240 N.pl3 1 <1>  -0.8520 
 15 O       -4.8960    -4.4090     1.7220 O.co2 1 <1>  -0.9000 
 16 O       -5.5520    -6.4080     2.0630 O.co2 1 <1>  -0.9000 
 17 C       -4.2600    -9.5350     0.8460 C.3   1 <1>   0.2890 
 18 C       -5.6590    -9.1600     0.3490 C.3   1 <1>  -0.1600 
 19 C       -4.2910   -10.8440     1.6360 C.3   1 <1>  -0.1600 
 20 C       -6.2780   -10.2790    -0.5050 C.3   1 <1>  -0.0800 
 21 C       -4.9010   -11.9810     0.8030 C.3   1 <1>  -0.1600 
 22 C       -6.2970   -11.6030     0.2870 C.3   1 <1>  -0.1600 
 23 C       -7.6850    -9.8580    -0.9560 C.3   1 <1>   0.1200 
 24 O       -8.2050   -10.8070    -1.8210 O.3   1 <1>  -0.6800 
 25 H        0.3240    -2.0420    -0.7500 H     1 <1>   0.1500 
 26 H       -3.8440    -1.4320    -1.3550 H     1 <1>   0.1500 
 27 H       -0.1330    -4.3180     0.0850 H     1 <1>   0.1500 
 28 H       -4.3000    -3.7010    -0.5320 H     1 <1>   0.1500 
 29 H       -4.6070    -7.9970     2.1380 H     1 <1>   0.4000 
 30 H       -3.5970    -9.6490     0.0040 H     1 <1>   0.0800 
 31 H       -6.2920    -8.9620     1.1970 H     1 <1>   0.0800 
 32 H       -5.5910    -8.2560    -0.2320 H     1 <1>   0.0800 
 33 H       -3.2880   -11.1020     1.9240 H     1 <1>   0.0800 
 34 H       -4.8750   -10.7020     2.5290 H     1 <1>   0.0800 
 35 H       -5.6620   -10.4010    -1.3790 H     1 <1>   0.0800 
 36 H       -4.2570   -12.1930    -0.0330 H     1 <1>   0.0800 
 37 H       -4.9670   -12.8710     1.4040 H     1 <1>   0.0800 
 38 H       -6.9670   -11.5050     1.1240 H     1 <1>   0.0800 
 39 H       -6.6700   -12.3970    -0.3370 H     1 <1>   0.0800 
 40 H       -7.6550    -8.9130    -1.4730 H     1 <1>   0.0800 
 41 H       -8.3500    -9.7730    -0.1130 H     1 <1>   0.0800 
 42 H       -7.6100   -10.9270    -2.5850 H     1 <1>   0.4000 
@<TRIPOS>BOND
  1   1   2  1   
  2   2   3  ar  
  3   2   4  ar  
  4   3   5  ar  
  5   3  25  1   
  6   4   6  ar  
  7   4  26  1   
  8   5   7  ar  
  9   5  27  1   
 10   6   7  ar  
 11   6  28  1   
 12   7   8  1   
 13   8   9  1   
 14   8  10  2   
 15   9  11  1   
 16  10  12  1   
 17  10  13  1   
 18  11  12  2   
 19  12  14  1   
 20  13  15  ar  
 21  13  16  ar  
 22  14  17  1   
 23  14  29  1   
 24  17  18  1   
 25  17  19  1   
 26  17  30  1   
 27  18  20  1   
 28  18  31  1   
 29  18  32  1   
 30  19  21  1   
 31  19  33  1   
 32  19  34  1   
 33  20  22  1   
 34  20  23  1   
 35  20  35  1   
 36  21  22  1   
 37  21  36  1   
 38  21  37  1   
 39  22  38  1   
 40  22  39  1   
 41  23  24  1   
 42  23  40  1   
 43  23  41  1   
 44  24  42  1   
@<TRIPOS>SUBSTRUCTURE
  1 ****  10 GROUP 4 **** **** 0

# MOE 2024.06 (io_trps.svl 2023.06)
