@<TRIPOS>MOLECULE
NONAME
45 47 1 0 0 
SMALL
USER_CHARGES


@<TRIPOS>ATOM
  1 CL      -0.7680    -0.0750    -1.0550 Cl    1 <1>  -0.1770 
  2 C       -2.1900     0.8730    -0.6800 C.ar  1 <1>   0.1770 
  3 C       -2.0900     2.1460    -0.1360 C.ar  1 <1>  -0.1440 
  4 C       -3.4190     0.2990    -0.9500 C.ar  1 <1>  -0.1500 
  5 C       -3.2710     2.8340     0.1340 C.ar  1 <1>  -0.1500 
  6 C       -0.7160     2.7550     0.1510 C.3   1 <1>   1.1640 
  7 C       -4.5770     1.0000    -0.6750 C.ar  1 <1>  -0.1500 
  8 C       -4.5190     2.2770    -0.1270 C.ar  1 <1>   0.1170 
  9 F        0.0280     2.8770    -0.9410 F     1 <1>  -0.3400 
 10 F       -0.0100     2.0440     1.0210 F     1 <1>  -0.3400 
 11 F       -0.7990     3.9770     0.6670 F     1 <1>  -0.3400 
 12 N       -5.6690     3.0260     0.1540 N.am  1 <1>  -0.5470 
 13 C       -6.9380     2.6300     0.4700 C.2   1 <1>   0.6900 
 14 O       -7.1800     1.4600     0.7000 O.2   1 <1>  -0.5700 
 15 N       -7.9310     3.5760     0.5530 N.am  1 <1>  -0.6600 
 16 C       -9.2690     3.2360     1.1280 C.3   1 <1>   0.1400 
 17 C       -7.8680     4.9310    -0.0610 C.3   1 <1>   0.1400 
 18 C      -10.3910     3.3240     0.0640 C.3   1 <1>   0.0000 
 19 C       -8.9460     5.0590    -1.1410 C.3   1 <1>  -0.1600 
 20 C      -11.7370     3.0050     0.7490 C.3   1 <1>   0.2000 
 21 C      -10.3450     4.7230    -0.5980 C.3   1 <1>  -0.1600 
 22 C      -10.2560     2.1820    -0.9630 C.3   1 <1>  -0.1600 
 23 O      -12.7930     3.4150    -0.0460 O.3   1 <1>  -0.6800 
 24 C      -11.7980     1.4800     0.8230 C.3   1 <1>  -0.1600 
 25 C      -10.9460     0.9590    -0.3440 C.3   1 <1>  -0.1600 
 26 H       -3.4670    -0.6900    -1.3710 H     1 <1>   0.1500 
 27 H       -3.2380     3.8230     0.5590 H     1 <1>   0.1500 
 28 H       -5.5310     0.5520    -0.8900 H     1 <1>   0.1500 
 29 H       -5.5400     4.0250     0.2610 H     1 <1>   0.3700 
 30 H       -9.2470     2.2520     1.5630 H     1 <1>   0.0800 
 31 H       -9.4790     3.9300     1.9230 H     1 <1>   0.0800 
 32 H       -8.0330     5.6690     0.7060 H     1 <1>   0.0800 
 33 H       -6.9070     5.1160    -0.5050 H     1 <1>   0.0800 
 34 H       -8.9450     6.0630    -1.5250 H     1 <1>   0.0800 
 35 H       -8.7030     4.4000    -1.9560 H     1 <1>   0.0800 
 36 H      -11.8450     3.4760     1.7120 H     1 <1>   0.0800 
 37 H      -11.0570     4.7840    -1.4020 H     1 <1>   0.0800 
 38 H      -10.6240     5.4630     0.1330 H     1 <1>   0.0800 
 39 H      -10.7690     2.4470    -1.8710 H     1 <1>   0.0800 
 40 H       -9.2310     1.9670    -1.2110 H     1 <1>   0.0800 
 41 H      -12.7340     2.9530    -0.9030 H     1 <1>   0.4000 
 42 H      -11.3520     1.1590     1.7480 H     1 <1>   0.0800 
 43 H      -12.8090     1.1120     0.7930 H     1 <1>   0.0800 
 44 H      -10.2070     0.2670     0.0240 H     1 <1>   0.0800 
 45 H      -11.5550     0.4580    -1.0760 H     1 <1>   0.0800 
@<TRIPOS>BOND
  1   1   2  1   
  2   2   3  ar  
  3   2   4  ar  
  4   3   5  ar  
  5   3   6  1   
  6   4   7  ar  
  7   4  26  1   
  8   5   8  ar  
  9   5  27  1   
 10   6   9  1   
 11   6  10  1   
 12   6  11  1   
 13   7   8  ar  
 14   7  28  1   
 15   8  12  1   
 16  12  13  am  
 17  12  29  1   
 18  13  14  2   
 19  13  15  am  
 20  15  16  1   
 21  15  17  1   
 22  16  18  1   
 23  16  30  1   
 24  16  31  1   
 25  17  19  1   
 26  17  32  1   
 27  17  33  1   
 28  18  20  1   
 29  18  21  1   
 30  18  22  1   
 31  19  21  1   
 32  19  34  1   
 33  19  35  1   
 34  20  23  1   
 35  20  24  1   
 36  20  36  1   
 37  21  37  1   
 38  21  38  1   
 39  22  25  1   
 40  22  39  1   
 41  22  40  1   
 42  23  41  1   
 43  24  25  1   
 44  24  42  1   
 45  24  43  1   
 46  25  44  1   
 47  25  45  1   
@<TRIPOS>SUBSTRUCTURE
  1 ****  12 GROUP 4 **** **** 0

# MOE 2024.06 (io_trps.svl 2023.06)
