@<TRIPOS>MOLECULE
NONAME
58 61 1 0 0 
SMALL
USER_CHARGES


@<TRIPOS>ATOM
  1 F       -3.4140     2.2730    -2.5240 F     1 <1>  -0.1900 
  2 C       -2.4130     2.0800    -1.7040 C.ar  1 <1>   0.1900 
  3 C       -2.6690     1.6680    -0.4080 C.ar  1 <1>   0.0860 
  4 C       -1.1260     2.3150    -2.1500 C.ar  1 <1>   0.1600 
  5 C       -4.0020     1.4130     0.0770 C.2   1 <1>   0.5440 
  6 C       -1.5350     1.5250     0.3810 C.ar  1 <1>  -0.1500 
  7 N       -0.0490     2.1800    -1.3890 N.ar  1 <1>  -0.6200 
  8 O       -4.5590     0.3660    -0.1830 O.2   1 <1>  -0.5700 
  9 N       -4.7160     2.3570     0.7750 N.am  1 <1>  -0.6600 
 10 C       -0.2800     1.7860    -0.1440 C.ar  1 <1>   0.1600 
 11 C       -5.8270     1.9450     1.7050 C.3   1 <1>   0.1400 
 12 C       -4.7660     3.7700     0.3160 C.3   1 <1>   0.1400 
 13 C       -7.2240     1.9120     1.0320 C.3   1 <1>   0.4230 
 14 C       -5.9990     4.0400    -0.5810 C.3   1 <1>  -0.0800 
 15 N       -7.0850     1.6830    -0.4520 N.4   1 <1>  -0.9590 
 16 C       -8.0960     3.1310     1.4000 C.3   1 <1>   0.1200 
 17 C       -7.0820     4.8620     0.1320 C.3   1 <1>   0.1200 
 18 C       -6.5980     2.8150    -1.3060 C.3   1 <1>   0.3430 
 19 C       -8.2410     0.9600    -1.0650 C.3   1 <1>   0.5240 
 20 O       -7.3830     4.3300     1.3770 O.3   1 <1>  -0.5600 
 21 C       -8.5420    -0.3690    -0.3690 C.2   1 <1>   0.1080 
 22 N       -7.6990    -1.0050     0.3890 N.2   1 <1>  -0.7070 
 23 C       -9.7520    -1.0460    -0.4800 C.2   1 <1>  -0.1500 
 24 N       -8.3510    -2.1240     0.7660 N.pl3 1 <1>   0.3000 
 25 C       -9.6010    -2.1690     0.2590 C.2   1 <1>  -0.3320 
 26 C      -10.5610    -3.3230     0.5290 C.3   1 <1>   0.1800 
 27 C      -10.8130    -3.4360     2.0360 C.3   1 <1>  -0.2400 
 28 C      -11.8980    -3.0850    -0.1820 C.3   1 <1>  -0.2400 
 29 C       -9.9460    -4.6260     0.0070 C.3   1 <1>  -0.2400 
 30 H       -0.9770     2.6300    -3.1690 H     1 <1>   0.1500 
 31 H       -1.6340     1.2060     1.4030 H     1 <1>   0.1500 
 32 H        0.5820     1.6640     0.4920 H     1 <1>   0.1500 
 33 H       -5.6170     0.9540     2.0720 H     1 <1>   0.0800 
 34 H       -5.8420     2.5950     2.5620 H     1 <1>   0.0800 
 35 H       -4.7750     4.4220     1.1740 H     1 <1>   0.0800 
 36 H       -3.8730     3.9970    -0.2390 H     1 <1>   0.0800 
 37 H       -7.7310     1.0620     1.4550 H     1 <1>   0.0800 
 38 H       -5.6480     4.6850    -1.3660 H     1 <1>   0.0800 
 39 H       -6.3180     0.9710    -0.4550 H     1 <1>   0.4500 
 40 H       -8.4380     3.0080     2.4130 H     1 <1>   0.0800 
 41 H       -8.9610     3.2120     0.7660 H     1 <1>   0.0800 
 42 H       -7.9860     4.9370    -0.4500 H     1 <1>   0.0800 
 43 H       -6.7160     5.8600     0.3080 H     1 <1>   0.0800 
 44 H       -5.8520     2.4270    -1.9800 H     1 <1>   0.0800 
 45 H       -7.4160     3.1680    -1.9130 H     1 <1>   0.0800 
 46 H       -9.1200     1.5800    -1.0290 H     1 <1>   0.0800 
 47 H       -8.0200     0.7480    -2.0970 H     1 <1>   0.0800 
 48 H      -10.6130    -0.7330    -1.0440 H     1 <1>   0.1500 
 49 H       -7.9210    -2.8440     1.3610 H     1 <1>   0.2700 
 50 H      -11.5150    -4.2240     2.2420 H     1 <1>   0.0800 
 51 H      -11.2170    -2.5130     2.4140 H     1 <1>   0.0800 
 52 H       -9.9030    -3.6510     2.5650 H     1 <1>   0.0800 
 53 H      -12.5770    -3.8970     0.0070 H     1 <1>   0.0800 
 54 H      -11.7500    -3.0100    -1.2450 H     1 <1>   0.0800 
 55 H      -12.3530    -2.1760     0.1680 H     1 <1>   0.0800 
 56 H      -10.6250    -5.4480     0.1530 H     1 <1>   0.0800 
 57 H       -9.0290    -4.8540     0.5190 H     1 <1>   0.0800 
 58 H       -9.7360    -4.5410    -1.0440 H     1 <1>   0.0800 
@<TRIPOS>BOND
  1   1   2  1   
  2   2   3  ar  
  3   2   4  ar  
  4   3   5  1   
  5   3   6  ar  
  6   4   7  ar  
  7   4  30  1   
  8   5   8  2   
  9   5   9  am  
 10   6  10  ar  
 11   6  31  1   
 12   7  10  ar  
 13   9  11  1   
 14   9  12  1   
 15  10  32  1   
 16  11  13  1   
 17  11  33  1   
 18  11  34  1   
 19  12  14  1   
 20  12  35  1   
 21  12  36  1   
 22  13  15  1   
 23  13  16  1   
 24  13  37  1   
 25  14  17  1   
 26  14  18  1   
 27  14  38  1   
 28  15  18  1   
 29  15  19  1   
 30  15  39  1   
 31  16  20  1   
 32  16  40  1   
 33  16  41  1   
 34  17  20  1   
 35  17  42  1   
 36  17  43  1   
 37  18  44  1   
 38  18  45  1   
 39  19  21  1   
 40  19  46  1   
 41  19  47  1   
 42  21  22  2   
 43  21  23  1   
 44  22  24  1   
 45  23  25  2   
 46  23  48  1   
 47  24  25  1   
 48  24  49  1   
 49  25  26  1   
 50  26  27  1   
 51  26  28  1   
 52  26  29  1   
 53  27  50  1   
 54  27  51  1   
 55  27  52  1   
 56  28  53  1   
 57  28  54  1   
 58  28  55  1   
 59  29  56  1   
 60  29  57  1   
 61  29  58  1   
@<TRIPOS>SUBSTRUCTURE
  1 ****  15 GROUP 4 **** **** 0

# MOE 2024.06 (io_trps.svl 2023.06)
