@<TRIPOS>MOLECULE
NONAME
41 42 1 0 0 
SMALL
USER_CHARGES


@<TRIPOS>ATOM
  1 S       -0.7050    -3.4120    -1.4730 S.3   1 <1>  -0.4600 
  2 C       -1.4890    -2.1640    -0.3970 C.3   1 <1>   0.2510 
  3 C        0.7210    -2.5380    -2.1690 C.3   1 <1>  -0.0100 
  4 C       -2.7300    -2.7390     0.2710 C.2   1 <1>   0.3350 
  5 N       -2.7950    -3.1020     1.4910 N.2   1 <1>  -0.4100 
  6 N       -3.8750    -2.8900    -0.3840 N.2   1 <1>  -0.5650 
  7 O       -4.0000    -3.5360     1.6990 O.3   1 <1>  -0.0190 
  8 C       -4.5950    -3.3860     0.5420 C.2   1 <1>   0.2980 
  9 C       -6.0500    -3.8090     0.4090 C.3   1 <1>   0.3200 
 10 N       -6.1870    -5.2890     0.4120 N.am  1 <1>  -0.7300 
 11 C       -7.0370    -5.9740     1.2120 C.2   1 <1>   0.5690 
 12 O       -7.7970    -5.4130     1.9610 O.2   1 <1>  -0.5700 
 13 C       -7.0460    -7.4820     1.1560 C.3   1 <1>  -0.0990 
 14 C       -8.3290    -7.9650     0.4850 C.3   1 <1>   0.1400 
 15 N       -8.3230    -9.4450     0.4050 N.am  1 <1>  -0.7300 
 16 C       -7.7690   -10.1660    -0.6180 C.2   1 <1>   0.5440 
 17 O       -7.1860    -9.5610    -1.4960 O.2   1 <1>  -0.5700 
 18 C       -7.8810   -11.6150    -0.6600 C.ar  1 <1>   0.0860 
 19 C       -7.8570   -12.2920    -1.8850 C.ar  1 <1>  -0.1500 
 20 C       -8.0130   -12.3820     0.5040 C.ar  1 <1>  -0.1500 
 21 C       -7.9710   -13.6700    -1.9560 C.ar  1 <1>  -0.1500 
 22 C       -8.1300   -13.7610     0.4520 C.ar  1 <1>  -0.1500 
 23 C       -8.1080   -14.3820    -0.7810 C.ar  1 <1>   0.1900 
 24 F       -8.2190   -15.6800    -0.8370 F     1 <1>  -0.1900 
 25 H       -1.7480    -1.3230    -1.0120 H     1 <1>   0.0800 
 26 H       -0.7620    -1.8780     0.3410 H     1 <1>   0.0800 
 27 H        1.2350    -3.2220    -2.8210 H     1 <1>   0.0800 
 28 H        1.3570    -2.2330    -1.3570 H     1 <1>   0.0800 
 29 H        0.3570    -1.6880    -2.7190 H     1 <1>   0.0800 
 30 H       -6.4410    -3.4250    -0.5160 H     1 <1>   0.0800 
 31 H       -6.6150    -3.3780     1.2170 H     1 <1>   0.0800 
 32 H       -5.5520    -5.7880    -0.2160 H     1 <1>   0.3700 
 33 H       -6.9930    -7.8610     2.1590 H     1 <1>   0.0800 
 34 H       -6.1930    -7.8310     0.6030 H     1 <1>   0.0800 
 35 H       -8.3960    -7.5520    -0.5080 H     1 <1>   0.0800 
 36 H       -9.1880    -7.6360     1.0460 H     1 <1>   0.0800 
 37 H       -8.8850    -9.9260     1.1080 H     1 <1>   0.3700 
 38 H       -7.7460   -11.7220    -2.7920 H     1 <1>   0.1500 
 39 H       -8.0160   -11.8980     1.4640 H     1 <1>   0.1500 
 40 H       -7.9530   -14.1850    -2.9000 H     1 <1>   0.1500 
 41 H       -8.2330   -14.3500     1.3460 H     1 <1>   0.1500 
@<TRIPOS>BOND
  1   1   2  1   
  2   1   3  1   
  3   2   4  1   
  4   2  25  1   
  5   2  26  1   
  6   3  27  1   
  7   3  28  1   
  8   3  29  1   
  9   4   5  2   
 10   4   6  1   
 11   5   7  1   
 12   6   8  2   
 13   7   8  1   
 14   8   9  1   
 15   9  10  1   
 16   9  30  1   
 17   9  31  1   
 18  10  11  am  
 19  10  32  1   
 20  11  12  2   
 21  11  13  1   
 22  13  14  1   
 23  13  33  1   
 24  13  34  1   
 25  14  15  1   
 26  14  35  1   
 27  14  36  1   
 28  15  16  am  
 29  15  37  1   
 30  16  17  2   
 31  16  18  1   
 32  18  19  ar  
 33  18  20  ar  
 34  19  21  ar  
 35  19  38  1   
 36  20  22  ar  
 37  20  39  1   
 38  21  23  ar  
 39  21  40  1   
 40  22  23  ar  
 41  22  41  1   
 42  23  24  1   
@<TRIPOS>SUBSTRUCTURE
  1 ****  13 GROUP 4 **** **** 0

# MOE 2024.06 (io_trps.svl 2023.06)
