@<TRIPOS>MOLECULE
NONAME
36 37 1 0 0 
SMALL
USER_CHARGES


@<TRIPOS>ATOM
  1 O        0.1200     0.3790    -0.7050 O.3   1 <1>  -0.2800 
  2 C        0.2020     1.6530    -0.3780 C.2   1 <1>  -0.0400 
  3 C       -1.1540     0.0410    -0.6890 C.2   1 <1>  -0.0100 
  4 C       -1.0300     2.1580    -0.1450 C.2   1 <1>  -0.1500 
  5 C        1.5840     2.2810    -0.3260 C.3   1 <1>   0.0200 
  6 C       -1.9220     1.0970    -0.3500 C.2   1 <1>  -0.1500 
  7 C        1.5430     3.7700     0.0420 C.3   1 <1>  -0.1600 
  8 C        2.9470     4.3660     0.0810 C.3   1 <1>   0.2090 
  9 N        2.8510     5.7860     0.4640 N.pl3 1 <1>  -0.8690 
 10 C        3.9700     6.6060     0.3740 C.ar  1 <1>   0.4100 
 11 N        5.1400     6.0380     0.6050 N.ar  1 <1>  -0.6200 
 12 C        3.8130     7.9910     0.0330 C.ar  1 <1>   0.4100 
 13 C        6.1440     6.8980     0.4890 C.ar  1 <1>   0.1600 
 14 N        4.8340     8.8240    -0.0820 N.ar  1 <1>  -0.6200 
 15 N        2.5380     8.5380    -0.1860 N.pl3 1 <1>  -0.8380 
 16 C        5.9970     8.2330     0.1590 C.ar  1 <1>   0.1600 
 17 C        1.7770     8.8580     1.0490 C.3   1 <1>   0.1290 
 18 C        2.4110     9.5830    -1.2400 C.3   1 <1>   0.1290 
 19 H       -1.4250    -0.9710    -0.9320 H     1 <1>   0.1500 
 20 H       -1.3110     3.1560     0.1400 H     1 <1>   0.1500 
 21 H        2.0480     2.1590    -1.2890 H     1 <1>   0.0800 
 22 H        2.1730     1.7450     0.3970 H     1 <1>   0.0800 
 23 H       -2.9910     1.1490    -0.2480 H     1 <1>   0.1500 
 24 H        1.0890     3.8820     1.0110 H     1 <1>   0.0800 
 25 H        0.9530     4.2970    -0.6860 H     1 <1>   0.0800 
 26 H        3.4200     4.2860    -0.8840 H     1 <1>   0.0800 
 27 H        3.5530     3.8480     0.8060 H     1 <1>   0.0800 
 28 H        2.0530     6.2770     0.0440 H     1 <1>   0.4000 
 29 H        7.1320     6.5130     0.6670 H     1 <1>   0.1500 
 30 H        6.8750     8.8500     0.0880 H     1 <1>   0.1500 
 31 H        1.9440     8.1000     1.7960 H     1 <1>   0.0800 
 32 H        0.7240     8.9030     0.8310 H     1 <1>   0.0800 
 33 H        2.1010     9.8070     1.4420 H     1 <1>   0.0800 
 34 H        3.0050     9.3110    -2.0960 H     1 <1>   0.0800 
 35 H        2.7590    10.5290    -0.8640 H     1 <1>   0.0800 
 36 H        1.3830     9.6740    -1.5460 H     1 <1>   0.0800 
@<TRIPOS>BOND
  1   1   2  1   
  2   1   3  1   
  3   2   4  2   
  4   2   5  1   
  5   3   6  2   
  6   3  19  1   
  7   4   6  1   
  8   4  20  1   
  9   5   7  1   
 10   5  21  1   
 11   5  22  1   
 12   6  23  1   
 13   7   8  1   
 14   7  24  1   
 15   7  25  1   
 16   8   9  1   
 17   8  26  1   
 18   8  27  1   
 19   9  10  1   
 20   9  28  1   
 21  10  11  ar  
 22  10  12  ar  
 23  11  13  ar  
 24  12  14  ar  
 25  12  15  1   
 26  13  16  ar  
 27  13  29  1   
 28  14  16  ar  
 29  15  17  1   
 30  15  18  1   
 31  16  30  1   
 32  17  31  1   
 33  17  32  1   
 34  17  33  1   
 35  18  34  1   
 36  18  35  1   
 37  18  36  1   
@<TRIPOS>SUBSTRUCTURE
  1 ****   9 GROUP 4 **** **** 0

# MOE 2024.06 (io_trps.svl 2023.06)
