@<TRIPOS>MOLECULE
NONAME
43 44 1 0 0 
SMALL
USER_CHARGES


@<TRIPOS>ATOM
  1 N       -0.1180     1.3560     1.0620 N.ar  1 <1>  -0.6200 
  2 C        0.2710     2.3930     0.3470 C.ar  1 <1>   0.7710 
  3 C        0.1970     0.1660     0.6070 C.ar  1 <1>   0.4100 
  4 N        0.9640     2.2790    -0.8010 N.ar  1 <1>  -0.1790 
  5 N       -0.0540     3.5980     0.8260 N.pl3 1 <1>  -0.8690 
  6 N       -0.2080    -0.8680     1.3450 N.pl3 1 <1>  -0.9000 
  7 C        0.9180    -0.0290    -0.5830 C.ar  1 <1>  -0.1500 
  8 C        1.3040     1.0600    -1.2910 C.ar  1 <1>   0.2110 
  9 C        0.1400     4.9710     0.3050 C.3   1 <1>   0.2090 
 10 C        1.5970     5.3880     0.4970 C.3   1 <1>  -0.1600 
 11 C        1.8330     6.8420     0.0690 C.3   1 <1>  -0.0170 
 12 C        3.3220     7.1420     0.0680 C.ar  1 <1>  -0.1430 
 13 C        4.0020     7.3010     1.2640 C.ar  1 <1>  -0.1500 
 14 C        4.0190     7.2550    -1.1240 C.ar  1 <1>  -0.1500 
 15 C        5.3610     7.5620     1.2680 C.ar  1 <1>  -0.1500 
 16 C        5.3780     7.5160    -1.1180 C.ar  1 <1>  -0.1500 
 17 C        6.0640     7.6710     0.0780 C.ar  1 <1>  -0.1430 
 18 C        7.5640     7.9620     0.1030 C.3   1 <1>   0.0630 
 19 C        7.8730     9.2960    -0.5840 C.3   1 <1>  -0.2400 
 20 C        8.3540     6.8200    -0.5450 C.3   1 <1>  -0.2400 
 21 H        1.2230     3.1500    -1.2500 H     1 <1>   0.4570 
 22 H       -0.5500     3.5590     1.7250 H     1 <1>   0.4000 
 23 H       -0.0450    -1.8550     1.1300 H     1 <1>   0.4000 
 24 H       -0.7340    -0.7050     2.2090 H     1 <1>   0.4000 
 25 H        1.1420    -1.0320    -0.8960 H     1 <1>   0.1500 
 26 H        1.8620     0.9950    -2.2120 H     1 <1>   0.1500 
 27 H       -0.5040     5.6450     0.8490 H     1 <1>   0.0800 
 28 H       -0.1360     5.0190    -0.7350 H     1 <1>   0.0800 
 29 H        2.2460     4.7540    -0.0790 H     1 <1>   0.0800 
 30 H        1.8650     5.2870     1.5350 H     1 <1>   0.0800 
 31 H        1.3340     7.5140     0.7460 H     1 <1>   0.0800 
 32 H        1.4340     7.0130    -0.9160 H     1 <1>   0.0800 
 33 H        3.4800     7.2240     2.2020 H     1 <1>   0.1500 
 34 H        3.5150     7.1460    -2.0670 H     1 <1>   0.1500 
 35 H        5.8690     7.6810     2.2090 H     1 <1>   0.1500 
 36 H        5.9020     7.6030    -2.0530 H     1 <1>   0.1500 
 37 H        7.8830     8.0400     1.1280 H     1 <1>   0.0800 
 38 H        7.6190     9.2580    -1.6280 H     1 <1>   0.0800 
 39 H        8.9180     9.5290    -0.4920 H     1 <1>   0.0800 
 40 H        7.3040    10.0830    -0.1220 H     1 <1>   0.0800 
 41 H        8.1110     6.7280    -1.5880 H     1 <1>   0.0800 
 42 H        8.1220     5.8920    -0.0540 H     1 <1>   0.0800 
 43 H        9.4100     7.0000    -0.4530 H     1 <1>   0.0800 
@<TRIPOS>BOND
  1   1   2  ar  
  2   1   3  ar  
  3   2   4  ar  
  4   2   5  1   
  5   3   6  1   
  6   3   7  ar  
  7   4   8  ar  
  8   4  21  1   
  9   5   9  1   
 10   5  22  1   
 11   6  23  1   
 12   6  24  1   
 13   7   8  ar  
 14   7  25  1   
 15   8  26  1   
 16   9  10  1   
 17   9  27  1   
 18   9  28  1   
 19  10  11  1   
 20  10  29  1   
 21  10  30  1   
 22  11  12  1   
 23  11  31  1   
 24  11  32  1   
 25  12  13  ar  
 26  12  14  ar  
 27  13  15  ar  
 28  13  33  1   
 29  14  16  ar  
 30  14  34  1   
 31  15  17  ar  
 32  15  35  1   
 33  16  17  ar  
 34  16  36  1   
 35  17  18  1   
 36  18  19  1   
 37  18  20  1   
 38  18  37  1   
 39  19  38  1   
 40  19  39  1   
 41  19  40  1   
 42  20  41  1   
 43  20  42  1   
 44  20  43  1   
@<TRIPOS>SUBSTRUCTURE
  1 ****  10 GROUP 4 **** **** 0

# MOE 2024.06 (io_trps.svl 2023.06)
