@<TRIPOS>MOLECULE
NONAME
56 59 1 0 0 
SMALL
USER_CHARGES


@<TRIPOS>ATOM
  1 O        2.8530    -0.0580    -1.4410 O.2   1 <1>  -0.5700 
  2 C        2.9110    -1.2150    -1.1250 C.2   1 <1>   0.5690 
  3 N        2.1730    -1.6420    -0.0750 N.am  1 <1>  -0.7300 
  4 C        3.8120    -2.1270    -1.9300 C.3   1 <1>  -0.0990 
  5 C        2.0800    -2.9870     0.5510 C.3   1 <1>   0.1400 
  6 C        3.5290    -3.6210    -1.7720 C.3   1 <1>   0.1200 
  7 C        3.4400    -3.7320     0.6810 C.3   1 <1>   0.2800 
  8 O        4.0210    -4.1070    -0.5520 O.3   1 <1>  -0.5600 
  9 C        4.4870    -2.8830     1.4360 C.3   1 <1>  -0.1600 
 10 C        3.2440    -5.0440     1.4580 C.3   1 <1>  -0.1600 
 11 C        5.6810    -3.6760     1.9850 C.3   1 <1>   0.3430 
 12 C        4.5410    -5.8450     1.6560 C.3   1 <1>   0.3430 
 13 N        5.7380    -5.0160     1.3370 N.4   1 <1>  -0.9590 
 14 C        7.0200    -5.7500     1.5240 C.3   1 <1>   0.4860 
 15 C        8.1750    -4.9070     1.0360 C.ar  1 <1>  -0.1440 
 16 C        9.1020    -4.3890     1.9120 C.ar  1 <1>   0.1600 
 17 C        8.3540    -4.6190    -0.2990 C.ar  1 <1>   0.1600 
 18 N       10.0950    -3.6380     1.5120 N.ar  1 <1>  -0.6200 
 19 N        9.3390    -3.8710    -0.7250 N.ar  1 <1>  -0.6200 
 20 C       10.1650    -3.4120     0.2100 C.ar  1 <1>   0.7200 
 21 N       11.1920    -2.6310    -0.1720 N.pl3 1 <1>  -0.8690 
 22 C       11.8260    -2.7140    -1.4950 C.3   1 <1>   0.3530 
 23 C       13.3200    -2.5160    -1.3100 C.ar  1 <1>  -0.1440 
 24 C       14.1310    -3.5950    -0.9870 C.ar  1 <1>  -0.1500 
 25 C       13.8880    -1.2590    -1.4540 C.ar  1 <1>  -0.1500 
 26 C       15.4930    -3.4200    -0.8160 C.ar  1 <1>  -0.1500 
 27 C       15.2500    -1.0830    -1.2840 C.ar  1 <1>  -0.1500 
 28 C       16.0540    -2.1630    -0.9660 C.ar  1 <1>  -0.1500 
 29 H        1.5580    -0.9210     0.3140 H     1 <1>   0.3700 
 30 H        4.8380    -1.9160    -1.6960 H     1 <1>   0.0800 
 31 H        3.6650    -1.8710    -2.9630 H     1 <1>   0.0800 
 32 H        1.3740    -3.5900     0.0050 H     1 <1>   0.0800 
 33 H        1.6740    -2.8530     1.5390 H     1 <1>   0.0800 
 34 H        4.0490    -4.1550    -2.5490 H     1 <1>   0.0800 
 35 H        2.4810    -3.8460    -1.8680 H     1 <1>   0.0800 
 36 H        4.0160    -2.3920     2.2690 H     1 <1>   0.0800 
 37 H        4.8510    -2.1000     0.7960 H     1 <1>   0.0800 
 38 H        2.5220    -5.6630     0.9550 H     1 <1>   0.0800 
 39 H        2.8360    -4.8230     2.4290 H     1 <1>   0.0800 
 40 H        5.5810    -3.7940     3.0520 H     1 <1>   0.0800 
 41 H        6.5870    -3.1220     1.7900 H     1 <1>   0.0800 
 42 H        4.5210    -6.7020     1.0010 H     1 <1>   0.0800 
 43 H        4.5920    -6.2010     2.6730 H     1 <1>   0.0800 
 44 H        5.6200    -4.7980     0.3280 H     1 <1>   0.4500 
 45 H        6.9970    -6.6750     0.9710 H     1 <1>   0.0800 
 46 H        7.1580    -5.9850     2.5670 H     1 <1>   0.0800 
 47 H        9.0350    -4.5860     2.9700 H     1 <1>   0.1500 
 48 H        7.6760    -5.0030    -1.0430 H     1 <1>   0.1500 
 49 H       11.8590    -2.4510     0.5780 H     1 <1>   0.4000 
 50 H       11.4210    -1.9490    -2.1340 H     1 <1>   0.0800 
 51 H       11.6360    -3.6730    -1.9460 H     1 <1>   0.0800 
 52 H       13.7020    -4.5740    -0.8640 H     1 <1>   0.1500 
 53 H       13.2700    -0.4110    -1.6960 H     1 <1>   0.1500 
 54 H       16.1160    -4.2610    -0.5660 H     1 <1>   0.1500 
 55 H       15.6840    -0.1050    -1.3980 H     1 <1>   0.1500 
 56 H       17.1130    -2.0270    -0.8330 H     1 <1>   0.1500 
@<TRIPOS>BOND
  1   1   2  2   
  2   2   3  am  
  3   2   4  1   
  4   3   5  1   
  5   3  29  1   
  6   4   6  1   
  7   4  30  1   
  8   4  31  1   
  9   5   7  1   
 10   5  32  1   
 11   5  33  1   
 12   6   8  1   
 13   6  34  1   
 14   6  35  1   
 15   7   8  1   
 16   7   9  1   
 17   7  10  1   
 18   9  11  1   
 19   9  36  1   
 20   9  37  1   
 21  10  12  1   
 22  10  38  1   
 23  10  39  1   
 24  11  13  1   
 25  11  40  1   
 26  11  41  1   
 27  12  13  1   
 28  12  42  1   
 29  12  43  1   
 30  13  14  1   
 31  13  44  1   
 32  14  15  1   
 33  14  45  1   
 34  14  46  1   
 35  15  16  ar  
 36  15  17  ar  
 37  16  18  ar  
 38  16  47  1   
 39  17  19  ar  
 40  17  48  1   
 41  18  20  ar  
 42  19  20  ar  
 43  20  21  1   
 44  21  22  1   
 45  21  49  1   
 46  22  23  1   
 47  22  50  1   
 48  22  51  1   
 49  23  24  ar  
 50  23  25  ar  
 51  24  26  ar  
 52  24  52  1   
 53  25  27  ar  
 54  25  53  1   
 55  26  28  ar  
 56  26  54  1   
 57  27  28  ar  
 58  27  55  1   
 59  28  56  1   
@<TRIPOS>SUBSTRUCTURE
  1 ****  17 GROUP 4 **** **** 0

# MOE 2024.06 (io_trps.svl 2023.06)
