@<TRIPOS>MOLECULE
NONAME
36 38 1 0 0 
SMALL
USER_CHARGES


@<TRIPOS>ATOM
  1 CL       1.3870    -0.2330     1.7640 Cl    1 <1>  -0.1240 
  2 C        1.9840     1.3580     1.3900 C.2   1 <1>   0.1640 
  3 S        0.7950     2.6020     1.1070 S.3   1 <1>  -0.0800 
  4 C        3.2370     1.8270     1.2730 C.2   1 <1>  -0.1500 
  5 C        2.0580     3.8140     0.8150 C.2   1 <1>  -0.0450 
  6 C        3.2760     3.2160     0.9490 C.2   1 <1>  -0.1500 
  7 C        1.6590     5.1630     0.5000 C.2   1 <1>   0.7150 
  8 O        0.4900     5.4970     0.5180 O.2   1 <1>  -0.5700 
  9 N        2.6340     6.0740     0.1680 N.am  1 <1>  -0.4940 
 10 C        2.5300     7.4680    -0.0790 C.2   1 <1>  -0.0880 
 11 N        3.5140     8.2520    -0.6070 N.pl3 1 <1>   0.3140 
 12 C        1.4820     8.2910     0.1600 C.2   1 <1>  -0.1500 
 13 N        3.1110     9.5480    -0.6940 N.2   1 <1>  -0.7070 
 14 C        4.8550     7.7810    -1.0740 C.3   1 <1>   0.2710 
 15 C        1.9020     9.5520    -0.2370 C.2   1 <1>   0.1080 
 16 C        5.7970     7.6110     0.1430 C.3   1 <1>  -0.1950 
 17 C        5.4170     8.6780    -2.1940 C.3   1 <1>  -0.2400 
 18 C        1.0720    10.8110    -0.1600 C.3   1 <1>  -0.0590 
 19 C        6.5150     8.7570     0.7860 C.3   1 <1>  -0.2000 
 20 C        7.2930     7.6880     0.0710 C.3   1 <1>  -0.2000 
 21 H        4.1310     1.2420     1.4040 H     1 <1>   0.1500 
 22 H        4.2260     3.7070     0.8330 H     1 <1>   0.1500 
 23 H        3.5680     5.6780     0.1380 H     1 <1>   0.3700 
 24 H        0.5200     8.0430     0.5710 H     1 <1>   0.1500 
 25 H        4.7070     6.8090    -1.5080 H     1 <1>   0.0800 
 26 H        5.4060     6.8750     0.8230 H     1 <1>   0.1000 
 27 H        5.6230     9.6670    -1.8260 H     1 <1>   0.0800 
 28 H        4.7010     8.7530    -2.9930 H     1 <1>   0.0800 
 29 H        6.3220     8.2610    -2.5940 H     1 <1>   0.0800 
 30 H        0.0990    10.5960     0.2420 H     1 <1>   0.0800 
 31 H        0.9640    11.2290    -1.1430 H     1 <1>   0.0800 
 32 H        1.5650    11.5260     0.4720 H     1 <1>   0.0800 
 33 H        6.5510     8.8000     1.8620 H     1 <1>   0.1000 
 34 H        6.4430     9.7370     0.3470 H     1 <1>   0.1000 
 35 H        7.7990     7.9690    -0.8360 H     1 <1>   0.1000 
 36 H        7.8790     7.0050     0.6630 H     1 <1>   0.1000 
@<TRIPOS>BOND
  1   1   2  1   
  2   2   3  1   
  3   2   4  2   
  4   3   5  1   
  5   4   6  1   
  6   4  21  1   
  7   5   6  2   
  8   5   7  1   
  9   6  22  1   
 10   7   8  2   
 11   7   9  am  
 12   9  10  1   
 13   9  23  1   
 14  10  11  1   
 15  10  12  2   
 16  11  13  1   
 17  11  14  1   
 18  12  15  1   
 19  12  24  1   
 20  13  15  2   
 21  14  16  1   
 22  14  17  1   
 23  14  25  1   
 24  15  18  1   
 25  16  19  1   
 26  16  20  1   
 27  16  26  1   
 28  17  27  1   
 29  17  28  1   
 30  17  29  1   
 31  18  30  1   
 32  18  31  1   
 33  18  32  1   
 34  19  20  1   
 35  19  33  1   
 36  19  34  1   
 37  20  35  1   
 38  20  36  1   
@<TRIPOS>SUBSTRUCTURE
  1 ****   9 GROUP 4 **** **** 0

# MOE 2024.06 (io_trps.svl 2023.06)
