@<TRIPOS>MOLECULE
NONAME
52 55 1 0 0 
SMALL
USER_CHARGES


@<TRIPOS>ATOM
  1 O       -0.7550     0.2400     1.3230 O.2   1 <1>  -0.5700 
  2 C       -1.6330     0.8610     0.7560 C.2   1 <1>   0.5440 
  3 N       -2.7180     0.1670     0.2690 N.am  1 <1>  -0.6600 
  4 C       -1.5140     2.2950     0.5870 C.ar  1 <1>   0.0860 
  5 C       -3.6350     0.6730    -0.7860 C.3   1 <1>   0.1400 
  6 C       -2.8390    -1.3100     0.3860 C.3   1 <1>   0.1400 
  7 C       -0.3830     2.8510    -0.0080 C.ar  1 <1>  -0.1500 
  8 C       -2.5190     3.1670     1.0090 C.ar  1 <1>  -0.1500 
  9 C       -4.6190    -0.4720    -1.0160 C.3   1 <1>   0.2000 
 10 C       -3.7820    -1.7290    -0.7500 C.3   1 <1>  -0.0800 
 11 C       -0.2590     4.2150    -0.2030 C.ar  1 <1>  -0.1440 
 12 C       -2.4230     4.5350     0.8280 C.ar  1 <1>  -0.1440 
 13 O       -5.6230    -0.3690    -0.0630 O.3   1 <1>  -0.6800 
 14 C       -4.6080    -2.9990    -0.4520 C.3   1 <1>  -0.0170 
 15 C       -1.2860     5.0530     0.2140 C.ar  1 <1>   0.0820 
 16 C        0.9930     4.7780    -0.8610 C.3   1 <1>  -0.0970 
 17 C       -3.5550     5.4360     1.3050 C.3   1 <1>  -0.0970 
 18 C       -3.8310    -4.3160    -0.3250 C.ar  1 <1>  -0.1440 
 19 O       -1.1760     6.3770     0.0260 O.3   1 <1>  -0.5320 
 20 C       -4.4980    -5.4810     0.1290 C.ar  1 <1>   0.0000 
 21 C       -2.5060    -4.4470    -0.6390 C.ar  1 <1>  -0.1500 
 22 C       -3.7460    -6.6770     0.2470 C.ar  1 <1>   0.3100 
 23 C       -5.8720    -5.5340     0.4670 C.ar  1 <1>  -0.1500 
 24 C       -1.8570    -5.6780    -0.4900 C.ar  1 <1>   0.1600 
 25 N       -2.4300    -6.7580    -0.0650 N.ar  1 <1>  -0.6200 
 26 C       -4.3830    -7.8420     0.7030 C.ar  1 <1>  -0.1500 
 27 C       -6.4630    -6.6870     0.9070 C.ar  1 <1>  -0.1500 
 28 C       -5.7110    -7.8580     1.0290 C.ar  1 <1>  -0.1500 
 29 H       -4.1420     1.5730    -0.4890 H     1 <1>   0.0800 
 30 H       -3.0690     0.8570    -1.6820 H     1 <1>   0.0800 
 31 H       -1.8750    -1.7810     0.3010 H     1 <1>   0.0800 
 32 H       -3.2620    -1.5490     1.3470 H     1 <1>   0.0800 
 33 H        0.4060     2.1870    -0.3170 H     1 <1>   0.1500 
 34 H       -3.3830     2.7470     1.4910 H     1 <1>   0.1500 
 35 H       -5.0700    -0.4540    -1.9930 H     1 <1>   0.0800 
 36 H       -3.1900    -1.8990    -1.6320 H     1 <1>   0.0800 
 37 H       -5.2070    -0.2460     0.8140 H     1 <1>   0.4000 
 38 H       -5.3390    -3.1180    -1.2320 H     1 <1>   0.0800 
 39 H       -5.1430    -2.8390     0.4680 H     1 <1>   0.0800 
 40 H        1.6860     3.9980    -1.1140 H     1 <1>   0.0800 
 41 H        1.4780     5.4640    -0.1890 H     1 <1>   0.0800 
 42 H        0.7250     5.3070    -1.7580 H     1 <1>   0.0800 
 43 H       -4.3450     4.8580     1.7500 H     1 <1>   0.0800 
 44 H       -3.9670     5.9840     0.4760 H     1 <1>   0.0800 
 45 H       -3.1900     6.1270     2.0440 H     1 <1>   0.0800 
 46 H       -1.9380     6.8710     0.3720 H     1 <1>   0.4500 
 47 H       -1.9100    -3.6350    -1.0080 H     1 <1>   0.1500 
 48 H       -6.4760    -4.6510     0.3770 H     1 <1>   0.1500 
 49 H       -0.8130    -5.7290    -0.7450 H     1 <1>   0.1500 
 50 H       -3.7840    -8.7300     0.7860 H     1 <1>   0.1500 
 51 H       -7.5090    -6.7090     1.1620 H     1 <1>   0.1500 
 52 H       -6.1860    -8.7590     1.3770 H     1 <1>   0.1500 
@<TRIPOS>BOND
  1   1   2  2   
  2   2   3  am  
  3   2   4  1   
  4   3   5  1   
  5   3   6  1   
  6   4   7  ar  
  7   4   8  ar  
  8   5   9  1   
  9   5  29  1   
 10   5  30  1   
 11   6  10  1   
 12   6  31  1   
 13   6  32  1   
 14   7  11  ar  
 15   7  33  1   
 16   8  12  ar  
 17   8  34  1   
 18   9  10  1   
 19   9  13  1   
 20   9  35  1   
 21  10  14  1   
 22  10  36  1   
 23  11  15  ar  
 24  11  16  1   
 25  12  15  ar  
 26  12  17  1   
 27  13  37  1   
 28  14  18  1   
 29  14  38  1   
 30  14  39  1   
 31  15  19  1   
 32  16  40  1   
 33  16  41  1   
 34  16  42  1   
 35  17  43  1   
 36  17  44  1   
 37  17  45  1   
 38  18  20  ar  
 39  18  21  ar  
 40  19  46  1   
 41  20  22  ar  
 42  20  23  ar  
 43  21  24  ar  
 44  21  47  1   
 45  22  25  ar  
 46  22  26  ar  
 47  23  27  ar  
 48  23  48  1   
 49  24  25  ar  
 50  24  49  1   
 51  26  28  ar  
 52  26  50  1   
 53  27  28  ar  
 54  27  51  1   
 55  28  52  1   
@<TRIPOS>SUBSTRUCTURE
  1 ****   6 GROUP 4 **** **** 0

# MOE 2024.06 (io_trps.svl 2023.06)
