@<TRIPOS>MOLECULE
NONAME
35 36 1 0 0 
SMALL
USER_CHARGES


@<TRIPOS>ATOM
  1 S        1.9510    -0.1120     1.4340 S.3   1 <1>  -0.4600 
  2 C        1.8350     0.2710    -0.3390 C.3   1 <1>   0.2500 
  3 C        0.6430    -1.3400     1.6870 C.3   1 <1>  -0.0100 
  4 C        2.7300     1.4580    -0.6380 C.2   1 <1>  -0.0400 
  5 O        2.2770     2.6720    -0.4200 O.3   1 <1>  -0.2800 
  6 C        3.9890     1.5120    -1.1230 C.2   1 <1>  -0.1500 
  7 C        3.2170     3.5550    -0.7420 C.2   1 <1>   0.0550 
  8 C        4.3070     2.8690    -1.1910 C.2   1 <1>  -0.1500 
  9 C        2.9980     4.9750    -0.5830 C.2   1 <1>   0.7150 
 10 O        1.8830     5.4600    -0.6050 O.2   1 <1>  -0.5700 
 11 N        4.0940     5.7780    -0.3890 N.am  1 <1>  -0.4940 
 12 C        4.1980     7.1710    -0.3780 C.2   1 <1>   0.2040 
 13 O        3.2440     7.9510    -0.8280 O.3   1 <1>  -0.0190 
 14 C        5.2130     7.9610     0.0270 C.2   1 <1>  -0.1810 
 15 N        3.5700     9.2170    -0.7480 N.2   1 <1>  -0.4100 
 16 C        4.7470     9.2490    -0.2360 C.2   1 <1>   0.1080 
 17 C        6.5510     7.5710     0.6320 C.3   1 <1>   0.0210 
 18 C        5.4960    10.5360     0.0330 C.3   1 <1>  -0.0590 
 19 C        7.6310     7.4980    -0.4480 C.3   1 <1>  -0.2400 
 20 H        0.8090     0.4950    -0.5640 H     1 <1>   0.0800 
 21 H        2.1570    -0.6050    -0.8730 H     1 <1>   0.0800 
 22 H        0.6560    -1.6190     2.7260 H     1 <1>   0.0800 
 23 H        0.8540    -2.1880     1.0610 H     1 <1>   0.0800 
 24 H       -0.2960    -0.8860     1.4270 H     1 <1>   0.0800 
 25 H        4.6340     0.6980    -1.4020 H     1 <1>   0.1500 
 26 H        5.2440     3.2600    -1.5440 H     1 <1>   0.1500 
 27 H        4.9520     5.2750    -0.1880 H     1 <1>   0.3700 
 28 H        6.4620     6.6140     1.1160 H     1 <1>   0.0800 
 29 H        6.8320     8.2890     1.3830 H     1 <1>   0.0800 
 30 H        6.4080    10.5570    -0.5340 H     1 <1>   0.0800 
 31 H        5.7240    10.6160     1.0800 H     1 <1>   0.0800 
 32 H        4.8920    11.3780    -0.2540 H     1 <1>   0.0800 
 33 H        7.3610     6.7750    -1.1980 H     1 <1>   0.0800 
 34 H        8.5720     7.2110    -0.0130 H     1 <1>   0.0800 
 35 H        7.7500     8.4550    -0.9240 H     1 <1>   0.0800 
@<TRIPOS>BOND
  1   1   2  1   
  2   1   3  1   
  3   2   4  1   
  4   2  20  1   
  5   2  21  1   
  6   3  22  1   
  7   3  23  1   
  8   3  24  1   
  9   4   5  1   
 10   4   6  2   
 11   5   7  1   
 12   6   8  1   
 13   6  25  1   
 14   7   8  2   
 15   7   9  1   
 16   8  26  1   
 17   9  10  2   
 18   9  11  am  
 19  11  12  1   
 20  11  27  1   
 21  12  13  1   
 22  12  14  2   
 23  13  15  1   
 24  14  16  1   
 25  14  17  1   
 26  15  16  2   
 27  16  18  1   
 28  17  19  1   
 29  17  28  1   
 30  17  29  1   
 31  18  30  1   
 32  18  31  1   
 33  18  32  1   
 34  19  33  1   
 35  19  34  1   
 36  19  35  1   
@<TRIPOS>SUBSTRUCTURE
  1 ****   9 GROUP 4 **** **** 0

# MOE 2024.06 (io_trps.svl 2023.06)
