@<TRIPOS>MOLECULE
NONAME
32 33 1 0 0 
SMALL
USER_CHARGES


@<TRIPOS>ATOM
  1 CL      -0.0330     0.0110    -0.8840 Cl    1 <1>  -0.1770 
  2 C        1.1550    -1.0830    -0.1940 C.ar  1 <1>   0.1770 
  3 C        1.0790    -2.4530    -0.4100 C.ar  1 <1>   0.4100 
  4 C        2.1780    -0.6010     0.5740 C.ar  1 <1>   0.1600 
  5 N        1.9780    -3.2610     0.1220 N.ar  1 <1>  -0.6200 
  6 N        0.0750    -3.0150    -1.1700 N.pl3 1 <1>  -0.8690 
  7 N        3.0840    -1.4030     1.1090 N.ar  1 <1>  -0.6200 
  8 C        2.9250    -2.6900     0.8460 C.ar  1 <1>   0.4770 
  9 C       -0.1230    -4.4610    -1.4070 C.3   1 <1>   0.2090 
 10 C        3.9480    -3.6220     1.4500 C.3   1 <1>  -0.0970 
 11 C       -1.1770    -4.9770    -0.4300 C.3   1 <1>  -0.1600 
 12 C       -1.4440    -6.4750    -0.6390 C.3   1 <1>   0.0210 
 13 C       -2.5020    -7.0390     0.2960 C.2   1 <1>   0.0460 
 14 N       -2.8440    -8.3630     0.0900 N.2   1 <1>  -0.5650 
 15 C       -3.1370    -6.3970     1.2920 C.2   1 <1>  -0.1100 
 16 C       -3.7390    -8.7430     0.9210 C.2   1 <1>   0.4620 
 17 S       -4.2520    -7.5020     2.0480 S.3   1 <1>  -0.0800 
 18 N       -4.3010    -9.9730     0.9990 N.pl3 1 <1>  -0.8840 
 19 H        2.2610     0.4560     0.7570 H     1 <1>   0.1500 
 20 H       -0.6640    -2.3960    -1.5170 H     1 <1>   0.4000 
 21 H        0.8040    -4.9930    -1.2680 H     1 <1>   0.0800 
 22 H       -0.4460    -4.6120    -2.4230 H     1 <1>   0.0800 
 23 H        4.1310    -4.4470     0.7860 H     1 <1>   0.0800 
 24 H        3.5770    -3.9970     2.3840 H     1 <1>   0.0800 
 25 H        4.8720    -3.1010     1.6200 H     1 <1>   0.0800 
 26 H       -2.0910    -4.4300    -0.5740 H     1 <1>   0.0800 
 27 H       -0.8250    -4.8160     0.5740 H     1 <1>   0.0800 
 28 H       -0.5330    -7.0290    -0.4890 H     1 <1>   0.0800 
 29 H       -1.7690    -6.6430    -1.6500 H     1 <1>   0.0800 
 30 H       -3.0830    -5.3970     1.6790 H     1 <1>   0.1500 
 31 H       -5.0030   -10.2120     1.6990 H     1 <1>   0.4000 
 32 H       -3.9990   -10.7020     0.3530 H     1 <1>   0.4000 
@<TRIPOS>BOND
  1   1   2  1   
  2   2   3  ar  
  3   2   4  ar  
  4   3   5  ar  
  5   3   6  1   
  6   4   7  ar  
  7   4  19  1   
  8   5   8  ar  
  9   6   9  1   
 10   6  20  1   
 11   7   8  ar  
 12   8  10  1   
 13   9  11  1   
 14   9  21  1   
 15   9  22  1   
 16  10  23  1   
 17  10  24  1   
 18  10  25  1   
 19  11  12  1   
 20  11  26  1   
 21  11  27  1   
 22  12  13  1   
 23  12  28  1   
 24  12  29  1   
 25  13  14  1   
 26  13  15  2   
 27  14  16  2   
 28  15  17  1   
 29  15  30  1   
 30  16  17  1   
 31  16  18  1   
 32  18  31  1   
 33  18  32  1   
@<TRIPOS>SUBSTRUCTURE
  1 ****  11 GROUP 4 **** **** 0

# MOE 2024.06 (io_trps.svl 2023.06)
