@<TRIPOS>MOLECULE
NONAME
53 55 1 0 0 
SMALL
USER_CHARGES


@<TRIPOS>ATOM
  1 F       -0.2380     1.2450     0.3950 F     1 <1>  -0.1900 
  2 C       -1.5440     1.3270     0.3870 C.ar  1 <1>   0.1900 
  3 C       -2.2250     2.2650    -0.3970 C.ar  1 <1>   0.0830 
  4 C       -2.2210     0.4370     1.1990 C.ar  1 <1>  -0.1500 
  5 O       -1.6730     3.1910    -1.2340 O.3   1 <1>  -0.3630 
  6 C       -3.6080     2.2740    -0.3330 C.ar  1 <1>  -0.1500 
  7 C       -3.6020     0.4740     1.2400 C.ar  1 <1>  -0.1500 
  8 C       -0.2850     3.2950    -1.4590 C.3   1 <1>   0.0400 
  9 C       -4.3260     1.3880     0.4730 C.ar  1 <1>   0.0530 
 10 C       -5.7660     1.4410     0.5130 C.2   1 <1>   0.0870 
 11 O       -6.3610     2.6080     0.5290 O.3   1 <1>  -0.0190 
 12 C       -6.7460     0.4950     0.5480 C.2   1 <1>  -0.0860 
 13 N       -7.6610     2.5200     0.5820 N.2   1 <1>  -0.4100 
 14 C       -7.9210     1.2600     0.5950 C.2   1 <1>   0.3720 
 15 C       -6.6720    -0.9360     0.5210 C.2   1 <1>   0.7160 
 16 N       -9.2330     0.7610     0.6360 N.pl3 1 <1>  -0.8210 
 17 O       -5.6360    -1.5160     0.2580 O.2   1 <1>  -0.5700 
 18 N       -7.7790    -1.6770     0.7900 N.am  1 <1>  -0.7300 
 19 C       -9.9770     1.0200    -0.6270 C.3   1 <1>   0.1290 
 20 C      -10.0010     1.2380     1.8200 C.3   1 <1>   0.1290 
 21 C       -7.9430    -3.1380     0.6060 C.3   1 <1>   0.1400 
 22 C       -9.1660    -3.4490    -0.2830 C.3   1 <1>   0.0000 
 23 C       -9.4140    -4.9600    -0.3660 C.3   1 <1>  -0.1600 
 24 C      -10.4760    -2.9300     0.3250 C.3   1 <1>  -0.1600 
 25 C       -8.9650    -2.8750    -1.7020 C.3   1 <1>  -0.2400 
 26 C      -10.9060    -5.1290    -0.6700 C.3   1 <1>  -0.1600 
 27 C      -11.5850    -3.8280    -0.2300 C.3   1 <1>  -0.1600 
 28 H       -1.6720    -0.2740     1.7900 H     1 <1>   0.1500 
 29 H       -4.1430     2.9900    -0.9300 H     1 <1>   0.1500 
 30 H       -4.1280    -0.2180     1.8740 H     1 <1>   0.1500 
 31 H       -0.1200     4.0800    -2.1740 H     1 <1>   0.0800 
 32 H        0.0770     2.3610    -1.8530 H     1 <1>   0.0800 
 33 H        0.2030     3.5390    -0.5320 H     1 <1>   0.0800 
 34 H       -8.6480    -1.1290     0.8700 H     1 <1>   0.3700 
 35 H       -9.4000     0.6750    -1.4680 H     1 <1>   0.0800 
 36 H      -10.1560     2.0760    -0.7420 H     1 <1>   0.0800 
 37 H      -10.9180     0.5000    -0.6160 H     1 <1>   0.0800 
 38 H       -9.4180     1.0970     2.7140 H     1 <1>   0.0800 
 39 H      -10.9180     0.6820     1.9120 H     1 <1>   0.0800 
 40 H      -10.2290     2.2860     1.7190 H     1 <1>   0.0800 
 41 H       -8.0690    -3.5920     1.5730 H     1 <1>   0.0800 
 42 H       -7.0550    -3.5520     0.1580 H     1 <1>   0.0800 
 43 H       -9.2100    -5.4130     0.5890 H     1 <1>   0.0800 
 44 H       -8.7970    -5.4380    -1.1080 H     1 <1>   0.0800 
 45 H      -10.6510    -1.8930     0.1000 H     1 <1>   0.0800 
 46 H      -10.4450    -3.0470     1.3950 H     1 <1>   0.0800 
 47 H       -8.0630    -3.2660    -2.1360 H     1 <1>   0.0800 
 48 H       -8.8830    -1.8040    -1.6700 H     1 <1>   0.0800 
 49 H       -9.7880    -3.1280    -2.3460 H     1 <1>   0.0800 
 50 H      -11.3100    -5.9790    -0.1470 H     1 <1>   0.0800 
 51 H      -11.0510    -5.2730    -1.7270 H     1 <1>   0.0800 
 52 H      -12.0460    -3.3570    -1.0820 H     1 <1>   0.0800 
 53 H      -12.3400    -4.0110     0.5150 H     1 <1>   0.0800 
@<TRIPOS>BOND
  1   1   2  1   
  2   2   3  ar  
  3   2   4  ar  
  4   3   5  1   
  5   3   6  ar  
  6   4   7  ar  
  7   4  28  1   
  8   5   8  1   
  9   6   9  ar  
 10   6  29  1   
 11   7   9  ar  
 12   7  30  1   
 13   8  31  1   
 14   8  32  1   
 15   8  33  1   
 16   9  10  1   
 17  10  11  1   
 18  10  12  2   
 19  11  13  1   
 20  12  14  1   
 21  12  15  1   
 22  13  14  2   
 23  14  16  1   
 24  15  17  2   
 25  15  18  am  
 26  16  19  1   
 27  16  20  1   
 28  18  21  1   
 29  18  34  1   
 30  19  35  1   
 31  19  36  1   
 32  19  37  1   
 33  20  38  1   
 34  20  39  1   
 35  20  40  1   
 36  21  22  1   
 37  21  41  1   
 38  21  42  1   
 39  22  23  1   
 40  22  24  1   
 41  22  25  1   
 42  23  26  1   
 43  23  43  1   
 44  23  44  1   
 45  24  27  1   
 46  24  45  1   
 47  24  46  1   
 48  25  47  1   
 49  25  48  1   
 50  25  49  1   
 51  26  27  1   
 52  26  50  1   
 53  26  51  1   
 54  27  52  1   
 55  27  53  1   
@<TRIPOS>SUBSTRUCTURE
  1 ****  12 GROUP 4 **** **** 0

# MOE 2024.06 (io_trps.svl 2023.06)
