@<TRIPOS>MOLECULE
NONAME
52 54 1 0 0 
SMALL
USER_CHARGES


@<TRIPOS>ATOM
  1 O        3.2340     2.2630     1.5050 O.co2 1 <1>  -0.9000 
  2 C        2.6320     1.2230     1.2280 C.2   1 <1>   0.9060 
  3 O        2.5610     0.3000     2.0440 O.co2 1 <1>  -0.9000 
  4 C        2.3410     0.9100    -0.2550 C.3   1 <1>  -0.1060 
  5 C        3.2300    -0.3090    -0.5740 C.3   1 <1>   0.4230 
  6 C        2.7870     2.0750    -1.2020 C.3   1 <1>  -0.1600 
  7 C        0.8420     0.6110    -0.5190 C.3   1 <1>  -0.1600 
  8 N        2.7100    -1.5300     0.1470 N.4   1 <1>  -0.9590 
  9 C        4.7260     0.0460    -0.2450 C.3   1 <1>   0.3430 
 10 C        4.3080     2.2380    -1.3990 C.3   1 <1>   0.3430 
 11 C        0.3820    -0.7140     0.1060 C.3   1 <1>  -0.1600 
 12 C        1.3150    -1.8740    -0.2400 C.3   1 <1>   0.3430 
 13 C        3.5860    -2.7370     0.1560 C.3   1 <1>   0.2630 
 14 N        5.0360     1.5250    -0.3140 N.4   1 <1>  -0.9590 
 15 C        6.4720     1.8730    -0.1470 C.3   1 <1>   0.4860 
 16 C        6.6660     3.3760    -0.2030 C.ar  1 <1>  -0.1430 
 17 C        6.0480     4.2130     0.7180 C.ar  1 <1>   0.1600 
 18 C        7.4650     3.9350    -1.1830 C.ar  1 <1>  -0.1500 
 19 N        6.1600     5.5290     0.7280 N.ar  1 <1>  -0.6200 
 20 C        7.5900     5.3060    -1.1800 C.ar  1 <1>  -0.1500 
 21 C        6.9280     6.0540    -0.2190 C.ar  1 <1>   0.3930 
 22 O        7.0870     7.3920    -0.2710 O.3   1 <1>  -0.3620 
 23 C        6.4590     8.2310     0.6760 C.3   1 <1>   0.1200 
 24 C        6.8320     9.6760     0.3550 C.3   1 <1>  -0.2400 
 25 H        3.1640    -0.4970    -1.6320 H     1 <1>   0.0800 
 26 H        2.3980     3.0030    -0.8140 H     1 <1>   0.0800 
 27 H        2.3520     1.9580    -2.1790 H     1 <1>   0.0800 
 28 H        0.2410     1.4160    -0.1270 H     1 <1>   0.0800 
 29 H        0.6580     0.5580    -1.5780 H     1 <1>   0.0800 
 30 H        2.6140    -1.1710     1.1390 H     1 <1>   0.4500 
 31 H        5.3660    -0.4890    -0.9240 H     1 <1>   0.0800 
 32 H        4.9320    -0.2880     0.7590 H     1 <1>   0.0800 
 33 H        4.5470     3.2910    -1.3850 H     1 <1>   0.0800 
 34 H        4.6020     1.8400    -2.3560 H     1 <1>   0.0800 
 35 H       -0.6110    -0.9450    -0.2390 H     1 <1>   0.0800 
 36 H        0.3240    -0.6150     1.1770 H     1 <1>   0.0800 
 37 H        1.2650    -2.0800    -1.2970 H     1 <1>   0.0800 
 38 H        0.9910    -2.7530     0.2940 H     1 <1>   0.0800 
 39 H        3.7300    -3.1070    -0.8460 H     1 <1>   0.0800 
 40 H        3.1320    -3.5150     0.7490 H     1 <1>   0.0800 
 41 H        4.5450    -2.5060     0.5900 H     1 <1>   0.0800 
 42 H        4.5760     1.9370     0.5440 H     1 <1>   0.4500 
 43 H        6.8260     1.5080     0.8040 H     1 <1>   0.0800 
 44 H        7.0530     1.4110    -0.9270 H     1 <1>   0.0800 
 45 H        5.4190     3.7880     1.4880 H     1 <1>   0.1500 
 46 H        7.9770     3.3440    -1.9240 H     1 <1>   0.1500 
 47 H        8.1940     5.8140    -1.9080 H     1 <1>   0.1500 
 48 H        5.3950     8.0830     0.6080 H     1 <1>   0.0800 
 49 H        6.8030     7.9530     1.6580 H     1 <1>   0.0800 
 50 H        6.4910     9.9330    -0.6320 H     1 <1>   0.0800 
 51 H        7.8970     9.8050     0.4150 H     1 <1>   0.0800 
 52 H        6.3650    10.3360     1.0630 H     1 <1>   0.0800 
@<TRIPOS>BOND
  1   1   2  ar  
  2   2   3  ar  
  3   2   4  1   
  4   4   5  1   
  5   4   6  1   
  6   4   7  1   
  7   5   8  1   
  8   5   9  1   
  9   5  25  1   
 10   6  10  1   
 11   6  26  1   
 12   6  27  1   
 13   7  11  1   
 14   7  28  1   
 15   7  29  1   
 16   8  12  1   
 17   8  13  1   
 18   8  30  1   
 19   9  14  1   
 20   9  31  1   
 21   9  32  1   
 22  10  14  1   
 23  10  33  1   
 24  10  34  1   
 25  11  12  1   
 26  11  35  1   
 27  11  36  1   
 28  12  37  1   
 29  12  38  1   
 30  13  39  1   
 31  13  40  1   
 32  13  41  1   
 33  14  15  1   
 34  14  42  1   
 35  15  16  1   
 36  15  43  1   
 37  15  44  1   
 38  16  17  ar  
 39  16  18  ar  
 40  17  19  ar  
 41  17  45  1   
 42  18  20  ar  
 43  18  46  1   
 44  19  21  ar  
 45  20  21  ar  
 46  20  47  1   
 47  21  22  1   
 48  22  23  1   
 49  23  24  1   
 50  23  48  1   
 51  23  49  1   
 52  24  50  1   
 53  24  51  1   
 54  24  52  1   
@<TRIPOS>SUBSTRUCTURE
  1 ****  14 GROUP 4 **** **** 0

# MOE 2024.06 (io_trps.svl 2023.06)
