@<TRIPOS>MOLECULE
NONAME
46 47 1 0 0 
SMALL
USER_CHARGES


@<TRIPOS>ATOM
  1 S        0.2740     0.5070     2.4230 S.o2  1 <1>   1.3330 
  2 O        1.3470     1.4210     2.7450 O.2   1 <1>  -0.6500 
  3 O       -0.4760    -0.1170     3.4900 O.2   1 <1>  -0.6500 
  4 N       -0.8340     1.3130     1.4270 N.am  1 <1>  -0.8490 
  5 C        0.9320    -0.7780     1.3510 C.3   1 <1>  -0.0550 
  6 C       -2.1300     0.6160     1.3510 C.3   1 <1>   0.1960 
  7 C       -1.0190     2.7100     1.8240 C.3   1 <1>   0.1960 
  8 C        1.5930    -0.2520     0.0640 C.3   1 <1>  -0.1600 
  9 C       -3.0700     1.2390     0.2930 C.3   1 <1>   0.0000 
 10 C       -1.9040     3.4400     0.8070 C.3   1 <1>  -0.1600 
 11 C        2.1250    -1.4030    -0.7990 C.3   1 <1>  -0.1600 
 12 C       -4.3940     0.4470     0.2760 C.3   1 <1>   0.2000 
 13 C       -3.2570     2.7380     0.6200 C.3   1 <1>  -0.1600 
 14 C       -2.5190     1.0100    -1.1260 C.3   1 <1>  -0.1600 
 15 C        2.7790    -0.8710    -2.0770 C.3   1 <1>  -0.2400 
 16 O       -5.3880     1.2070    -0.3520 O.3   1 <1>  -0.5600 
 17 C       -4.1070    -0.7860    -0.5920 C.3   1 <1>  -0.1600 
 18 C       -2.9470    -0.4070    -1.5230 C.3   1 <1>  -0.1600 
 19 C       -6.6950     0.8780    -0.0020 C.3   1 <1>   0.0400 
 20 H        1.6570    -1.3430     1.9040 H     1 <1>   0.0800 
 21 H        0.1390    -1.4470     1.0820 H     1 <1>   0.0800 
 22 H       -1.9600    -0.4190     1.1130 H     1 <1>   0.0800 
 23 H       -2.6080     0.6530     2.3160 H     1 <1>   0.0800 
 24 H       -1.4630     2.7550     2.8060 H     1 <1>   0.0800 
 25 H       -0.0650     3.2090     1.8640 H     1 <1>   0.0800 
 26 H        0.8740     0.3170    -0.5000 H     1 <1>   0.0800 
 27 H        2.4020     0.4080     0.3280 H     1 <1>   0.0800 
 28 H       -2.0660     4.4490     1.1400 H     1 <1>   0.0800 
 29 H       -1.3830     3.4860    -0.1330 H     1 <1>   0.0800 
 30 H        2.8520    -1.9700    -0.2410 H     1 <1>   0.0800 
 31 H        1.3170    -2.0630    -1.0650 H     1 <1>   0.0800 
 32 H       -4.7200     0.1930     1.2710 H     1 <1>   0.0800 
 33 H       -3.8100     3.2280    -0.1630 H     1 <1>   0.0800 
 34 H       -3.8280     2.8300     1.5270 H     1 <1>   0.0800 
 35 H       -2.9870     1.7060    -1.8010 H     1 <1>   0.0800 
 36 H       -1.4530     1.1420    -1.1880 H     1 <1>   0.0800 
 37 H        3.6050    -0.2250    -1.8360 H     1 <1>   0.0800 
 38 H        2.0660    -0.3180    -2.6620 H     1 <1>   0.0800 
 39 H        3.1470    -1.6890    -2.6710 H     1 <1>   0.0800 
 40 H       -3.8000    -1.5990     0.0410 H     1 <1>   0.0800 
 41 H       -4.9730    -1.0960    -1.1490 H     1 <1>   0.0800 
 42 H       -2.1290    -1.0940    -1.3930 H     1 <1>   0.0800 
 43 H       -3.2570    -0.4270    -2.5540 H     1 <1>   0.0800 
 44 H       -7.3590     1.5030    -0.5710 H     1 <1>   0.0800 
 45 H       -6.8360     1.0610     1.0490 H     1 <1>   0.0800 
 46 H       -6.8820    -0.1550    -0.2350 H     1 <1>   0.0800 
@<TRIPOS>BOND
  1   1   2  2   
  2   1   3  2   
  3   1   4  am  
  4   1   5  1   
  5   4   6  1   
  6   4   7  1   
  7   5   8  1   
  8   5  20  1   
  9   5  21  1   
 10   6   9  1   
 11   6  22  1   
 12   6  23  1   
 13   7  10  1   
 14   7  24  1   
 15   7  25  1   
 16   8  11  1   
 17   8  26  1   
 18   8  27  1   
 19   9  12  1   
 20   9  13  1   
 21   9  14  1   
 22  10  13  1   
 23  10  28  1   
 24  10  29  1   
 25  11  15  1   
 26  11  30  1   
 27  11  31  1   
 28  12  16  1   
 29  12  17  1   
 30  12  32  1   
 31  13  33  1   
 32  13  34  1   
 33  14  18  1   
 34  14  35  1   
 35  14  36  1   
 36  15  37  1   
 37  15  38  1   
 38  15  39  1   
 39  16  19  1   
 40  17  18  1   
 41  17  40  1   
 42  17  41  1   
 43  18  42  1   
 44  18  43  1   
 45  19  44  1   
 46  19  45  1   
 47  19  46  1   
@<TRIPOS>SUBSTRUCTURE
  1 ****   6 GROUP 4 **** **** 0

# MOE 2024.06 (io_trps.svl 2023.06)
