@<TRIPOS>MOLECULE
NONAME
54 57 1 0 0 
SMALL
USER_CHARGES


@<TRIPOS>ATOM
  1 O       -1.1410     1.5570     2.9810 O.3   1 <1>  -0.5600 
  2 C        0.1110     1.4190     2.3820 C.3   1 <1>   0.1200 
  3 C       -2.1560     1.3770     2.0380 C.3   1 <1>   0.1200 
  4 C       -0.0850     1.8440     0.9310 C.3   1 <1>   0.2890 
  5 C       -1.4790     1.2890     0.6660 C.3   1 <1>  -0.0800 
  6 N       -0.0780     3.3280     0.8640 N.pl3 1 <1>  -0.8690 
  7 C       -2.2770     1.9630    -0.4660 C.3   1 <1>  -0.0170 
  8 C        0.5960     4.1860     0.0860 C.ar  1 <1>   0.4100 
  9 C       -3.6170     1.2710    -0.6690 C.ar  1 <1>  -0.1430 
 10 N        0.4830     5.4450     0.4350 N.ar  1 <1>  -0.6200 
 11 C        1.3670     3.7820    -1.0190 C.ar  1 <1>  -0.1500 
 12 C       -4.7910     1.7850    -0.1560 C.ar  1 <1>  -0.1500 
 13 C       -3.7280     0.0900    -1.3750 C.ar  1 <1>  -0.1500 
 14 C        1.1340     6.3580    -0.2750 C.ar  1 <1>   0.7710 
 15 C        2.0280     4.7250    -1.7330 C.ar  1 <1>   0.2180 
 16 C       -5.9830     1.1100    -0.3620 C.ar  1 <1>   0.1600 
 17 C       -4.9700    -0.5050    -1.5240 C.ar  1 <1>   0.1600 
 18 N        1.8930     6.0110    -1.3310 N.ar  1 <1>  -0.1790 
 19 N        1.0430     7.6720     0.0670 N.pl3 1 <1>  -0.8380 
 20 C        2.8970     4.4170    -2.9410 C.3   1 <1>  -0.0970 
 21 N       -6.1010    -0.0250    -1.0330 N.ar  1 <1>  -0.6200 
 22 C        1.5800     8.8470    -0.6880 C.3   1 <1>   0.2090 
 23 C        0.3740     8.1100     1.3380 C.3   1 <1>   0.2090 
 24 C        2.6510     9.5400     0.1590 C.3   1 <1>  -0.1600 
 25 C        1.4060     8.8050     2.2330 C.3   1 <1>  -0.1600 
 26 C        2.0860     9.9810     1.5170 C.3   1 <1>  -0.1600 
 27 H        0.8300     2.0280     2.9020 H     1 <1>   0.0800 
 28 H        0.3920     0.3820     2.4440 H     1 <1>   0.0800 
 29 H       -2.7010     0.4790     2.2750 H     1 <1>   0.0800 
 30 H       -2.8130     2.2270     2.1050 H     1 <1>   0.0800 
 31 H        0.6630     1.4150     0.2890 H     1 <1>   0.0800 
 32 H       -1.3780     0.2440     0.4300 H     1 <1>   0.0800 
 33 H       -0.5980     3.7410     1.6480 H     1 <1>   0.4000 
 34 H       -1.7140     1.9170    -1.3810 H     1 <1>   0.0800 
 35 H       -2.4440     3.0020    -0.2400 H     1 <1>   0.0800 
 36 H        1.4150     2.7420    -1.2730 H     1 <1>   0.1500 
 37 H       -4.7940     2.7030     0.4030 H     1 <1>   0.1500 
 38 H       -2.8640    -0.3750    -1.8110 H     1 <1>   0.1500 
 39 H       -6.8880     1.5260     0.0460 H     1 <1>   0.1500 
 40 H       -5.0380    -1.4260    -2.0780 H     1 <1>   0.1500 
 41 H        2.3730     6.7750    -1.7870 H     1 <1>   0.4570 
 42 H        2.9080     3.3590    -3.1360 H     1 <1>   0.0800 
 43 H        3.9100     4.7360    -2.7670 H     1 <1>   0.0800 
 44 H        2.5160     4.9150    -3.8150 H     1 <1>   0.0800 
 45 H        1.9930     8.5650    -1.6390 H     1 <1>   0.0800 
 46 H        0.7760     9.5390    -0.8790 H     1 <1>   0.0800 
 47 H       -0.4240     8.7940     1.1040 H     1 <1>   0.0800 
 48 H       -0.0580     7.2850     1.8800 H     1 <1>   0.0800 
 49 H        3.4780     8.8690     0.3120 H     1 <1>   0.0800 
 50 H        3.0210    10.4030    -0.3670 H     1 <1>   0.0800 
 51 H        0.9180     9.1600     3.1240 H     1 <1>   0.0800 
 52 H        2.1450     8.0830     2.5350 H     1 <1>   0.0800 
 53 H        1.3660    10.7670     1.3660 H     1 <1>   0.0800 
 54 H        2.8770    10.3740     2.1330 H     1 <1>   0.0800 
@<TRIPOS>BOND
  1   1   2  1   
  2   1   3  1   
  3   2   4  1   
  4   2  27  1   
  5   2  28  1   
  6   3   5  1   
  7   3  29  1   
  8   3  30  1   
  9   4   5  1   
 10   4   6  1   
 11   4  31  1   
 12   5   7  1   
 13   5  32  1   
 14   6   8  1   
 15   6  33  1   
 16   7   9  1   
 17   7  34  1   
 18   7  35  1   
 19   8  10  ar  
 20   8  11  ar  
 21   9  12  ar  
 22   9  13  ar  
 23  10  14  ar  
 24  11  15  ar  
 25  11  36  1   
 26  12  16  ar  
 27  12  37  1   
 28  13  17  ar  
 29  13  38  1   
 30  14  18  ar  
 31  14  19  1   
 32  15  18  ar  
 33  15  20  1   
 34  16  21  ar  
 35  16  39  1   
 36  17  21  ar  
 37  17  40  1   
 38  18  41  1   
 39  19  22  1   
 40  19  23  1   
 41  20  42  1   
 42  20  43  1   
 43  20  44  1   
 44  22  24  1   
 45  22  45  1   
 46  22  46  1   
 47  23  25  1   
 48  23  47  1   
 49  23  48  1   
 50  24  26  1   
 51  24  49  1   
 52  24  50  1   
 53  25  26  1   
 54  25  51  1   
 55  25  52  1   
 56  26  53  1   
 57  26  54  1   
@<TRIPOS>SUBSTRUCTURE
  1 ****   6 GROUP 4 **** **** 0

# MOE 2024.06 (io_trps.svl 2023.06)
