@<TRIPOS>MOLECULE
NONAME
42 44 1 0 0 
SMALL
USER_CHARGES


@<TRIPOS>ATOM
  1 S       -0.0950     0.2540     1.2960 S.3   1 <1>  -0.0800 
  2 C        1.1050    -0.8640     0.6320 C.2   1 <1>  -0.0450 
  3 C        0.7770     1.6550     0.7230 C.2   1 <1>  -0.1100 
  4 C        2.0870    -0.1360     0.0320 C.2   1 <1>  -0.1810 
  5 C        0.9160    -2.2840     0.8270 C.2   1 <1>   0.7150 
  6 C        1.8960     1.2770     0.0820 C.2   1 <1>  -0.1500 
  7 C        3.3220    -0.6970    -0.6530 C.3   1 <1>  -0.0590 
  8 O        1.8690    -2.9830     1.1250 O.2   1 <1>  -0.5700 
  9 N       -0.3080    -2.8940     0.6450 N.am  1 <1>  -0.6600 
 10 C       -1.3930    -2.3480    -0.2120 C.3   1 <1>   0.1400 
 11 C       -0.5280    -4.3450     0.8440 C.3   1 <1>   0.1400 
 12 C       -2.2810    -3.5430    -0.5930 C.3   1 <1>   0.2000 
 13 C       -1.3900    -4.7640    -0.3460 C.3   1 <1>  -0.0800 
 14 O       -3.3830    -3.6120     0.2670 O.3   1 <1>  -0.5600 
 15 C       -2.1490    -6.0850    -0.1210 C.3   1 <1>   0.0200 
 16 C       -4.4720    -2.8210    -0.0970 C.3   1 <1>   0.0400 
 17 C       -1.2320    -7.2950    -0.0530 C.2   1 <1>  -0.0400 
 18 O       -1.7510    -8.4610     0.2280 O.3   1 <1>  -0.0190 
 19 C        0.0880    -7.4700    -0.2310 C.2   1 <1>  -0.1500 
 20 N       -0.8530    -9.4030     0.2510 N.2   1 <1>  -0.4100 
 21 C        0.2660    -8.8350    -0.0210 C.2   1 <1>   0.1080 
 22 C        1.5910    -9.5580    -0.1000 C.3   1 <1>  -0.0590 
 23 H        0.3580     2.6230     0.9290 H     1 <1>   0.1500 
 24 H        2.6080     1.9510    -0.3620 H     1 <1>   0.1500 
 25 H        3.3730    -0.3420    -1.6670 H     1 <1>   0.0800 
 26 H        3.3030    -1.7710    -0.6690 H     1 <1>   0.0800 
 27 H        4.2040    -0.3800    -0.1270 H     1 <1>   0.0800 
 28 H       -1.9580    -1.6040     0.3210 H     1 <1>   0.0800 
 29 H       -0.9600    -1.9120    -1.0950 H     1 <1>   0.0800 
 30 H        0.3980    -4.8920     0.8820 H     1 <1>   0.0800 
 31 H       -1.0640    -4.4890     1.7670 H     1 <1>   0.0800 
 32 H       -2.6270    -3.4980    -1.6120 H     1 <1>   0.0800 
 33 H       -0.7430    -4.8760    -1.1980 H     1 <1>   0.0800 
 34 H       -2.8480    -6.2350    -0.9240 H     1 <1>   0.0800 
 35 H       -2.7120    -6.0300     0.7950 H     1 <1>   0.0800 
 36 H       -5.2410    -2.9540     0.6440 H     1 <1>   0.0800 
 37 H       -4.8380    -3.1400    -1.0570 H     1 <1>   0.0800 
 38 H       -4.1760    -1.7870    -0.1260 H     1 <1>   0.0800 
 39 H        0.8590    -6.7650    -0.4760 H     1 <1>   0.1500 
 40 H        2.2850    -9.1230     0.5960 H     1 <1>   0.0800 
 41 H        1.9890    -9.4820    -1.0950 H     1 <1>   0.0800 
 42 H        1.4570   -10.5960     0.1440 H     1 <1>   0.0800 
@<TRIPOS>BOND
  1   1   2  1   
  2   1   3  1   
  3   2   4  2   
  4   2   5  1   
  5   3   6  2   
  6   3  23  1   
  7   4   6  1   
  8   4   7  1   
  9   5   8  2   
 10   5   9  am  
 11   6  24  1   
 12   7  25  1   
 13   7  26  1   
 14   7  27  1   
 15   9  10  1   
 16   9  11  1   
 17  10  12  1   
 18  10  28  1   
 19  10  29  1   
 20  11  13  1   
 21  11  30  1   
 22  11  31  1   
 23  12  13  1   
 24  12  14  1   
 25  12  32  1   
 26  13  15  1   
 27  13  33  1   
 28  14  16  1   
 29  15  17  1   
 30  15  34  1   
 31  15  35  1   
 32  16  36  1   
 33  16  37  1   
 34  16  38  1   
 35  17  18  1   
 36  17  19  2   
 37  18  20  1   
 38  19  21  1   
 39  19  39  1   
 40  20  21  2   
 41  21  22  1   
 42  22  40  1   
 43  22  41  1   
 44  22  42  1   
@<TRIPOS>SUBSTRUCTURE
  1 ****  11 GROUP 4 **** **** 0

# MOE 2024.06 (io_trps.svl 2023.06)
