@<TRIPOS>MOLECULE
NONAME
44 46 1 0 0 
SMALL
USER_CHARGES


@<TRIPOS>ATOM
  1 S        0.2720    -0.0540     1.3940 S.o2  1 <1>   1.4470 
  2 O       -0.2330    -1.0530     2.3150 O.2   1 <1>  -0.6500 
  3 O        0.6770     1.2320     1.9200 O.2   1 <1>  -0.6500 
  4 N       -0.9790     0.2480     0.2890 N.am  1 <1>  -0.8490 
  5 C        1.5690    -0.7960     0.3630 C.ar  1 <1>  -0.0090 
  6 C       -2.2770     0.3870     0.9750 C.3   1 <1>   0.1960 
  7 C       -0.6730     1.3170    -0.6820 C.3   1 <1>   0.1960 
  8 C        2.5480    -0.0160    -0.2390 C.ar  1 <1>  -0.1500 
  9 C        1.5870    -2.1660     0.1190 C.ar  1 <1>  -0.1500 
 10 C       -3.3970     0.9120     0.0410 C.3   1 <1>   0.0000 
 11 C       -1.4960     2.5870    -0.4390 C.3   1 <1>  -0.1600 
 12 C        3.5280    -0.5430    -1.0840 C.ar  1 <1>  -0.1790 
 13 C        2.5520    -2.7290    -0.6940 C.ar  1 <1>  -0.1500 
 14 C       -4.7720     0.9270     0.7410 C.3   1 <1>   0.2000 
 15 C       -3.0130     2.3210    -0.4800 C.3   1 <1>  -0.1600 
 16 C       -3.6620    -0.0960    -1.0960 C.3   1 <1>  -0.1600 
 17 C        3.5070    -1.9240    -1.2850 C.ar  1 <1>   0.0820 
 18 C        4.5080     0.3160    -1.7320 C.2   1 <1>   0.9790 
 19 O       -4.7050     1.3300     2.0640 O.3   1 <1>  -0.6800 
 20 C       -5.3350    -0.4910     0.6470 C.3   1 <1>  -0.1600 
 21 C       -4.5610    -1.1760    -0.4870 C.3   1 <1>  -0.1600 
 22 O        4.4340    -2.4780    -2.0700 O.3   1 <1>  -0.5320 
 23 O        4.4370     1.5510    -1.6290 O.co2 1 <1>  -0.9000 
 24 O        5.4250    -0.1810    -2.4210 O.co2 1 <1>  -0.9000 
 25 H       -2.5570    -0.5690     1.3850 H     1 <1>   0.0800 
 26 H       -2.1610     1.0740     1.7980 H     1 <1>   0.0800 
 27 H        0.3740     1.5680    -0.6650 H     1 <1>   0.0800 
 28 H       -0.8910     0.9490    -1.6700 H     1 <1>   0.0800 
 29 H        2.5620     1.0470    -0.0570 H     1 <1>   0.1500 
 30 H        0.8380    -2.7940     0.5710 H     1 <1>   0.1500 
 31 H       -1.2210     2.9860     0.5230 H     1 <1>   0.0800 
 32 H       -1.2390     3.3270    -1.1750 H     1 <1>   0.0800 
 33 H        2.5730    -3.7880    -0.8800 H     1 <1>   0.1500 
 34 H       -5.4300     1.6060     0.2240 H     1 <1>   0.0800 
 35 H       -3.3730     2.4520    -1.4850 H     1 <1>   0.0800 
 36 H       -3.4900     3.0720     0.1260 H     1 <1>   0.0800 
 37 H       -4.2030     0.3840    -1.8920 H     1 <1>   0.0800 
 38 H       -2.7630    -0.5210    -1.5070 H     1 <1>   0.0800 
 39 H       -4.2760     0.6430     2.6070 H     1 <1>   0.4000 
 40 H       -5.1940    -1.0370     1.5640 H     1 <1>   0.0800 
 41 H       -6.3850    -0.4500     0.4160 H     1 <1>   0.0800 
 42 H       -3.9520    -1.9670    -0.0820 H     1 <1>   0.0800 
 43 H       -5.2230    -1.5940    -1.2260 H     1 <1>   0.0800 
 44 H        5.0390    -1.7340    -2.3920 H     1 <1>   0.4500 
@<TRIPOS>BOND
  1   1   2  2   
  2   1   3  2   
  3   1   4  am  
  4   1   5  1   
  5   4   6  1   
  6   4   7  1   
  7   5   8  ar  
  8   5   9  ar  
  9   6  10  1   
 10   6  25  1   
 11   6  26  1   
 12   7  11  1   
 13   7  27  1   
 14   7  28  1   
 15   8  12  ar  
 16   8  29  1   
 17   9  13  ar  
 18   9  30  1   
 19  10  14  1   
 20  10  15  1   
 21  10  16  1   
 22  11  15  1   
 23  11  31  1   
 24  11  32  1   
 25  12  17  ar  
 26  12  18  1   
 27  13  17  ar  
 28  13  33  1   
 29  14  19  1   
 30  14  20  1   
 31  14  34  1   
 32  15  35  1   
 33  15  36  1   
 34  16  21  1   
 35  16  37  1   
 36  16  38  1   
 37  17  22  1   
 38  18  23  ar  
 39  18  24  ar  
 40  19  39  1   
 41  20  21  1   
 42  20  40  1   
 43  20  41  1   
 44  21  42  1   
 45  21  43  1   
 46  22  44  1   
@<TRIPOS>SUBSTRUCTURE
  1 ****   4 GROUP 4 **** **** 0

# MOE 2024.06 (io_trps.svl 2023.06)
