@<TRIPOS>MOLECULE
NONAME
58 61 1 0 0 
SMALL
USER_CHARGES


@<TRIPOS>ATOM
  1 O        1.3840     1.8080    -1.3640 O.3   1 <1>  -0.0190 
  2 N        2.2540     0.8460    -1.4310 N.2   1 <1>  -0.4100 
  3 C        0.9410     1.9790    -0.1470 C.2   1 <1>  -0.0400 
  4 C        2.3570     0.3710    -0.2410 C.2   1 <1>   0.1080 
  5 C        1.5330     1.0680     0.6400 C.2   1 <1>  -0.1500 
  6 C       -0.0520     3.0870     0.1450 C.3   1 <1>   0.0200 
  7 C        3.2540    -0.7870     0.1370 C.3   1 <1>  -0.0590 
  8 C        0.4160     4.4060    -0.5020 C.3   1 <1>  -0.0800 
  9 C       -0.3640     5.6670    -0.1360 C.3   1 <1>   0.2000 
 10 C        1.8740     4.7530    -0.1760 C.3   1 <1>   0.3430 
 11 O       -0.5520     5.7220     1.2430 O.3   1 <1>  -0.6800 
 12 C        0.6180     6.7720    -0.5350 C.3   1 <1>   0.3430 
 13 N        1.9800     6.2460    -0.1910 N.4   1 <1>  -0.9590 
 14 C        2.4230     6.7550     1.1370 C.3   1 <1>   0.4860 
 15 C        2.6270     8.2550     1.0420 C.ar  1 <1>  -0.1440 
 16 C        3.7310     8.7810     0.3850 C.ar  1 <1>  -0.1500 
 17 C        1.7010     9.1150     1.6150 C.ar  1 <1>  -0.1500 
 18 C        3.9030    10.1510     0.2890 C.ar  1 <1>  -0.1500 
 19 C        1.8720    10.4840     1.5190 C.ar  1 <1>  -0.1500 
 20 C        2.9670    11.0120     0.8560 C.ar  1 <1>   0.0820 
 21 O        3.0560    12.3630     0.8080 O.3   1 <1>  -0.3620 
 22 C        4.1660    13.0090     0.2230 C.3   1 <1>   0.1200 
 23 C        3.9870    14.5170     0.3730 C.3   1 <1>  -0.0170 
 24 C        5.1700    15.2440    -0.2460 C.ar  1 <1>  -0.1440 
 25 C        5.1340    15.6370    -1.5750 C.ar  1 <1>  -0.1500 
 26 C        6.2980    15.5150     0.5130 C.ar  1 <1>  -0.1500 
 27 C        6.2140    16.2930    -2.1400 C.ar  1 <1>  -0.1500 
 28 C        7.3790    16.1710    -0.0510 C.ar  1 <1>  -0.1500 
 29 C        7.3380    16.5600    -1.3780 C.ar  1 <1>  -0.1500 
 30 H        1.4300     0.8820     1.6930 H     1 <1>   0.1500 
 31 H       -1.0130     2.8100    -0.2510 H     1 <1>   0.0800 
 32 H       -0.1440     3.1860     1.2120 H     1 <1>   0.0800 
 33 H        3.9280    -0.4910     0.9190 H     1 <1>   0.0800 
 34 H        3.8270    -1.1020    -0.7160 H     1 <1>   0.0800 
 35 H        2.6570    -1.6140     0.4770 H     1 <1>   0.0800 
 36 H        0.3570     4.2830    -1.5710 H     1 <1>   0.0800 
 37 H       -1.3170     5.7590    -0.6310 H     1 <1>   0.0800 
 38 H        2.5390     4.3020    -0.8970 H     1 <1>   0.0800 
 39 H        2.1190     4.3760     0.8040 H     1 <1>   0.0800 
 40 H       -1.3940     5.2910     1.5030 H     1 <1>   0.4000 
 41 H        0.3900     7.6970    -0.0340 H     1 <1>   0.0800 
 42 H        0.5540     6.9270    -1.5990 H     1 <1>   0.0800 
 43 H        2.6590     6.5700    -0.8900 H     1 <1>   0.4500 
 44 H        1.6800     6.5320     1.8860 H     1 <1>   0.0800 
 45 H        3.3510     6.2880     1.4250 H     1 <1>   0.0800 
 46 H        4.4730     8.1360    -0.0550 H     1 <1>   0.1500 
 47 H        0.8420     8.7330     2.1420 H     1 <1>   0.1500 
 48 H        4.7660    10.5320    -0.2250 H     1 <1>   0.1500 
 49 H        1.1580    11.1580     1.9600 H     1 <1>   0.1500 
 50 H        5.0570    12.6850     0.7320 H     1 <1>   0.0800 
 51 H        4.2120    12.7380    -0.8170 H     1 <1>   0.0800 
 52 H        3.0780    14.8220    -0.1150 H     1 <1>   0.0800 
 53 H        3.9130    14.7690     1.4160 H     1 <1>   0.0800 
 54 H        4.2650    15.4350    -2.1770 H     1 <1>   0.1500 
 55 H        6.3410    15.2170     1.5460 H     1 <1>   0.1500 
 56 H        6.1800    16.5960    -3.1720 H     1 <1>   0.1500 
 57 H        8.2520    16.3790     0.5430 H     1 <1>   0.1500 
 58 H        8.1780    17.0700    -1.8170 H     1 <1>   0.1500 
@<TRIPOS>BOND
  1   1   2  1   
  2   1   3  1   
  3   2   4  2   
  4   3   5  2   
  5   3   6  1   
  6   4   5  1   
  7   4   7  1   
  8   5  30  1   
  9   6   8  1   
 10   6  31  1   
 11   6  32  1   
 12   7  33  1   
 13   7  34  1   
 14   7  35  1   
 15   8   9  1   
 16   8  10  1   
 17   8  36  1   
 18   9  11  1   
 19   9  12  1   
 20   9  37  1   
 21  10  13  1   
 22  10  38  1   
 23  10  39  1   
 24  11  40  1   
 25  12  13  1   
 26  12  41  1   
 27  12  42  1   
 28  13  14  1   
 29  13  43  1   
 30  14  15  1   
 31  14  44  1   
 32  14  45  1   
 33  15  16  ar  
 34  15  17  ar  
 35  16  18  ar  
 36  16  46  1   
 37  17  19  ar  
 38  17  47  1   
 39  18  20  ar  
 40  18  48  1   
 41  19  20  ar  
 42  19  49  1   
 43  20  21  1   
 44  21  22  1   
 45  22  23  1   
 46  22  50  1   
 47  22  51  1   
 48  23  24  1   
 49  23  52  1   
 50  23  53  1   
 51  24  25  ar  
 52  24  26  ar  
 53  25  27  ar  
 54  25  54  1   
 55  26  28  ar  
 56  26  55  1   
 57  27  29  ar  
 58  27  56  1   
 59  28  29  ar  
 60  28  57  1   
 61  29  58  1   
@<TRIPOS>SUBSTRUCTURE
  1 ****  16 GROUP 4 **** **** 0

# MOE 2024.06 (io_trps.svl 2023.06)
