@<TRIPOS>MOLECULE
NONAME
44 46 1 0 0 
SMALL
USER_CHARGES


@<TRIPOS>ATOM
  1 F       -0.3100     0.5960    -1.5650 F     1 <1>  -0.1900 
  2 C       -1.2510     1.2160    -0.9040 C.ar  1 <1>   0.1900 
  3 C       -0.9350     2.3340    -0.1500 C.ar  1 <1>  -0.1440 
  4 C       -2.5360     0.7170    -0.9940 C.ar  1 <1>  -0.1500 
  5 C       -1.9650     2.9600     0.5350 C.ar  1 <1>  -0.1500 
  6 C        0.4820     2.8730    -0.0580 C.3   1 <1>   0.3530 
  7 C       -3.5670     1.3480    -0.3030 C.ar  1 <1>  -0.1440 
  8 C       -3.2620     2.4750     0.4590 C.ar  1 <1>  -0.1500 
  9 N        0.4950     4.2540    -0.5850 N.pl3 1 <1>  -0.8690 
 10 C       -5.0080     0.8240    -0.3860 C.3   1 <1>   1.1640 
 11 C        1.5830     5.0730    -0.4780 C.ar  1 <1>   0.4100 
 12 F       -5.6940     1.0290     0.7320 F     1 <1>  -0.3400 
 13 F       -5.6920     1.4110    -1.3570 F     1 <1>  -0.3400 
 14 F       -5.0680    -0.4820    -0.6220 F     1 <1>  -0.3400 
 15 N        2.5700     4.6750     0.3140 N.ar  1 <1>  -0.6200 
 16 C        1.6220     6.2690    -1.1890 C.ar  1 <1>  -0.1500 
 17 C        3.6130     5.4830     0.3970 C.ar  1 <1>   0.1600 
 18 C        2.7110     7.0990    -1.0850 C.ar  1 <1>  -0.1500 
 19 C        3.7540     6.7080    -0.2500 C.ar  1 <1>   0.0860 
 20 C        4.9430     7.5000    -0.0560 C.2   1 <1>   0.5440 
 21 O        6.0310     6.9690    -0.1780 O.2   1 <1>  -0.5700 
 22 N        4.8970     8.8390     0.2730 N.am  1 <1>  -0.6600 
 23 C        3.7240     9.5260     0.8930 C.3   1 <1>   0.1400 
 24 C        6.1220     9.6940     0.2480 C.3   1 <1>   0.1400 
 25 C        3.5330    10.9240     0.2790 C.3   1 <1>   0.1200 
 26 C        5.7990    11.0870    -0.3180 C.3   1 <1>   0.1200 
 27 O        4.7170    11.6650     0.3600 O.3   1 <1>  -0.5600 
 28 H       -2.7160    -0.1540    -1.6000 H     1 <1>   0.1500 
 29 H       -1.7540     3.8340     1.1310 H     1 <1>   0.1500 
 30 H        1.1750     2.2710    -0.6220 H     1 <1>   0.0800 
 31 H        0.8000     2.8750     0.9720 H     1 <1>   0.0800 
 32 H       -4.0380     2.9890     1.0030 H     1 <1>   0.1500 
 33 H       -0.1390     4.3930    -1.3720 H     1 <1>   0.4000 
 34 H        0.7910     6.5290    -1.8170 H     1 <1>   0.1500 
 35 H        4.4260     5.1620     1.0260 H     1 <1>   0.1500 
 36 H        2.7700     8.0240    -1.6310 H     1 <1>   0.1500 
 37 H        3.9010     9.6340     1.9490 H     1 <1>   0.0800 
 38 H        2.8250     8.9520     0.7690 H     1 <1>   0.0800 
 39 H        6.8860     9.2370    -0.3560 H     1 <1>   0.0800 
 40 H        6.5040     9.7940     1.2480 H     1 <1>   0.0800 
 41 H        2.7730    11.4640     0.8160 H     1 <1>   0.0800 
 42 H        3.2420    10.8500    -0.7540 H     1 <1>   0.0800 
 43 H        5.5550    11.0210    -1.3640 H     1 <1>   0.0800 
 44 H        6.6460    11.7390    -0.2020 H     1 <1>   0.0800 
@<TRIPOS>BOND
  1   1   2  1   
  2   2   3  ar  
  3   2   4  ar  
  4   3   5  ar  
  5   3   6  1   
  6   4   7  ar  
  7   4  28  1   
  8   5   8  ar  
  9   5  29  1   
 10   6   9  1   
 11   6  30  1   
 12   6  31  1   
 13   7   8  ar  
 14   7  10  1   
 15   8  32  1   
 16   9  11  1   
 17   9  33  1   
 18  10  12  1   
 19  10  13  1   
 20  10  14  1   
 21  11  15  ar  
 22  11  16  ar  
 23  15  17  ar  
 24  16  18  ar  
 25  16  34  1   
 26  17  19  ar  
 27  17  35  1   
 28  18  19  ar  
 29  18  36  1   
 30  19  20  1   
 31  20  21  2   
 32  20  22  am  
 33  22  23  1   
 34  22  24  1   
 35  23  25  1   
 36  23  37  1   
 37  23  38  1   
 38  24  26  1   
 39  24  39  1   
 40  24  40  1   
 41  25  27  1   
 42  25  41  1   
 43  25  42  1   
 44  26  27  1   
 45  26  43  1   
 46  26  44  1   
@<TRIPOS>SUBSTRUCTURE
  1 ****   9 GROUP 4 **** **** 0

# MOE 2024.06 (io_trps.svl 2023.06)
