@<TRIPOS>MOLECULE
NONAME
41 42 1 0 0 
SMALL
USER_CHARGES


@<TRIPOS>ATOM
  1 O        0.9050     0.4050     0.9290 O.3   1 <1>  -0.3630 
  2 C        2.1620     0.9010     0.8180 C.ar  1 <1>   0.0830 
  3 C        0.2870    -0.2670    -0.1440 C.3   1 <1>   0.1200 
  4 C        2.9500     0.7730    -0.3210 C.ar  1 <1>  -0.1500 
  5 C        2.6670     1.5720     1.9190 C.ar  1 <1>  -0.1500 
  6 C       -1.1180    -0.6790     0.2960 C.3   1 <1>  -0.1600 
  7 C        4.2240     1.3130    -0.3460 C.ar  1 <1>  -0.1500 
  8 C        3.9410     2.1110     1.8920 C.ar  1 <1>  -0.1500 
  9 C       -1.8600    -1.4190    -0.8240 C.3   1 <1>  -0.2400 
 10 C        4.7330     1.9860     0.7590 C.ar  1 <1>  -0.1430 
 11 C        6.1330     2.5900     0.7410 C.3   1 <1>   0.4330 
 12 N        6.2090     3.5340    -0.3750 N.pl3 1 <1>  -0.8690 
 13 C        7.2040     1.5220     0.5490 C.3   1 <1>  -0.2400 
 14 C        6.6110     4.8170    -0.1910 C.ar  1 <1>   0.4100 
 15 N        5.7890     5.7240    -0.6570 N.ar  1 <1>  -0.6200 
 16 C        7.7920     5.1630     0.4360 C.ar  1 <1>  -0.1500 
 17 C        6.1560     6.9770    -0.4740 C.ar  1 <1>   0.4770 
 18 C        8.0700     6.4950     0.5670 C.ar  1 <1>   0.1600 
 19 N        7.2520     7.4260     0.1160 N.ar  1 <1>  -0.6200 
 20 C        5.2160     8.0300    -1.0080 C.3   1 <1>  -0.0970 
 21 H        0.8790    -1.1310    -0.3890 H     1 <1>   0.0800 
 22 H        0.2400     0.4060    -0.9840 H     1 <1>   0.0800 
 23 H        2.5930     0.2610    -1.1930 H     1 <1>   0.1500 
 24 H        2.0530     1.6690     2.7960 H     1 <1>   0.1500 
 25 H       -1.6740     0.2000     0.5690 H     1 <1>   0.0800 
 26 H       -1.0440    -1.3210     1.1570 H     1 <1>   0.0800 
 27 H        4.8230     1.2090    -1.2350 H     1 <1>   0.1500 
 28 H        4.3070     2.6320     2.7590 H     1 <1>   0.1500 
 29 H       -1.9600    -0.7890    -1.6900 H     1 <1>   0.0800 
 30 H       -2.8440    -1.6970    -0.4890 H     1 <1>   0.0800 
 31 H       -1.3290    -2.3120    -1.1020 H     1 <1>   0.0800 
 32 H        6.3110     3.1110     1.6670 H     1 <1>   0.0800 
 33 H        5.3280     3.5130    -0.8940 H     1 <1>   0.4000 
 34 H        7.0770     1.0230    -0.3940 H     1 <1>   0.0800 
 35 H        7.1310     0.7930     1.3360 H     1 <1>   0.0800 
 36 H        8.1810     1.9670     0.5820 H     1 <1>   0.0800 
 37 H        8.4600     4.4080     0.7960 H     1 <1>   0.1500 
 38 H        8.9780     6.8170     1.0470 H     1 <1>   0.1500 
 39 H        4.2150     7.6430    -1.0590 H     1 <1>   0.0800 
 40 H        5.5320     8.3210    -1.9910 H     1 <1>   0.0800 
 41 H        5.2240     8.8900    -0.3640 H     1 <1>   0.0800 
@<TRIPOS>BOND
  1   1   2  1   
  2   1   3  1   
  3   2   4  ar  
  4   2   5  ar  
  5   3   6  1   
  6   3  21  1   
  7   3  22  1   
  8   4   7  ar  
  9   4  23  1   
 10   5   8  ar  
 11   5  24  1   
 12   6   9  1   
 13   6  25  1   
 14   6  26  1   
 15   7  10  ar  
 16   7  27  1   
 17   8  10  ar  
 18   8  28  1   
 19   9  29  1   
 20   9  30  1   
 21   9  31  1   
 22  10  11  1   
 23  11  12  1   
 24  11  13  1   
 25  11  32  1   
 26  12  14  1   
 27  12  33  1   
 28  13  34  1   
 29  13  35  1   
 30  13  36  1   
 31  14  15  ar  
 32  14  16  ar  
 33  15  17  ar  
 34  16  18  ar  
 35  16  37  1   
 36  17  19  ar  
 37  17  20  1   
 38  18  19  ar  
 39  18  38  1   
 40  20  39  1   
 41  20  40  1   
 42  20  41  1   
@<TRIPOS>SUBSTRUCTURE
  1 ****  10 GROUP 4 **** **** 0

# MOE 2024.06 (io_trps.svl 2023.06)
