@<TRIPOS>MOLECULE
NONAME
55 56 1 0 0 
SMALL
USER_CHARGES


@<TRIPOS>ATOM
  1 O        0.3800    -0.6490    -1.1920 O.2   1 <1>  -0.5700 
  2 C        1.2210    -1.0090    -0.4040 C.2   1 <1>   0.5690 
  3 N        2.0740    -0.1500     0.2330 N.am  1 <1>  -0.4940 
  4 C        1.3760    -2.5000    -0.1030 C.3   1 <1>  -0.0190 
  5 C        2.2530     1.2530     0.1310 C.2   1 <1>  -0.0880 
  6 C        2.2800    -3.1780    -1.1480 C.3   1 <1>  -0.1600 
  7 C        0.0210    -3.2320    -0.0310 C.3   1 <1>  -0.1600 
  8 N        1.3160     2.2080    -0.1370 N.pl3 1 <1>   0.3140 
  9 C        3.4250     1.9110     0.3020 C.2   1 <1>  -0.1810 
 10 C        2.4480    -4.6740    -0.8650 C.3   1 <1>   0.1400 
 11 C        0.2000    -4.7260     0.2490 C.3   1 <1>   0.1400 
 12 N        1.8630     3.4430    -0.1400 N.2   1 <1>  -0.7070 
 13 C       -0.1330     2.0620    -0.3200 C.3   1 <1>   0.0160 
 14 C        3.1180     3.2570     0.1150 C.2   1 <1>   0.1080 
 15 C        4.7910     1.3220     0.6190 C.3   1 <1>   0.0210 
 16 N        1.1120    -5.3240    -0.7680 N.am  1 <1>  -0.6600 
 17 C        4.0940     4.4180     0.1900 C.3   1 <1>   0.0210 
 18 C        5.5130     0.9320    -0.6720 C.3   1 <1>  -0.2400 
 19 C        0.8060    -6.4380    -1.5190 C.2   1 <1>   0.5690 
 20 C        4.2060     4.9560     1.6200 C.3   1 <1>  -0.2400 
 21 O        1.6170    -6.9380    -2.2660 O.2   1 <1>  -0.5700 
 22 C       -0.5740    -7.1050    -1.4510 C.3   1 <1>   0.1810 
 23 O       -0.8750    -7.6490    -0.1870 O.3   1 <1>  -0.5600 
 24 C       -0.0760    -8.7260     0.1790 C.3   1 <1>   0.1200 
 25 C       -0.5540    -9.2050     1.5440 C.3   1 <1>  -0.2400 
 26 H        2.7940    -0.6040     0.7910 H     1 <1>   0.3700 
 27 H        1.8460    -2.5960     0.8600 H     1 <1>   0.0800 
 28 H        3.2480    -2.7100    -1.1560 H     1 <1>   0.0800 
 29 H        1.8530    -3.0580    -2.1290 H     1 <1>   0.0800 
 30 H       -0.5080    -3.1180    -0.9620 H     1 <1>   0.0800 
 31 H       -0.5860    -2.7960     0.7430 H     1 <1>   0.0800 
 32 H        2.9740    -4.8200     0.0620 H     1 <1>   0.0800 
 33 H        3.0330    -5.1210    -1.6520 H     1 <1>   0.0800 
 34 H       -0.7630    -5.2020     0.2440 H     1 <1>   0.0800 
 35 H        0.6300    -4.8690     1.2260 H     1 <1>   0.0800 
 36 H       -0.4990     1.2870     0.3250 H     1 <1>   0.0800 
 37 H       -0.3310     1.8120    -1.3440 H     1 <1>   0.0800 
 38 H       -0.6140     2.9910    -0.0770 H     1 <1>   0.0800 
 39 H        4.6740     0.4550     1.2430 H     1 <1>   0.0800 
 40 H        5.3800     2.0370     1.1650 H     1 <1>   0.0800 
 41 H        3.7450     5.2000    -0.4600 H     1 <1>   0.0800 
 42 H        5.0580     4.1040    -0.1630 H     1 <1>   0.0800 
 43 H        4.9320     0.2080    -1.2160 H     1 <1>   0.0800 
 44 H        6.4760     0.5120    -0.4490 H     1 <1>   0.0800 
 45 H        5.6470     1.7980    -1.2960 H     1 <1>   0.0800 
 46 H        3.2400     5.2870     1.9580 H     1 <1>   0.0800 
 47 H        4.8880     5.7860     1.6530 H     1 <1>   0.0800 
 48 H        4.5570     4.1860     2.2840 H     1 <1>   0.0800 
 49 H       -0.6340    -7.8910    -2.1830 H     1 <1>   0.0800 
 50 H       -1.3270    -6.3760    -1.6790 H     1 <1>   0.0800 
 51 H        0.9510    -8.4050     0.2310 H     1 <1>   0.0800 
 52 H       -0.1810    -9.5060    -0.5570 H     1 <1>   0.0800 
 53 H       -0.4550    -8.4150     2.2670 H     1 <1>   0.0800 
 54 H        0.0410   -10.0410     1.8640 H     1 <1>   0.0800 
 55 H       -1.5820    -9.5150     1.4870 H     1 <1>   0.0800 
@<TRIPOS>BOND
  1   1   2  2   
  2   2   3  am  
  3   2   4  1   
  4   3   5  1   
  5   3  26  1   
  6   4   6  1   
  7   4   7  1   
  8   4  27  1   
  9   5   8  1   
 10   5   9  2   
 11   6  10  1   
 12   6  28  1   
 13   6  29  1   
 14   7  11  1   
 15   7  30  1   
 16   7  31  1   
 17   8  12  1   
 18   8  13  1   
 19   9  14  1   
 20   9  15  1   
 21  10  16  1   
 22  10  32  1   
 23  10  33  1   
 24  11  16  1   
 25  11  34  1   
 26  11  35  1   
 27  12  14  2   
 28  13  36  1   
 29  13  37  1   
 30  13  38  1   
 31  14  17  1   
 32  15  18  1   
 33  15  39  1   
 34  15  40  1   
 35  16  19  am  
 36  17  20  1   
 37  17  41  1   
 38  17  42  1   
 39  18  43  1   
 40  18  44  1   
 41  18  45  1   
 42  19  21  2   
 43  19  22  1   
 44  20  46  1   
 45  20  47  1   
 46  20  48  1   
 47  22  23  1   
 48  22  49  1   
 49  22  50  1   
 50  23  24  1   
 51  24  25  1   
 52  24  51  1   
 53  24  52  1   
 54  25  53  1   
 55  25  54  1   
 56  25  55  1   
@<TRIPOS>SUBSTRUCTURE
  1 ****   4 GROUP 4 **** **** 0

# MOE 2024.06 (io_trps.svl 2023.06)
