@<TRIPOS>MOLECULE
NONAME
41 42 1 0 0 
SMALL
USER_CHARGES


@<TRIPOS>ATOM
  1 S       -0.5460    -0.2700     0.0960 S.o2  1 <1>   1.0900 
  2 O       -1.3990     0.2590     1.1330 O.2   1 <1>  -0.6500 
  3 O       -0.4440     0.3450    -1.2080 O.2   1 <1>  -0.6500 
  4 C        1.0880    -0.5370     0.7040 C.3   1 <1>  -0.0550 
  5 C       -0.8250    -2.0020    -0.1240 C.3   1 <1>  -0.0550 
  6 C        1.6430    -1.6450    -0.1790 C.3   1 <1>   0.2000 
  7 C        0.4900    -2.5860    -0.6580 C.3   1 <1>   0.1900 
  8 O        2.2350    -1.0480    -1.2850 O.3   1 <1>  -0.6800 
  9 N        0.6800    -3.9980    -0.2240 N.3   1 <1>  -0.8100 
 10 C       -0.4640    -4.8750    -0.5930 C.3   1 <1>   0.1100 
 11 C        1.9150    -4.5590    -0.8200 C.3   1 <1>   0.0300 
 12 C       -0.4750    -6.1670     0.2280 C.3   1 <1>   0.1200 
 13 O       -1.6630    -6.8370    -0.0460 O.3   1 <1>  -0.5600 
 14 C       -1.8330    -8.0170     0.6770 C.3   1 <1>   0.2630 
 15 C       -3.1720    -8.6400     0.3110 C.ar  1 <1>  -0.1430 
 16 C       -4.3320    -7.8790     0.3400 C.ar  1 <1>  -0.1500 
 17 C       -3.2510    -9.9790    -0.0430 C.ar  1 <1>  -0.1500 
 18 C       -5.5530    -8.4470     0.0220 C.ar  1 <1>  -0.1500 
 19 C       -4.4720   -10.5490    -0.3610 C.ar  1 <1>  -0.1500 
 20 C       -5.6250    -9.7840    -0.3280 C.ar  1 <1>  -0.1500 
 21 H        1.6930     0.3480     0.6730 H     1 <1>   0.0800 
 22 H        1.0360    -0.8940     1.7150 H     1 <1>   0.0800 
 23 H       -1.0500    -2.4450     0.8270 H     1 <1>   0.0800 
 24 H       -1.6350    -2.1760    -0.8060 H     1 <1>   0.0800 
 25 H        2.4110    -2.1770     0.3540 H     1 <1>   0.0800 
 26 H        0.4540    -2.5590    -1.7360 H     1 <1>   0.0800 
 27 H        1.6010    -0.4520    -1.7470 H     1 <1>   0.4000 
 28 H       -1.4000    -4.3880    -0.3920 H     1 <1>   0.0800 
 29 H       -0.4300    -5.1120    -1.6430 H     1 <1>   0.0800 
 30 H        2.0680    -5.5710    -0.4920 H     1 <1>   0.0800 
 31 H        2.7840    -3.9990    -0.5270 H     1 <1>   0.0800 
 32 H        1.8510    -4.5500    -1.8960 H     1 <1>   0.0800 
 33 H       -0.4430    -5.9340     1.2780 H     1 <1>   0.0800 
 34 H        0.3470    -6.8060    -0.0430 H     1 <1>   0.0800 
 35 H       -1.0250    -8.6850     0.4360 H     1 <1>   0.0800 
 36 H       -1.8130    -7.7850     1.7280 H     1 <1>   0.0800 
 37 H       -4.2790    -6.8380     0.6070 H     1 <1>   0.1500 
 38 H       -2.3640   -10.5850    -0.0750 H     1 <1>   0.1500 
 39 H       -6.4460    -7.8480     0.0470 H     1 <1>   0.1500 
 40 H       -4.5260   -11.5880    -0.6360 H     1 <1>   0.1500 
 41 H       -6.5740   -10.2260    -0.5750 H     1 <1>   0.1500 
@<TRIPOS>BOND
  1   1   2  2   
  2   1   3  2   
  3   1   4  1   
  4   1   5  1   
  5   4   6  1   
  6   4  21  1   
  7   4  22  1   
  8   5   7  1   
  9   5  23  1   
 10   5  24  1   
 11   6   7  1   
 12   6   8  1   
 13   6  25  1   
 14   7   9  1   
 15   7  26  1   
 16   8  27  1   
 17   9  10  1   
 18   9  11  1   
 19  10  12  1   
 20  10  28  1   
 21  10  29  1   
 22  11  30  1   
 23  11  31  1   
 24  11  32  1   
 25  12  13  1   
 26  12  33  1   
 27  12  34  1   
 28  13  14  1   
 29  14  15  1   
 30  14  35  1   
 31  14  36  1   
 32  15  16  ar  
 33  15  17  ar  
 34  16  18  ar  
 35  16  37  1   
 36  17  19  ar  
 37  17  38  1   
 38  18  20  ar  
 39  18  39  1   
 40  19  20  ar  
 41  19  40  1   
 42  20  41  1   
@<TRIPOS>SUBSTRUCTURE
  1 ****  10 GROUP 4 **** **** 0

# MOE 2024.06 (io_trps.svl 2023.06)
