@<TRIPOS>MOLECULE
NONAME
52 55 1 0 0 
SMALL
USER_CHARGES


@<TRIPOS>ATOM
  1 O        3.1860    -0.4520     1.3080 O.2   1 <1>  -0.5700 
  2 C        3.3110    -1.2350     0.3800 C.2   1 <1>   0.7030 
  3 N        4.4470    -1.0840    -0.3830 N.am  1 <1>  -0.6600 
  4 C        2.3060    -2.2520     0.0810 C.2   1 <1>   0.2770 
  5 C        5.7820    -0.9970     0.3010 C.3   1 <1>   0.1400 
  6 C        4.3760    -0.4400    -1.7230 C.3   1 <1>   0.1400 
  7 N        1.0420    -2.4190     0.6610 N.pl3 1 <1>  -0.7640 
  8 C        2.4170    -3.2560    -0.8280 C.2   1 <1>   0.2000 
  9 C        6.2990     0.4440     0.4970 C.3   1 <1>   0.3430 
 10 C        3.9320     1.0260    -1.5980 C.3   1 <1>  -0.1600 
 11 C        0.4620    -3.4720     0.1000 C.cat 1 <1>   0.6500 
 12 C        0.4680    -1.5670     1.7450 C.3   1 <1>   0.2740 
 13 N        1.2690    -3.9970    -0.8080 N.pl3 1 <1>  -0.7000 
 14 N        5.1910     1.4580     0.5320 N.4   1 <1>  -0.9590 
 15 C        4.8870     1.9570    -0.8420 C.3   1 <1>   0.3430 
 16 C        5.4960     2.5730     1.5050 C.3   1 <1>   0.3430 
 17 C        6.5340     3.6190     1.0340 C.3   1 <1>   0.2000 
 18 O        7.6440     2.9690     0.4310 O.3   1 <1>  -0.3630 
 19 C        7.0170     4.5040     2.1950 C.3   1 <1>   0.1200 
 20 C        8.7620     3.7160     0.2360 C.ar  1 <1>   0.0820 
 21 O        7.9800     5.4230     1.7250 O.3   1 <1>  -0.3620 
 22 C        8.9220     4.9490     0.8720 C.ar  1 <1>   0.0820 
 23 C        9.7490     3.2430    -0.6130 C.ar  1 <1>  -0.1500 
 24 C       10.0560     5.7060     0.6390 C.ar  1 <1>  -0.1500 
 25 C       10.8860     4.0020    -0.8380 C.ar  1 <1>  -0.1500 
 26 C       11.0380     5.2310    -0.2160 C.ar  1 <1>  -0.1500 
 27 H        6.5120    -1.5610    -0.2550 H     1 <1>   0.0800 
 28 H        5.7070    -1.4590     1.2720 H     1 <1>   0.0800 
 29 H        3.6680    -0.9710    -2.3390 H     1 <1>   0.0800 
 30 H        5.3350    -0.4970    -2.2120 H     1 <1>   0.0800 
 31 H        3.2500    -3.4780    -1.4770 H     1 <1>   0.1500 
 32 H        6.9850     0.6900    -0.2970 H     1 <1>   0.0800 
 33 H        6.8610     0.4800     1.4160 H     1 <1>   0.0800 
 34 H        2.9550     1.0800    -1.1530 H     1 <1>   0.0800 
 35 H        3.8290     1.4210    -2.5940 H     1 <1>   0.0800 
 36 H       -0.5220    -3.8510     0.3470 H     1 <1>   0.1500 
 37 H        1.0950    -1.6150     2.6200 H     1 <1>   0.0800 
 38 H       -0.5200    -1.9040     2.0100 H     1 <1>   0.0800 
 39 H        0.4080    -0.5430     1.4180 H     1 <1>   0.0800 
 40 H        1.0670    -4.8220    -1.3850 H     1 <1>   0.4500 
 41 H        4.3550     0.9440     0.8800 H     1 <1>   0.4500 
 42 H        4.4230     2.9280    -0.7760 H     1 <1>   0.0800 
 43 H        5.8060     2.0740    -1.3950 H     1 <1>   0.0800 
 44 H        5.8440     2.1440     2.4300 H     1 <1>   0.0800 
 45 H        4.5820     3.0970     1.7320 H     1 <1>   0.0800 
 46 H        6.0890     4.2530     0.2880 H     1 <1>   0.0800 
 47 H        7.4740     3.9130     2.9680 H     1 <1>   0.0800 
 48 H        6.2060     5.0720     2.6160 H     1 <1>   0.0800 
 49 H        9.6340     2.2910    -1.0980 H     1 <1>   0.1500 
 50 H       10.1690     6.6570     1.1260 H     1 <1>   0.1500 
 51 H       11.6550     3.6380    -1.4980 H     1 <1>   0.1500 
 52 H       11.9220     5.8190    -0.3960 H     1 <1>   0.1500 
@<TRIPOS>BOND
  1   1   2  2   
  2   2   3  am  
  3   2   4  1   
  4   3   5  1   
  5   3   6  1   
  6   4   7  1   
  7   4   8  2   
  8   5   9  1   
  9   5  27  1   
 10   5  28  1   
 11   6  10  1   
 12   6  29  1   
 13   6  30  1   
 14   7  11  ar  
 15   7  12  1   
 16   8  13  1   
 17   8  31  1   
 18   9  14  1   
 19   9  32  1   
 20   9  33  1   
 21  10  15  1   
 22  10  34  1   
 23  10  35  1   
 24  11  13  ar  
 25  11  36  1   
 26  12  37  1   
 27  12  38  1   
 28  12  39  1   
 29  13  40  1   
 30  14  15  1   
 31  14  16  1   
 32  14  41  1   
 33  15  42  1   
 34  15  43  1   
 35  16  17  1   
 36  16  44  1   
 37  16  45  1   
 38  17  18  1   
 39  17  19  1   
 40  17  46  1   
 41  18  20  1   
 42  19  21  1   
 43  19  47  1   
 44  19  48  1   
 45  20  22  ar  
 46  20  23  ar  
 47  21  22  1   
 48  22  24  ar  
 49  23  25  ar  
 50  23  49  1   
 51  24  26  ar  
 52  24  50  1   
 53  25  26  ar  
 54  25  51  1   
 55  26  52  1   
@<TRIPOS>SUBSTRUCTURE
  1 ****  14 GROUP 4 **** **** 0

# MOE 2024.06 (io_trps.svl 2023.06)
