@<TRIPOS>MOLECULE
NONAME
49 51 1 0 0 
SMALL
USER_CHARGES


@<TRIPOS>ATOM
  1 O       -0.4600     0.7890    -1.2350 O.3   1 <1>  -0.5600 
  2 C       -0.3960     2.0250    -1.8670 C.3   1 <1>   0.1200 
  3 C       -1.7660     0.5830    -0.7810 C.3   1 <1>   0.1200 
  4 C       -1.2050     2.9150    -0.9300 C.3   1 <1>   0.4230 
  5 C       -2.3860     1.9840    -0.6520 C.3   1 <1>  -0.0800 
  6 N       -0.4070     3.1230     0.3080 N.4   1 <1>  -0.9060 
  7 C       -3.1690     2.2050     0.6600 C.3   1 <1>  -0.0170 
  8 C        0.6780     4.1110     0.1820 C.3   1 <1>   0.4230 
  9 C       -4.3650     1.2630     0.7340 C.ar  1 <1>  -0.1440 
 10 C        1.9060     3.5370     0.9030 C.3   1 <1>  -0.1600 
 11 C        0.2170     5.4520     0.7770 C.3   1 <1>  -0.1600 
 12 C       -5.5580     1.4890     0.0030 C.ar  1 <1>   0.0000 
 13 C       -4.3100     0.1470     1.5180 C.ar  1 <1>  -0.1500 
 14 C        3.1770     4.3770     0.7060 C.3   1 <1>  -0.2400 
 15 C       -1.0590     6.0370     0.1470 C.3   1 <1>  -0.2400 
 16 C       -6.5890     0.5240     0.1130 C.ar  1 <1>   0.3100 
 17 C       -5.7920     2.6130    -0.8250 C.ar  1 <1>  -0.1500 
 18 C       -5.3940    -0.7380     1.5660 C.ar  1 <1>   0.1600 
 19 N       -6.4890    -0.5780     0.8960 N.ar  1 <1>  -0.6200 
 20 C       -7.7740     0.7070    -0.6160 C.ar  1 <1>  -0.1500 
 21 C       -6.9620     2.7630    -1.5200 C.ar  1 <1>  -0.1500 
 22 C       -7.9650     1.7970    -1.4190 C.ar  1 <1>  -0.1500 
 23 H        0.6310     2.3230    -1.9810 H     1 <1>   0.0800 
 24 H       -0.8630     1.9370    -2.8350 H     1 <1>   0.0800 
 25 H       -2.2940    -0.0200    -1.5020 H     1 <1>   0.0800 
 26 H       -1.7150     0.0570     0.1570 H     1 <1>   0.0800 
 27 H       -1.5020     3.8480    -1.3810 H     1 <1>   0.0800 
 28 H       -3.0760     2.0890    -1.4710 H     1 <1>   0.0800 
 29 H       -1.0000     3.3860     1.0980 H     1 <1>   0.4500 
 30 H        0.0080     2.2010     0.5100 H     1 <1>   0.4500 
 31 H       -3.5120     3.2220     0.7340 H     1 <1>   0.0800 
 32 H       -2.5360     2.0190     1.5100 H     1 <1>   0.0800 
 33 H        0.9280     4.2490    -0.8590 H     1 <1>   0.0800 
 34 H        1.7110     3.4510     1.9590 H     1 <1>   0.0800 
 35 H        2.1120     2.5520     0.5180 H     1 <1>   0.0800 
 36 H        0.0800     5.3550     1.8400 H     1 <1>   0.0800 
 37 H        1.0030     6.1730     0.6310 H     1 <1>   0.0800 
 38 H       -3.4490    -0.0940     2.1140 H     1 <1>   0.1500 
 39 H        3.0890     5.3410     1.1760 H     1 <1>   0.0800 
 40 H        3.3870     4.5180    -0.3410 H     1 <1>   0.0800 
 41 H        4.0190     3.8740     1.1500 H     1 <1>   0.0800 
 42 H       -1.9240     5.4390     0.3650 H     1 <1>   0.0800 
 43 H       -0.9490     6.1340    -0.9200 H     1 <1>   0.0800 
 44 H       -1.2360     7.0220     0.5480 H     1 <1>   0.0800 
 45 H       -5.0450     3.3750    -0.9160 H     1 <1>   0.1500 
 46 H       -5.3110    -1.6070     2.1970 H     1 <1>   0.1500 
 47 H       -8.5350    -0.0460    -0.5180 H     1 <1>   0.1500 
 48 H       -7.1300     3.6210    -2.1490 H     1 <1>   0.1500 
 49 H       -8.8810     1.9240    -1.9710 H     1 <1>   0.1500 
@<TRIPOS>BOND
  1   1   2  1   
  2   1   3  1   
  3   2   4  1   
  4   2  23  1   
  5   2  24  1   
  6   3   5  1   
  7   3  25  1   
  8   3  26  1   
  9   4   5  1   
 10   4   6  1   
 11   4  27  1   
 12   5   7  1   
 13   5  28  1   
 14   6   8  1   
 15   6  29  1   
 16   6  30  1   
 17   7   9  1   
 18   7  31  1   
 19   7  32  1   
 20   8  10  1   
 21   8  11  1   
 22   8  33  1   
 23   9  12  ar  
 24   9  13  ar  
 25  10  14  1   
 26  10  34  1   
 27  10  35  1   
 28  11  15  1   
 29  11  36  1   
 30  11  37  1   
 31  12  16  ar  
 32  12  17  ar  
 33  13  18  ar  
 34  13  38  1   
 35  14  39  1   
 36  14  40  1   
 37  14  41  1   
 38  15  42  1   
 39  15  43  1   
 40  15  44  1   
 41  16  19  ar  
 42  16  20  ar  
 43  17  21  ar  
 44  17  45  1   
 45  18  19  ar  
 46  18  46  1   
 47  20  22  ar  
 48  20  47  1   
 49  21  22  ar  
 50  21  48  1   
 51  22  49  1   
@<TRIPOS>SUBSTRUCTURE
  1 ****   7 GROUP 4 **** **** 0

# MOE 2024.06 (io_trps.svl 2023.06)
