@<TRIPOS>MOLECULE
F1957-0547
24 25 1 0 0 
SMALL
USER_CHARGES


@<TRIPOS>ATOM
  1 O        0.0450    -0.4350    -0.8530 O.2   1 <1>  -0.5700 
  2 C       -0.0560    -1.6290    -0.5870 C.2   1 <1>   0.6160 
  3 N        1.1000    -2.3440    -0.4570 N.am  1 <1>  -0.5390 
  4 C       -1.3200    -2.3060    -0.3800 C.2   1 <1>   0.1140 
  5 C        1.1070    -3.6780    -0.1150 C.2   1 <1>  -0.0290 
  6 N       -2.5390    -1.6140    -0.5280 N.pl3 1 <1>  -0.8690 
  7 C       -1.3090    -3.6330    -0.0300 C.2   1 <1>  -0.1380 
  8 C       -0.0720    -4.3180     0.1000 C.2   1 <1>  -0.1500 
  9 C        2.4620    -4.3450     0.0010 C.3   1 <1>  -0.1020 
 10 C       -3.7680    -2.1660     0.0740 C.3   1 <1>   0.2090 
 11 C       -2.5940    -4.4040     0.2530 C.3   1 <1>  -0.0220 
 12 C       -3.8350    -3.6570    -0.2570 C.3   1 <1>  -0.1600 
 13 H        1.9530    -1.8130    -0.6240 H     1 <1>   0.3700 
 14 H       -2.4410    -0.5890    -0.5060 H     1 <1>   0.4000 
 15 H       -0.0960    -5.3580     0.3730 H     1 <1>   0.1500 
 16 H        3.0490    -3.8540     0.7560 H     1 <1>   0.0800 
 17 H        2.9800    -4.2900    -0.9390 H     1 <1>   0.0800 
 18 H        2.3510    -5.3800     0.2720 H     1 <1>   0.0800 
 19 H       -4.6260    -1.6590    -0.3340 H     1 <1>   0.0800 
 20 H       -3.7450    -2.0160     1.1400 H     1 <1>   0.0800 
 21 H       -2.6750    -4.5460     1.3160 H     1 <1>   0.0800 
 22 H       -2.5490    -5.3720    -0.2130 H     1 <1>   0.0800 
 23 H       -3.8990    -3.7620    -1.3260 H     1 <1>   0.0800 
 24 H       -4.7220    -4.0870     0.1720 H     1 <1>   0.0800 
@<TRIPOS>BOND
  1   1   2  2   
  2   2   3  am  
  3   2   4  1   
  4   3   5  1   
  5   3  13  1   
  6   4   6  1   
  7   4   7  2   
  8   5   8  2   
  9   5   9  1   
 10   6  10  1   
 11   6  14  1   
 12   7   8  1   
 13   7  11  1   
 14   8  15  1   
 15   9  16  1   
 16   9  17  1   
 17   9  18  1   
 18  10  12  1   
 19  10  19  1   
 20  10  20  1   
 21  11  12  1   
 22  11  21  1   
 23  11  22  1   
 24  12  23  1   
 25  12  24  1   
@<TRIPOS>SUBSTRUCTURE
  1 ****   4 GROUP 4 **** **** 0

# MOE 2024.06 (io_trps.svl 2023.06)
