@<TRIPOS>MOLECULE
NONAME
43 45 1 0 0 
SMALL
USER_CHARGES


@<TRIPOS>ATOM
  1 O       -0.5490     0.2060     0.1140 O.2   1 <1>  -0.5700 
  2 C       -1.5760     0.7940    -0.1950 C.2   1 <1>   0.7150 
  3 N       -2.7580     0.0980    -0.0240 N.am  1 <1>  -0.6600 
  4 C       -1.5090     2.1660    -0.6970 C.2   1 <1>   0.1010 
  5 C       -4.1220     0.6290    -0.2410 C.3   1 <1>   0.1400 
  6 C       -2.8080    -1.3050     0.4380 C.3   1 <1>   0.1400 
  7 N       -2.4340     2.7920    -1.4010 N.2   1 <1>  -0.5650 
  8 N       -0.4260     2.9800    -0.4840 N.pl3 1 <1>   0.0480 
  9 C       -5.0530    -0.3460     0.4930 C.3   1 <1>  -0.0800 
 10 C       -4.2900    -1.6850     0.4890 C.3   1 <1>  -0.0800 
 11 C       -1.9330     4.0080    -1.6360 C.2   1 <1>   0.0770 
 12 C       -0.7110     4.1440    -1.0840 C.2   1 <1>  -0.3020 
 13 C        0.8230     2.7110     0.2590 C.3   1 <1>   0.0160 
 14 C       -6.5230    -0.4220    -0.0250 C.3   1 <1>   0.2800 
 15 C       -4.7150    -2.5570    -0.7030 C.3   1 <1>  -0.1600 
 16 O       -6.5760    -0.1160    -1.3710 O.3   1 <1>  -0.6800 
 17 C       -7.0580    -1.8600     0.1140 C.3   1 <1>  -0.1600 
 18 C       -7.4670     0.5640     0.6990 C.3   1 <1>  -0.1600 
 19 C       -6.2130    -2.9090    -0.6410 C.3   1 <1>  -0.1600 
 20 C       -7.1010     2.0530     0.5700 C.3   1 <1>  -0.2400 
 21 H       -4.2130     1.6270     0.1470 H     1 <1>   0.0800 
 22 H       -4.3080     0.6430    -1.3010 H     1 <1>   0.0800 
 23 H       -2.2520    -1.9380    -0.2330 H     1 <1>   0.0800 
 24 H       -2.3720    -1.3630     1.4210 H     1 <1>   0.0800 
 25 H       -5.0850    -0.0290     1.5200 H     1 <1>   0.0800 
 26 H       -4.4830    -2.2320     1.3950 H     1 <1>   0.0800 
 27 H       -2.4840     4.7420    -2.2000 H     1 <1>   0.1500 
 28 H       -0.0510     4.9910    -1.0940 H     1 <1>   0.1500 
 29 H        1.4030     3.6110     0.3370 H     1 <1>   0.0800 
 30 H        1.3900     1.9620    -0.2640 H     1 <1>   0.0800 
 31 H        0.5820     2.3530     1.2430 H     1 <1>   0.0800 
 32 H       -4.5210    -2.0130    -1.6130 H     1 <1>   0.0800 
 33 H       -4.1320    -3.4610    -0.7340 H     1 <1>   0.0800 
 34 H       -7.4930    -0.1950    -1.6860 H     1 <1>   0.4000 
 35 H       -7.0520    -2.1130     1.1600 H     1 <1>   0.0800 
 36 H       -8.0810    -1.9170    -0.2130 H     1 <1>   0.0800 
 37 H       -8.4660     0.4250     0.3260 H     1 <1>   0.0800 
 38 H       -7.4890     0.3130     1.7450 H     1 <1>   0.0800 
 39 H       -6.3390    -3.8640    -0.1610 H     1 <1>   0.0800 
 40 H       -6.5780    -3.0050    -1.6490 H     1 <1>   0.0800 
 41 H       -7.0000     2.3350    -0.4640 H     1 <1>   0.0800 
 42 H       -6.1780     2.2670     1.0780 H     1 <1>   0.0800 
 43 H       -7.8720     2.6590     1.0130 H     1 <1>   0.0800 
@<TRIPOS>BOND
  1   1   2  2   
  2   2   3  am  
  3   2   4  1   
  4   3   5  1   
  5   3   6  1   
  6   4   7  2   
  7   4   8  1   
  8   5   9  1   
  9   5  21  1   
 10   5  22  1   
 11   6  10  1   
 12   6  23  1   
 13   6  24  1   
 14   7  11  1   
 15   8  12  1   
 16   8  13  1   
 17   9  10  1   
 18   9  14  1   
 19   9  25  1   
 20  10  15  1   
 21  10  26  1   
 22  11  12  2   
 23  11  27  1   
 24  12  28  1   
 25  13  29  1   
 26  13  30  1   
 27  13  31  1   
 28  14  16  1   
 29  14  17  1   
 30  14  18  1   
 31  15  19  1   
 32  15  32  1   
 33  15  33  1   
 34  16  34  1   
 35  17  19  1   
 36  17  35  1   
 37  17  36  1   
 38  18  20  1   
 39  18  37  1   
 40  18  38  1   
 41  19  39  1   
 42  19  40  1   
 43  20  41  1   
 44  20  42  1   
 45  20  43  1   
@<TRIPOS>SUBSTRUCTURE
  1 ****   5 GROUP 4 **** **** 0

# MOE 2024.06 (io_trps.svl 2023.06)
