@<TRIPOS>MOLECULE
NONAME
47 49 1 0 0 
SMALL
USER_CHARGES


@<TRIPOS>ATOM
  1 O       -0.4490     0.2080     0.0860 O.2   1 <1>  -0.5700 
  2 C       -1.4980     0.8020     0.1850 C.2   1 <1>   0.5690 
  3 N       -2.6830     0.1320     0.3450 N.am  1 <1>  -0.6600 
  4 C       -1.4850     2.3190     0.1180 C.3   1 <1>  -0.0990 
  5 C       -2.7310    -1.3610     0.4620 C.3   1 <1>   0.1400 
  6 C       -4.0470     0.7480     0.3410 C.3   1 <1>   0.1400 
  7 C       -0.0730     2.9000     0.1210 C.3   1 <1>   0.1200 
  8 C       -3.7240    -1.9650    -0.5480 C.3   1 <1>   0.3440 
  9 C       -4.9720     0.0340    -0.6730 C.3   1 <1>   0.2950 
 10 O       -0.1870     4.2840     0.0680 O.3   1 <1>  -0.5600 
 11 O       -4.9770    -1.3420    -0.4280 O.3   1 <1>  -0.5600 
 12 C       -3.8720    -3.4670    -0.3220 C.ar  1 <1>  -0.1440 
 13 C       -6.4400     0.4960    -0.6410 C.3   1 <1>  -0.1950 
 14 C        1.0330     4.9460     0.0600 C.3   1 <1>   0.1200 
 15 C       -4.8310    -3.9810     0.5420 C.ar  1 <1>  -0.1500 
 16 C       -3.0220    -4.3440    -0.9800 C.ar  1 <1>  -0.1500 
 17 C       -6.8680     1.8890    -0.2900 C.3   1 <1>  -0.2000 
 18 C       -7.2100     0.7410     0.6200 C.3   1 <1>  -0.2000 
 19 C        0.7430     6.4400     0.0000 C.3   1 <1>  -0.2400 
 20 C       -4.9380    -5.3460     0.7430 C.ar  1 <1>  -0.1500 
 21 C       -3.1270    -5.7100    -0.7800 C.ar  1 <1>  -0.1500 
 22 C       -4.0850    -6.2120     0.0820 C.ar  1 <1>  -0.1500 
 23 H       -1.9810     2.6270    -0.7820 H     1 <1>   0.0800 
 24 H       -2.0130     2.7060     0.9700 H     1 <1>   0.0800 
 25 H       -1.7590    -1.7900     0.2930 H     1 <1>   0.0800 
 26 H       -3.0370    -1.6290     1.4570 H     1 <1>   0.0800 
 27 H       -4.4660     0.6650     1.3270 H     1 <1>   0.0800 
 28 H       -3.9970     1.7890     0.0880 H     1 <1>   0.0800 
 29 H        0.4790     2.5600    -0.7400 H     1 <1>   0.0800 
 30 H        0.4490     2.6240     1.0220 H     1 <1>   0.0800 
 31 H       -3.3660    -1.7950    -1.5490 H     1 <1>   0.0800 
 32 H       -4.5880     0.1950    -1.6660 H     1 <1>   0.0800 
 33 H       -6.9860     0.0280    -1.4430 H     1 <1>   0.1000 
 34 H        1.5700     4.6990     0.9610 H     1 <1>   0.0800 
 35 H        1.5950     4.6320    -0.8040 H     1 <1>   0.0800 
 36 H       -5.5020    -3.3160     1.0590 H     1 <1>   0.1500 
 37 H       -2.2700    -3.9700    -1.6530 H     1 <1>   0.1500 
 38 H       -6.1620     2.6180     0.0670 H     1 <1>   0.1000 
 39 H       -7.6610     2.3420    -0.8620 H     1 <1>   0.1000 
 40 H       -8.2290     0.3950     0.6640 H     1 <1>   0.1000 
 41 H       -6.7140     0.6590     1.5710 H     1 <1>   0.1000 
 42 H        0.1710     6.7390     0.8600 H     1 <1>   0.0800 
 43 H        0.1950     6.6730    -0.8950 H     1 <1>   0.0800 
 44 H        1.6660     6.9910    -0.0080 H     1 <1>   0.0800 
 45 H       -5.6860    -5.7320     1.4130 H     1 <1>   0.1500 
 46 H       -2.4640    -6.3820    -1.2950 H     1 <1>   0.1500 
 47 H       -4.1680    -7.2730     0.2380 H     1 <1>   0.1500 
@<TRIPOS>BOND
  1   1   2  2   
  2   2   3  am  
  3   2   4  1   
  4   3   5  1   
  5   3   6  1   
  6   4   7  1   
  7   4  23  1   
  8   4  24  1   
  9   5   8  1   
 10   5  25  1   
 11   5  26  1   
 12   6   9  1   
 13   6  27  1   
 14   6  28  1   
 15   7  10  1   
 16   7  29  1   
 17   7  30  1   
 18   8  11  1   
 19   8  12  1   
 20   8  31  1   
 21   9  11  1   
 22   9  13  1   
 23   9  32  1   
 24  10  14  1   
 25  12  15  ar  
 26  12  16  ar  
 27  13  17  1   
 28  13  18  1   
 29  13  33  1   
 30  14  19  1   
 31  14  34  1   
 32  14  35  1   
 33  15  20  ar  
 34  15  36  1   
 35  16  21  ar  
 36  16  37  1   
 37  17  18  1   
 38  17  38  1   
 39  17  39  1   
 40  18  40  1   
 41  18  41  1   
 42  19  42  1   
 43  19  43  1   
 44  19  44  1   
 45  20  22  ar  
 46  20  45  1   
 47  21  22  ar  
 48  21  46  1   
 49  22  47  1   
@<TRIPOS>SUBSTRUCTURE
  1 ****   3 GROUP 4 **** **** 0

# MOE 2024.06 (io_trps.svl 2023.06)
