@<TRIPOS>MOLECULE
NONAME
46 48 1 0 0 
SMALL
USER_CHARGES


@<TRIPOS>ATOM
  1 S       -0.1970    -0.0490     0.1080 S.o2  1 <1>   1.3330 
  2 O       -0.1480    -0.7720     1.3590 O.2   1 <1>  -0.6500 
  3 O       -0.8630     1.2330     0.0530 O.2   1 <1>  -0.6500 
  4 N       -0.9020    -1.0670    -1.0520 N.am  1 <1>  -0.8490 
  5 C        1.4650     0.1730    -0.5280 C.3   1 <1>  -0.0550 
  6 C       -0.6330    -2.4910    -0.8190 C.3   1 <1>   0.1160 
  7 C       -2.3460    -0.8470    -1.1840 C.3   1 <1>   0.1160 
  8 C        2.3100     1.1660     0.2950 C.3   1 <1>  -0.0800 
  9 C        3.6180     1.4860    -0.4080 C.3   1 <1>   0.2200 
 10 C        2.7870     0.5620     1.6230 C.3   1 <1>   0.1200 
 11 N        4.0970     2.8090     0.0490 N.am  1 <1>  -0.7300 
 12 C        4.5360     0.3980     0.1310 C.3   1 <1>   0.1200 
 13 O        4.1130     0.1590     1.4390 O.3   1 <1>  -0.5600 
 14 C        4.2590     3.9090    -0.7430 C.2   1 <1>   0.5440 
 15 O        4.0390     3.7970    -1.9330 O.2   1 <1>  -0.5700 
 16 C        4.6970     5.1770    -0.1850 C.ar  1 <1>   0.0860 
 17 C        5.3230     6.1290    -0.9630 C.ar  1 <1>  -0.1500 
 18 C        4.4950     5.4920     1.1770 C.ar  1 <1>  -0.1500 
 19 C        5.7650     7.3620    -0.4490 C.ar  1 <1>   0.0000 
 20 C        4.9160     6.6830     1.7030 C.ar  1 <1>  -0.1500 
 21 C        5.5630     7.6490     0.9180 C.ar  1 <1>   0.3100 
 22 C        6.4060     8.3350    -1.2350 C.ar  1 <1>  -0.1500 
 23 N        5.9620     8.8090     1.4950 N.ar  1 <1>  -0.6200 
 24 C        6.7970     9.4930    -0.6350 C.ar  1 <1>  -0.1500 
 25 C        6.5510     9.6790     0.7330 C.ar  1 <1>   0.1600 
 26 H        1.9620    -0.7760    -0.5720 H     1 <1>   0.0800 
 27 H        1.3830     0.5480    -1.5300 H     1 <1>   0.0800 
 28 H       -1.0220    -3.0780    -1.6330 H     1 <1>   0.0800 
 29 H       -1.0940    -2.8160     0.0990 H     1 <1>   0.0800 
 30 H        0.4270    -2.6630    -0.7520 H     1 <1>   0.0800 
 31 H       -2.7560    -1.4980    -1.9370 H     1 <1>   0.0800 
 32 H       -2.5390     0.1710    -1.4790 H     1 <1>   0.0800 
 33 H       -2.8400    -1.0340    -0.2440 H     1 <1>   0.0800 
 34 H        1.7310     2.0600     0.4570 H     1 <1>   0.0800 
 35 H        3.5440     1.4580    -1.4830 H     1 <1>   0.0800 
 36 H        2.2120    -0.2920     1.9380 H     1 <1>   0.0800 
 37 H        2.7780     1.3020     2.4050 H     1 <1>   0.0800 
 38 H        4.4080     2.8240     1.0220 H     1 <1>   0.3700 
 39 H        5.5710     0.6900     0.1310 H     1 <1>   0.0800 
 40 H        4.4140    -0.5150    -0.4240 H     1 <1>   0.0800 
 41 H        5.4840     5.9300    -2.0090 H     1 <1>   0.1500 
 42 H        3.9910     4.7820     1.8090 H     1 <1>   0.1500 
 43 H        4.7610     6.9190     2.7400 H     1 <1>   0.1500 
 44 H        6.5750     8.1510    -2.2820 H     1 <1>   0.1500 
 45 H        7.2920    10.2720    -1.1860 H     1 <1>   0.1500 
 46 H        6.8730    10.6050     1.1790 H     1 <1>   0.1500 
@<TRIPOS>BOND
  1   1   2  2   
  2   1   3  2   
  3   1   4  am  
  4   1   5  1   
  5   4   6  1   
  6   4   7  1   
  7   5   8  1   
  8   5  26  1   
  9   5  27  1   
 10   6  28  1   
 11   6  29  1   
 12   6  30  1   
 13   7  31  1   
 14   7  32  1   
 15   7  33  1   
 16   8   9  1   
 17   8  10  1   
 18   8  34  1   
 19   9  11  1   
 20   9  12  1   
 21   9  35  1   
 22  10  13  1   
 23  10  36  1   
 24  10  37  1   
 25  11  14  am  
 26  11  38  1   
 27  12  13  1   
 28  12  39  1   
 29  12  40  1   
 30  14  15  2   
 31  14  16  1   
 32  16  17  ar  
 33  16  18  ar  
 34  17  19  ar  
 35  17  41  1   
 36  18  20  ar  
 37  18  42  1   
 38  19  21  ar  
 39  19  22  ar  
 40  20  21  ar  
 41  20  43  1   
 42  21  23  ar  
 43  22  24  ar  
 44  22  44  1   
 45  23  25  ar  
 46  24  25  ar  
 47  24  45  1   
 48  25  46  1   
@<TRIPOS>SUBSTRUCTURE
  1 ****  11 GROUP 4 **** **** 0

# MOE 2024.06 (io_trps.svl 2023.06)
