@<TRIPOS>MOLECULE
NONAME
49 51 1 0 0 
SMALL
USER_CHARGES


@<TRIPOS>ATOM
  1 S       -0.3640     0.4800     1.7120 S.o2  1 <1>   1.4470 
  2 O       -1.0900     1.5900     2.2950 O.2   1 <1>  -0.6500 
  3 O        0.1850    -0.5120     2.6140 O.2   1 <1>  -0.6500 
  4 N       -1.4500    -0.3370     0.6990 N.am  1 <1>  -0.8490 
  5 C        0.9320     1.1070     0.5920 C.ar  1 <1>  -0.0090 
  6 C       -0.8020    -1.4390    -0.0600 C.3   1 <1>   0.1960 
  7 C       -2.6620    -0.7310     1.4040 C.3   1 <1>   0.1960 
  8 C        0.6950     2.0580    -0.4060 C.ar  1 <1>  -0.1440 
  9 C        2.2270     0.6160     0.7200 C.ar  1 <1>  -0.1500 
 10 C       -1.7280    -2.6190    -0.4610 C.3   1 <1>  -0.1060 
 11 C       -3.7160    -1.2350     0.4110 C.3   1 <1>  -0.1600 
 12 C        1.7320     2.4910    -1.2210 C.ar  1 <1>  -0.1500 
 13 C       -0.6920     2.6450    -0.6380 C.3   1 <1>  -0.0970 
 14 C        3.2570     1.0480    -0.0950 C.ar  1 <1>  -0.1500 
 15 C       -1.1790    -3.2420    -1.7500 C.2   1 <1>   0.9060 
 16 C       -3.1090    -2.0070    -0.7700 C.3   1 <1>   0.2000 
 17 C       -1.8390    -3.7500     0.6150 C.3   1 <1>  -0.0650 
 18 C        3.0140     1.9940    -1.0720 C.ar  1 <1>  -0.1440 
 19 O       -0.0110    -3.0320    -2.0970 O.co2 1 <1>  -0.9000 
 20 O       -1.9310    -3.9540    -2.4340 O.co2 1 <1>  -0.9000 
 21 O       -3.9990    -2.9950    -1.1450 O.3   1 <1>  -0.6800 
 22 C       -0.5270    -4.1320     1.3170 C.3   1 <1>  -0.1950 
 23 C        4.1350     2.4740    -1.9760 C.3   1 <1>  -0.0970 
 24 C        0.5040    -4.9650     0.6270 C.3   1 <1>  -0.2000 
 25 C       -0.2940    -5.5410     1.7620 C.3   1 <1>  -0.2000 
 26 H       -0.4180    -0.9870    -0.9610 H     1 <1>   0.0800 
 27 H        0.0600    -1.8160     0.4590 H     1 <1>   0.0800 
 28 H       -2.4200    -1.4870     2.1300 H     1 <1>   0.0800 
 29 H       -3.0700     0.1120     1.9370 H     1 <1>   0.0800 
 30 H        2.4390    -0.1260     1.4720 H     1 <1>   0.1500 
 31 H       -4.2560    -0.3920     0.0220 H     1 <1>   0.0800 
 32 H       -4.4130    -1.8550     0.9460 H     1 <1>   0.0800 
 33 H        1.5400     3.2210    -1.9870 H     1 <1>   0.1500 
 34 H       -0.6910     3.3260    -1.4690 H     1 <1>   0.0800 
 35 H       -1.0200     3.1820     0.2330 H     1 <1>   0.0800 
 36 H       -1.3980     1.8630    -0.8540 H     1 <1>   0.0800 
 37 H        4.2440     0.6410     0.0330 H     1 <1>   0.1500 
 38 H       -3.0030    -1.3400    -1.6100 H     1 <1>   0.0800 
 39 H       -2.5500    -3.4940     1.3740 H     1 <1>   0.0800 
 40 H       -2.2350    -4.6270     0.1310 H     1 <1>   0.0800 
 41 H       -3.4860    -3.5740    -1.7850 H     1 <1>   0.4000 
 42 H       -0.1800    -3.3660     1.9910 H     1 <1>   0.1000 
 43 H        5.0830     2.3970    -1.4740 H     1 <1>   0.0800 
 44 H        3.9800     3.5010    -2.2540 H     1 <1>   0.0800 
 45 H        4.1620     1.8720    -2.8660 H     1 <1>   0.0800 
 46 H        0.3030    -5.2880    -0.3820 H     1 <1>   0.1000 
 47 H        1.5370    -4.7040     0.7710 H     1 <1>   0.1000 
 48 H        0.1980    -5.7120     2.7030 H     1 <1>   0.1000 
 49 H       -1.0270    -6.2950     1.5340 H     1 <1>   0.1000 
@<TRIPOS>BOND
  1   1   2  2   
  2   1   3  2   
  3   1   4  am  
  4   1   5  1   
  5   4   6  1   
  6   4   7  1   
  7   5   8  ar  
  8   5   9  ar  
  9   6  10  1   
 10   6  26  1   
 11   6  27  1   
 12   7  11  1   
 13   7  28  1   
 14   7  29  1   
 15   8  12  ar  
 16   8  13  1   
 17   9  14  ar  
 18   9  30  1   
 19  10  15  1   
 20  10  16  1   
 21  10  17  1   
 22  11  16  1   
 23  11  31  1   
 24  11  32  1   
 25  12  18  ar  
 26  12  33  1   
 27  13  34  1   
 28  13  35  1   
 29  13  36  1   
 30  14  18  ar  
 31  14  37  1   
 32  15  19  ar  
 33  15  20  ar  
 34  16  21  1   
 35  16  38  1   
 36  17  22  1   
 37  17  39  1   
 38  17  40  1   
 39  18  23  1   
 40  21  41  1   
 41  22  24  1   
 42  22  25  1   
 43  22  42  1   
 44  23  43  1   
 45  23  44  1   
 46  23  45  1   
 47  24  25  1   
 48  24  46  1   
 49  24  47  1   
 50  25  48  1   
 51  25  49  1   
@<TRIPOS>SUBSTRUCTURE
  1 ****   6 GROUP 4 **** **** 0

# MOE 2024.06 (io_trps.svl 2023.06)
