@<TRIPOS>MOLECULE
NONAME
45 46 1 0 0 
SMALL
USER_CHARGES


@<TRIPOS>ATOM
  1 S        1.3100     0.6470    -1.8420 S.o2  1 <1>   1.3330 
  2 O        2.0680     1.4630    -2.7580 O.2   1 <1>  -0.6500 
  3 O        1.5240    -0.7780    -1.7610 O.2   1 <1>  -0.6500 
  4 N        1.5100     1.2820    -0.2380 N.am  1 <1>  -0.6930 
  5 C       -0.4250     0.9280    -2.1170 C.3   1 <1>  -0.1350 
  6 C        1.4410     2.6370     0.0490 C.ar  1 <1>   0.1990 
  7 C        1.6790     0.3010     0.8630 C.3   1 <1>   0.1160 
  8 C        2.3080     3.5490    -0.5420 C.ar  1 <1>  -0.1500 
  9 C        0.4980     3.1250     0.9460 C.ar  1 <1>  -0.1500 
 10 C        2.2280     4.8980    -0.2570 C.ar  1 <1>  -0.1500 
 11 C        0.4190     4.4740     1.2300 C.ar  1 <1>  -0.1500 
 12 C        1.2750     5.4040     0.6330 C.ar  1 <1>   0.0860 
 13 C        1.1660     6.8200     0.9370 C.2   1 <1>   0.5440 
 14 O        0.5680     7.2040     1.9240 O.2   1 <1>  -0.5700 
 15 N        1.7150     7.7650     0.1220 N.am  1 <1>  -0.7300 
 16 C        1.7030     9.2160     0.3870 C.3   1 <1>   0.3200 
 17 C        2.9650     9.8270    -0.1820 C.2   1 <1>  -0.0400 
 18 O        3.1810     9.7900    -1.4700 O.3   1 <1>  -0.0190 
 19 C        4.0060    10.4490     0.3930 C.2   1 <1>  -0.1500 
 20 N        4.3120    10.3490    -1.7880 N.2   1 <1>  -0.4100 
 21 C        4.8330    10.7570    -0.6850 C.2   1 <1>   0.1080 
 22 C        6.1660    11.4720    -0.5810 C.3   1 <1>   0.0210 
 23 C        7.2670    10.5180    -0.0990 C.3   1 <1>  -0.1600 
 24 C        8.6220    11.2260     0.0070 C.3   1 <1>  -0.2400 
 25 H       -0.7050     0.5640    -3.0860 H     1 <1>   0.0800 
 26 H       -0.6410     1.9770    -2.0680 H     1 <1>   0.0800 
 27 H       -1.0060     0.4170    -1.3750 H     1 <1>   0.0800 
 28 H        2.5250    -0.3310     0.6540 H     1 <1>   0.0800 
 29 H        0.7990    -0.3120     0.9450 H     1 <1>   0.0800 
 30 H        1.8500     0.8070     1.7970 H     1 <1>   0.0800 
 31 H        3.0560     3.1910    -1.2270 H     1 <1>   0.1500 
 32 H       -0.1790     2.4390     1.4210 H     1 <1>   0.1500 
 33 H        2.9250     5.5650    -0.7310 H     1 <1>   0.1500 
 34 H       -0.3210     4.8270     1.9290 H     1 <1>   0.1500 
 35 H        2.1760     7.5010    -0.7500 H     1 <1>   0.3700 
 36 H        1.6540     9.3960     1.4480 H     1 <1>   0.0800 
 37 H        0.8400     9.6580    -0.0790 H     1 <1>   0.0800 
 38 H        4.1940    10.6680     1.4280 H     1 <1>   0.1500 
 39 H        6.0700    12.2980     0.1000 H     1 <1>   0.0800 
 40 H        6.4260    11.8660    -1.5490 H     1 <1>   0.0800 
 41 H        7.3470     9.6960    -0.7910 H     1 <1>   0.0800 
 42 H        6.9990    10.1160     0.8630 H     1 <1>   0.0800 
 43 H        8.9210    11.6130    -0.9520 H     1 <1>   0.0800 
 44 H        9.3740    10.5330     0.3430 H     1 <1>   0.0800 
 45 H        8.5710    12.0400     0.7100 H     1 <1>   0.0800 
@<TRIPOS>BOND
  1   1   2  2   
  2   1   3  2   
  3   1   4  am  
  4   1   5  1   
  5   4   6  1   
  6   4   7  1   
  7   5  25  1   
  8   5  26  1   
  9   5  27  1   
 10   6   8  ar  
 11   6   9  ar  
 12   7  28  1   
 13   7  29  1   
 14   7  30  1   
 15   8  10  ar  
 16   8  31  1   
 17   9  11  ar  
 18   9  32  1   
 19  10  12  ar  
 20  10  33  1   
 21  11  12  ar  
 22  11  34  1   
 23  12  13  1   
 24  13  14  2   
 25  13  15  am  
 26  15  16  1   
 27  15  35  1   
 28  16  17  1   
 29  16  36  1   
 30  16  37  1   
 31  17  18  1   
 32  17  19  2   
 33  18  20  1   
 34  19  21  1   
 35  19  38  1   
 36  20  21  2   
 37  21  22  1   
 38  22  23  1   
 39  22  39  1   
 40  22  40  1   
 41  23  24  1   
 42  23  41  1   
 43  23  42  1   
 44  24  43  1   
 45  24  44  1   
 46  24  45  1   
@<TRIPOS>SUBSTRUCTURE
  1 ****  10 GROUP 4 **** **** 0

# MOE 2024.06 (io_trps.svl 2023.06)
