@<TRIPOS>MOLECULE
NONAME
44 46 1 0 0 
SMALL
USER_CHARGES


@<TRIPOS>ATOM
  1 CL       8.0050    -1.2930    -0.7040 Cl    1 <1>  -0.1770 
  2 C        6.3420    -0.7930    -0.9070 C.ar  1 <1>   0.1770 
  3 C        5.7700    -0.7260    -2.1660 C.ar  1 <1>   0.1770 
  4 C        5.6050    -0.4560     0.2140 C.ar  1 <1>  -0.1500 
  5 CL       6.6970    -1.1310    -3.5930 Cl    1 <1>  -0.1770 
  6 C        4.4530    -0.3320    -2.3140 C.ar  1 <1>  -0.1500 
  7 C        4.2850    -0.0480     0.0740 C.ar  1 <1>  -0.1440 
  8 C        3.7120     0.0060    -1.1910 C.ar  1 <1>  -0.1500 
  9 C        3.4930     0.3900     1.3070 C.3   1 <1>   0.0440 
 10 C        3.8940     1.7820     1.7710 C.2   1 <1>   0.5690 
 11 O        3.6960     2.0800     2.9250 O.2   1 <1>  -0.5700 
 12 N        4.4740     2.6020     0.8540 N.am  1 <1>  -0.4930 
 13 C        5.2430     3.7790     0.9890 C.2   1 <1>   0.0630 
 14 C        6.3590     4.0050     0.1780 C.2   1 <1>   0.3720 
 15 C        5.1630     4.8660     1.7870 C.2   1 <1>  -0.3320 
 16 N        6.9490     5.1270     0.4420 N.2   1 <1>  -0.7070 
 17 N        6.7880     3.0970    -0.8110 N.pl3 1 <1>  -0.8210 
 18 N        6.2120     5.6580     1.4450 N.pl3 1 <1>   0.3140 
 19 C        4.1390     5.2120     2.8580 C.3   1 <1>  -0.0600 
 20 C        6.9270     3.7250    -2.1540 C.3   1 <1>   0.2090 
 21 C        8.0920     2.4780    -0.4590 C.3   1 <1>   0.2090 
 22 C        6.5730     6.9510     2.0380 C.3   1 <1>   0.0160 
 23 C        8.3680     3.4990    -2.5960 C.3   1 <1>  -0.1600 
 24 C        8.8290     2.3060    -1.7770 C.3   1 <1>  -0.1600 
 25 H        6.0710    -0.5030     1.1830 H     1 <1>   0.1500 
 26 H        4.0170    -0.2880    -3.2960 H     1 <1>   0.1500 
 27 H        2.6890     0.3200    -1.3130 H     1 <1>   0.1500 
 28 H        3.6660    -0.3020     2.1110 H     1 <1>   0.0800 
 29 H        2.4400     0.3930     1.0980 H     1 <1>   0.0800 
 30 H        4.7090     2.1490    -0.0350 H     1 <1>   0.3700 
 31 H        3.2770     4.5770     2.7710 H     1 <1>   0.0800 
 32 H        3.8110     6.2300     2.7520 H     1 <1>   0.0800 
 33 H        4.5670     5.0750     3.8340 H     1 <1>   0.0800 
 34 H        6.6910     4.7770    -2.1320 H     1 <1>   0.0800 
 35 H        6.2520     3.2310    -2.8320 H     1 <1>   0.0800 
 36 H        7.9430     1.5350     0.0350 H     1 <1>   0.0800 
 37 H        8.6510     3.1320     0.1900 H     1 <1>   0.0800 
 38 H        6.6230     6.8480     3.1050 H     1 <1>   0.0800 
 39 H        5.8320     7.6790     1.7710 H     1 <1>   0.0800 
 40 H        7.5320     7.2550     1.6600 H     1 <1>   0.0800 
 41 H        8.9470     4.3680    -2.3350 H     1 <1>   0.0800 
 42 H        8.4410     3.3280    -3.6550 H     1 <1>   0.0800 
 43 H        8.5110     1.3890    -2.2420 H     1 <1>   0.0800 
 44 H        9.8950     2.2860    -1.6390 H     1 <1>   0.0800 
@<TRIPOS>BOND
  1   1   2  1   
  2   2   3  ar  
  3   2   4  ar  
  4   3   5  1   
  5   3   6  ar  
  6   4   7  ar  
  7   4  25  1   
  8   6   8  ar  
  9   6  26  1   
 10   7   8  ar  
 11   7   9  1   
 12   8  27  1   
 13   9  10  1   
 14   9  28  1   
 15   9  29  1   
 16  10  11  2   
 17  10  12  am  
 18  12  13  1   
 19  12  30  1   
 20  13  14  1   
 21  13  15  2   
 22  14  16  2   
 23  14  17  1   
 24  15  18  1   
 25  15  19  1   
 26  16  18  1   
 27  17  20  1   
 28  17  21  1   
 29  18  22  1   
 30  19  31  1   
 31  19  32  1   
 32  19  33  1   
 33  20  23  1   
 34  20  34  1   
 35  20  35  1   
 36  21  24  1   
 37  21  36  1   
 38  21  37  1   
 39  22  38  1   
 40  22  39  1   
 41  22  40  1   
 42  23  24  1   
 43  23  41  1   
 44  23  42  1   
 45  24  43  1   
 46  24  44  1   
@<TRIPOS>SUBSTRUCTURE
  1 ****  17 GROUP 4 **** **** 0

# MOE 2024.06 (io_trps.svl 2023.06)
