@<TRIPOS>MOLECULE
NONAME
47 49 1 0 0 
SMALL
USER_CHARGES


@<TRIPOS>ATOM
  1 O       -0.9260     0.5950    -0.8020 O.co2 1 <1>  -0.9000 
  2 C       -1.7700     1.4080    -0.3740 C.2   1 <1>   0.9790 
  3 O       -2.9290     0.9770    -0.1810 O.co2 1 <1>  -0.9000 
  4 C       -1.4540     2.8230    -0.0910 C.ar  1 <1>   0.1310 
  5 N       -0.2520     3.3670    -0.3160 N.ar  1 <1>  -0.6200 
  6 C       -2.4420     3.6390     0.4360 C.ar  1 <1>  -0.1500 
  7 C       -0.0720     4.6470    -0.0200 C.ar  1 <1>   0.7200 
  8 C       -2.1630     4.9550     0.7060 C.ar  1 <1>   0.1660 
  9 N       -0.9850     5.4750     0.4820 N.ar  1 <1>  -0.6200 
 10 N        1.1830     5.1760    -0.2590 N.pl3 1 <1>  -0.8380 
 11 C       -3.2190     5.8730     1.2810 C.3   1 <1>  -0.0970 
 12 C        1.3640     6.6100    -0.6310 C.3   1 <1>   0.2090 
 13 C        2.3450     4.2900    -0.5510 C.3   1 <1>   0.2090 
 14 C        2.6200     7.1850     0.0370 C.3   1 <1>   0.1000 
 15 C        3.6060     4.8540     0.1140 C.3   1 <1>  -0.1600 
 16 C        2.8330     8.6230    -0.4040 C.2   1 <1>   0.2980 
 17 C        3.8580     6.3210    -0.2700 C.3   1 <1>  -0.1600 
 18 O        2.9970     8.8790    -1.6790 O.3   1 <1>  -0.0190 
 19 N        2.8730     9.6360     0.3650 N.2   1 <1>  -0.5650 
 20 N        3.1540    10.1660    -1.7240 N.2   1 <1>  -0.4100 
 21 C        3.0840    10.5940    -0.5270 C.2   1 <1>   0.3350 
 22 C        3.2150    12.0500    -0.1160 C.3   1 <1>   0.0210 
 23 C        4.6820    12.5150    -0.0120 C.3   1 <1>  -0.0800 
 24 C        5.4500    11.7560     1.0800 C.3   1 <1>  -0.2400 
 25 C        4.7450    14.0220     0.2680 C.3   1 <1>  -0.2400 
 26 H       -3.4170     3.2290     0.6260 H     1 <1>   0.1500 
 27 H       -4.1440     5.3470     1.4320 H     1 <1>   0.0800 
 28 H       -3.3880     6.6910     0.6050 H     1 <1>   0.0800 
 29 H       -2.8790     6.2620     2.2230 H     1 <1>   0.0800 
 30 H        0.5130     7.2000    -0.3380 H     1 <1>   0.0800 
 31 H        1.4560     6.6750    -1.7010 H     1 <1>   0.0800 
 32 H        2.4780     4.2260    -1.6170 H     1 <1>   0.0800 
 33 H        2.1740     3.2940    -0.1760 H     1 <1>   0.0800 
 34 H        2.4500     7.1850     1.0990 H     1 <1>   0.0800 
 35 H        4.4510     4.2520    -0.1690 H     1 <1>   0.0800 
 36 H        3.4890     4.7720     1.1810 H     1 <1>   0.0800 
 37 H        4.7060     6.6990     0.2750 H     1 <1>   0.0800 
 38 H        4.0850     6.3750    -1.3210 H     1 <1>   0.0800 
 39 H        2.7160    12.1940     0.8250 H     1 <1>   0.0800 
 40 H        2.7060    12.6450    -0.8520 H     1 <1>   0.0800 
 41 H        5.1630    12.3270    -0.9590 H     1 <1>   0.0800 
 42 H        4.9780    11.8870     2.0380 H     1 <1>   0.0800 
 43 H        6.4620    12.1140     1.1430 H     1 <1>   0.0800 
 44 H        5.4830    10.7040     0.8580 H     1 <1>   0.0800 
 45 H        4.2780    14.2540     1.2090 H     1 <1>   0.0800 
 46 H        4.2450    14.5710    -0.5110 H     1 <1>   0.0800 
 47 H        5.7690    14.3510     0.3050 H     1 <1>   0.0800 
@<TRIPOS>BOND
  1   1   2  ar  
  2   2   3  ar  
  3   2   4  1   
  4   4   5  ar  
  5   4   6  ar  
  6   5   7  ar  
  7   6   8  ar  
  8   6  26  1   
  9   7   9  ar  
 10   7  10  1   
 11   8   9  ar  
 12   8  11  1   
 13  10  12  1   
 14  10  13  1   
 15  11  27  1   
 16  11  28  1   
 17  11  29  1   
 18  12  14  1   
 19  12  30  1   
 20  12  31  1   
 21  13  15  1   
 22  13  32  1   
 23  13  33  1   
 24  14  16  1   
 25  14  17  1   
 26  14  34  1   
 27  15  17  1   
 28  15  35  1   
 29  15  36  1   
 30  16  18  1   
 31  16  19  2   
 32  17  37  1   
 33  17  38  1   
 34  18  20  1   
 35  19  21  1   
 36  20  21  2   
 37  21  22  1   
 38  22  23  1   
 39  22  39  1   
 40  22  40  1   
 41  23  24  1   
 42  23  25  1   
 43  23  41  1   
 44  24  42  1   
 45  24  43  1   
 46  24  44  1   
 47  25  45  1   
 48  25  46  1   
 49  25  47  1   
@<TRIPOS>SUBSTRUCTURE
  1 ****  12 GROUP 4 **** **** 0

# MOE 2024.06 (io_trps.svl 2023.06)
