@<TRIPOS>MOLECULE
NONAME
48 50 1 0 0 
SMALL
USER_CHARGES


@<TRIPOS>ATOM
  1 F       -1.2400     2.1540     0.4300 F     1 <1>  -0.1900 
  2 C       -2.4550     2.0030     0.8790 C.ar  1 <1>   0.1900 
  3 C       -3.2330     0.9190     0.4870 C.ar  1 <1>  -0.1440 
  4 C       -2.9030     2.9780     1.7490 C.ar  1 <1>  -0.1500 
  5 C       -4.5350     0.8430     1.0100 C.ar  1 <1>  -0.1440 
  6 C       -2.6990    -0.1560    -0.4770 C.3   1 <1>   1.1640 
  7 C       -4.1810     2.8820     2.2600 C.ar  1 <1>  -0.1500 
  8 C       -4.9870     1.8210     1.8910 C.ar  1 <1>  -0.1500 
  9 C       -5.5130    -0.2790     0.6590 C.3   1 <1>   0.4860 
 10 F       -1.4540    -0.0340    -0.9040 F     1 <1>  -0.3400 
 11 F       -3.4580    -0.2110    -1.5660 F     1 <1>  -0.3400 
 12 F       -2.7850    -1.3610     0.0720 F     1 <1>  -0.3400 
 13 N       -6.6570     0.2930    -0.0900 N.4   1 <1>  -0.9590 
 14 C       -7.7980    -0.6520    -0.2410 C.3   1 <1>   0.3430 
 15 C       -6.2890     0.8940    -1.4000 C.3   1 <1>   0.3430 
 16 C       -9.0540     0.1630    -0.5760 C.3   1 <1>   0.0000 
 17 C       -7.4610     1.7430    -1.8950 C.3   1 <1>  -0.1600 
 18 C       -9.4830     0.9850     0.6580 C.3   1 <1>   0.2000 
 19 C       -8.8020     0.9850    -1.8760 C.3   1 <1>  -0.1600 
 20 C      -10.3070    -0.7020    -0.7810 C.3   1 <1>  -0.1600 
 21 O       -8.6190     2.0600     0.8960 O.3   1 <1>  -0.5600 
 22 C      -10.9320     1.3810     0.3770 C.3   1 <1>  -0.1600 
 23 C      -11.4920     0.2290    -0.4740 C.3   1 <1>  -0.1600 
 24 C       -8.9490     2.8580     1.9950 C.3   1 <1>   0.0400 
 25 H       -2.2580     3.7960     2.0200 H     1 <1>   0.1500 
 26 H       -4.5440     3.6330     2.9430 H     1 <1>   0.1500 
 27 H       -5.9790     1.7710     2.3080 H     1 <1>   0.1500 
 28 H       -5.8660    -0.7280     1.5730 H     1 <1>   0.0800 
 29 H       -5.0430    -1.0480     0.0710 H     1 <1>   0.0800 
 30 H       -7.0460     1.0880     0.4590 H     1 <1>   0.4500 
 31 H       -7.5950    -1.3590    -1.0290 H     1 <1>   0.0800 
 32 H       -7.9600    -1.1930     0.6770 H     1 <1>   0.0800 
 33 H       -5.4190     1.5220    -1.2950 H     1 <1>   0.0800 
 34 H       -6.0680     0.1160    -2.1130 H     1 <1>   0.0800 
 35 H       -7.5310     2.6290    -1.2890 H     1 <1>   0.0800 
 36 H       -7.2530     2.0730    -2.8980 H     1 <1>   0.0800 
 37 H       -9.4650     0.3510     1.5290 H     1 <1>   0.0800 
 38 H       -8.7990     0.3080    -2.7130 H     1 <1>   0.0800 
 39 H       -9.6000     1.6870    -2.0480 H     1 <1>   0.0800 
 40 H      -10.3780    -1.1200    -1.7710 H     1 <1>   0.0800 
 41 H      -10.3150    -1.5120    -0.0710 H     1 <1>   0.0800 
 42 H      -11.4910     1.4920     1.2890 H     1 <1>   0.0800 
 43 H      -10.9690     2.2990    -0.1850 H     1 <1>   0.0800 
 44 H      -12.2670    -0.3040     0.0510 H     1 <1>   0.0800 
 45 H      -11.9060     0.6220    -1.3870 H     1 <1>   0.0800 
 46 H       -8.1640     3.5800     2.1360 H     1 <1>   0.0800 
 47 H       -9.0410     2.2450     2.8750 H     1 <1>   0.0800 
 48 H       -9.8720     3.3760     1.8000 H     1 <1>   0.0800 
@<TRIPOS>BOND
  1   1   2  1   
  2   2   3  ar  
  3   2   4  ar  
  4   3   5  ar  
  5   3   6  1   
  6   4   7  ar  
  7   4  25  1   
  8   5   8  ar  
  9   5   9  1   
 10   6  10  1   
 11   6  11  1   
 12   6  12  1   
 13   7   8  ar  
 14   7  26  1   
 15   8  27  1   
 16   9  13  1   
 17   9  28  1   
 18   9  29  1   
 19  13  14  1   
 20  13  15  1   
 21  13  30  1   
 22  14  16  1   
 23  14  31  1   
 24  14  32  1   
 25  15  17  1   
 26  15  33  1   
 27  15  34  1   
 28  16  18  1   
 29  16  19  1   
 30  16  20  1   
 31  17  19  1   
 32  17  35  1   
 33  17  36  1   
 34  18  21  1   
 35  18  22  1   
 36  18  37  1   
 37  19  38  1   
 38  19  39  1   
 39  20  23  1   
 40  20  40  1   
 41  20  41  1   
 42  21  24  1   
 43  22  23  1   
 44  22  42  1   
 45  22  43  1   
 46  23  44  1   
 47  23  45  1   
 48  24  46  1   
 49  24  47  1   
 50  24  48  1   
@<TRIPOS>SUBSTRUCTURE
  1 ****  13 GROUP 4 **** **** 0

# MOE 2024.06 (io_trps.svl 2023.06)
