@<TRIPOS>MOLECULE
NONAME
53 56 1 0 0 
SMALL
USER_CHARGES


@<TRIPOS>ATOM
  1 O        0.0120    -0.7100     1.1320 O.2   1 <1>  -0.5700 
  2 C        0.3940    -1.7330     0.6180 C.2   1 <1>   0.5690 
  3 N        1.2000    -1.7060    -0.4990 N.am  1 <1>  -0.6600 
  4 C       -0.0670    -3.0100     1.2960 C.3   1 <1>  -0.0990 
  5 C        1.7790    -2.9000    -1.1910 C.3   1 <1>   0.1400 
  6 C        1.4290    -0.4060    -1.2100 C.3   1 <1>   0.1400 
  7 C       -0.0110    -4.2780     0.4500 C.3   1 <1>   0.1200 
  8 C        2.3140    -4.0300    -0.2600 C.3   1 <1>   0.2800 
  9 C        2.8580     0.1070    -0.9870 C.3   1 <1>   0.0000 
 10 O        1.2950    -4.7680     0.3470 O.3   1 <1>  -0.5600 
 11 C        3.0880    -5.0710    -1.0830 C.3   1 <1>  -0.1600 
 12 C        3.2300    -3.5260     0.8700 C.3   1 <1>  -0.1600 
 13 C        3.2030     0.5240     0.4680 C.3   1 <1>   0.0000 
 14 C        3.0730     1.5920    -1.3800 C.3   1 <1>   0.0000 
 15 C        4.4250    -4.5440    -1.6030 C.3   1 <1>   0.3430 
 16 C        4.5410    -2.9670     0.3350 C.3   1 <1>   0.3430 
 17 C        4.0080     1.6980    -0.1470 C.3   1 <1>   0.0000 
 18 N        5.2270    -4.0070    -0.4770 N.4   1 <1>  -0.9590 
 19 C        6.5960    -3.5790    -0.8750 C.3   1 <1>   0.5240 
 20 C        7.4760    -3.7030     0.3610 C.2   1 <1>   0.0460 
 21 N        7.3040    -4.7490     1.1990 N.2   1 <1>  -0.5650 
 22 C        8.4580    -2.8870     0.8050 C.2   1 <1>  -0.3020 
 23 C        8.1890    -4.5520     2.1240 C.2   1 <1>   0.0360 
 24 N        8.9250    -3.4350     1.9430 N.pl3 1 <1>   0.0330 
 25 H       -1.0930    -2.8550     1.5750 H     1 <1>   0.0800 
 26 H        0.4840    -3.1530     2.2060 H     1 <1>   0.0800 
 27 H        2.5950    -2.5580    -1.7990 H     1 <1>   0.0800 
 28 H        1.0500    -3.3030    -1.8720 H     1 <1>   0.0800 
 29 H        0.7280     0.3350    -0.8630 H     1 <1>   0.0800 
 30 H        1.2510    -0.5380    -2.2630 H     1 <1>   0.0800 
 31 H       -0.4300    -4.1290    -0.5300 H     1 <1>   0.0800 
 32 H       -0.5860    -5.0470     0.9370 H     1 <1>   0.0800 
 33 H        3.6130    -0.5190    -1.4300 H     1 <1>   0.0000 
 34 H        2.4890    -5.3900    -1.9170 H     1 <1>   0.0800 
 35 H        3.2800    -5.9380    -0.4740 H     1 <1>   0.0800 
 36 H        3.4490    -4.3340     1.5450 H     1 <1>   0.0800 
 37 H        2.7490    -2.7550     1.4400 H     1 <1>   0.0800 
 38 H        3.8110    -0.1870     0.9980 H     1 <1>   0.0000 
 39 H        2.3500     0.8650     1.0300 H     1 <1>   0.0000 
 40 H        2.1860     2.1950    -1.2770 H     1 <1>   0.0000 
 41 H        3.5770     1.7240    -2.3210 H     1 <1>   0.0000 
 42 H        4.2530    -3.7680    -2.3310 H     1 <1>   0.0800 
 43 H        4.9600    -5.3470    -2.0850 H     1 <1>   0.0800 
 44 H        5.1670    -2.6760     1.1640 H     1 <1>   0.0800 
 45 H        4.3460    -2.0960    -0.2660 H     1 <1>   0.0800 
 46 H        5.0260     1.4310    -0.3730 H     1 <1>   0.0000 
 47 H        3.9130     2.6230     0.3940 H     1 <1>   0.0000 
 48 H        5.4440    -4.7780     0.1860 H     1 <1>   0.4500 
 49 H        6.5980    -2.5690    -1.2490 H     1 <1>   0.0800 
 50 H        6.9810    -4.2400    -1.6330 H     1 <1>   0.0800 
 51 H        8.8520    -1.9730     0.3940 H     1 <1>   0.1500 
 52 H        8.3430    -5.2050     2.9680 H     1 <1>   0.1500 
 53 H        9.6800    -3.0900     2.5480 H     1 <1>   0.2700 
@<TRIPOS>BOND
  1   1   2  2   
  2   2   3  am  
  3   2   4  1   
  4   3   5  1   
  5   3   6  1   
  6   4   7  1   
  7   4  25  1   
  8   4  26  1   
  9   5   8  1   
 10   5  27  1   
 11   5  28  1   
 12   6   9  1   
 13   6  29  1   
 14   6  30  1   
 15   7  10  1   
 16   7  31  1   
 17   7  32  1   
 18   8  10  1   
 19   8  11  1   
 20   8  12  1   
 21   9  13  1   
 22   9  14  1   
 23   9  33  1   
 24  11  15  1   
 25  11  34  1   
 26  11  35  1   
 27  12  16  1   
 28  12  36  1   
 29  12  37  1   
 30  13  17  1   
 31  13  38  1   
 32  13  39  1   
 33  14  17  1   
 34  14  40  1   
 35  14  41  1   
 36  15  18  1   
 37  15  42  1   
 38  15  43  1   
 39  16  18  1   
 40  16  44  1   
 41  16  45  1   
 42  17  46  1   
 43  17  47  1   
 44  18  19  1   
 45  18  48  1   
 46  19  20  1   
 47  19  49  1   
 48  19  50  1   
 49  20  21  1   
 50  20  22  2   
 51  21  23  2   
 52  22  24  1   
 53  22  51  1   
 54  23  24  1   
 55  23  52  1   
 56  24  53  1   
@<TRIPOS>SUBSTRUCTURE
  1 ****  16 GROUP 4 **** **** 0

# MOE 2024.06 (io_trps.svl 2023.06)
