@<TRIPOS>MOLECULE
NONAME
40 42 1 0 0 
SMALL
USER_CHARGES


@<TRIPOS>ATOM
  1 CL       1.2730     1.1560    -0.9480 Cl    1 <1>  -0.1770 
  2 C        2.2110    -0.1200    -0.2120 C.ar  1 <1>   0.1770 
  3 C        3.2080     0.1870     0.7170 C.ar  1 <1>   0.0860 
  4 C        1.9320    -1.4200    -0.5900 C.ar  1 <1>  -0.1500 
  5 C        3.5020     1.5460     1.1080 C.2   1 <1>   0.5440 
  6 C        3.9270    -0.8750     1.2730 C.ar  1 <1>  -0.1500 
  7 C        2.6730    -2.4340    -0.0170 C.ar  1 <1>   0.1900 
  8 O        3.3310     1.8680     2.2690 O.2   1 <1>  -0.5700 
  9 N        4.0200     2.4860     0.2310 N.am  1 <1>  -0.6600 
 10 C        3.6670    -2.1860     0.9100 C.ar  1 <1>  -0.1500 
 11 F        2.4270    -3.6660    -0.3640 F     1 <1>  -0.1900 
 12 C        4.2520     3.8830     0.7220 C.3   1 <1>   0.1400 
 13 C        4.6250     2.0930    -1.0810 C.3   1 <1>   0.1400 
 14 C        5.7280     4.1740     1.0990 C.3   1 <1>   0.4230 
 15 C        6.1030     2.5090    -1.2610 C.3   1 <1>  -0.0800 
 16 N        6.5430     4.6950    -0.0600 N.4   1 <1>  -0.9590 
 17 C        6.4710     2.9940     1.7870 C.3   1 <1>   0.1200 
 18 C        7.1020     1.8580    -0.2790 C.3   1 <1>   0.1200 
 19 C        6.2530     4.0280    -1.3650 C.3   1 <1>   0.3430 
 20 C        6.4190     6.1800    -0.1920 C.3   1 <1>   0.2630 
 21 O        6.6200     1.8190     1.0270 O.3   1 <1>  -0.5600 
 22 H        1.1620    -1.6380    -1.3060 H     1 <1>   0.1500 
 23 H        4.6950    -0.6580     1.9980 H     1 <1>   0.1500 
 24 H        4.2210    -3.0030     1.3380 H     1 <1>   0.1500 
 25 H        3.9040     4.5830    -0.0150 H     1 <1>   0.0800 
 26 H        3.6520     4.0560     1.5980 H     1 <1>   0.0800 
 27 H        4.5730     1.0250    -1.2030 H     1 <1>   0.0800 
 28 H        4.0300     2.5250    -1.8670 H     1 <1>   0.0800 
 29 H        5.6920     4.9600     1.8340 H     1 <1>   0.0800 
 30 H        6.3760     2.1430    -2.2350 H     1 <1>   0.0800 
 31 H        7.5200     4.4740     0.1760 H     1 <1>   0.4500 
 32 H        5.9200     2.7130     2.6680 H     1 <1>   0.0800 
 33 H        7.4490     3.3070     2.1050 H     1 <1>   0.0800 
 34 H        8.0610     2.3470    -0.2850 H     1 <1>   0.0800 
 35 H        7.2550     0.8320    -0.5670 H     1 <1>   0.0800 
 36 H        5.3480     4.4340    -1.7880 H     1 <1>   0.0800 
 37 H        7.0560     4.2490    -2.0500 H     1 <1>   0.0800 
 38 H        5.4030     6.4520    -0.4320 H     1 <1>   0.0800 
 39 H        7.0660     6.5420    -0.9760 H     1 <1>   0.0800 
 40 H        6.6970     6.6640     0.7300 H     1 <1>   0.0800 
@<TRIPOS>BOND
  1   1   2  1   
  2   2   3  ar  
  3   2   4  ar  
  4   3   5  1   
  5   3   6  ar  
  6   4   7  ar  
  7   4  22  1   
  8   5   8  2   
  9   5   9  am  
 10   6  10  ar  
 11   6  23  1   
 12   7  10  ar  
 13   7  11  1   
 14   9  12  1   
 15   9  13  1   
 16  10  24  1   
 17  12  14  1   
 18  12  25  1   
 19  12  26  1   
 20  13  15  1   
 21  13  27  1   
 22  13  28  1   
 23  14  16  1   
 24  14  17  1   
 25  14  29  1   
 26  15  18  1   
 27  15  19  1   
 28  15  30  1   
 29  16  19  1   
 30  16  20  1   
 31  16  31  1   
 32  17  21  1   
 33  17  32  1   
 34  17  33  1   
 35  18  21  1   
 36  18  34  1   
 37  18  35  1   
 38  19  36  1   
 39  19  37  1   
 40  20  38  1   
 41  20  39  1   
 42  20  40  1   
@<TRIPOS>SUBSTRUCTURE
  1 ****   9 GROUP 4 **** **** 0

# MOE 2024.06 (io_trps.svl 2023.06)
