@<TRIPOS>MOLECULE
NONAME
52 55 1 0 0 
SMALL
USER_CHARGES


@<TRIPOS>ATOM
  1 O        1.1500    -0.5190    -0.9080 O.3   1 <1>  -0.5600 
  2 C        2.1130    -1.2770    -0.2130 C.3   1 <1>   0.4240 
  3 C       -0.1860    -0.6880    -0.5490 C.3   1 <1>   0.1200 
  4 C        1.6170    -2.7170     0.0480 C.ar  1 <1>  -0.1440 
  5 C        3.3470    -1.2920    -1.1270 C.3   1 <1>  -0.1600 
  6 C        2.4420    -0.5560     1.1060 C.3   1 <1>  -0.1600 
  7 C       -0.6160    -2.1040    -0.9180 C.3   1 <1>  -0.0160 
  8 C        0.3270    -3.1090    -0.2870 C.ar  1 <1>  -0.1440 
  9 C        2.4560    -3.6550     0.6360 C.ar  1 <1>  -0.1500 
 10 C        3.9140     0.1120    -1.3290 C.3   1 <1>   0.2090 
 11 C        3.0310     0.8310     0.8580 C.3   1 <1>   0.2090 
 12 C       -0.1020    -4.4050    -0.0450 C.ar  1 <1>  -0.1500 
 13 C        2.0480    -4.9550     0.8790 C.ar  1 <1>   0.0820 
 14 N        4.2320     0.6950    -0.0040 N.pl3 1 <1>  -0.8380 
 15 C        0.7410    -5.3430     0.5440 C.ar  1 <1>   0.0820 
 16 O        2.9970    -5.7540     1.4460 O.3   1 <1>  -0.3630 
 17 C        5.1700     1.7110     0.0180 C.ar  1 <1>   0.4100 
 18 O        0.3120    -6.6120     0.8150 O.3   1 <1>  -0.3630 
 19 C        3.0440    -7.1380     1.1810 C.3   1 <1>   0.0400 
 20 N        4.7340     2.9480     0.2260 N.ar  1 <1>  -0.6200 
 21 C        6.5120     1.4020    -0.1870 C.ar  1 <1>  -0.1500 
 22 C       -1.0320    -7.0050     0.6460 C.3   1 <1>   0.0400 
 23 C        5.6590     3.8930     0.2250 C.ar  1 <1>   0.1600 
 24 C        7.4620     2.3960    -0.1850 C.ar  1 <1>  -0.1500 
 25 C        7.0160     3.6860     0.0270 C.ar  1 <1>  -0.1430 
 26 C        8.0070     4.8370     0.0430 C.3   1 <1>  -0.0970 
 27 H       -0.7670     0.0370    -1.0920 H     1 <1>   0.0800 
 28 H       -0.2960    -0.5100     0.5060 H     1 <1>   0.0800 
 29 H        3.0790    -1.7200    -2.0750 H     1 <1>   0.0800 
 30 H        4.1200    -1.9020    -0.7000 H     1 <1>   0.0800 
 31 H        3.1660    -1.1270     1.6560 H     1 <1>   0.0800 
 32 H        1.5660    -0.4820     1.7200 H     1 <1>   0.0800 
 33 H       -0.6000    -2.2150    -1.9870 H     1 <1>   0.0800 
 34 H       -1.6210    -2.2680    -0.5740 H     1 <1>   0.0800 
 35 H        3.4580    -3.3880     0.9180 H     1 <1>   0.1500 
 36 H        3.1940     0.7380    -1.8300 H     1 <1>   0.0800 
 37 H        4.8020     0.0660    -1.9360 H     1 <1>   0.0800 
 38 H        3.3070     1.2850     1.7950 H     1 <1>   0.0800 
 39 H        2.3100     1.4670     0.3720 H     1 <1>   0.0800 
 40 H       -1.1040    -4.6640    -0.3250 H     1 <1>   0.1500 
 41 H        4.0310    -7.4900     1.4160 H     1 <1>   0.0800 
 42 H        2.8300    -7.3040     0.1400 H     1 <1>   0.0800 
 43 H        2.3230    -7.6350     1.8040 H     1 <1>   0.0800 
 44 H        6.7850     0.3760    -0.3390 H     1 <1>   0.1500 
 45 H       -1.1280    -8.0200     0.9870 H     1 <1>   0.0800 
 46 H       -1.2850    -6.9460    -0.3970 H     1 <1>   0.0800 
 47 H       -1.6600    -6.3610     1.2360 H     1 <1>   0.0800 
 48 H        5.3100     4.8960     0.3920 H     1 <1>   0.1500 
 49 H        8.5030     2.1770    -0.3410 H     1 <1>   0.1500 
 50 H        7.5070     5.7740     0.2070 H     1 <1>   0.0800 
 51 H        8.5260     4.8850    -0.8980 H     1 <1>   0.0800 
 52 H        8.7260     4.6890     0.8290 H     1 <1>   0.0800 
@<TRIPOS>BOND
  1   1   2  1   
  2   1   3  1   
  3   2   4  1   
  4   2   5  1   
  5   2   6  1   
  6   3   7  1   
  7   3  27  1   
  8   3  28  1   
  9   4   8  ar  
 10   4   9  ar  
 11   5  10  1   
 12   5  29  1   
 13   5  30  1   
 14   6  11  1   
 15   6  31  1   
 16   6  32  1   
 17   7   8  1   
 18   7  33  1   
 19   7  34  1   
 20   8  12  ar  
 21   9  13  ar  
 22   9  35  1   
 23  10  14  1   
 24  10  36  1   
 25  10  37  1   
 26  11  14  1   
 27  11  38  1   
 28  11  39  1   
 29  12  15  ar  
 30  12  40  1   
 31  13  15  ar  
 32  13  16  1   
 33  14  17  1   
 34  15  18  1   
 35  16  19  1   
 36  17  20  ar  
 37  17  21  ar  
 38  18  22  1   
 39  19  41  1   
 40  19  42  1   
 41  19  43  1   
 42  20  23  ar  
 43  21  24  ar  
 44  21  44  1   
 45  22  45  1   
 46  22  46  1   
 47  22  47  1   
 48  23  25  ar  
 49  23  48  1   
 50  24  25  ar  
 51  24  49  1   
 52  25  26  1   
 53  26  50  1   
 54  26  51  1   
 55  26  52  1   
@<TRIPOS>SUBSTRUCTURE
  1 ****   2 GROUP 4 **** **** 0

# MOE 2024.06 (io_trps.svl 2023.06)
