@<TRIPOS>MOLECULE
NONAME
52 54 1 0 0 
SMALL
USER_CHARGES


@<TRIPOS>ATOM
  1 O        0.9410     0.8900    -0.8960 O.2   1 <1>  -0.5700 
  2 C        1.6430     0.0270    -0.3950 C.2   1 <1>   0.6900 
  3 N        2.9990     0.0480    -0.5880 N.am  1 <1>  -0.6600 
  4 N        1.1090    -0.9190     0.4030 N.am  1 <1>  -0.7300 
  5 C        3.6220     0.9400    -1.5980 C.3   1 <1>   0.1400 
  6 C        3.9410    -0.5840     0.3800 C.3   1 <1>   0.1400 
  7 C       -0.3260    -1.3580     0.4310 C.3   1 <1>   0.0340 
  8 C        4.2090     2.1640    -0.8660 C.3   1 <1>   0.0000 
  9 C        5.2810     0.1720     0.4210 C.3   1 <1>  -0.1600 
 10 C       -0.4500    -2.8610     0.6930 C.2   1 <1>   0.9060 
 11 C        2.9930     2.9800    -0.3550 C.3   1 <1>   0.3430 
 12 C        5.1010     1.7020     0.3350 C.3   1 <1>  -0.1600 
 13 C        5.0260     3.0170    -1.8620 C.3   1 <1>  -0.1600 
 14 O        0.5960    -3.5110     0.8660 O.co2 1 <1>  -0.9000 
 15 O       -1.5710    -3.3780     0.7340 O.co2 1 <1>  -0.9000 
 16 N        3.2100     4.4660    -0.3220 N.4   1 <1>  -0.9590 
 17 C        5.4870     4.3590    -1.2520 C.3   1 <1>  -0.1600 
 18 C        4.6260     4.8470    -0.0800 C.3   1 <1>   0.3430 
 19 C        2.2610     5.1100     0.6230 C.3   1 <1>   0.4860 
 20 C        2.3290     6.6120     0.4280 C.ar  1 <1>  -0.1440 
 21 C        2.9820     7.4090     1.3570 C.ar  1 <1>  -0.1500 
 22 C        1.7440     7.2000    -0.6850 C.ar  1 <1>  -0.1500 
 23 C        3.0600     8.7780     1.1690 C.ar  1 <1>  -0.1500 
 24 C        1.8230     8.5690    -0.8710 C.ar  1 <1>  -0.1500 
 25 C        2.4820     9.3580     0.0540 C.ar  1 <1>  -0.1500 
 26 H        1.6800    -1.7570     0.5860 H     1 <1>   0.3700 
 27 H        2.8940     1.2400    -2.3330 H     1 <1>   0.0800 
 28 H        4.3940     0.3970    -2.1170 H     1 <1>   0.0800 
 29 H        4.1010    -1.6130     0.1040 H     1 <1>   0.0800 
 30 H        3.4980    -0.5680     1.3620 H     1 <1>   0.0800 
 31 H       -0.7960    -1.1400    -0.5090 H     1 <1>   0.0800 
 32 H       -0.8480    -0.8380     1.2110 H     1 <1>   0.0800 
 33 H        5.8930    -0.1660    -0.3970 H     1 <1>   0.0800 
 34 H        5.8010    -0.0880     1.3270 H     1 <1>   0.0800 
 35 H        2.7230     2.6140     0.6220 H     1 <1>   0.0800 
 36 H        2.1520     2.7820    -1.0000 H     1 <1>   0.0800 
 37 H        4.6610     2.0250     1.2630 H     1 <1>   0.0800 
 38 H        6.0800     2.1450     0.2830 H     1 <1>   0.0800 
 39 H        4.4110     3.2270    -2.7220 H     1 <1>   0.0800 
 40 H        5.8810     2.4640    -2.2150 H     1 <1>   0.0800 
 41 H        2.9790     4.8340    -1.2520 H     1 <1>   0.4500 
 42 H        5.4980     5.1130    -2.0210 H     1 <1>   0.0800 
 43 H        6.5000     4.2660    -0.9000 H     1 <1>   0.0800 
 44 H        4.9670     4.3910     0.8350 H     1 <1>   0.0800 
 45 H        4.7230     5.9170     0.0160 H     1 <1>   0.0800 
 46 H        2.5150     4.8560     1.6390 H     1 <1>   0.0800 
 47 H        1.2570     4.7700     0.4270 H     1 <1>   0.0800 
 48 H        3.4340     6.9810     2.2360 H     1 <1>   0.1500 
 49 H        1.2170     6.6080    -1.4150 H     1 <1>   0.1500 
 50 H        3.5660     9.3980     1.8900 H     1 <1>   0.1500 
 51 H        1.3680     9.0260    -1.7350 H     1 <1>   0.1500 
 52 H        2.5420    10.4230    -0.0920 H     1 <1>   0.1500 
@<TRIPOS>BOND
  1   1   2  2   
  2   2   3  am  
  3   2   4  am  
  4   3   5  1   
  5   3   6  1   
  6   4   7  1   
  7   4  26  1   
  8   5   8  1   
  9   5  27  1   
 10   5  28  1   
 11   6   9  1   
 12   6  29  1   
 13   6  30  1   
 14   7  10  1   
 15   7  31  1   
 16   7  32  1   
 17   8  11  1   
 18   8  12  1   
 19   8  13  1   
 20   9  12  1   
 21   9  33  1   
 22   9  34  1   
 23  10  14  ar  
 24  10  15  ar  
 25  11  16  1   
 26  11  35  1   
 27  11  36  1   
 28  12  37  1   
 29  12  38  1   
 30  13  17  1   
 31  13  39  1   
 32  13  40  1   
 33  16  18  1   
 34  16  19  1   
 35  16  41  1   
 36  17  18  1   
 37  17  42  1   
 38  17  43  1   
 39  18  44  1   
 40  18  45  1   
 41  19  20  1   
 42  19  46  1   
 43  19  47  1   
 44  20  21  ar  
 45  20  22  ar  
 46  21  23  ar  
 47  21  48  1   
 48  22  24  ar  
 49  22  49  1   
 50  23  25  ar  
 51  23  50  1   
 52  24  25  ar  
 53  24  51  1   
 54  25  52  1   
@<TRIPOS>SUBSTRUCTURE
  1 ****  11 GROUP 4 **** **** 0

# MOE 2024.06 (io_trps.svl 2023.06)
