@<TRIPOS>MOLECULE
NONAME
57 59 1 0 0 
SMALL
USER_CHARGES


@<TRIPOS>ATOM
  1 S        1.5490     1.0140    -1.1500 S.o2  1 <1>   1.3330 
  2 O        1.1510    -0.2390    -1.7400 O.2   1 <1>  -0.6500 
  3 O        1.5450     2.2310    -1.9290 O.2   1 <1>  -0.6500 
  4 N        3.1140     0.8210    -0.5210 N.am  1 <1>  -0.8490 
  5 C        0.5420     1.3220     0.3110 C.3   1 <1>  -0.0550 
  6 C        3.3270    -0.4960     0.1020 C.3   1 <1>   0.1160 
  7 C        4.1290     0.9900    -1.5720 C.3   1 <1>   0.1160 
  8 C        0.5740     2.7570     0.8930 C.3   1 <1>  -0.0800 
  9 C       -0.1200     3.7960    -0.0080 C.3   1 <1>   0.2000 
 10 C        1.9880     3.3100     1.1550 C.3   1 <1>   0.3430 
 11 O       -1.0280     4.5030     0.7740 O.3   1 <1>  -0.6800 
 12 C        0.9930     4.7540    -0.4470 C.3   1 <1>   0.3430 
 13 N        2.0040     4.7000     0.6430 N.4   1 <1>  -0.9590 
 14 C        1.7150     5.7130     1.6900 C.3   1 <1>   0.4860 
 15 C        1.9420     7.0900     1.0960 C.ar  1 <1>  -0.1430 
 16 C        3.1870     7.4300     0.5760 C.ar  1 <1>   0.0820 
 17 C        0.9030     8.0060     1.0590 C.ar  1 <1>  -0.1500 
 18 O        4.1600     6.4800     0.6160 O.3   1 <1>  -0.3630 
 19 C        3.3820     8.6950     0.0300 C.ar  1 <1>  -0.1500 
 20 C        1.1010     9.2600     0.5100 C.ar  1 <1>  -0.1500 
 21 C        5.3190     6.5340    -0.1940 C.3   1 <1>   0.2000 
 22 C        2.3390     9.6040    -0.0020 C.ar  1 <1>  -0.1500 
 23 C        4.9410     6.2350    -1.6450 C.3   1 <1>  -0.1600 
 24 C        6.1920     5.3460     0.1910 C.3   1 <1>  -0.1600 
 25 C        4.8350     4.7090    -1.7490 C.3   1 <1>  -0.1600 
 26 C        5.5960     4.1400    -0.5430 C.3   1 <1>  -0.1600 
 27 H       -0.4780     1.0940     0.0630 H     1 <1>   0.0800 
 28 H        0.8250     0.6300     1.0790 H     1 <1>   0.0800 
 29 H        4.3180    -0.5530     0.5210 H     1 <1>   0.0800 
 30 H        3.2160    -1.2840    -0.6270 H     1 <1>   0.0800 
 31 H        2.6190    -0.6630     0.8940 H     1 <1>   0.0800 
 32 H        5.1190     0.8990    -1.1560 H     1 <1>   0.0800 
 33 H        4.0430     1.9630    -2.0240 H     1 <1>   0.0800 
 34 H        4.0020     0.2460    -2.3410 H     1 <1>   0.0800 
 35 H        0.0650     2.7150     1.8400 H     1 <1>   0.0800 
 36 H       -0.6420     3.3820    -0.8550 H     1 <1>   0.0800 
 37 H        2.7230     2.7390     0.6170 H     1 <1>   0.0800 
 38 H        2.2340     3.2780     2.2040 H     1 <1>   0.0800 
 39 H       -1.8890     4.0350     0.8290 H     1 <1>   0.4000 
 40 H        0.6150     5.7500    -0.6090 H     1 <1>   0.0800 
 41 H        1.4350     4.3950    -1.3620 H     1 <1>   0.0800 
 42 H        2.9350     4.9720     0.2760 H     1 <1>   0.4500 
 43 H        0.6990     5.6180     2.0370 H     1 <1>   0.0800 
 44 H        2.3830     5.5810     2.5250 H     1 <1>   0.0800 
 45 H       -0.0680     7.7550     1.4540 H     1 <1>   0.1500 
 46 H        4.3320     8.9940    -0.3720 H     1 <1>   0.1500 
 47 H        0.2930     9.9720     0.4820 H     1 <1>   0.1500 
 48 H        5.8230     7.4730    -0.0470 H     1 <1>   0.0800 
 49 H        2.4910    10.5820    -0.4260 H     1 <1>   0.1500 
 50 H        4.0420     6.7350    -1.9590 H     1 <1>   0.0800 
 51 H        5.7480     6.5670    -2.2760 H     1 <1>   0.0800 
 52 H        7.1880     5.5210    -0.1780 H     1 <1>   0.0800 
 53 H        6.2420     5.2050     1.2570 H     1 <1>   0.0800 
 54 H        3.8050     4.4020    -1.7180 H     1 <1>   0.0800 
 55 H        5.2660     4.3670    -2.6750 H     1 <1>   0.0800 
 56 H        6.3710     3.4600    -0.8520 H     1 <1>   0.0800 
 57 H        4.9160     3.6170     0.1050 H     1 <1>   0.0800 
@<TRIPOS>BOND
  1   1   2  2   
  2   1   3  2   
  3   1   4  am  
  4   1   5  1   
  5   4   6  1   
  6   4   7  1   
  7   5   8  1   
  8   5  27  1   
  9   5  28  1   
 10   6  29  1   
 11   6  30  1   
 12   6  31  1   
 13   7  32  1   
 14   7  33  1   
 15   7  34  1   
 16   8   9  1   
 17   8  10  1   
 18   8  35  1   
 19   9  11  1   
 20   9  12  1   
 21   9  36  1   
 22  10  13  1   
 23  10  37  1   
 24  10  38  1   
 25  11  39  1   
 26  12  13  1   
 27  12  40  1   
 28  12  41  1   
 29  13  14  1   
 30  13  42  1   
 31  14  15  1   
 32  14  43  1   
 33  14  44  1   
 34  15  16  ar  
 35  15  17  ar  
 36  16  18  1   
 37  16  19  ar  
 38  17  20  ar  
 39  17  45  1   
 40  18  21  1   
 41  19  22  ar  
 42  19  46  1   
 43  20  22  ar  
 44  20  47  1   
 45  21  23  1   
 46  21  24  1   
 47  21  48  1   
 48  22  49  1   
 49  23  25  1   
 50  23  50  1   
 51  23  51  1   
 52  24  26  1   
 53  24  52  1   
 54  24  53  1   
 55  25  26  1   
 56  25  54  1   
 57  25  55  1   
 58  26  56  1   
 59  26  57  1   
@<TRIPOS>SUBSTRUCTURE
  1 ****  13 GROUP 4 **** **** 0

# MOE 2024.06 (io_trps.svl 2023.06)
