@<TRIPOS>MOLECULE
NONAME
51 54 1 0 0 
SMALL
USER_CHARGES


@<TRIPOS>ATOM
  1 O       -0.3060    -1.7030     1.4470 O.2   1 <1>  -0.5700 
  2 C        0.8650    -1.8980     1.1800 C.2   1 <1>   0.5440 
  3 N        1.4490    -3.0380     1.6550 N.am  1 <1>  -0.7300 
  4 C        1.6150    -0.9540     0.3690 C.ar  1 <1>   0.0860 
  5 C        0.8130    -4.0400     2.5710 C.3   1 <1>   0.2010 
  6 C        1.2700     0.3990     0.3470 C.ar  1 <1>  -0.1500 
  7 C        2.7000    -1.3500    -0.4180 C.ar  1 <1>  -0.1500 
  8 C        0.3980    -5.3350     1.8580 C.2   1 <1>   0.5690 
  9 C        1.9740     1.3140    -0.4140 C.ar  1 <1>  -0.1500 
 10 C        3.4090    -0.4390    -1.1800 C.ar  1 <1>  -0.1500 
 11 O        1.1170    -6.2960     1.9960 O.2   1 <1>  -0.5700 
 12 N       -0.7320    -5.4230     1.0720 N.am  1 <1>  -0.6600 
 13 C        3.0470     0.8960    -1.1790 C.ar  1 <1>  -0.1500 
 14 C       -1.6870    -4.2790     0.8690 C.3   1 <1>   0.1400 
 15 C       -0.9070    -6.6370     0.2060 C.3   1 <1>   0.1400 
 16 C       -3.1600    -4.6880     0.6140 C.3   1 <1>   0.4230 
 17 C       -2.3200    -6.7890    -0.3840 C.3   1 <1>   0.3430 
 18 N       -3.3500    -6.1860     0.5240 N.4   1 <1>  -0.9590 
 19 C       -3.7110    -3.9710    -0.6420 C.3   1 <1>   0.1200 
 20 C       -4.7700    -6.5070     0.1710 C.3   1 <1>   0.5180 
 21 O       -5.0360    -4.3500    -0.8930 O.3   1 <1>  -0.5600 
 22 C       -4.9370    -8.0220     0.0020 C.3   1 <1>  -0.1950 
 23 C       -5.2430    -5.7240    -1.0730 C.3   1 <1>   0.1200 
 24 C       -6.1720    -8.7010     0.5100 C.3   1 <1>  -0.2000 
 25 C       -4.8470    -8.9600     1.1680 C.3   1 <1>  -0.2000 
 26 H        2.4380    -3.2070     1.4610 H     1 <1>   0.3700 
 27 H        1.5210    -4.2940     3.3390 H     1 <1>   0.0800 
 28 H       -0.0370    -3.6040     3.0620 H     1 <1>   0.0800 
 29 H        0.4360     0.7350     0.9380 H     1 <1>   0.1500 
 30 H        2.9950    -2.3830    -0.4440 H     1 <1>   0.1500 
 31 H        1.6880     2.3520    -0.4120 H     1 <1>   0.1500 
 32 H        4.2430    -0.7650    -1.7780 H     1 <1>   0.1500 
 33 H        3.5980     1.6070    -1.7720 H     1 <1>   0.1500 
 34 H       -1.6930    -3.6540     1.7420 H     1 <1>   0.0800 
 35 H       -1.3250    -3.6750     0.0550 H     1 <1>   0.0800 
 36 H       -0.1860    -6.6100    -0.5940 H     1 <1>   0.0800 
 37 H       -0.6900    -7.5140     0.7930 H     1 <1>   0.0800 
 38 H       -3.7350    -4.3210     1.4480 H     1 <1>   0.0800 
 39 H       -2.5130    -7.8380    -0.5360 H     1 <1>   0.0800 
 40 H       -2.3540    -6.3060    -1.3460 H     1 <1>   0.0800 
 41 H       -3.1670    -6.5710     1.4580 H     1 <1>   0.4500 
 42 H       -3.1200    -4.1920    -1.5140 H     1 <1>   0.0800 
 43 H       -3.7040    -2.9050    -0.4910 H     1 <1>   0.0800 
 44 H       -5.3980    -6.2030     0.9930 H     1 <1>   0.0800 
 45 H       -4.5910    -8.3740    -0.9560 H     1 <1>   0.1000 
 46 H       -6.2980    -5.8780    -1.2220 H     1 <1>   0.0800 
 47 H       -4.7230    -6.0410    -1.9590 H     1 <1>   0.0800 
 48 H       -6.9120    -8.1470     1.0640 H     1 <1>   0.1000 
 49 H       -6.6130    -9.4950    -0.0710 H     1 <1>   0.1000 
 50 H       -4.3990    -9.9310     1.0320 H     1 <1>   0.1000 
 51 H       -4.7110    -8.5870     2.1690 H     1 <1>   0.1000 
@<TRIPOS>BOND
  1   1   2  2   
  2   2   3  am  
  3   2   4  1   
  4   3   5  1   
  5   3  26  1   
  6   4   6  ar  
  7   4   7  ar  
  8   5   8  1   
  9   5  27  1   
 10   5  28  1   
 11   6   9  ar  
 12   6  29  1   
 13   7  10  ar  
 14   7  30  1   
 15   8  11  2   
 16   8  12  am  
 17   9  13  ar  
 18   9  31  1   
 19  10  13  ar  
 20  10  32  1   
 21  12  14  1   
 22  12  15  1   
 23  13  33  1   
 24  14  16  1   
 25  14  34  1   
 26  14  35  1   
 27  15  17  1   
 28  15  36  1   
 29  15  37  1   
 30  16  18  1   
 31  16  19  1   
 32  16  38  1   
 33  17  18  1   
 34  17  39  1   
 35  17  40  1   
 36  18  20  1   
 37  18  41  1   
 38  19  21  1   
 39  19  42  1   
 40  19  43  1   
 41  20  22  1   
 42  20  23  1   
 43  20  44  1   
 44  21  23  1   
 45  22  24  1   
 46  22  25  1   
 47  22  45  1   
 48  23  46  1   
 49  23  47  1   
 50  24  25  1   
 51  24  48  1   
 52  24  49  1   
 53  25  50  1   
 54  25  51  1   
@<TRIPOS>SUBSTRUCTURE
  1 ****  14 GROUP 4 **** **** 0

# MOE 2024.06 (io_trps.svl 2023.06)
