@<TRIPOS>MOLECULE
NONAME
60 64 1 0 0 
SMALL
USER_CHARGES


@<TRIPOS>ATOM
  1 N        0.7870     0.1780     0.4550 N.ar  1 <1>  -0.6200 
  2 C       -0.1240     1.0350     0.9430 C.ar  1 <1>   0.6200 
  3 C        1.4500     0.6010    -0.5910 C.ar  1 <1>   0.1660 
  4 N       -0.3750     2.2550     0.4500 N.ar  1 <1>  -0.6200 
  5 C       -0.8920     0.6080     2.1020 C.ar  1 <1>   0.0000 
  6 C        1.2610     1.8210    -1.1600 C.ar  1 <1>  -0.1430 
  7 C        2.5220    -0.1930    -1.2990 C.3   1 <1>   0.1440 
  8 C        0.3160     2.6400    -0.5990 C.ar  1 <1>   0.1600 
  9 C       -1.2870    -0.7230     2.2680 C.ar  1 <1>  -0.1500 
 10 C       -1.2710     1.5100     3.1000 C.ar  1 <1>  -0.1500 
 11 C        2.1740     2.0340    -2.3410 C.3   1 <1>  -0.0160 
 12 C        3.4860    -0.7520    -0.2400 C.3   1 <1>   0.3430 
 13 C        1.8850    -1.3430    -2.1080 C.3   1 <1>  -0.1600 
 14 C        3.1820     0.8740    -2.2140 C.3   1 <1>  -0.1600 
 15 C       -2.0140    -1.1320     3.3710 C.ar  1 <1>  -0.1500 
 16 C       -1.9980     1.1070     4.2050 C.ar  1 <1>  -0.1500 
 17 N        4.5130    -1.6810    -0.8390 N.4   1 <1>  -0.9590 
 18 C        2.9390    -2.3390    -2.6260 C.3   1 <1>  -0.1600 
 19 C       -2.3710    -0.2170     4.3440 C.ar  1 <1>  -0.1500 
 20 C        3.8560    -2.8420    -1.5070 C.3   1 <1>   0.3430 
 21 C        5.5100    -2.1240     0.1780 C.3   1 <1>   0.4860 
 22 C        6.3120    -0.9260     0.6250 C.ar  1 <1>  -0.1430 
 23 C        7.3170    -0.4030    -0.1560 C.ar  1 <1>   0.1600 
 24 C        6.0640    -0.2990     1.8240 C.ar  1 <1>   0.1600 
 25 N        7.9910     0.6620     0.2000 N.ar  1 <1>  -0.6200 
 26 N        6.7270     0.7660     2.1990 N.ar  1 <1>  -0.6200 
 27 C        7.6670     1.2000     1.3680 C.ar  1 <1>   0.4770 
 28 C        8.4590     2.4460     1.7880 C.3   1 <1>   0.0630 
 29 C        9.2390     2.2160     3.0920 C.3   1 <1>  -0.2400 
 30 C        7.5530     3.6810     1.9240 C.3   1 <1>  -0.2400 
 31 H        0.1230     3.6180    -1.0090 H     1 <1>   0.1500 
 32 H       -1.0230    -1.4470     1.5180 H     1 <1>   0.1500 
 33 H       -0.9910     2.5450     3.0060 H     1 <1>   0.1500 
 34 H        2.6610     2.9930    -2.3010 H     1 <1>   0.0800 
 35 H        1.6070     1.9520    -3.2540 H     1 <1>   0.0800 
 36 H        2.9070    -1.2820     0.4990 H     1 <1>   0.0800 
 37 H        3.9690     0.0760     0.2540 H     1 <1>   0.0800 
 38 H        1.3130    -0.9460    -2.9300 H     1 <1>   0.0800 
 39 H        1.1950    -1.8730    -1.4720 H     1 <1>   0.0800 
 40 H        3.4520     0.4920    -3.1830 H     1 <1>   0.0800 
 41 H        4.0690     1.2620    -1.7410 H     1 <1>   0.0800 
 42 H       -2.3060    -2.1630     3.4730 H     1 <1>   0.1500 
 43 H       -2.2750     1.8250     4.9580 H     1 <1>   0.1500 
 44 H        5.0170    -1.1470    -1.5580 H     1 <1>   0.4500 
 45 H        3.5320    -1.8880    -3.4030 H     1 <1>   0.0800 
 46 H        2.4340    -3.1820    -3.0660 H     1 <1>   0.0800 
 47 H       -2.9370    -0.5320     5.2030 H     1 <1>   0.1500 
 48 H        3.2720    -3.3960    -0.7890 H     1 <1>   0.0800 
 49 H        4.5990    -3.5030    -1.9240 H     1 <1>   0.0800 
 50 H        6.1750    -2.8570    -0.2500 H     1 <1>   0.0800 
 51 H        5.0090    -2.5710     1.0220 H     1 <1>   0.0800 
 52 H        7.5830    -0.8550    -1.0970 H     1 <1>   0.1500 
 53 H        5.3040    -0.6630     2.4970 H     1 <1>   0.1500 
 54 H        9.1780     2.6550     1.0140 H     1 <1>   0.0800 
 55 H        8.5620     2.0300     3.9080 H     1 <1>   0.0800 
 56 H        9.8380     3.0770     3.3290 H     1 <1>   0.0800 
 57 H        9.8880     1.3650     2.9860 H     1 <1>   0.0800 
 58 H        6.8300     3.5320     2.7060 H     1 <1>   0.0800 
 59 H        7.0290     3.8550     1.0010 H     1 <1>   0.0800 
 60 H        8.1380     4.5520     2.1550 H     1 <1>   0.0800 
@<TRIPOS>BOND
  1   1   2  ar  
  2   1   3  ar  
  3   2   4  ar  
  4   2   5  1   
  5   3   6  ar  
  6   3   7  1   
  7   4   8  ar  
  8   5   9  ar  
  9   5  10  ar  
 10   6   8  ar  
 11   6  11  1   
 12   7  12  1   
 13   7  13  1   
 14   7  14  1   
 15   8  31  1   
 16   9  15  ar  
 17   9  32  1   
 18  10  16  ar  
 19  10  33  1   
 20  11  14  1   
 21  11  34  1   
 22  11  35  1   
 23  12  17  1   
 24  12  36  1   
 25  12  37  1   
 26  13  18  1   
 27  13  38  1   
 28  13  39  1   
 29  14  40  1   
 30  14  41  1   
 31  15  19  ar  
 32  15  42  1   
 33  16  19  ar  
 34  16  43  1   
 35  17  20  1   
 36  17  21  1   
 37  17  44  1   
 38  18  20  1   
 39  18  45  1   
 40  18  46  1   
 41  19  47  1   
 42  20  48  1   
 43  20  49  1   
 44  21  22  1   
 45  21  50  1   
 46  21  51  1   
 47  22  23  ar  
 48  22  24  ar  
 49  23  25  ar  
 50  23  52  1   
 51  24  26  ar  
 52  24  53  1   
 53  25  27  ar  
 54  26  27  ar  
 55  27  28  1   
 56  28  29  1   
 57  28  30  1   
 58  28  54  1   
 59  29  55  1   
 60  29  56  1   
 61  29  57  1   
 62  30  58  1   
 63  30  59  1   
 64  30  60  1   
@<TRIPOS>SUBSTRUCTURE
  1 ****  12 GROUP 4 **** **** 0

# MOE 2024.06 (io_trps.svl 2023.06)
