@<TRIPOS>MOLECULE
NONAME
49 50 1 0 0 
SMALL
USER_CHARGES


@<TRIPOS>ATOM
  1 O        0.6390    -1.2190     1.5320 O.2   1 <1>  -0.5700 
  2 C        1.6180    -1.0650     0.8490 C.2   1 <1>   0.5690 
  3 N        1.7190    -1.4530    -0.4300 N.am  1 <1>  -0.7300 
  4 C        2.8960    -0.4350     1.3140 C.3   1 <1>   0.0420 
  5 C        3.0190    -1.1320    -1.0300 C.3   1 <1>   0.1400 
  6 C        2.6390     1.0480     1.4610 C.2   1 <1>   0.6590 
  7 C        3.9140    -0.8350     0.2010 C.3   1 <1>   0.0000 
  8 O        2.9530     1.6320     2.4660 O.2   1 <1>  -0.5700 
  9 O        2.0870     1.6740     0.4240 O.3   1 <1>  -0.4300 
 10 C        4.6430    -2.1310     0.6450 C.3   1 <1>  -0.1600 
 11 C        4.9730     0.2520    -0.1020 C.3   1 <1>  -0.1600 
 12 C        1.7380     3.0400     0.4540 C.3   1 <1>   0.1200 
 13 C        5.7350    -2.5880    -0.3290 C.3   1 <1>   0.1400 
 14 C        6.0390    -0.2210    -1.0950 C.3   1 <1>   0.1400 
 15 C        0.3460     3.1730     1.0690 C.3   1 <1>  -0.2400 
 16 N        6.6700    -1.4630    -0.5860 N.am  1 <1>  -0.6600 
 17 C        8.0220    -1.5380    -0.3540 C.2   1 <1>   0.7800 
 18 O        8.7670    -0.6060    -0.5840 O.2   1 <1>  -0.5700 
 19 O        8.4940    -2.6850     0.1420 O.3   1 <1>  -0.4300 
 20 C        9.8300    -2.9900     0.4790 C.3   1 <1>   0.2800 
 21 C       10.3220    -2.0580     1.5920 C.3   1 <1>  -0.2400 
 22 C        9.7900    -4.4250     1.0050 C.3   1 <1>  -0.2400 
 23 C       10.7180    -2.9340    -0.7690 C.3   1 <1>  -0.2400 
 24 H        0.9240    -1.8290    -0.9530 H     1 <1>   0.3700 
 25 H        3.1680    -0.8330     2.2730 H     1 <1>   0.0800 
 26 H        2.9100    -0.2580    -1.6510 H     1 <1>   0.0800 
 27 H        3.3790    -1.9530    -1.6240 H     1 <1>   0.0800 
 28 H        3.9350    -2.9320     0.7720 H     1 <1>   0.0800 
 29 H        5.1140    -1.9680     1.6000 H     1 <1>   0.0800 
 30 H        5.4700     0.5400     0.8090 H     1 <1>   0.0800 
 31 H        4.5100     1.1330    -0.5080 H     1 <1>   0.0800 
 32 H        1.7360     3.4000    -0.5600 H     1 <1>   0.0800 
 33 H        2.4740     3.5850     1.0220 H     1 <1>   0.0800 
 34 H        5.3060    -2.9050    -1.2620 H     1 <1>   0.0800 
 35 H        6.2530    -3.4320     0.0930 H     1 <1>   0.0800 
 36 H        6.7760     0.5550    -1.2240 H     1 <1>   0.0800 
 37 H        5.5990    -0.4190    -2.0570 H     1 <1>   0.0800 
 38 H       -0.3680     2.6020     0.5020 H     1 <1>   0.0800 
 39 H        0.0440     4.2040     1.0640 H     1 <1>   0.0800 
 40 H        0.3540     2.8270     2.0880 H     1 <1>   0.0800 
 41 H        9.6340    -2.0670     2.4180 H     1 <1>   0.0800 
 42 H       10.4320    -1.0510     1.2350 H     1 <1>   0.0800 
 43 H       11.2840    -2.3830     1.9450 H     1 <1>   0.0800 
 44 H        9.1510    -4.4890     1.8660 H     1 <1>   0.0800 
 45 H       10.7760    -4.7460     1.2890 H     1 <1>   0.0800 
 46 H        9.4230    -5.0910     0.2440 H     1 <1>   0.0800 
 47 H       10.8270    -1.9260    -1.1240 H     1 <1>   0.0800 
 48 H       10.3020    -3.5410    -1.5520 H     1 <1>   0.0800 
 49 H       11.7010    -3.3030    -0.5370 H     1 <1>   0.0800 
@<TRIPOS>BOND
  1   1   2  2   
  2   2   3  am  
  3   2   4  1   
  4   3   5  1   
  5   3  24  1   
  6   4   6  1   
  7   4   7  1   
  8   4  25  1   
  9   5   7  1   
 10   5  26  1   
 11   5  27  1   
 12   6   8  2   
 13   6   9  1   
 14   7  10  1   
 15   7  11  1   
 16   9  12  1   
 17  10  13  1   
 18  10  28  1   
 19  10  29  1   
 20  11  14  1   
 21  11  30  1   
 22  11  31  1   
 23  12  15  1   
 24  12  32  1   
 25  12  33  1   
 26  13  16  1   
 27  13  34  1   
 28  13  35  1   
 29  14  16  1   
 30  14  36  1   
 31  14  37  1   
 32  15  38  1   
 33  15  39  1   
 34  15  40  1   
 35  16  17  am  
 36  17  18  2   
 37  17  19  1   
 38  19  20  1   
 39  20  21  1   
 40  20  22  1   
 41  20  23  1   
 42  21  41  1   
 43  21  42  1   
 44  21  43  1   
 45  22  44  1   
 46  22  45  1   
 47  22  46  1   
 48  23  47  1   
 49  23  48  1   
 50  23  49  1   
@<TRIPOS>SUBSTRUCTURE
  1 ****  11 GROUP 4 **** **** 0

# MOE 2024.06 (io_trps.svl 2023.06)
