@<TRIPOS>MOLECULE
NONAME
50 53 1 0 0 
SMALL
USER_CHARGES


@<TRIPOS>ATOM
  1 O       -0.4590     0.2100    -1.2420 O.2   1 <1>  -0.5700 
  2 C       -1.4040     0.8190    -0.7720 C.2   1 <1>   0.7160 
  3 N       -2.4830     0.0790    -0.3130 N.am  1 <1>  -0.6600 
  4 C       -1.3900     2.2410    -0.6890 C.2   1 <1>  -0.0860 
  5 C       -3.3460     0.5460     0.8190 C.3   1 <1>   0.1400 
  6 C       -2.5460    -1.3940    -0.5710 C.3   1 <1>   0.1400 
  7 C       -0.4300     3.0800    -0.1890 C.2   1 <1>  -0.0680 
  8 C       -2.3980     3.1300    -1.0910 C.2   1 <1>   0.1390 
  9 C       -4.8030     0.0460     0.6860 C.3   1 <1>   0.4230 
 10 C       -4.0000    -1.8810    -0.7020 C.3   1 <1>   0.3430 
 11 N       -0.8960     4.3340    -0.2900 N.pl3 1 <1>   0.6010 
 12 N        0.8270     3.0940     0.3790 N.pl3 1 <1>  -0.5530 
 13 N       -2.1360     4.3770    -0.8420 N.2   1 <1>  -0.7070 
 14 N       -4.8710    -1.4540     0.4600 N.4   1 <1>  -0.9590 
 15 C       -5.5470     0.8070    -0.4340 C.3   1 <1>   0.1200 
 16 C        0.0690     5.1820     0.2190 C.2   1 <1>  -0.1810 
 17 C        1.1170     4.4290     0.6180 C.2   1 <1>  -0.0500 
 18 C        1.7510     1.9430     0.4830 C.3   1 <1>   0.1290 
 19 C       -6.3140    -1.8570     0.3000 C.3   1 <1>   0.4230 
 20 O       -6.8670     0.3530    -0.5340 O.3   1 <1>  -0.5600 
 21 C       -7.0170    -1.0150    -0.7950 C.3   1 <1>   0.1200 
 22 C       -6.4300    -3.3710     0.0550 C.3   1 <1>  -0.1600 
 23 C       -7.8620    -3.8890     0.2570 C.3   1 <1>  -0.1600 
 24 C       -7.9200    -5.4100     0.0850 C.3   1 <1>  -0.2400 
 25 H       -2.9320     0.1760     1.7410 H     1 <1>   0.0800 
 26 H       -3.3450     1.6200     0.8860 H     1 <1>   0.0800 
 27 H       -2.0220    -1.6310    -1.4820 H     1 <1>   0.0800 
 28 H       -2.0530    -1.9170     0.2310 H     1 <1>   0.0800 
 29 H       -3.3120     2.8180    -1.5660 H     1 <1>   0.1500 
 30 H       -5.3090     0.2830     1.6080 H     1 <1>   0.0800 
 31 H       -3.9950    -2.9560    -0.7820 H     1 <1>   0.0800 
 32 H       -4.4040    -1.4890    -1.6200 H     1 <1>   0.0800 
 33 H       -4.5140    -1.9130     1.3060 H     1 <1>   0.4500 
 34 H       -5.0640     0.6830    -1.3870 H     1 <1>   0.0800 
 35 H       -5.5860     1.8590    -0.2060 H     1 <1>   0.0800 
 36 H       -0.0940     6.2410     0.2350 H     1 <1>   0.1500 
 37 H        2.0530     4.7400     1.0530 H     1 <1>   0.1500 
 38 H        2.7020     2.2680     0.8650 H     1 <1>   0.0800 
 39 H        1.8890     1.5060    -0.4910 H     1 <1>   0.0800 
 40 H        1.3340     1.2050     1.1440 H     1 <1>   0.0800 
 41 H       -6.8250    -1.6470     1.2260 H     1 <1>   0.0800 
 42 H       -8.0720    -1.2210    -0.8040 H     1 <1>   0.0800 
 43 H       -6.6220    -1.2270    -1.7730 H     1 <1>   0.0800 
 44 H       -6.1180    -3.6140    -0.9460 H     1 <1>   0.0800 
 45 H       -5.7910    -3.8890     0.7500 H     1 <1>   0.0800 
 46 H       -8.2120    -3.6400     1.2460 H     1 <1>   0.0800 
 47 H       -8.5340    -3.4410    -0.4560 H     1 <1>   0.0800 
 48 H       -7.2920    -5.9020     0.8070 H     1 <1>   0.0800 
 49 H       -7.6040    -5.6960    -0.9030 H     1 <1>   0.0800 
 50 H       -8.9290    -5.7560     0.2280 H     1 <1>   0.0800 
@<TRIPOS>BOND
  1   1   2  2   
  2   2   3  am  
  3   2   4  1   
  4   3   5  1   
  5   3   6  1   
  6   4   7  2   
  7   4   8  1   
  8   5   9  1   
  9   5  25  1   
 10   5  26  1   
 11   6  10  1   
 12   6  27  1   
 13   6  28  1   
 14   7  11  1   
 15   7  12  1   
 16   8  13  2   
 17   8  29  1   
 18   9  14  1   
 19   9  15  1   
 20   9  30  1   
 21  10  14  1   
 22  10  31  1   
 23  10  32  1   
 24  11  13  1   
 25  11  16  1   
 26  12  17  1   
 27  12  18  1   
 28  14  19  1   
 29  14  33  1   
 30  15  20  1   
 31  15  34  1   
 32  15  35  1   
 33  16  17  2   
 34  16  36  1   
 35  17  37  1   
 36  18  38  1   
 37  18  39  1   
 38  18  40  1   
 39  19  21  1   
 40  19  22  1   
 41  19  41  1   
 42  20  21  1   
 43  21  42  1   
 44  21  43  1   
 45  22  23  1   
 46  22  44  1   
 47  22  45  1   
 48  23  24  1   
 49  23  46  1   
 50  23  47  1   
 51  24  48  1   
 52  24  49  1   
 53  24  50  1   
@<TRIPOS>SUBSTRUCTURE
  1 ****   3 GROUP 4 **** **** 0

# MOE 2024.06 (io_trps.svl 2023.06)
