@<TRIPOS>MOLECULE
NONAME
35 36 1 0 0 
SMALL
USER_CHARGES


@<TRIPOS>ATOM
  1 F       -1.1320     3.7220    -2.4370 F     1 <1>  -0.1900 
  2 C       -1.7420     3.7870    -1.2750 C.ar  1 <1>   0.1900 
  3 C       -1.0090     3.7220    -0.0890 C.ar  1 <1>   0.1000 
  4 C       -3.1150     3.9340    -1.2720 C.ar  1 <1>   0.1600 
  5 N        0.3880     3.6340    -0.0060 N.pl3 1 <1>  -0.8380 
  6 C       -1.7950     3.7750     1.0530 C.ar  1 <1>  -0.1500 
  7 N       -3.8550     4.0090    -0.1700 N.ar  1 <1>  -0.6200 
  8 C        1.1810     4.3740     1.0270 C.3   1 <1>   0.3890 
  9 C        1.1590     2.6740    -0.8470 C.3   1 <1>   0.1290 
 10 C       -3.1700     3.9150     0.9620 C.ar  1 <1>   0.1600 
 11 C        2.2230     5.3010     0.4140 C.2   1 <1>   0.0070 
 12 N        3.4400     5.3570     0.8410 N.2   1 <1>  -0.3380 
 13 N        2.0200     6.1630    -0.5950 N.pl3 1 <1>   0.0480 
 14 N        4.0750     6.2710     0.1090 N.2   1 <1>  -0.3380 
 15 C        3.2180     6.7320    -0.7330 C.2   1 <1>   0.0370 
 16 C        0.8260     6.4460    -1.4200 C.3   1 <1>   0.0960 
 17 C       -0.2910     7.0730    -0.5880 C.3   1 <1>   0.1200 
 18 O       -1.3750     7.2870    -1.4320 O.3   1 <1>  -0.5600 
 19 C       -2.5550     7.6200    -0.7720 C.3   1 <1>   0.0400 
 20 H       -3.6260     3.9940    -2.2170 H     1 <1>   0.1500 
 21 H       -1.3400     3.6980     2.0210 H     1 <1>   0.1500 
 22 H        1.6770     3.6630     1.6650 H     1 <1>   0.0800 
 23 H        0.5280     4.9650     1.6410 H     1 <1>   0.0800 
 24 H        0.4910     1.9980    -1.3530 H     1 <1>   0.0800 
 25 H        1.8280     2.0970    -0.2310 H     1 <1>   0.0800 
 26 H        1.7350     3.2110    -1.5810 H     1 <1>   0.0800 
 27 H       -3.7440     3.9520     1.8730 H     1 <1>   0.1500 
 28 H        3.4310     7.4860    -1.4690 H     1 <1>   0.1500 
 29 H        0.4880     5.5280    -1.8570 H     1 <1>   0.0800 
 30 H        1.1000     7.1210    -2.2100 H     1 <1>   0.0800 
 31 H        0.0160     8.0210    -0.1820 H     1 <1>   0.0800 
 32 H       -0.5970     6.4080     0.1990 H     1 <1>   0.0800 
 33 H       -3.3170     7.7880    -1.5120 H     1 <1>   0.0800 
 34 H       -2.4020     8.5170    -0.1970 H     1 <1>   0.0800 
 35 H       -2.8490     6.8040    -0.1340 H     1 <1>   0.0800 
@<TRIPOS>BOND
  1   1   2  1   
  2   2   3  ar  
  3   2   4  ar  
  4   3   5  1   
  5   3   6  ar  
  6   4   7  ar  
  7   4  20  1   
  8   5   8  1   
  9   5   9  1   
 10   6  10  ar  
 11   6  21  1   
 12   7  10  ar  
 13   8  11  1   
 14   8  22  1   
 15   8  23  1   
 16   9  24  1   
 17   9  25  1   
 18   9  26  1   
 19  10  27  1   
 20  11  12  2   
 21  11  13  1   
 22  12  14  1   
 23  13  15  1   
 24  13  16  1   
 25  14  15  2   
 26  15  28  1   
 27  16  17  1   
 28  16  29  1   
 29  16  30  1   
 30  17  18  1   
 31  17  31  1   
 32  17  32  1   
 33  18  19  1   
 34  19  33  1   
 35  19  34  1   
 36  19  35  1   
@<TRIPOS>SUBSTRUCTURE
  1 ****   5 GROUP 4 **** **** 0

# MOE 2024.06 (io_trps.svl 2023.06)
