@<TRIPOS>MOLECULE
NONAME
48 50 1 0 0 
SMALL
USER_CHARGES


@<TRIPOS>ATOM
  1 CL       0.5130    -0.5270    -0.8870 Cl    1 <1>  -0.1770 
  2 C        0.1660    -2.2040    -0.5500 C.ar  1 <1>   0.1770 
  3 C       -1.0550    -2.5540    -0.0240 C.ar  1 <1>  -0.1500 
  4 C        1.1360    -3.1570    -0.8220 C.ar  1 <1>  -0.1500 
  5 C       -1.3470    -3.8950     0.2500 C.ar  1 <1>   0.0860 
  6 C        0.8680    -4.4820    -0.5580 C.ar  1 <1>  -0.1500 
  7 C       -2.6060    -4.3250     0.8010 C.2   1 <1>   0.4690 
  8 C       -0.3640    -4.8640    -0.0250 C.ar  1 <1>   0.1000 
  9 O       -3.4960    -3.5260     1.0630 O.2   1 <1>  -0.5700 
 10 C       -2.7950    -5.7100     1.0360 C.2   1 <1>  -0.1360 
 11 N       -0.6310    -6.2020     0.2390 N.pl3 1 <1>  -0.6000 
 12 C       -1.8330    -6.6270     0.7580 C.2   1 <1>  -0.0380 
 13 C       -2.0060    -8.1260     1.0060 C.3   1 <1>   0.2480 
 14 N       -3.4030    -8.5640     0.8390 N.3   1 <1>  -0.8100 
 15 C       -3.8940    -8.4490    -0.5390 C.3   1 <1>   0.1100 
 16 C       -3.6090    -9.9650     1.2340 C.3   1 <1>   0.1100 
 17 C       -5.1220    -9.3510    -0.5630 C.3   1 <1>   0.2000 
 18 C       -4.7030   -10.5350     0.3080 C.3   1 <1>  -0.0800 
 19 O       -6.1390    -8.6860     0.0900 O.3   1 <1>  -0.6800 
 20 C       -4.1940   -11.6980    -0.5670 C.3   1 <1>  -0.0550 
 21 S       -3.7630   -13.1760     0.3540 S.o2  1 <1>   1.3330 
 22 O       -4.9340   -13.6050     1.0840 O.2   1 <1>  -0.6500 
 23 O       -2.5190   -12.9520     1.0570 O.2   1 <1>  -0.6500 
 24 N       -3.4630   -14.3020    -0.8810 N.am  1 <1>  -0.8490 
 25 C       -2.0910   -14.2550    -1.3980 C.3   1 <1>   0.1160 
 26 C       -3.7980   -15.6730    -0.4810 C.3   1 <1>   0.1160 
 27 H       -1.7930    -1.7970     0.1780 H     1 <1>   0.1500 
 28 H        2.0810    -2.8470    -1.2330 H     1 <1>   0.1500 
 29 H        1.6110    -5.2310    -0.7640 H     1 <1>   0.1500 
 30 H       -3.7450    -5.9950     1.4480 H     1 <1>   0.1500 
 31 H        0.1080    -6.8850     0.0390 H     1 <1>   0.4000 
 32 H       -1.6840    -8.3430     2.0100 H     1 <1>   0.0800 
 33 H       -1.3800    -8.6800     0.3280 H     1 <1>   0.0800 
 34 H       -4.1410    -7.4330    -0.7950 H     1 <1>   0.0800 
 35 H       -3.1570    -8.8230    -1.2290 H     1 <1>   0.0800 
 36 H       -2.6900   -10.5150     1.1330 H     1 <1>   0.0800 
 37 H       -3.9230   -10.0060     2.2640 H     1 <1>   0.0800 
 38 H       -5.4580    -9.6120    -1.5520 H     1 <1>   0.0800 
 39 H       -5.5390   -10.8920     0.8880 H     1 <1>   0.0800 
 40 H       -5.7420    -8.2890     0.8950 H     1 <1>   0.4000 
 41 H       -3.3440   -11.3730    -1.1350 H     1 <1>   0.0800 
 42 H       -4.9700   -11.9560    -1.2620 H     1 <1>   0.0800 
 43 H       -1.9890   -14.9230    -2.2360 H     1 <1>   0.0800 
 44 H       -1.3900   -14.5440    -0.6320 H     1 <1>   0.0800 
 45 H       -1.8520   -13.2590    -1.7270 H     1 <1>   0.0800 
 46 H       -3.6100   -16.3560    -1.2910 H     1 <1>   0.0800 
 47 H       -4.8430   -15.7370    -0.2240 H     1 <1>   0.0800 
 48 H       -3.2130   -15.9660     0.3760 H     1 <1>   0.0800 
@<TRIPOS>BOND
  1   1   2  1   
  2   2   3  ar  
  3   2   4  ar  
  4   3   5  ar  
  5   3  27  1   
  6   4   6  ar  
  7   4  28  1   
  8   5   7  1   
  9   5   8  ar  
 10   6   8  ar  
 11   6  29  1   
 12   7   9  2   
 13   7  10  1   
 14   8  11  1   
 15  10  12  2   
 16  10  30  1   
 17  11  12  1   
 18  11  31  1   
 19  12  13  1   
 20  13  14  1   
 21  13  32  1   
 22  13  33  1   
 23  14  15  1   
 24  14  16  1   
 25  15  17  1   
 26  15  34  1   
 27  15  35  1   
 28  16  18  1   
 29  16  36  1   
 30  16  37  1   
 31  17  18  1   
 32  17  19  1   
 33  17  38  1   
 34  18  20  1   
 35  18  39  1   
 36  19  40  1   
 37  20  21  1   
 38  20  41  1   
 39  20  42  1   
 40  21  22  2   
 41  21  23  2   
 42  21  24  am  
 43  24  25  1   
 44  24  26  1   
 45  25  43  1   
 46  25  44  1   
 47  25  45  1   
 48  26  46  1   
 49  26  47  1   
 50  26  48  1   
@<TRIPOS>SUBSTRUCTURE
  1 ****  13 GROUP 4 **** **** 0

# MOE 2024.06 (io_trps.svl 2023.06)
