@<TRIPOS>MOLECULE
NONAME
56 59 1 0 0 
SMALL
USER_CHARGES


@<TRIPOS>ATOM
  1 O        1.2340     0.0850     1.7040 O.3   1 <1>  -0.5600 
  2 C        0.9080    -1.1810     1.1990 C.3   1 <1>   0.1200 
  3 C        1.7830     0.9360     0.7470 C.3   1 <1>   0.1200 
  4 C        2.1490    -1.8870     0.6060 C.3   1 <1>   0.2850 
  5 C        3.0830     0.3250     0.1930 C.3   1 <1>   0.1900 
  6 N        2.8250    -1.0170    -0.3940 N.3   1 <1>  -0.8100 
  7 C        1.7120    -3.2090    -0.0420 C.3   1 <1>  -0.1950 
  8 C        3.7070     1.2700    -0.8550 C.3   1 <1>   0.3430 
  9 C        4.0700    -1.6060    -0.9310 C.3   1 <1>   0.1100 
 10 C        1.3350    -4.3820     0.8090 C.3   1 <1>  -0.2000 
 11 C        2.5750    -4.4350    -0.0320 C.3   1 <1>  -0.2000 
 12 N        4.9600     0.6940    -1.4630 N.4   1 <1>  -0.9590 
 13 C        4.7160    -0.6900    -1.9910 C.3   1 <1>   0.3430 
 14 C        5.5350     1.5940    -2.4970 C.3   1 <1>   0.4860 
 15 C        5.9190     2.9000    -1.8290 C.ar  1 <1>  -0.1440 
 16 C        6.9270     2.9210    -0.8770 C.ar  1 <1>  -0.1500 
 17 C        5.2630     4.0800    -2.1470 C.ar  1 <1>  -0.1500 
 18 C        7.2680     4.0940    -0.2260 C.ar  1 <1>  -0.1440 
 19 C        5.6030     5.2600    -1.5090 C.ar  1 <1>  -0.1500 
 20 C        6.6050     5.2760    -0.5410 C.ar  1 <1>   0.0820 
 21 C        8.3680     4.0490     0.8240 C.3   1 <1>   0.2630 
 22 O        6.9720     6.4020     0.1210 O.3   1 <1>  -0.3630 
 23 O        7.9090     3.2770     1.8770 O.3   1 <1>  -0.6800 
 24 C        6.4500     7.6700    -0.2080 C.3   1 <1>   0.1200 
 25 C        7.1260     8.7030     0.6870 C.3   1 <1>  -0.2400 
 26 H        0.5060    -1.7620     2.0090 H     1 <1>   0.0800 
 27 H        0.1460    -1.0670     0.4490 H     1 <1>   0.0800 
 28 H        1.0580     1.0880    -0.0350 H     1 <1>   0.0800 
 29 H        1.9790     1.8780     1.2300 H     1 <1>   0.0800 
 30 H        2.8260    -2.1000     1.4170 H     1 <1>   0.0800 
 31 H        3.7710     0.2310     1.0170 H     1 <1>   0.0800 
 32 H        1.0930    -3.0400    -0.9070 H     1 <1>   0.1000 
 33 H        3.9300     2.2150    -0.3850 H     1 <1>   0.0800 
 34 H        2.9770     1.4470    -1.6270 H     1 <1>   0.0800 
 35 H        4.7670    -1.7940    -0.1320 H     1 <1>   0.0800 
 36 H        3.8490    -2.5460    -1.4060 H     1 <1>   0.0800 
 37 H        1.4480    -4.3260     1.8790 H     1 <1>   0.1000 
 38 H        0.4900    -4.9830     0.5180 H     1 <1>   0.1000 
 39 H        2.5780    -5.0780    -0.8960 H     1 <1>   0.1000 
 40 H        3.5250    -4.4200     0.4740 H     1 <1>   0.1000 
 41 H        5.6500     0.6350    -0.7040 H     1 <1>   0.4500 
 42 H        4.0530    -0.6430    -2.8390 H     1 <1>   0.0800 
 43 H        5.6440    -1.1300    -2.3180 H     1 <1>   0.0800 
 44 H        6.4130     1.1480    -2.9340 H     1 <1>   0.0800 
 45 H        4.8150     1.7750    -3.2780 H     1 <1>   0.0800 
 46 H        7.4630     2.0230    -0.6190 H     1 <1>   0.1500 
 47 H        4.4850     4.0980    -2.8910 H     1 <1>   0.1500 
 48 H        5.0780     6.1570    -1.7770 H     1 <1>   0.1500 
 49 H        8.6260     5.0230     1.2030 H     1 <1>   0.0800 
 50 H        9.2530     3.5820     0.4280 H     1 <1>   0.0800 
 51 H        7.1800     3.7550     2.3180 H     1 <1>   0.4000 
 52 H        6.6620     7.8690    -1.2440 H     1 <1>   0.0800 
 53 H        5.3870     7.6580    -0.0370 H     1 <1>   0.0800 
 54 H        8.1890     8.6980     0.5210 H     1 <1>   0.0800 
 55 H        6.9230     8.4880     1.7210 H     1 <1>   0.0800 
 56 H        6.7490     9.6840     0.4610 H     1 <1>   0.0800 
@<TRIPOS>BOND
  1   1   2  1   
  2   1   3  1   
  3   2   4  1   
  4   2  26  1   
  5   2  27  1   
  6   3   5  1   
  7   3  28  1   
  8   3  29  1   
  9   4   6  1   
 10   4   7  1   
 11   4  30  1   
 12   5   6  1   
 13   5   8  1   
 14   5  31  1   
 15   6   9  1   
 16   7  10  1   
 17   7  11  1   
 18   7  32  1   
 19   8  12  1   
 20   8  33  1   
 21   8  34  1   
 22   9  13  1   
 23   9  35  1   
 24   9  36  1   
 25  10  11  1   
 26  10  37  1   
 27  10  38  1   
 28  11  39  1   
 29  11  40  1   
 30  12  13  1   
 31  12  14  1   
 32  12  41  1   
 33  13  42  1   
 34  13  43  1   
 35  14  15  1   
 36  14  44  1   
 37  14  45  1   
 38  15  16  ar  
 39  15  17  ar  
 40  16  18  ar  
 41  16  46  1   
 42  17  19  ar  
 43  17  47  1   
 44  18  20  ar  
 45  18  21  1   
 46  19  20  ar  
 47  19  48  1   
 48  20  22  1   
 49  21  23  1   
 50  21  49  1   
 51  21  50  1   
 52  22  24  1   
 53  23  51  1   
 54  24  25  1   
 55  24  52  1   
 56  24  53  1   
 57  25  54  1   
 58  25  55  1   
 59  25  56  1   
@<TRIPOS>SUBSTRUCTURE
  1 ****   8 GROUP 4 **** **** 0

# MOE 2024.06 (io_trps.svl 2023.06)
