@<TRIPOS>MOLECULE
NONAME
48 49 1 0 0 
SMALL
USER_CHARGES


@<TRIPOS>ATOM
  1 S        0.2550    -0.0520    -0.8790 S.o2  1 <1>   1.3330 
  2 O       -0.2990    -0.0820    -2.2150 O.2   1 <1>  -0.6500 
  3 O        1.6880     0.0410    -0.7080 O.2   1 <1>  -0.6500 
  4 N       -0.2760    -1.4380    -0.0540 N.am  1 <1>  -0.8490 
  5 C       -0.5430     1.2820     0.0090 C.3   1 <1>  -0.0550 
  6 C        0.4730    -1.7050     1.1780 C.3   1 <1>   0.1160 
  7 C       -0.2690    -2.6270    -0.9100 C.3   1 <1>   0.1160 
  8 C       -0.2880     2.6650    -0.6230 C.3   1 <1>  -0.0800 
  9 C       -1.0960     3.8040    -0.0030 C.3   1 <1>   0.2000 
 10 C        1.1750     3.1360    -0.5340 C.3   1 <1>   0.1100 
 11 O       -1.1070     3.6530     1.3720 O.3   1 <1>  -0.6800 
 12 C       -0.2230     5.0120    -0.3090 C.3   1 <1>   0.1100 
 13 N        1.1400     4.5250    -0.0480 N.3   1 <1>  -0.8100 
 14 C        2.1790     5.3700    -0.6680 C.3   1 <1>   0.2900 
 15 C        2.2720     6.7380    -0.0110 C.2   1 <1>  -0.0400 
 16 O        2.9120     7.6970    -0.6530 O.3   1 <1>  -0.2800 
 17 C        1.8090     7.1970     1.1720 C.2   1 <1>  -0.1500 
 18 C        2.8710     8.7840     0.0930 C.2   1 <1>  -0.0400 
 19 C        2.2000     8.5400     1.2400 C.2   1 <1>  -0.1500 
 20 C        3.5450    10.0350    -0.4420 C.3   1 <1>   0.0200 
 21 C        3.4240    11.2280     0.5160 C.3   1 <1>  -0.1600 
 22 C        4.1110    12.4770    -0.0480 C.3   1 <1>  -0.2400 
 23 H       -1.6000     1.1030     0.0200 H     1 <1>   0.0800 
 24 H       -0.2040     1.2870     1.0260 H     1 <1>   0.0800 
 25 H        0.0400    -2.5410     1.6990 H     1 <1>   0.0800 
 26 H        0.4400    -0.8480     1.8280 H     1 <1>   0.0800 
 27 H        1.5040    -1.9280     0.9520 H     1 <1>   0.0800 
 28 H       -0.6280    -3.4820    -0.3640 H     1 <1>   0.0800 
 29 H        0.7280    -2.8260    -1.2680 H     1 <1>   0.0800 
 30 H       -0.9160    -2.4750    -1.7580 H     1 <1>   0.0800 
 31 H       -0.5490     2.6130    -1.6670 H     1 <1>   0.0800 
 32 H       -2.1070     3.8810    -0.3640 H     1 <1>   0.0800 
 33 H        1.6380     3.0720    -1.5060 H     1 <1>   0.0800 
 34 H        1.7440     2.5390     0.1590 H     1 <1>   0.0800 
 35 H       -0.1940     3.8640     1.6700 H     1 <1>   0.4000 
 36 H       -0.4760     5.8570     0.3090 H     1 <1>   0.0800 
 37 H       -0.3310     5.2830    -1.3460 H     1 <1>   0.0800 
 38 H        3.1370     4.8880    -0.5750 H     1 <1>   0.0800 
 39 H        1.9680     5.4960    -1.7160 H     1 <1>   0.0800 
 40 H        1.2570     6.6620     1.9230 H     1 <1>   0.1500 
 41 H        1.9880     9.2040     2.0580 H     1 <1>   0.1500 
 42 H        4.5840     9.8140    -0.6140 H     1 <1>   0.0800 
 43 H        3.0970    10.2850    -1.3880 H     1 <1>   0.0800 
 44 H        2.3830    11.4430     0.6870 H     1 <1>   0.0800 
 45 H        3.8740    10.9720     1.4600 H     1 <1>   0.0800 
 46 H        3.6630    12.7630    -0.9830 H     1 <1>   0.0800 
 47 H        5.1590    12.2910    -0.2070 H     1 <1>   0.0800 
 48 H        4.0110    13.2960     0.6430 H     1 <1>   0.0800 
@<TRIPOS>BOND
  1   1   2  2   
  2   1   3  2   
  3   1   4  am  
  4   1   5  1   
  5   4   6  1   
  6   4   7  1   
  7   5   8  1   
  8   5  23  1   
  9   5  24  1   
 10   6  25  1   
 11   6  26  1   
 12   6  27  1   
 13   7  28  1   
 14   7  29  1   
 15   7  30  1   
 16   8   9  1   
 17   8  10  1   
 18   8  31  1   
 19   9  11  1   
 20   9  12  1   
 21   9  32  1   
 22  10  13  1   
 23  10  33  1   
 24  10  34  1   
 25  11  35  1   
 26  12  13  1   
 27  12  36  1   
 28  12  37  1   
 29  13  14  1   
 30  14  15  1   
 31  14  38  1   
 32  14  39  1   
 33  15  16  1   
 34  15  17  2   
 35  16  18  1   
 36  17  19  1   
 37  17  40  1   
 38  18  19  2   
 39  18  20  1   
 40  19  41  1   
 41  20  21  1   
 42  20  42  1   
 43  20  43  1   
 44  21  22  1   
 45  21  44  1   
 46  21  45  1   
 47  22  46  1   
 48  22  47  1   
 49  22  48  1   
@<TRIPOS>SUBSTRUCTURE
  1 ****  13 GROUP 4 **** **** 0

# MOE 2024.06 (io_trps.svl 2023.06)
