@<TRIPOS>MOLECULE
NONAME
46 48 1 0 0 
SMALL
USER_CHARGES


@<TRIPOS>ATOM
  1 O        4.7450    -2.0380    -1.7060 O.2   1 <1>  -0.5700 
  2 C        3.6220    -1.9060    -1.2530 C.2   1 <1>   0.7160 
  3 N        3.2410    -0.6310    -0.9260 N.am  1 <1>  -0.6600 
  4 C        2.7780    -3.0330    -0.9620 C.2   1 <1>  -0.0860 
  5 C        3.3060    -0.2670     0.5310 C.3   1 <1>   0.2200 
  6 C        3.3940     0.4460    -1.9550 C.3   1 <1>   0.1400 
  7 C        3.1480    -4.3730    -1.0850 C.2   1 <1>   0.1390 
  8 C        1.4920    -3.1070    -0.5180 C.2   1 <1>  -0.3020 
  9 C        2.4450     0.9560     0.8850 C.3   1 <1>   0.1200 
 10 C        4.7750    -0.0610     0.9860 C.3   1 <1>   0.3430 
 11 C        4.1300     1.7110    -1.4720 C.3   1 <1>  -0.0800 
 12 N        2.2030    -5.1900    -0.7440 N.2   1 <1>  -0.7070 
 13 N        1.1670    -4.4060    -0.3960 N.pl3 1 <1>   0.3140 
 14 O        3.1690     2.1350     0.7020 O.3   1 <1>  -0.5600 
 15 N        5.7260     0.1780    -0.1600 N.4   1 <1>  -0.9590 
 16 C        3.2360     2.6060    -0.6010 C.3   1 <1>   0.1200 
 17 C        5.5270     1.4930    -0.8500 C.3   1 <1>   0.3430 
 18 C       -0.1330    -4.9880     0.0420 C.3   1 <1>   0.1760 
 19 C        7.1430    -0.0120     0.2570 C.3   1 <1>   0.2630 
 20 C       -1.2560    -4.6050    -0.9320 C.3   1 <1>  -0.2400 
 21 C       -0.4720    -4.5500     1.4730 C.3   1 <1>  -0.2400 
 22 H        2.9010    -1.0920     1.0930 H     1 <1>   0.0800 
 23 H        3.9190     0.0470    -2.8080 H     1 <1>   0.0800 
 24 H        2.4110     0.7200    -2.3020 H     1 <1>   0.0800 
 25 H        4.1170    -4.6990    -1.4270 H     1 <1>   0.1500 
 26 H        0.8060    -2.3120    -0.2960 H     1 <1>   0.1500 
 27 H        2.1900     0.9160     1.9300 H     1 <1>   0.0800 
 28 H        1.5300     0.9840     0.3170 H     1 <1>   0.0800 
 29 H        5.0810    -0.9490     1.5120 H     1 <1>   0.0800 
 30 H        4.8240     0.7590     1.6850 H     1 <1>   0.0800 
 31 H        4.2990     2.2950    -2.3600 H     1 <1>   0.0800 
 32 H        5.4920    -0.5620    -0.8590 H     1 <1>   0.4500 
 33 H        2.2380     2.6870    -0.9990 H     1 <1>   0.0800 
 34 H        3.6530     3.5980    -0.5500 H     1 <1>   0.0800 
 35 H        5.7260     2.2940    -0.1570 H     1 <1>   0.0800 
 36 H        6.2530     1.5660    -1.6430 H     1 <1>   0.0800 
 37 H       -0.0190    -6.0580     0.0290 H     1 <1>   0.0800 
 38 H        7.4200     0.7250     0.9930 H     1 <1>   0.0800 
 39 H        7.7980     0.0840    -0.5940 H     1 <1>   0.0800 
 40 H        7.2780    -0.9940     0.6800 H     1 <1>   0.0800 
 41 H       -1.4170    -3.5420    -0.9350 H     1 <1>   0.0800 
 42 H       -2.1720    -5.0890    -0.6450 H     1 <1>   0.0800 
 43 H       -1.0020    -4.9290    -1.9270 H     1 <1>   0.0800 
 44 H       -0.6160    -3.4860     1.5260 H     1 <1>   0.0800 
 45 H        0.3200    -4.8370     2.1420 H     1 <1>   0.0800 
 46 H       -1.3770    -5.0320     1.7980 H     1 <1>   0.0800 
@<TRIPOS>BOND
  1   1   2  2   
  2   2   3  am  
  3   2   4  1   
  4   3   5  1   
  5   3   6  1   
  6   4   7  1   
  7   4   8  2   
  8   5   9  1   
  9   5  10  1   
 10   5  22  1   
 11   6  11  1   
 12   6  23  1   
 13   6  24  1   
 14   7  12  2   
 15   7  25  1   
 16   8  13  1   
 17   8  26  1   
 18   9  14  1   
 19   9  27  1   
 20   9  28  1   
 21  10  15  1   
 22  10  29  1   
 23  10  30  1   
 24  11  16  1   
 25  11  17  1   
 26  11  31  1   
 27  12  13  1   
 28  13  18  1   
 29  14  16  1   
 30  15  17  1   
 31  15  19  1   
 32  15  32  1   
 33  16  33  1   
 34  16  34  1   
 35  17  35  1   
 36  17  36  1   
 37  18  20  1   
 38  18  21  1   
 39  18  37  1   
 40  19  38  1   
 41  19  39  1   
 42  19  40  1   
 43  20  41  1   
 44  20  42  1   
 45  20  43  1   
 46  21  44  1   
 47  21  45  1   
 48  21  46  1   
@<TRIPOS>SUBSTRUCTURE
  1 ****   3 GROUP 4 **** **** 0

# MOE 2024.06 (io_trps.svl 2023.06)
