@<TRIPOS>MOLECULE
NONAME
52 55 1 0 0 
SMALL
USER_CHARGES


@<TRIPOS>ATOM
  1 O       -1.0520     0.9650     1.5580 O.2   1 <1>  -0.5700 
  2 C       -1.9930     1.4080     0.9160 C.2   1 <1>   0.7160 
  3 N       -3.2000     0.7300     1.0070 N.am  1 <1>  -0.6600 
  4 C       -1.7790     2.6010     0.0970 C.2   1 <1>   0.1410 
  5 C       -3.5140    -0.1630     2.1550 C.3   1 <1>   0.1400 
  6 C       -4.2820     0.8080    -0.0140 C.3   1 <1>   0.1400 
  7 N       -2.7480     3.4750    -0.3230 N.2   1 <1>  -0.5650 
  8 C       -0.5750     3.0590    -0.3560 C.2   1 <1>  -0.3020 
  9 C       -3.7990    -1.5740     1.6400 C.3   1 <1>  -0.1600 
 10 C       -4.5980    -0.5980    -0.5330 C.3   1 <1>  -0.1600 
 11 C       -2.1150     4.3830    -0.9850 C.2   1 <1>   0.0360 
 12 N       -0.7820     4.1860    -1.0440 N.pl3 1 <1>   0.0480 
 13 C       -4.9300    -1.5800     0.5980 C.3   1 <1>   0.4240 
 14 C        0.2250     5.0360    -1.7010 C.3   1 <1>   0.0160 
 15 O       -6.0930    -1.0670     1.2050 O.3   1 <1>  -0.5600 
 16 C       -5.1620    -2.9990     0.0330 C.ar  1 <1>  -0.1430 
 17 C       -6.8710    -1.9490     1.9540 C.3   1 <1>   0.1200 
 18 C       -6.3650    -3.6650     0.2240 C.ar  1 <1>  -0.1430 
 19 C       -4.1580    -3.6460    -0.6780 C.ar  1 <1>  -0.1500 
 20 C       -7.4690    -2.9930     1.0160 C.3   1 <1>  -0.0170 
 21 C       -6.5610    -4.9330    -0.3000 C.ar  1 <1>  -0.1500 
 22 C       -4.3310    -4.9170    -1.1970 C.ar  1 <1>   0.0830 
 23 C       -5.5590    -5.5730    -1.0240 C.ar  1 <1>   0.0830 
 24 O       -3.2470    -5.4170    -1.8560 O.3   1 <1>  -0.3630 
 25 O       -5.7610    -6.8080    -1.5730 O.3   1 <1>  -0.3630 
 26 C       -2.9640    -6.7990    -1.8520 C.3   1 <1>   0.0400 
 27 C       -7.0480    -7.3750    -1.6830 C.3   1 <1>   0.0400 
 28 H       -4.3770     0.2220     2.6700 H     1 <1>   0.0800 
 29 H       -2.6960    -0.1900     2.8550 H     1 <1>   0.0800 
 30 H       -3.9870     1.4180    -0.8470 H     1 <1>   0.0800 
 31 H       -5.1580     1.2470     0.4330 H     1 <1>   0.0800 
 32 H        0.3940     2.6210    -0.1980 H     1 <1>   0.1500 
 33 H       -4.0440    -2.2230     2.4580 H     1 <1>   0.0800 
 34 H       -2.8970    -1.9540     1.1970 H     1 <1>   0.0800 
 35 H       -3.7450    -0.9450    -1.0850 H     1 <1>   0.0800 
 36 H       -5.4260    -0.5550    -1.2160 H     1 <1>   0.0800 
 37 H       -2.5870     5.2300    -1.4530 H     1 <1>   0.1500 
 38 H        1.1820     4.5490    -1.6670 H     1 <1>   0.0800 
 39 H        0.2830     5.9780    -1.1880 H     1 <1>   0.0800 
 40 H       -0.0580     5.1980    -2.7250 H     1 <1>   0.0800 
 41 H       -7.6490    -1.3790     2.4290 H     1 <1>   0.0800 
 42 H       -6.2590    -2.4090     2.7090 H     1 <1>   0.0800 
 43 H       -3.2090    -3.1680    -0.8390 H     1 <1>   0.1500 
 44 H       -8.1590    -2.5160     0.3440 H     1 <1>   0.0800 
 45 H       -8.0080    -3.7200     1.5960 H     1 <1>   0.0800 
 46 H       -7.5070    -5.4080    -0.1330 H     1 <1>   0.1500 
 47 H       -1.9250    -6.9280    -2.0910 H     1 <1>   0.0800 
 48 H       -3.5710    -7.2790    -2.5980 H     1 <1>   0.0800 
 49 H       -3.1720    -7.1980    -0.8750 H     1 <1>   0.0800 
 50 H       -6.9650    -8.2790    -2.2580 H     1 <1>   0.0800 
 51 H       -7.6950    -6.6790    -2.1870 H     1 <1>   0.0800 
 52 H       -7.4150    -7.6020    -0.6980 H     1 <1>   0.0800 
@<TRIPOS>BOND
  1   1   2  2   
  2   2   3  am  
  3   2   4  1   
  4   3   5  1   
  5   3   6  1   
  6   4   7  1   
  7   4   8  2   
  8   5   9  1   
  9   5  28  1   
 10   5  29  1   
 11   6  10  1   
 12   6  30  1   
 13   6  31  1   
 14   7  11  2   
 15   8  12  1   
 16   8  32  1   
 17   9  13  1   
 18   9  33  1   
 19   9  34  1   
 20  10  13  1   
 21  10  35  1   
 22  10  36  1   
 23  11  12  1   
 24  11  37  1   
 25  12  14  1   
 26  13  15  1   
 27  13  16  1   
 28  14  38  1   
 29  14  39  1   
 30  14  40  1   
 31  15  17  1   
 32  16  18  ar  
 33  16  19  ar  
 34  17  20  1   
 35  17  41  1   
 36  17  42  1   
 37  18  20  1   
 38  18  21  ar  
 39  19  22  ar  
 40  19  43  1   
 41  20  44  1   
 42  20  45  1   
 43  21  23  ar  
 44  21  46  1   
 45  22  23  ar  
 46  22  24  1   
 47  23  25  1   
 48  24  26  1   
 49  25  27  1   
 50  26  47  1   
 51  26  48  1   
 52  26  49  1   
 53  27  50  1   
 54  27  51  1   
 55  27  52  1   
@<TRIPOS>SUBSTRUCTURE
  1 ****  10 GROUP 4 **** **** 0

# MOE 2024.06 (io_trps.svl 2023.06)
