@<TRIPOS>MOLECULE
NONAME
46 47 1 0 0 
SMALL
USER_CHARGES


@<TRIPOS>ATOM
  1 S       -0.1890     0.9660    -0.8760 S.o2  1 <1>   1.3330 
  2 O       -1.2250     1.8990    -1.2610 O.2   1 <1>  -0.6500 
  3 O       -0.2710    -0.4000    -1.3400 O.2   1 <1>  -0.6500 
  4 N        1.3090     1.5780    -1.3820 N.am  1 <1>  -0.8490 
  5 C       -0.1040     0.9350     0.9240 C.3   1 <1>  -0.0550 
  6 C        2.3890     0.5870    -1.4000 C.3   1 <1>   0.1160 
  7 C        1.2410     2.2630    -2.6760 C.3   1 <1>   0.1160 
  8 C        0.1750     2.2420     1.7110 C.3   1 <1>  -0.0800 
  9 C       -0.7230     3.4300     1.3440 C.3   1 <1>   0.2000 
 10 C        1.6070     2.7690     1.5540 C.3   1 <1>   0.1400 
 11 O       -0.9300     4.1650     2.5010 O.3   1 <1>  -0.6800 
 12 C        0.1020     4.2880     0.3830 C.3   1 <1>   0.1400 
 13 N        1.5180     3.9800     0.7060 N.am  1 <1>  -0.6600 
 14 C        2.6040     4.4640     0.0040 C.2   1 <1>   0.7160 
 15 O        3.6970     3.9810     0.2520 O.2   1 <1>  -0.5700 
 16 C        2.4900     5.5370    -0.9760 C.2   1 <1>   0.1410 
 17 N        1.5740     5.5550    -1.9980 N.2   1 <1>  -0.5650 
 18 C        3.2350     6.6670    -1.0880 C.2   1 <1>  -0.0400 
 19 C        1.8340     6.6390    -2.6250 C.2   1 <1>   0.3280 
 20 O        2.8180     7.3360    -2.1220 O.3   1 <1>  -0.2800 
 21 C        4.3830     7.2600    -0.2780 C.3   1 <1>   0.1000 
 22 C        5.7130     6.6150    -0.6780 C.3   1 <1>  -0.2400 
 23 C        4.1520     7.1530     1.2340 C.3   1 <1>  -0.2400 
 24 H       -1.0430     0.5530     1.2740 H     1 <1>   0.0800 
 25 H        0.6370     0.2150     1.2100 H     1 <1>   0.0800 
 26 H        3.3270     1.0720    -1.6130 H     1 <1>   0.0800 
 27 H        2.1990    -0.1620    -2.1510 H     1 <1>   0.0800 
 28 H        2.4670     0.1050    -0.4410 H     1 <1>   0.0800 
 29 H        2.1970     2.6950    -2.9190 H     1 <1>   0.0800 
 30 H        0.5180     3.0600    -2.6390 H     1 <1>   0.0800 
 31 H        0.9520     1.5720    -3.4510 H     1 <1>   0.0800 
 32 H        0.0250     1.9900     2.7470 H     1 <1>   0.0800 
 33 H       -1.6850     3.1520     0.9470 H     1 <1>   0.0800 
 34 H        2.2620     2.0390     1.1080 H     1 <1>   0.0800 
 35 H        2.0090     3.0510     2.5120 H     1 <1>   0.0800 
 36 H       -0.0860     4.5810     2.7670 H     1 <1>   0.4000 
 37 H       -0.1110     5.3370     0.4970 H     1 <1>   0.0800 
 38 H       -0.0990     4.0020    -0.6330 H     1 <1>   0.0800 
 39 H        1.3300     7.0140    -3.5000 H     1 <1>   0.1500 
 40 H        4.4370     8.3090    -0.5170 H     1 <1>   0.0800 
 41 H        5.7060     5.5640    -0.4500 H     1 <1>   0.0800 
 42 H        6.5270     7.0770    -0.1500 H     1 <1>   0.0800 
 43 H        5.8750     6.7350    -1.7340 H     1 <1>   0.0800 
 44 H        4.2060     6.1330     1.5660 H     1 <1>   0.0800 
 45 H        3.1860     7.5510     1.4890 H     1 <1>   0.0800 
 46 H        4.9020     7.7150     1.7600 H     1 <1>   0.0800 
@<TRIPOS>BOND
  1   1   2  2   
  2   1   3  2   
  3   1   4  am  
  4   1   5  1   
  5   4   6  1   
  6   4   7  1   
  7   5   8  1   
  8   5  24  1   
  9   5  25  1   
 10   6  26  1   
 11   6  27  1   
 12   6  28  1   
 13   7  29  1   
 14   7  30  1   
 15   7  31  1   
 16   8   9  1   
 17   8  10  1   
 18   8  32  1   
 19   9  11  1   
 20   9  12  1   
 21   9  33  1   
 22  10  13  1   
 23  10  34  1   
 24  10  35  1   
 25  11  36  1   
 26  12  13  1   
 27  12  37  1   
 28  12  38  1   
 29  13  14  am  
 30  14  15  2   
 31  14  16  1   
 32  16  17  1   
 33  16  18  2   
 34  17  19  2   
 35  18  20  1   
 36  18  21  1   
 37  19  20  1   
 38  19  39  1   
 39  21  22  1   
 40  21  23  1   
 41  21  40  1   
 42  22  41  1   
 43  22  42  1   
 44  22  43  1   
 45  23  44  1   
 46  23  45  1   
 47  23  46  1   
@<TRIPOS>SUBSTRUCTURE
  1 ****  13 GROUP 4 **** **** 0

# MOE 2024.06 (io_trps.svl 2023.06)
