@<TRIPOS>MOLECULE
NONAME
48 50 1 0 0 
SMALL
USER_CHARGES


@<TRIPOS>ATOM
  1 O       -0.5520     0.2550     1.6250 O.2   1 <1>  -0.5700 
  2 C       -1.5560     0.8500     1.2850 C.2   1 <1>   0.5440 
  3 N       -2.7250     0.1460     1.0980 N.am  1 <1>  -0.6600 
  4 C       -1.5000     2.2790     1.0750 C.ar  1 <1>   0.0860 
  5 C       -2.8050    -1.3410     1.2600 C.3   1 <1>   0.1400 
  6 C       -3.9940     0.7330     0.5730 C.3   1 <1>   0.1400 
  7 C       -1.3170     2.8450    -0.1930 C.ar  1 <1>   0.1660 
  8 C       -1.6570     3.1430     2.1490 C.ar  1 <1>  -0.1500 
  9 C       -3.3440    -2.0050    -0.0210 C.3   1 <1>   0.3440 
 10 C       -4.4460    -0.0230    -0.6960 C.3   1 <1>   0.2000 
 11 N       -1.3220     4.1450    -0.4430 N.ar  1 <1>  -0.6200 
 12 C       -1.1010     1.9800    -1.4240 C.3   1 <1>  -0.0960 
 13 C       -1.6460     4.4970     1.9010 C.ar  1 <1>  -0.1500 
 14 O       -4.5450    -1.3940    -0.4230 O.3   1 <1>  -0.5600 
 15 C       -3.5800    -3.4950     0.2050 C.ar  1 <1>  -0.1430 
 16 C       -5.8000     0.4520    -1.2710 C.3   1 <1>  -0.0800 
 17 C       -1.4800     4.9410     0.6020 C.ar  1 <1>   0.1600 
 18 C       -4.7870    -3.9680     0.7040 C.ar  1 <1>  -0.1500 
 19 C       -2.5680    -4.4010    -0.0790 C.ar  1 <1>  -0.1500 
 20 C       -5.7400     1.9130    -1.7460 C.3   1 <1>  -0.2400 
 21 C       -6.9810     0.2720    -0.3000 C.3   1 <1>  -0.2400 
 22 C       -4.9780    -5.3220     0.9160 C.ar  1 <1>  -0.1500 
 23 C       -2.7570    -5.7560     0.1330 C.ar  1 <1>  -0.1500 
 24 C       -3.9630    -6.2180     0.6310 C.ar  1 <1>  -0.1500 
 25 H       -1.8400    -1.7550     1.4890 H     1 <1>   0.0800 
 26 H       -3.4630    -1.5730     2.0790 H     1 <1>   0.0800 
 27 H       -4.7520     0.6520     1.3310 H     1 <1>   0.0800 
 28 H       -3.8670     1.7750     0.3440 H     1 <1>   0.0800 
 29 H       -1.7840     2.7550     3.1440 H     1 <1>   0.1500 
 30 H       -2.6300    -1.8780    -0.8160 H     1 <1>   0.0800 
 31 H       -3.6980     0.1010    -1.4600 H     1 <1>   0.0800 
 32 H       -0.7850     0.9850    -1.1730 H     1 <1>   0.0800 
 33 H       -0.3380     2.4210    -2.0410 H     1 <1>   0.0800 
 34 H       -2.0110     1.9300    -1.9930 H     1 <1>   0.0800 
 35 H       -1.7630     5.2040     2.7020 H     1 <1>   0.1500 
 36 H       -5.9950    -0.1560    -2.1390 H     1 <1>   0.0800 
 37 H       -1.4760     6.0010     0.4110 H     1 <1>   0.1500 
 38 H       -5.5830    -3.2790     0.9250 H     1 <1>   0.1500 
 39 H       -1.6240    -4.0580    -0.4650 H     1 <1>   0.1500 
 40 H       -5.6200     2.5890    -0.9180 H     1 <1>   0.0800 
 41 H       -6.6510     2.1700    -2.2590 H     1 <1>   0.0800 
 42 H       -4.9220     2.0530    -2.4290 H     1 <1>   0.0800 
 43 H       -6.8830     0.9100     0.5590 H     1 <1>   0.0800 
 44 H       -7.0360    -0.7500     0.0330 H     1 <1>   0.0800 
 45 H       -7.9050     0.5100    -0.7960 H     1 <1>   0.0800 
 46 H       -5.9180    -5.6770     1.3010 H     1 <1>   0.1500 
 47 H       -1.9670    -6.4510    -0.0900 H     1 <1>   0.1500 
 48 H       -4.1110    -7.2700     0.7950 H     1 <1>   0.1500 
@<TRIPOS>BOND
  1   1   2  2   
  2   2   3  am  
  3   2   4  1   
  4   3   5  1   
  5   3   6  1   
  6   4   7  ar  
  7   4   8  ar  
  8   5   9  1   
  9   5  25  1   
 10   5  26  1   
 11   6  10  1   
 12   6  27  1   
 13   6  28  1   
 14   7  11  ar  
 15   7  12  1   
 16   8  13  ar  
 17   8  29  1   
 18   9  14  1   
 19   9  15  1   
 20   9  30  1   
 21  10  14  1   
 22  10  16  1   
 23  10  31  1   
 24  11  17  ar  
 25  12  32  1   
 26  12  33  1   
 27  12  34  1   
 28  13  17  ar  
 29  13  35  1   
 30  15  18  ar  
 31  15  19  ar  
 32  16  20  1   
 33  16  21  1   
 34  16  36  1   
 35  17  37  1   
 36  18  22  ar  
 37  18  38  1   
 38  19  23  ar  
 39  19  39  1   
 40  20  40  1   
 41  20  41  1   
 42  20  42  1   
 43  21  43  1   
 44  21  44  1   
 45  21  45  1   
 46  22  24  ar  
 47  22  46  1   
 48  23  24  ar  
 49  23  47  1   
 50  24  48  1   
@<TRIPOS>SUBSTRUCTURE
  1 ****   3 GROUP 4 **** **** 0

# MOE 2024.06 (io_trps.svl 2023.06)
