@<TRIPOS>MOLECULE
NONAME
66 69 1 0 0 
SMALL
USER_CHARGES


@<TRIPOS>ATOM
  1 O        0.2240     1.0370    -0.8860 O.2   1 <1>  -0.5700 
  2 C        0.1280     2.1380    -0.3870 C.2   1 <1>   0.5690 
  3 N       -1.1390     2.5860    -0.0530 N.am  1 <1>  -0.6600 
  4 C        1.4500     2.9550    -0.2010 C.3   1 <1>   0.2040 
  5 C       -1.5970     4.0100    -0.0700 C.3   1 <1>   0.1400 
  6 C       -2.2270     1.5650     0.0570 C.3   1 <1>   0.1400 
  7 C        2.6540     2.0060     0.0770 C.ar  1 <1>  -0.1440 
  8 C        1.4870     3.9680     0.9670 C.3   1 <1>  -0.1600 
  9 C        1.6700     3.8480    -1.4440 C.3   1 <1>  -0.1600 
 10 C       -2.9540     4.1030    -0.7660 C.3   1 <1>  -0.1600 
 11 C       -3.4610     2.1340     0.7620 C.3   1 <1>  -0.1600 
 12 C        3.9080     2.1490    -0.5160 C.ar  1 <1>  -0.1500 
 13 C        2.4960     0.9740     1.0000 C.ar  1 <1>  -0.1500 
 14 C        2.4940     5.0370     0.5430 C.3   1 <1>  -0.1600 
 15 C        2.3620     5.1390    -0.9780 C.3   1 <1>  -0.1600 
 16 C       -4.0470     3.3760     0.0470 C.3   1 <1>   0.2800 
 17 C        4.9560     1.2950    -0.2150 C.ar  1 <1>   0.0820 
 18 C        3.5300     0.1030     1.2980 C.ar  1 <1>  -0.1500 
 19 O       -4.4640     4.2250     1.0890 O.3   1 <1>  -0.5600 
 20 C       -5.2530     2.9950    -0.8500 C.3   1 <1>  -0.1600 
 21 O        6.1490     1.5370    -0.8140 O.3   1 <1>  -0.3630 
 22 C        4.7580     0.2430     0.6820 C.ar  1 <1>   0.0820 
 23 C       -5.4020     5.2230     0.7980 C.3   1 <1>   0.1200 
 24 C       -6.6020     3.1600    -0.1390 C.3   1 <1>   0.2800 
 25 C        7.2090     1.9150     0.0360 C.3   1 <1>   0.0400 
 26 O        5.7200    -0.6650     0.9790 O.3   1 <1>  -0.3630 
 27 C       -6.7370     4.6090     0.3480 C.3   1 <1>  -0.1600 
 28 O       -6.5880     2.3650     0.9920 O.3   1 <1>  -0.6800 
 29 C       -7.7880     2.7190    -1.0240 C.3   1 <1>   0.1200 
 30 C        6.0950    -1.5290    -0.0710 C.3   1 <1>   0.0400 
 31 O       -8.9650     2.7220    -0.2890 O.3   1 <1>  -0.6800 
 32 H       -0.8920     4.6310    -0.5890 H     1 <1>   0.0800 
 33 H       -1.6910     4.3680     0.9420 H     1 <1>   0.0800 
 34 H       -1.8600     0.7150     0.6070 H     1 <1>   0.0800 
 35 H       -2.4910     1.2290    -0.9320 H     1 <1>   0.0800 
 36 H        1.7760     3.5060     1.8950 H     1 <1>   0.0800 
 37 H        0.5480     4.4480     1.1280 H     1 <1>   0.0800 
 38 H        0.7260     4.1080    -1.8840 H     1 <1>   0.0800 
 39 H        2.2230     3.3360    -2.2110 H     1 <1>   0.0800 
 40 H       -2.8550     3.6530    -1.7370 H     1 <1>   0.0800 
 41 H       -3.2110     5.1330    -0.9210 H     1 <1>   0.0800 
 42 H       -3.1670     2.3910     1.7640 H     1 <1>   0.0800 
 43 H       -4.1950     1.3540     0.8360 H     1 <1>   0.0800 
 44 H        4.1160     2.9330    -1.2160 H     1 <1>   0.1500 
 45 H        1.5510     0.8320     1.4940 H     1 <1>   0.1500 
 46 H        3.4880     4.7070     0.7940 H     1 <1>   0.0800 
 47 H        2.3090     5.9800     1.0280 H     1 <1>   0.0800 
 48 H        1.7570     5.9900    -1.2390 H     1 <1>   0.0800 
 49 H        3.3300     5.2520    -1.4360 H     1 <1>   0.0800 
 50 H        3.3820    -0.6940     2.0040 H     1 <1>   0.1500 
 51 H       -5.1450     1.9910    -1.2190 H     1 <1>   0.0800 
 52 H       -5.2610     3.6320    -1.7160 H     1 <1>   0.0800 
 53 H       -5.0020     5.8640     0.0330 H     1 <1>   0.0800 
 54 H       -5.5450     5.8100     1.6900 H     1 <1>   0.0800 
 55 H        8.0480     2.1920    -0.5760 H     1 <1>   0.0800 
 56 H        7.4730     1.0870     0.6670 H     1 <1>   0.0800 
 57 H        6.8930     2.7530     0.6320 H     1 <1>   0.0800 
 58 H       -7.1210     5.2190    -0.4500 H     1 <1>   0.0800 
 59 H       -7.4590     4.6650     1.1440 H     1 <1>   0.0800 
 60 H       -5.8770     2.7190     1.5710 H     1 <1>   0.4000 
 61 H       -7.6260     1.7190    -1.3860 H     1 <1>   0.0800 
 62 H       -7.9140     3.3780    -1.8640 H     1 <1>   0.0800 
 63 H        6.7920    -2.2480     0.3170 H     1 <1>   0.0800 
 64 H        6.5560    -0.9560    -0.8550 H     1 <1>   0.0800 
 65 H        5.2150    -2.0260    -0.4400 H     1 <1>   0.0800 
 66 H       -8.7600     2.3240     0.5860 H     1 <1>   0.4000 
@<TRIPOS>BOND
  1   1   2  2   
  2   2   3  am  
  3   2   4  1   
  4   3   5  1   
  5   3   6  1   
  6   4   7  1   
  7   4   8  1   
  8   4   9  1   
  9   5  10  1   
 10   5  32  1   
 11   5  33  1   
 12   6  11  1   
 13   6  34  1   
 14   6  35  1   
 15   7  12  ar  
 16   7  13  ar  
 17   8  14  1   
 18   8  36  1   
 19   8  37  1   
 20   9  15  1   
 21   9  38  1   
 22   9  39  1   
 23  10  16  1   
 24  10  40  1   
 25  10  41  1   
 26  11  16  1   
 27  11  42  1   
 28  11  43  1   
 29  12  17  ar  
 30  12  44  1   
 31  13  18  ar  
 32  13  45  1   
 33  14  15  1   
 34  14  46  1   
 35  14  47  1   
 36  15  48  1   
 37  15  49  1   
 38  16  19  1   
 39  16  20  1   
 40  17  21  1   
 41  17  22  ar  
 42  18  22  ar  
 43  18  50  1   
 44  19  23  1   
 45  20  24  1   
 46  20  51  1   
 47  20  52  1   
 48  21  25  1   
 49  22  26  1   
 50  23  27  1   
 51  23  53  1   
 52  23  54  1   
 53  24  27  1   
 54  24  28  1   
 55  24  29  1   
 56  25  55  1   
 57  25  56  1   
 58  25  57  1   
 59  26  30  1   
 60  27  58  1   
 61  27  59  1   
 62  28  60  1   
 63  29  31  1   
 64  29  61  1   
 65  29  62  1   
 66  30  63  1   
 67  30  64  1   
 68  30  65  1   
 69  31  66  1   
@<TRIPOS>SUBSTRUCTURE
  1 ****   2 GROUP 4 **** **** 0

# MOE 2024.06 (io_trps.svl 2023.06)
