@<TRIPOS>MOLECULE
NONAME
54 58 1 0 0 
SMALL
USER_CHARGES


@<TRIPOS>ATOM
  1 F       -4.0910    -0.4150     2.2530 F     1 <1>  -0.1900 
  2 C       -3.7970    -1.2950     1.3290 C.ar  1 <1>   0.1900 
  3 C       -4.0300    -2.6240     1.5780 C.ar  1 <1>  -0.1500 
  4 C       -3.2600    -0.8240     0.1280 C.ar  1 <1>  -0.1500 
  5 C       -3.7150    -3.5480     0.5730 C.ar  1 <1>   0.0000 
  6 C       -2.9440    -1.7270    -0.8610 C.ar  1 <1>  -0.1500 
  7 C       -3.1760    -3.0880    -0.6280 C.ar  1 <1>  -0.1520 
  8 C       -3.8140    -4.9550     0.4550 C.2   1 <1>  -0.1810 
  9 N       -2.9490    -4.1720    -1.4360 N.pl3 1 <1>   0.0330 
 10 C       -3.3360    -5.2980    -0.7680 C.2   1 <1>  -0.3320 
 11 C       -4.3530    -5.8700     1.5510 C.3   1 <1>   0.0820 
 12 C       -3.1940    -6.6710    -1.4030 C.3   1 <1>  -0.0600 
 13 C       -5.5110    -6.7680     1.1220 C.2   1 <1>   0.5690 
 14 O       -5.2860    -7.9550     1.0430 O.2   1 <1>  -0.5700 
 15 N       -6.7740    -6.2760     0.8840 N.am  1 <1>  -0.6600 
 16 C       -7.1650    -4.8310     0.9470 C.3   1 <1>   0.1400 
 17 C       -7.8880    -7.2350     0.6100 C.3   1 <1>   0.1400 
 18 C       -7.9020    -4.3680    -0.3320 C.3   1 <1>   0.1440 
 19 C       -9.1740    -6.5330     0.1450 C.3   1 <1>  -0.1600 
 20 C       -8.6380    -3.0850     0.0200 C.ar  1 <1>   0.1670 
 21 C       -8.8510    -5.4560    -0.8990 C.3   1 <1>  -0.1600 
 22 C       -6.9090    -3.8790    -1.4190 C.3   1 <1>  -0.1600 
 23 N       -9.7380    -3.0060     0.7380 N.ar  1 <1>  -0.6200 
 24 C       -8.0080    -1.9870    -0.4860 C.ar  1 <1>  -0.1430 
 25 C       -6.7650    -2.3570    -1.2520 C.3   1 <1>  -0.0170 
 26 C      -10.1880    -1.7720     0.9180 C.ar  1 <1>   0.4770 
 27 C       -8.5600    -0.7560    -0.2340 C.ar  1 <1>   0.1600 
 28 N       -9.6650    -0.6370     0.4740 N.ar  1 <1>  -0.6200 
 29 C      -11.4560    -1.6380     1.7270 C.3   1 <1>  -0.0970 
 30 H       -4.4400    -2.9460     2.5150 H     1 <1>   0.1500 
 31 H       -3.1000     0.2310     0.0010 H     1 <1>   0.1500 
 32 H       -2.5240    -1.4030    -1.7970 H     1 <1>   0.1500 
 33 H       -2.5350    -4.1360    -2.3730 H     1 <1>   0.2700 
 34 H       -4.6700    -5.2950     2.3980 H     1 <1>   0.0800 
 35 H       -3.5470    -6.4970     1.8850 H     1 <1>   0.0800 
 36 H       -3.3990    -7.4480    -0.6890 H     1 <1>   0.0800 
 37 H       -2.1920    -6.8110    -1.7660 H     1 <1>   0.0800 
 38 H       -3.8820    -6.7730    -2.2230 H     1 <1>   0.0800 
 39 H       -6.3150    -4.1990     1.1150 H     1 <1>   0.0800 
 40 H       -7.8230    -4.7080     1.7900 H     1 <1>   0.0800 
 41 H       -8.0870    -7.8100     1.4990 H     1 <1>   0.0800 
 42 H       -7.5650    -7.9190    -0.1570 H     1 <1>   0.0800 
 43 H       -9.6710    -6.0880     0.9900 H     1 <1>   0.0800 
 44 H       -9.8420    -7.2630    -0.2750 H     1 <1>   0.0800 
 45 H       -8.3830    -5.9490    -1.7330 H     1 <1>   0.0800 
 46 H       -9.7600    -5.0050    -1.2560 H     1 <1>   0.0800 
 47 H       -7.3240    -4.0590    -2.3950 H     1 <1>   0.0800 
 48 H       -5.9630    -4.3850    -1.3590 H     1 <1>   0.0800 
 49 H       -6.7140    -1.8560    -2.2020 H     1 <1>   0.0800 
 50 H       -5.8980    -2.1170    -0.6650 H     1 <1>   0.0800 
 51 H       -8.0950     0.1380    -0.6110 H     1 <1>   0.1500 
 52 H      -11.6180    -2.5210     2.3170 H     1 <1>   0.0800 
 53 H      -12.2860    -1.5000     1.0610 H     1 <1>   0.0800 
 54 H      -11.3820    -0.7890     2.3810 H     1 <1>   0.0800 
@<TRIPOS>BOND
  1   1   2  1   
  2   2   3  ar  
  3   2   4  ar  
  4   3   5  ar  
  5   3  30  1   
  6   4   6  ar  
  7   4  31  1   
  8   5   7  ar  
  9   5   8  1   
 10   6   7  ar  
 11   6  32  1   
 12   7   9  1   
 13   8  10  2   
 14   8  11  1   
 15   9  10  1   
 16   9  33  1   
 17  10  12  1   
 18  11  13  1   
 19  11  34  1   
 20  11  35  1   
 21  12  36  1   
 22  12  37  1   
 23  12  38  1   
 24  13  14  2   
 25  13  15  am  
 26  15  16  1   
 27  15  17  1   
 28  16  18  1   
 29  16  39  1   
 30  16  40  1   
 31  17  19  1   
 32  17  41  1   
 33  17  42  1   
 34  18  20  1   
 35  18  21  1   
 36  18  22  1   
 37  19  21  1   
 38  19  43  1   
 39  19  44  1   
 40  20  23  ar  
 41  20  24  ar  
 42  21  45  1   
 43  21  46  1   
 44  22  25  1   
 45  22  47  1   
 46  22  48  1   
 47  23  26  ar  
 48  24  25  1   
 49  24  27  ar  
 50  25  49  1   
 51  25  50  1   
 52  26  28  ar  
 53  26  29  1   
 54  27  28  ar  
 55  27  51  1   
 56  29  52  1   
 57  29  53  1   
 58  29  54  1   
@<TRIPOS>SUBSTRUCTURE
  1 ****  16 GROUP 4 **** **** 0

# MOE 2024.06 (io_trps.svl 2023.06)
