@<TRIPOS>MOLECULE
NONAME
46 48 1 0 0 
SMALL
USER_CHARGES


@<TRIPOS>ATOM
  1 S        0.3020     0.2130    -1.1110 S.o2  1 <1>   1.3330 
  2 O        1.2980    -0.0890    -2.1150 O.2   1 <1>  -0.6500 
  3 O       -1.0510     0.5160    -1.5190 O.2   1 <1>  -0.6500 
  4 N        0.2070    -1.1160    -0.0550 N.am  1 <1>  -0.8490 
  5 C        0.9100     1.5400    -0.0570 C.3   1 <1>  -0.0550 
  6 C       -1.0280    -1.1470     0.7370 C.3   1 <1>   0.1160 
  7 C        0.3760    -2.3940    -0.7550 C.3   1 <1>   0.1160 
  8 C        2.4310     1.5960     0.2150 C.3   1 <1>  -0.0800 
  9 C        3.2600     1.9560    -1.0200 C.3   1 <1>   0.2200 
 10 C        3.0870     0.3140     0.7370 C.3   1 <1>   0.1200 
 11 N        3.8830     3.2830    -0.8300 N.am  1 <1>  -0.7300 
 12 C        4.3180     0.8540    -1.0690 C.3   1 <1>   0.1200 
 13 O        4.3760     0.3390     0.2220 O.3   1 <1>  -0.5600 
 14 C        3.2870     4.4820    -1.0630 C.2   1 <1>   0.7160 
 15 O        2.1290     4.4980    -1.4380 O.2   1 <1>  -0.5700 
 16 C        4.0160     5.6920    -0.8450 C.2   1 <1>  -0.0860 
 17 C        5.3000     5.8800    -0.4020 C.2   1 <1>  -0.0260 
 18 C        3.5390     6.9850    -1.0480 C.2   1 <1>   0.1390 
 19 N        6.2650     4.9670    -0.0360 N.2   1 <1>  -0.5760 
 20 N        5.5000     7.2370    -0.3720 N.pl3 1 <1>   0.6010 
 21 N        4.4060     7.9140    -0.7710 N.2   1 <1>  -0.7070 
 22 C        7.4010     5.4600     0.3480 C.2   1 <1>   0.3760 
 23 C        6.7130     7.7380     0.0390 C.2   1 <1>  -0.1810 
 24 C        7.6830     6.8570     0.4050 C.2   1 <1>  -0.1240 
 25 C        9.0540     7.3180     0.8730 C.3   1 <1>  -0.1020 
 26 H        0.6360     2.4740    -0.5110 H     1 <1>   0.0800 
 27 H        0.3960     1.4950     0.8820 H     1 <1>   0.0800 
 28 H       -0.9890    -1.9510     1.4520 H     1 <1>   0.0800 
 29 H       -1.8830    -1.2900     0.0960 H     1 <1>   0.0800 
 30 H       -1.1510    -0.2220     1.2730 H     1 <1>   0.0800 
 31 H        0.3190    -3.2130    -0.0590 H     1 <1>   0.0800 
 32 H        1.3400    -2.4280    -1.2340 H     1 <1>   0.0800 
 33 H       -0.3870    -2.5120    -1.5070 H     1 <1>   0.0800 
 34 H        2.5870     2.3480     0.9690 H     1 <1>   0.0800 
 35 H        2.6860     1.9630    -1.9310 H     1 <1>   0.0800 
 36 H        2.6190    -0.5790     0.3680 H     1 <1>   0.0800 
 37 H        3.1380     0.2840     1.8110 H     1 <1>   0.0800 
 38 H        4.8270     3.3070    -0.4240 H     1 <1>   0.3700 
 39 H        5.2880     1.2130    -1.3620 H     1 <1>   0.0800 
 40 H        4.0020     0.0610    -1.7260 H     1 <1>   0.0800 
 41 H        2.5420     7.1950    -1.4020 H     1 <1>   0.1500 
 42 H        8.1830     4.7820     0.6420 H     1 <1>   0.0600 
 43 H        6.8090     8.8070     0.0410 H     1 <1>   0.1500 
 44 H        9.2370     6.9740     1.8750 H     1 <1>   0.0800 
 45 H        9.1190     8.3910     0.8630 H     1 <1>   0.0800 
 46 H        9.8170     6.9240     0.2250 H     1 <1>   0.0800 
@<TRIPOS>BOND
  1   1   2  2   
  2   1   3  2   
  3   1   4  am  
  4   1   5  1   
  5   4   6  1   
  6   4   7  1   
  7   5   8  1   
  8   5  26  1   
  9   5  27  1   
 10   6  28  1   
 11   6  29  1   
 12   6  30  1   
 13   7  31  1   
 14   7  32  1   
 15   7  33  1   
 16   8   9  1   
 17   8  10  1   
 18   8  34  1   
 19   9  11  1   
 20   9  12  1   
 21   9  35  1   
 22  10  13  1   
 23  10  36  1   
 24  10  37  1   
 25  11  14  am  
 26  11  38  1   
 27  12  13  1   
 28  12  39  1   
 29  12  40  1   
 30  14  15  2   
 31  14  16  1   
 32  16  17  2   
 33  16  18  1   
 34  17  19  1   
 35  17  20  1   
 36  18  21  2   
 37  18  41  1   
 38  19  22  2   
 39  20  21  1   
 40  20  23  1   
 41  22  24  1   
 42  22  42  1   
 43  23  24  2   
 44  23  43  1   
 45  24  25  1   
 46  25  44  1   
 47  25  45  1   
 48  25  46  1   
@<TRIPOS>SUBSTRUCTURE
  1 ****  11 GROUP 4 **** **** 0

# MOE 2024.06 (io_trps.svl 2023.06)
