@<TRIPOS>MOLECULE
NONAME
58 60 1 0 0 
SMALL
USER_CHARGES


@<TRIPOS>ATOM
  1 O       -2.6520     0.4380     1.6330 O.2   1 <1>  -0.5700 
  2 C       -2.7200     1.6240     1.3660 C.2   1 <1>   0.6160 
  3 N       -3.9130     2.2750     1.6010 N.am  1 <1>  -0.6600 
  4 C       -1.5650     2.2940     0.8030 C.2   1 <1>   0.0140 
  5 C       -4.9480     1.6470     2.4680 C.3   1 <1>   0.1400 
  6 C       -4.3220     3.5640     0.9740 C.3   1 <1>   0.1400 
  7 C       -1.0700     3.4730     1.2930 C.2   1 <1>  -0.1360 
  8 C       -0.8790     1.7110    -0.3060 C.2   1 <1>  -0.1500 
  9 C       -5.8000     0.6300     1.6890 C.3   1 <1>   0.1400 
 10 C       -5.3510     3.3590    -0.1460 C.3   1 <1>  -0.1600 
 11 C        0.0490     4.1120     0.7100 C.2   1 <1>   0.6160 
 12 C        0.2020     2.3150    -0.8660 C.2   1 <1>  -0.0290 
 13 N       -6.2690     1.1040     0.3400 N.am  1 <1>  -0.6600 
 14 C       -6.6020     2.5580     0.2450 C.3   1 <1>   0.1400 
 15 O        0.4930     5.1770     1.1070 O.2   1 <1>  -0.5700 
 16 N        0.6480     3.5090    -0.3560 N.am  1 <1>  -0.5390 
 17 C        0.9700     1.7430    -2.0400 C.3   1 <1>  -0.1020 
 18 C       -6.3090     0.3330    -0.8080 C.2   1 <1>   0.5690 
 19 O       -6.7920     0.7650    -1.8280 O.2   1 <1>  -0.5700 
 20 C       -5.7990    -1.1330    -0.8990 C.3   1 <1>   0.4840 
 21 N       -6.4730    -2.1400     0.0160 N.4   1 <1>  -0.9590 
 22 C       -4.2580    -1.1930    -0.8340 C.3   1 <1>  -0.1600 
 23 C       -6.3880    -3.5110    -0.5510 C.3   1 <1>   0.3430 
 24 C       -7.9090    -1.7870     0.2610 C.3   1 <1>   0.2630 
 25 C       -3.5800    -2.2480     0.0600 C.3   1 <1>  -0.1600 
 26 C       -5.1870    -4.2520     0.0310 C.3   1 <1>  -0.1600 
 27 C       -3.8240    -3.6910    -0.3950 C.3   1 <1>  -0.1600 
 28 H       -5.5800     2.4070     2.8930 H     1 <1>   0.0800 
 29 H       -4.4660     1.1440     3.2890 H     1 <1>   0.0800 
 30 H       -3.4710     4.0720     0.5590 H     1 <1>   0.0800 
 31 H       -4.7370     4.2050     1.7330 H     1 <1>   0.0800 
 32 H       -1.5080     3.9640     2.1400 H     1 <1>   0.1500 
 33 H       -1.2480     0.7710    -0.6760 H     1 <1>   0.1500 
 34 H       -6.6580     0.3830     2.2880 H     1 <1>   0.0800 
 35 H       -5.2100    -0.2590     1.5830 H     1 <1>   0.0800 
 36 H       -4.8770     2.8960    -0.9930 H     1 <1>   0.0800 
 37 H       -5.6720     4.3330    -0.4690 H     1 <1>   0.0800 
 38 H       -7.3570     2.7050    -0.5090 H     1 <1>   0.0800 
 39 H       -7.0110     2.9160     1.1740 H     1 <1>   0.0800 
 40 H        1.4570     4.0040    -0.7350 H     1 <1>   0.3700 
 41 H        0.9430     2.4290    -2.8680 H     1 <1>   0.0800 
 42 H        0.5420     0.8080    -2.3550 H     1 <1>   0.0800 
 43 H        1.9940     1.5720    -1.7610 H     1 <1>   0.0800 
 44 H       -6.0570    -1.4240    -1.9030 H     1 <1>   0.0800 
 45 H       -5.9490    -2.1360     0.8990 H     1 <1>   0.4500 
 46 H       -3.8960    -0.2270    -0.5280 H     1 <1>   0.0800 
 47 H       -3.8990    -1.3140    -1.8410 H     1 <1>   0.0800 
 48 H       -6.3160    -3.4740    -1.6260 H     1 <1>   0.0800 
 49 H       -7.2780    -4.0640    -0.2960 H     1 <1>   0.0800 
 50 H       -8.4500    -1.7500    -0.6710 H     1 <1>   0.0800 
 51 H       -7.9880    -0.8220     0.7370 H     1 <1>   0.0800 
 52 H       -8.3720    -2.5200     0.9010 H     1 <1>   0.0800 
 53 H       -3.8570    -2.1210     1.0930 H     1 <1>   0.0800 
 54 H       -2.5180    -2.0670     0.0140 H     1 <1>   0.0800 
 55 H       -5.2400    -5.2730    -0.3040 H     1 <1>   0.0800 
 56 H       -5.2590    -4.2760     1.1050 H     1 <1>   0.0800 
 57 H       -3.0620    -4.3120     0.0470 H     1 <1>   0.0800 
 58 H       -3.7060    -3.7660    -1.4630 H     1 <1>   0.0800 
@<TRIPOS>BOND
  1   1   2  2   
  2   2   3  am  
  3   2   4  1   
  4   3   5  1   
  5   3   6  1   
  6   4   7  2   
  7   4   8  1   
  8   5   9  1   
  9   5  28  1   
 10   5  29  1   
 11   6  10  1   
 12   6  30  1   
 13   6  31  1   
 14   7  11  1   
 15   7  32  1   
 16   8  12  2   
 17   8  33  1   
 18   9  13  1   
 19   9  34  1   
 20   9  35  1   
 21  10  14  1   
 22  10  36  1   
 23  10  37  1   
 24  11  15  2   
 25  11  16  am  
 26  12  16  1   
 27  12  17  1   
 28  13  14  1   
 29  13  18  am  
 30  14  38  1   
 31  14  39  1   
 32  16  40  1   
 33  17  41  1   
 34  17  42  1   
 35  17  43  1   
 36  18  19  2   
 37  18  20  1   
 38  20  21  1   
 39  20  22  1   
 40  20  44  1   
 41  21  23  1   
 42  21  24  1   
 43  21  45  1   
 44  22  25  1   
 45  22  46  1   
 46  22  47  1   
 47  23  26  1   
 48  23  48  1   
 49  23  49  1   
 50  24  50  1   
 51  24  51  1   
 52  24  52  1   
 53  25  27  1   
 54  25  53  1   
 55  25  54  1   
 56  26  27  1   
 57  26  55  1   
 58  26  56  1   
 59  27  57  1   
 60  27  58  1   
@<TRIPOS>SUBSTRUCTURE
  1 ****   2 GROUP 4 **** **** 0

# MOE 2024.06 (io_trps.svl 2023.06)
