@<TRIPOS>MOLECULE
NONAME
48 50 1 0 0 
SMALL
USER_CHARGES


@<TRIPOS>ATOM
  1 O       -0.3190    -0.0600    -0.2190 O.3   1 <1>  -0.2800 
  2 C       -0.7410     1.0620    -0.7140 C.2   1 <1>   0.2980 
  3 C       -1.3000    -0.8760    -0.4270 C.2   1 <1>   0.2980 
  4 N       -1.9200     0.9500    -1.2040 N.2   1 <1>  -0.3380 
  5 C        0.1560     2.2990    -0.6580 C.3   1 <1>   0.1000 
  6 N       -2.2850    -0.3160    -1.0190 N.2   1 <1>  -0.3380 
  7 C       -1.2110    -2.3320     0.0190 C.3   1 <1>   0.5230 
  8 C        0.3440     2.7680     0.7910 C.3   1 <1>  -0.2400 
  9 C       -0.3890     3.4550    -1.5120 C.3   1 <1>  -0.2400 
 10 N       -2.5370    -3.0380    -0.0900 N.4   1 <1>  -0.9590 
 11 C       -3.5150    -2.5290     0.9160 C.3   1 <1>   0.3430 
 12 C       -2.4020    -4.5180    -0.0450 C.3   1 <1>   0.3430 
 13 C       -4.8890    -3.1350     0.6340 C.3   1 <1>  -0.1600 
 14 C       -3.7570    -5.1660    -0.3330 C.3   1 <1>  -0.1600 
 15 C       -4.8620    -4.6730     0.6220 C.3   1 <1>  -0.0800 
 16 C       -6.2500    -5.2050     0.2160 C.3   1 <1>  -0.1600 
 17 C       -6.3920    -6.7330     0.3360 C.3   1 <1>   0.0960 
 18 N       -7.6920    -7.1680    -0.2040 N.pl3 1 <1>   0.3140 
 19 N       -7.8870    -7.3070    -1.5270 N.2   1 <1>  -0.7070 
 20 C       -8.8090    -7.4610     0.4910 C.2   1 <1>  -0.3020 
 21 C       -9.1230    -7.6880    -1.6420 C.2   1 <1>   0.1390 
 22 C       -9.7540    -7.8020    -0.4100 C.2   1 <1>  -0.1500 
 23 H        1.1180     2.0210    -1.0530 H     1 <1>   0.0800 
 24 H       -0.8600    -2.3670     1.0360 H     1 <1>   0.0800 
 25 H       -0.4850    -2.8250    -0.6050 H     1 <1>   0.0800 
 26 H       -0.6030     3.0440     1.2210 H     1 <1>   0.0800 
 27 H        1.0000     3.6200     0.8280 H     1 <1>   0.0800 
 28 H        0.7760     1.9830     1.3860 H     1 <1>   0.0800 
 29 H       -1.3490     3.7740    -1.1450 H     1 <1>   0.0800 
 30 H       -0.5040     3.1380    -2.5330 H     1 <1>   0.0800 
 31 H        0.2850     4.2920    -1.4880 H     1 <1>   0.0800 
 32 H       -2.9220    -2.7730    -1.0110 H     1 <1>   0.4500 
 33 H       -3.5860    -1.4530     0.8590 H     1 <1>   0.0800 
 34 H       -3.1980    -2.7980     1.9110 H     1 <1>   0.0800 
 35 H       -2.0580    -4.8250     0.9300 H     1 <1>   0.0800 
 36 H       -1.6860    -4.8500    -0.7800 H     1 <1>   0.0800 
 37 H       -5.2480    -2.7600    -0.3100 H     1 <1>   0.0800 
 38 H       -5.5750    -2.7940     1.3910 H     1 <1>   0.0800 
 39 H       -3.6410    -6.2310    -0.2410 H     1 <1>   0.0800 
 40 H       -4.0340    -4.9630    -1.3540 H     1 <1>   0.0800 
 41 H       -4.6400    -5.0160     1.6200 H     1 <1>   0.0800 
 42 H       -6.4560    -4.9190    -0.8030 H     1 <1>   0.0800 
 43 H       -7.0010    -4.7520     0.8400 H     1 <1>   0.0800 
 44 H       -6.3210    -7.0430     1.3620 H     1 <1>   0.0800 
 45 H       -5.6310    -7.2350    -0.2320 H     1 <1>   0.0800 
 46 H       -8.8700    -7.4130     1.5620 H     1 <1>   0.1500 
 47 H       -9.5950    -7.8890    -2.5890 H     1 <1>   0.1500 
 48 H      -10.7740    -8.1000    -0.2450 H     1 <1>   0.1500 
@<TRIPOS>BOND
  1   1   2  1   
  2   1   3  1   
  3   2   4  2   
  4   2   5  1   
  5   3   6  2   
  6   3   7  1   
  7   4   6  1   
  8   5   8  1   
  9   5   9  1   
 10   5  23  1   
 11   7  10  1   
 12   7  24  1   
 13   7  25  1   
 14   8  26  1   
 15   8  27  1   
 16   8  28  1   
 17   9  29  1   
 18   9  30  1   
 19   9  31  1   
 20  10  11  1   
 21  10  12  1   
 22  10  32  1   
 23  11  13  1   
 24  11  33  1   
 25  11  34  1   
 26  12  14  1   
 27  12  35  1   
 28  12  36  1   
 29  13  15  1   
 30  13  37  1   
 31  13  38  1   
 32  14  15  1   
 33  14  39  1   
 34  14  40  1   
 35  15  16  1   
 36  15  41  1   
 37  16  17  1   
 38  16  42  1   
 39  16  43  1   
 40  17  18  1   
 41  17  44  1   
 42  17  45  1   
 43  18  19  1   
 44  18  20  1   
 45  19  21  2   
 46  20  22  2   
 47  20  46  1   
 48  21  22  1   
 49  21  47  1   
 50  22  48  1   
@<TRIPOS>SUBSTRUCTURE
  1 ****  11 GROUP 4 **** **** 0

# MOE 2024.06 (io_trps.svl 2023.06)
