@<TRIPOS>MOLECULE
NONAME
53 56 1 0 0 
SMALL
USER_CHARGES


@<TRIPOS>ATOM
  1 O        1.6000    -0.7150     3.2820 O.3   1 <1>  -0.6800 
  2 C        1.8020    -0.4660     1.9300 C.3   1 <1>   0.2000 
  3 C        2.6680    -1.5520     1.3010 C.3   1 <1>  -0.0800 
  4 C        2.5920     0.8240     1.7100 C.3   1 <1>   0.2090 
  5 C        3.2880    -0.8390     0.0970 C.3   1 <1>   0.2090 
  6 C        1.8760    -2.8190     0.9250 C.3   1 <1>  -0.0170 
  7 N        3.4150     0.5880     0.4910 N.pl3 1 <1>  -0.8380 
  8 C        2.6830    -3.9500     0.2740 C.ar  1 <1>  -0.1440 
  9 C        4.6750     1.1430     0.4860 C.ar  1 <1>   0.4100 
 10 C        2.0220    -4.9900    -0.4280 C.ar  1 <1>   0.0000 
 11 C        4.0470    -4.0250     0.3470 C.ar  1 <1>  -0.1500 
 12 N        5.5960     0.5260     1.2000 N.ar  1 <1>  -0.6200 
 13 C        4.9570     2.3030    -0.2240 C.ar  1 <1>  -0.1430 
 14 C        2.8180    -5.9960    -1.0310 C.ar  1 <1>   0.3100 
 15 C        0.6170    -5.1000    -0.5610 C.ar  1 <1>  -0.1500 
 16 C        4.7370    -5.0700    -0.2780 C.ar  1 <1>   0.1600 
 17 C        6.7880     1.0820     1.2030 C.ar  1 <1>   0.4770 
 18 C        6.2440     2.7740    -0.1370 C.ar  1 <1>   0.1600 
 19 C        3.8540     2.9790    -1.0440 C.3   1 <1>  -0.0160 
 20 N        4.1700    -6.0210    -0.9480 N.ar  1 <1>  -0.6200 
 21 C        2.1900    -7.0270    -1.7480 C.ar  1 <1>  -0.1500 
 22 C        0.0350    -6.1200    -1.2630 C.ar  1 <1>  -0.1500 
 23 N        7.1780     2.1740     0.5750 N.ar  1 <1>  -0.6200 
 24 C        7.8470     0.3850     2.0220 C.3   1 <1>  -0.0970 
 25 C        4.3010     4.1940    -1.8720 C.3   1 <1>  -0.1600 
 26 C        0.8290    -7.0960    -1.8690 C.ar  1 <1>  -0.1500 
 27 C        3.1360     4.7770    -2.6790 C.3   1 <1>  -0.2400 
 28 H        1.1750    -1.5820     3.4160 H     1 <1>   0.4000 
 29 H        0.8450    -0.3900     1.4440 H     1 <1>   0.0800 
 30 H        3.4600    -1.7880     1.9900 H     1 <1>   0.0800 
 31 H        3.2370     1.0120     2.5530 H     1 <1>   0.0800 
 32 H        1.9310     1.6580     1.5590 H     1 <1>   0.0800 
 33 H        2.6390    -0.9030    -0.7590 H     1 <1>   0.0800 
 34 H        4.2450    -1.2600    -0.1640 H     1 <1>   0.0800 
 35 H        1.0990    -2.5160     0.2460 H     1 <1>   0.0800 
 36 H        1.4050    -3.2150     1.8070 H     1 <1>   0.0800 
 37 H        4.6430    -3.3050     0.8750 H     1 <1>   0.1500 
 38 H       -0.0210    -4.3710    -0.0990 H     1 <1>   0.1500 
 39 H        5.8110    -5.0810    -0.1960 H     1 <1>   0.1500 
 40 H        6.5430     3.6660    -0.6560 H     1 <1>   0.1500 
 41 H        3.4340     2.2430    -1.7090 H     1 <1>   0.0800 
 42 H        3.0730     3.2830    -0.3700 H     1 <1>   0.0800 
 43 H        2.8220    -7.7680    -2.2010 H     1 <1>   0.1500 
 44 H       -1.0350    -6.1870    -1.3580 H     1 <1>   0.1500 
 45 H        8.3940     1.1090     2.5970 H     1 <1>   0.0800 
 46 H        8.5230    -0.1280     1.3650 H     1 <1>   0.0800 
 47 H        7.3980    -0.3240     2.6920 H     1 <1>   0.0800 
 48 H        4.6860     4.9560    -1.2170 H     1 <1>   0.0800 
 49 H        5.0820     3.8980    -2.5510 H     1 <1>   0.0800 
 50 H        0.3610    -7.8940    -2.4210 H     1 <1>   0.1500 
 51 H        2.3470     5.1000    -2.0230 H     1 <1>   0.0800 
 52 H        2.7420     4.0420    -3.3590 H     1 <1>   0.0800 
 53 H        3.4730     5.6240    -3.2510 H     1 <1>   0.0800 
@<TRIPOS>BOND
  1   1   2  1   
  2   1  28  1   
  3   2   3  1   
  4   2   4  1   
  5   2  29  1   
  6   3   5  1   
  7   3   6  1   
  8   3  30  1   
  9   4   7  1   
 10   4  31  1   
 11   4  32  1   
 12   5   7  1   
 13   5  33  1   
 14   5  34  1   
 15   6   8  1   
 16   6  35  1   
 17   6  36  1   
 18   7   9  1   
 19   8  10  ar  
 20   8  11  ar  
 21   9  12  ar  
 22   9  13  ar  
 23  10  14  ar  
 24  10  15  ar  
 25  11  16  ar  
 26  11  37  1   
 27  12  17  ar  
 28  13  18  ar  
 29  13  19  1   
 30  14  20  ar  
 31  14  21  ar  
 32  15  22  ar  
 33  15  38  1   
 34  16  20  ar  
 35  16  39  1   
 36  17  23  ar  
 37  17  24  1   
 38  18  23  ar  
 39  18  40  1   
 40  19  25  1   
 41  19  41  1   
 42  19  42  1   
 43  21  26  ar  
 44  21  43  1   
 45  22  26  ar  
 46  22  44  1   
 47  24  45  1   
 48  24  46  1   
 49  24  47  1   
 50  25  27  1   
 51  25  48  1   
 52  25  49  1   
 53  26  50  1   
 54  27  51  1   
 55  27  52  1   
 56  27  53  1   
@<TRIPOS>SUBSTRUCTURE
  1 ****   5 GROUP 4 **** **** 0

# MOE 2024.06 (io_trps.svl 2023.06)
