@<TRIPOS>MOLECULE
NONAME
45 47 1 0 0 
SMALL
USER_CHARGES


@<TRIPOS>ATOM
  1 O       -0.9810     1.0850    -2.6480 O.2   1 <1>  -0.5700 
  2 C       -1.5430     1.4300    -1.6190 C.2   1 <1>   0.5440 
  3 N       -2.5990     0.6370    -1.1800 N.am  1 <1>  -0.6600 
  4 C       -1.0930     2.6480    -0.9370 C.ar  1 <1>   0.3960 
  5 C       -2.8110    -0.7500    -1.7150 C.3   1 <1>   0.1400 
  6 C       -3.5450     1.1140    -0.1270 C.3   1 <1>   0.1400 
  7 N       -1.2250     2.7690     0.3880 N.ar  1 <1>  -0.6200 
  8 C       -0.5290     3.6660    -1.7120 C.ar  1 <1>   0.1600 
  9 C       -3.2160    -1.7420    -0.5960 C.3   1 <1>   0.0000 
 10 C       -4.8220     0.2820    -0.1360 C.3   1 <1>  -0.1600 
 11 C       -0.8180     3.9490     0.8590 C.ar  1 <1>   0.1390 
 12 N       -0.0930     4.8450    -1.2640 N.ar  1 <1>  -0.6200 
 13 C       -4.5320    -1.2110     0.0740 C.3   1 <1>   0.2000 
 14 C       -3.5720    -3.1120    -1.2270 C.3   1 <1>   0.1200 
 15 C       -2.0390    -1.9120     0.4250 C.3   1 <1>  -0.0170 
 16 O       -0.9620     4.1470     2.0830 O.3   1 <1>  -0.8290 
 17 C       -0.2580     4.9490     0.0330 C.ar  1 <1>   0.1600 
 18 O       -4.5470    -1.4460     1.4390 O.3   1 <1>  -0.6800 
 19 O       -2.6110    -3.5380    -2.1320 O.3   1 <1>  -0.6800 
 20 C       -0.7600    -2.5430    -0.1230 C.ar  1 <1>  -0.1440 
 21 C        0.2020    -1.7630    -0.7440 C.ar  1 <1>  -0.1500 
 22 C       -0.5400    -3.9080     0.0060 C.ar  1 <1>  -0.1500 
 23 C        1.3530    -2.3380    -1.2540 C.ar  1 <1>  -0.1500 
 24 C        0.6100    -4.4860    -0.5020 C.ar  1 <1>  -0.1500 
 25 C        1.5570    -3.7010    -1.1360 C.ar  1 <1>  -0.1500 
 26 H       -3.5820    -0.7130    -2.4640 H     1 <1>   0.0800 
 27 H       -1.9170    -1.0930    -2.2060 H     1 <1>   0.0800 
 28 H       -3.0700     1.0420     0.8380 H     1 <1>   0.0800 
 29 H       -3.7840     2.1500    -0.2990 H     1 <1>   0.0800 
 30 H       -0.4340     3.4970    -2.7680 H     1 <1>   0.1500 
 31 H       -5.2990     0.4200    -1.0890 H     1 <1>   0.0800 
 32 H       -5.5060     0.6430     0.6130 H     1 <1>   0.0800 
 33 H       -5.3800    -1.7460    -0.3180 H     1 <1>   0.0800 
 34 H       -4.4980    -3.0550    -1.7720 H     1 <1>   0.0800 
 35 H       -3.6720    -3.8650    -0.4630 H     1 <1>   0.0800 
 36 H       -1.7840    -0.9570     0.8490 H     1 <1>   0.0800 
 37 H       -2.3590    -2.5330     1.2430 H     1 <1>   0.0800 
 38 H        0.0430     5.8510     0.5310 H     1 <1>   0.1500 
 39 H       -3.9180    -0.8430     1.8830 H     1 <1>   0.4000 
 40 H       -1.7150    -3.4670    -1.7240 H     1 <1>   0.4000 
 41 H        0.0610    -0.6990    -0.8370 H     1 <1>   0.1500 
 42 H       -1.2670    -4.5300     0.5000 H     1 <1>   0.1500 
 43 H        2.0860    -1.7190    -1.7400 H     1 <1>   0.1500 
 44 H        0.7690    -5.5450    -0.4040 H     1 <1>   0.1500 
 45 H        2.4510    -4.1490    -1.5330 H     1 <1>   0.1500 
@<TRIPOS>BOND
  1   1   2  2   
  2   2   3  am  
  3   2   4  1   
  4   3   5  1   
  5   3   6  1   
  6   4   7  ar  
  7   4   8  ar  
  8   5   9  1   
  9   5  26  1   
 10   5  27  1   
 11   6  10  1   
 12   6  28  1   
 13   6  29  1   
 14   7  11  ar  
 15   8  12  ar  
 16   8  30  1   
 17   9  13  1   
 18   9  14  1   
 19   9  15  1   
 20  10  13  1   
 21  10  31  1   
 22  10  32  1   
 23  11  16  1   
 24  11  17  ar  
 25  12  17  ar  
 26  13  18  1   
 27  13  33  1   
 28  14  19  1   
 29  14  34  1   
 30  14  35  1   
 31  15  20  1   
 32  15  36  1   
 33  15  37  1   
 34  17  38  1   
 35  18  39  1   
 36  19  40  1   
 37  20  21  ar  
 38  20  22  ar  
 39  21  23  ar  
 40  21  41  1   
 41  22  24  ar  
 42  22  42  1   
 43  23  25  ar  
 44  23  43  1   
 45  24  25  ar  
 46  24  44  1   
 47  25  45  1   
@<TRIPOS>SUBSTRUCTURE
  1 ****   3 GROUP 4 **** **** 0

# MOE 2024.06 (io_trps.svl 2023.06)
