@<TRIPOS>MOLECULE
NONAME
59 62 1 0 0 
SMALL
USER_CHARGES


@<TRIPOS>ATOM
  1 O        1.6540     0.8700     0.7450 O.2   1 <1>  -0.5700 
  2 C        2.5230     0.2550     0.1710 C.2   1 <1>   0.5690 
  3 N        3.0690     0.7670    -0.9900 N.am  1 <1>  -0.6600 
  4 C        3.0440    -1.0530     0.7890 C.3   1 <1>   0.1250 
  5 C        4.2680     0.2140    -1.7020 C.3   1 <1>   0.1400 
  6 C        2.5150     2.0100    -1.5940 C.3   1 <1>   0.1400 
  7 C        2.4890    -2.3240     0.1710 C.ar  1 <1>  -0.1440 
  8 C        2.7460    -1.2620     2.2900 C.3   1 <1>  -0.1600 
  9 C        5.5790     0.8960    -1.2610 C.3   1 <1>   0.3430 
 10 C        3.2180     3.2440    -1.0190 C.3   1 <1>  -0.1600 
 11 C        2.3440    -3.2970     1.1320 C.ar  1 <1>  -0.1440 
 12 C        2.1430    -2.5870    -1.1440 C.ar  1 <1>  -0.1500 
 13 C        2.7260    -2.7840     2.4990 C.3   1 <1>  -0.0160 
 14 N        5.3470     2.1340    -0.4480 N.4   1 <1>  -0.9590 
 15 C        4.7390     3.2610    -1.1930 C.3   1 <1>   0.3430 
 16 C        1.8790    -4.5570     0.8060 C.ar  1 <1>  -0.1500 
 17 C        1.6740    -3.8470    -1.4810 C.ar  1 <1>  -0.1500 
 18 C        6.5590     2.4940     0.3310 C.3   1 <1>   0.5230 
 19 C        1.5470    -4.8300    -0.5110 C.ar  1 <1>  -0.1500 
 20 C        6.8080     1.3840     1.3430 C.2   1 <1>   0.0060 
 21 N        5.8480     0.7720     1.9670 N.2   1 <1>  -0.5650 
 22 N        8.0450     0.9210     1.6540 N.pl3 1 <1>   0.0480 
 23 C        6.4890    -0.1270     2.7370 C.2   1 <1>   0.0770 
 24 C        7.8230    -0.0520     2.5550 C.2   1 <1>  -0.3020 
 25 C        9.3710     1.3350     1.1390 C.3   1 <1>   0.0960 
 26 C        9.6880     0.6640    -0.2020 C.3   1 <1>   0.1200 
 27 O        8.7360     1.0240    -1.1620 O.3   1 <1>  -0.5600 
 28 C        9.0520     0.5490    -2.4370 C.3   1 <1>   0.0400 
 29 H        4.1110    -1.0820     0.6830 H     1 <1>   0.0800 
 30 H        4.1430     0.3470    -2.7630 H     1 <1>   0.0800 
 31 H        4.3540    -0.8450    -1.5380 H     1 <1>   0.0800 
 32 H        1.4590     2.0720    -1.3840 H     1 <1>   0.0800 
 33 H        2.6250     1.9790    -2.6650 H     1 <1>   0.0800 
 34 H        1.7640    -0.8840     2.5190 H     1 <1>   0.0800 
 35 H        3.4630    -0.7680     2.9190 H     1 <1>   0.0800 
 36 H        6.1840     1.1220    -2.1230 H     1 <1>   0.0800 
 37 H        6.1310     0.1840    -0.6690 H     1 <1>   0.0800 
 38 H        2.9700     3.3380     0.0240 H     1 <1>   0.0800 
 39 H        2.8140     4.1110    -1.5100 H     1 <1>   0.0800 
 40 H        2.2240    -1.8300    -1.9020 H     1 <1>   0.1500 
 41 H        2.0100    -3.0700     3.2480 H     1 <1>   0.0800 
 42 H        3.7030    -3.1490     2.7630 H     1 <1>   0.0800 
 43 H        4.6690     1.8370     0.2780 H     1 <1>   0.4500 
 44 H        5.1140     4.1950    -0.8090 H     1 <1>   0.0800 
 45 H        4.9960     3.1990    -2.2380 H     1 <1>   0.0800 
 46 H        1.7720    -5.3120     1.5640 H     1 <1>   0.1500 
 47 H        1.4040    -4.0640    -2.4990 H     1 <1>   0.1500 
 48 H        6.3940     3.4150     0.8650 H     1 <1>   0.0800 
 49 H        7.4040     2.6160    -0.3240 H     1 <1>   0.0800 
 50 H        1.1830    -5.8060    -0.7800 H     1 <1>   0.1500 
 51 H        5.9520    -0.7930     3.3940 H     1 <1>   0.1500 
 52 H        8.6050    -0.6300     3.0150 H     1 <1>   0.1500 
 53 H       10.1170     1.0540     1.8600 H     1 <1>   0.0800 
 54 H        9.4010     2.4030     1.0320 H     1 <1>   0.0800 
 55 H        9.6870    -0.4080    -0.0930 H     1 <1>   0.0800 
 56 H       10.6600     0.9840    -0.5410 H     1 <1>   0.0800 
 57 H        8.2890     0.8710    -3.1230 H     1 <1>   0.0800 
 58 H        9.0920    -0.5270    -2.4180 H     1 <1>   0.0800 
 59 H       10.0020     0.9530    -2.7450 H     1 <1>   0.0800 
@<TRIPOS>BOND
  1   1   2  2   
  2   2   3  am  
  3   2   4  1   
  4   3   5  1   
  5   3   6  1   
  6   4   7  1   
  7   4   8  1   
  8   4  29  1   
  9   5   9  1   
 10   5  30  1   
 11   5  31  1   
 12   6  10  1   
 13   6  32  1   
 14   6  33  1   
 15   7  11  ar  
 16   7  12  ar  
 17   8  13  1   
 18   8  34  1   
 19   8  35  1   
 20   9  14  1   
 21   9  36  1   
 22   9  37  1   
 23  10  15  1   
 24  10  38  1   
 25  10  39  1   
 26  11  13  1   
 27  11  16  ar  
 28  12  17  ar  
 29  12  40  1   
 30  13  41  1   
 31  13  42  1   
 32  14  15  1   
 33  14  18  1   
 34  14  43  1   
 35  15  44  1   
 36  15  45  1   
 37  16  19  ar  
 38  16  46  1   
 39  17  19  ar  
 40  17  47  1   
 41  18  20  1   
 42  18  48  1   
 43  18  49  1   
 44  19  50  1   
 45  20  21  2   
 46  20  22  1   
 47  21  23  1   
 48  22  24  1   
 49  22  25  1   
 50  23  24  2   
 51  23  51  1   
 52  24  52  1   
 53  25  26  1   
 54  25  53  1   
 55  25  54  1   
 56  26  27  1   
 57  26  55  1   
 58  26  56  1   
 59  27  28  1   
 60  28  57  1   
 61  28  58  1   
 62  28  59  1   
@<TRIPOS>SUBSTRUCTURE
  1 ****   5 GROUP 4 **** **** 0

# MOE 2024.06 (io_trps.svl 2023.06)
