@<TRIPOS>MOLECULE
NONAME
41 43 1 0 0 
SMALL
USER_CHARGES


@<TRIPOS>ATOM
  1 O       -1.7050    -0.4310    -2.6670 O.2   1 <1>  -0.5700 
  2 C       -1.9150    -0.8130    -1.5440 C.2   1 <1>   0.5690 
  3 N       -1.8980     0.0310    -0.4700 N.am  1 <1>  -0.6600 
  4 C       -2.2530    -2.2700    -1.3630 C.3   1 <1>  -0.0190 
  5 C       -2.2340    -0.4110     0.9140 C.3   1 <1>   0.2200 
  6 C       -1.4890     1.4630    -0.6160 C.3   1 <1>   0.0600 
  7 C       -1.2550    -2.9930    -0.4330 C.3   1 <1>   0.1200 
  8 C       -3.7410    -2.3870    -1.0170 C.3   1 <1>   0.3430 
  9 C       -1.2300    -1.4780     1.4130 C.3   1 <1>   0.1200 
 10 C       -3.7240    -0.8420     1.0120 C.3   1 <1>   0.3430 
 11 O       -1.5090    -2.7660     0.9270 O.3   1 <1>  -0.5600 
 12 N       -4.0390    -2.2000     0.4420 N.4   1 <1>  -0.9590 
 13 C       -5.3920    -2.6860     0.8220 C.3   1 <1>   0.4860 
 14 C       -5.4920    -4.1600     0.4740 C.ar  1 <1>  -0.1440 
 15 C       -6.3740    -4.5880    -0.5090 C.ar  1 <1>  -0.1500 
 16 C       -4.6900    -5.0890     1.1270 C.ar  1 <1>  -0.1500 
 17 C       -6.4360    -5.9330    -0.8380 C.ar  1 <1>   0.0820 
 18 C       -4.7580    -6.4300     0.7920 C.ar  1 <1>  -0.1500 
 19 O       -7.2800    -6.3650    -1.7860 O.3   1 <1>  -0.5330 
 20 C       -5.6310    -6.8530    -0.1930 C.ar  1 <1>  -0.1500 
 21 H       -2.1330    -2.7180    -2.3340 H     1 <1>   0.0800 
 22 H       -2.1160     0.4460     1.5550 H     1 <1>   0.0800 
 23 H       -0.6280     1.6640    -0.0010 H     1 <1>   0.0800 
 24 H       -2.2960     2.1110    -0.3200 H     1 <1>   0.0800 
 25 H       -1.2310     1.6890    -1.6370 H     1 <1>   0.0800 
 26 H       -0.2410    -2.6980    -0.6520 H     1 <1>   0.0800 
 27 H       -1.3300    -4.0560    -0.5880 H     1 <1>   0.0800 
 28 H       -4.0610    -3.3730    -1.3130 H     1 <1>   0.0800 
 29 H       -4.3000    -1.6750    -1.6030 H     1 <1>   0.0800 
 30 H       -1.2850    -1.5390     2.4860 H     1 <1>   0.0800 
 31 H       -0.2200    -1.2110     1.1490 H     1 <1>   0.0800 
 32 H       -4.3300    -0.0930     0.5300 H     1 <1>   0.0800 
 33 H       -3.9860    -0.8470     2.0570 H     1 <1>   0.0800 
 34 H       -3.3540    -2.8360     0.8970 H     1 <1>   0.4500 
 35 H       -5.5480    -2.5640     1.8810 H     1 <1>   0.0800 
 36 H       -6.1490    -2.1290     0.2960 H     1 <1>   0.0800 
 37 H       -7.0110    -3.8910    -1.0220 H     1 <1>   0.1500 
 38 H       -4.0040    -4.7880     1.9020 H     1 <1>   0.1500 
 39 H       -4.1360    -7.1500     1.2980 H     1 <1>   0.1500 
 40 H       -7.8640    -5.6780    -2.1520 H     1 <1>   0.4500 
 41 H       -5.6940    -7.8930    -0.4630 H     1 <1>   0.1500 
@<TRIPOS>BOND
  1   1   2  2   
  2   2   3  am  
  3   2   4  1   
  4   3   5  1   
  5   3   6  1   
  6   4   7  1   
  7   4   8  1   
  8   4  21  1   
  9   5   9  1   
 10   5  10  1   
 11   5  22  1   
 12   6  23  1   
 13   6  24  1   
 14   6  25  1   
 15   7  11  1   
 16   7  26  1   
 17   7  27  1   
 18   8  12  1   
 19   8  28  1   
 20   8  29  1   
 21   9  11  1   
 22   9  30  1   
 23   9  31  1   
 24  10  12  1   
 25  10  32  1   
 26  10  33  1   
 27  12  13  1   
 28  12  34  1   
 29  13  14  1   
 30  13  35  1   
 31  13  36  1   
 32  14  15  ar  
 33  14  16  ar  
 34  15  17  ar  
 35  15  37  1   
 36  16  18  ar  
 37  16  38  1   
 38  17  19  1   
 39  17  20  ar  
 40  18  20  ar  
 41  18  39  1   
 42  19  40  1   
 43  20  41  1   
@<TRIPOS>SUBSTRUCTURE
  1 ****   8 GROUP 4 **** **** 0

# MOE 2024.06 (io_trps.svl 2023.06)
