@<TRIPOS>MOLECULE
NONAME
55 59 1 0 0 
SMALL
USER_CHARGES


@<TRIPOS>ATOM
  1 O       -3.2010     1.1720    -1.7670 O.2   1 <1>  -0.5700 
  2 C       -2.4870     1.2070    -0.7800 C.2   1 <1>   0.6160 
  3 N       -2.0540     0.0110    -0.2880 N.am  1 <1>  -0.7300 
  4 C       -2.1360     2.4740    -0.1810 C.2   1 <1>   0.0290 
  5 C       -2.4110    -1.3220    -0.8220 C.3   1 <1>   0.2200 
  6 C       -1.4440     2.5260     1.0760 C.2   1 <1>   0.6160 
  7 C       -2.4510     3.6710    -0.7840 C.2   1 <1>  -0.1500 
  8 C       -3.6670    -1.8170    -0.1270 C.3   1 <1>  -0.0800 
  9 C       -1.3660    -2.3620    -0.4100 C.3   1 <1>   0.1200 
 10 O       -1.1100     1.5510     1.7380 O.2   1 <1>  -0.5700 
 11 N       -1.1220     3.7470     1.6020 N.am  1 <1>  -0.5390 
 12 C       -2.1060     4.9090    -0.1990 C.2   1 <1>  -0.1380 
 13 C       -3.0830    -2.4800     1.1170 C.3   1 <1>   0.1200 
 14 C       -4.4400    -2.8130    -1.0140 C.3   1 <1>  -0.0170 
 15 O       -1.8570    -3.0170     0.7250 O.3   1 <1>  -0.5600 
 16 C       -1.4360     4.9290     0.9890 C.2   1 <1>  -0.0290 
 17 C       -2.4940     6.1870    -0.9320 C.3   1 <1>  -0.0220 
 18 C       -5.7440    -3.2570    -0.3590 C.ar  1 <1>  -0.1440 
 19 C       -1.0170     6.2100     1.6950 C.3   1 <1>  -0.0220 
 20 C       -2.4200     7.4220    -0.0230 C.3   1 <1>  -0.1600 
 21 C       -6.8900    -2.4280    -0.3150 C.ar  1 <1>   0.0000 
 22 C       -5.8360    -4.4930     0.2110 C.ar  1 <1>  -0.1500 
 23 C       -1.1100     7.4350     0.7730 C.3   1 <1>  -0.1600 
 24 C       -8.0450    -2.9380     0.3270 C.ar  1 <1>   0.3100 
 25 C       -6.9600    -1.1290    -0.8710 C.ar  1 <1>  -0.1500 
 26 C       -7.0300    -4.9010     0.8190 C.ar  1 <1>   0.1600 
 27 N       -8.0980    -4.1730     0.8880 N.ar  1 <1>  -0.6200 
 28 C       -9.1960    -2.1370     0.3910 C.ar  1 <1>  -0.1500 
 29 C       -8.0990    -0.3740    -0.7910 C.ar  1 <1>  -0.1500 
 30 C       -9.2320    -0.8810    -0.1520 C.ar  1 <1>  -0.1500 
 31 H       -1.5570     0.0220     0.6160 H     1 <1>   0.3700 
 32 H       -2.5170    -1.2650    -1.8920 H     1 <1>   0.0800 
 33 H       -2.9730     3.6820    -1.7270 H     1 <1>   0.1500 
 34 H       -4.3140    -1.0010     0.1430 H     1 <1>   0.0800 
 35 H       -0.4140    -1.9170    -0.1800 H     1 <1>   0.0800 
 36 H       -1.2460    -3.1020    -1.1800 H     1 <1>   0.0800 
 37 H       -0.6300     3.7100     2.4950 H     1 <1>   0.3700 
 38 H       -3.7040    -3.2610     1.5180 H     1 <1>   0.0800 
 39 H       -2.8880    -1.7470     1.8810 H     1 <1>   0.0800 
 40 H       -3.8240    -3.6740    -1.2090 H     1 <1>   0.0800 
 41 H       -4.6590    -2.3640    -1.9660 H     1 <1>   0.0800 
 42 H       -1.8250     6.3180    -1.7650 H     1 <1>   0.0800 
 43 H       -3.4930     6.0980    -1.3200 H     1 <1>   0.0800 
 44 H       -1.6590     6.3550     2.5450 H     1 <1>   0.0800 
 45 H       -0.0060     6.1180     2.0510 H     1 <1>   0.0800 
 46 H       -2.4960     8.3130    -0.6210 H     1 <1>   0.0800 
 47 H       -3.2510     7.4090     0.6610 H     1 <1>   0.0800 
 48 H       -5.0070    -5.1760     0.2130 H     1 <1>   0.1500 
 49 H       -1.0440     8.3340     1.3610 H     1 <1>   0.0800 
 50 H       -0.2800     7.4250     0.0870 H     1 <1>   0.0800 
 51 H       -6.1020    -0.7170    -1.3700 H     1 <1>   0.1500 
 52 H       -7.0580    -5.8840     1.2580 H     1 <1>   0.1500 
 53 H      -10.0560    -2.5480     0.8860 H     1 <1>   0.1500 
 54 H       -8.1350     0.6140    -1.2180 H     1 <1>   0.1500 
 55 H      -10.1220    -0.2790    -0.0960 H     1 <1>   0.1500 
@<TRIPOS>BOND
  1   1   2  2   
  2   2   3  am  
  3   2   4  1   
  4   3   5  1   
  5   3  31  1   
  6   4   6  1   
  7   4   7  2   
  8   5   8  1   
  9   5   9  1   
 10   5  32  1   
 11   6  10  2   
 12   6  11  am  
 13   7  12  1   
 14   7  33  1   
 15   8  13  1   
 16   8  14  1   
 17   8  34  1   
 18   9  15  1   
 19   9  35  1   
 20   9  36  1   
 21  11  16  1   
 22  11  37  1   
 23  12  16  2   
 24  12  17  1   
 25  13  15  1   
 26  13  38  1   
 27  13  39  1   
 28  14  18  1   
 29  14  40  1   
 30  14  41  1   
 31  16  19  1   
 32  17  20  1   
 33  17  42  1   
 34  17  43  1   
 35  18  21  ar  
 36  18  22  ar  
 37  19  23  1   
 38  19  44  1   
 39  19  45  1   
 40  20  23  1   
 41  20  46  1   
 42  20  47  1   
 43  21  24  ar  
 44  21  25  ar  
 45  22  26  ar  
 46  22  48  1   
 47  23  49  1   
 48  23  50  1   
 49  24  27  ar  
 50  24  28  ar  
 51  25  29  ar  
 52  25  51  1   
 53  26  27  ar  
 54  26  52  1   
 55  28  30  ar  
 56  28  53  1   
 57  29  30  ar  
 58  29  54  1   
 59  30  55  1   
@<TRIPOS>SUBSTRUCTURE
  1 ****   2 GROUP 4 **** **** 0

# MOE 2024.06 (io_trps.svl 2023.06)
