@<TRIPOS>MOLECULE
NONAME
52 55 1 0 0 
SMALL
USER_CHARGES


@<TRIPOS>ATOM
  1 O       -3.2080    -2.7240    -3.0300 O.2   1 <1>  -0.5700 
  2 C       -3.2070    -2.6890    -1.7970 C.2   1 <1>   0.5410 
  3 C       -3.0700    -3.8830    -1.0210 C.2   1 <1>  -0.1240 
  4 C       -3.3420    -1.4480    -1.1050 C.2   1 <1>  -0.1240 
  5 C       -3.0660    -3.8160     0.3440 C.2   1 <1>  -0.0380 
  6 C       -2.9440    -5.1950    -1.7980 C.3   1 <1>  -0.1020 
  7 C       -3.3350    -1.4280     0.2520 C.2   1 <1>  -0.0500 
  8 C       -3.4920    -0.1630    -1.9110 C.3   1 <1>  -0.1020 
  9 N       -3.1990    -2.5910     0.9670 N.pl3 1 <1>  -0.6000 
 10 C       -2.9160    -5.0290     1.2650 C.3   1 <1>   0.2480 
 11 N       -4.1720    -5.7920     1.3440 N.3   1 <1>  -0.8100 
 12 C       -5.3140    -5.0460     1.9100 C.3   1 <1>   0.1100 
 13 C       -4.0480    -7.0550     2.0770 C.3   1 <1>   0.1100 
 14 C       -5.9710    -5.9620     2.9490 C.3   1 <1>   0.2000 
 15 C       -5.4550    -7.3550     2.5980 C.3   1 <1>  -0.0800 
 16 O       -5.4950    -5.6260     4.2070 O.3   1 <1>  -0.6800 
 17 C       -6.3610    -8.0200     1.5410 C.3   1 <1>  -0.0170 
 18 C       -5.8450    -9.3930     1.1130 C.ar  1 <1>  -0.1440 
 19 C       -5.0780    -9.6080    -0.0590 C.ar  1 <1>   0.0000 
 20 C       -6.1370   -10.4810     1.8820 C.ar  1 <1>  -0.1500 
 21 C       -4.6810   -10.9370    -0.3470 C.ar  1 <1>   0.3100 
 22 C       -4.6800    -8.5920    -0.9610 C.ar  1 <1>  -0.1500 
 23 C       -5.6860   -11.7520     1.5100 C.ar  1 <1>   0.1600 
 24 N       -4.9860   -11.9930     0.4480 N.ar  1 <1>  -0.6200 
 25 C       -3.9330   -11.1890    -1.5080 C.ar  1 <1>  -0.1500 
 26 C       -3.9510    -8.8720    -2.0850 C.ar  1 <1>  -0.1500 
 27 C       -3.5720   -10.1860    -2.3660 C.ar  1 <1>  -0.1500 
 28 H       -3.7940    -5.3090    -2.4480 H     1 <1>   0.0800 
 29 H       -2.9000    -6.0550    -1.1590 H     1 <1>   0.0800 
 30 H       -2.0550    -5.1730    -2.4030 H     1 <1>   0.0800 
 31 H       -3.4360    -0.5110     0.8110 H     1 <1>   0.1500 
 32 H       -2.6330    -0.0290    -2.5440 H     1 <1>   0.0800 
 33 H       -3.5840     0.6920    -1.2670 H     1 <1>   0.0800 
 34 H       -4.3680    -0.2240    -2.5330 H     1 <1>   0.0800 
 35 H       -3.2070    -2.5480     1.9930 H     1 <1>   0.4000 
 36 H       -2.6180    -4.7110     2.2490 H     1 <1>   0.0800 
 37 H       -2.1390    -5.6660     0.8830 H     1 <1>   0.0800 
 38 H       -5.0180    -4.1120     2.3560 H     1 <1>   0.0800 
 39 H       -6.0080    -4.8410     1.1140 H     1 <1>   0.0800 
 40 H       -3.6590    -7.8350     1.4450 H     1 <1>   0.0800 
 41 H       -3.3810    -6.9300     2.9130 H     1 <1>   0.0800 
 42 H       -7.0450    -5.8820     2.9630 H     1 <1>   0.0800 
 43 H       -5.4170    -7.9900     3.4660 H     1 <1>   0.0800 
 44 H       -4.5210    -5.6430     4.1920 H     1 <1>   0.4000 
 45 H       -6.4900    -7.3770     0.6910 H     1 <1>   0.0800 
 46 H       -7.3400    -8.1470     1.9690 H     1 <1>   0.0800 
 47 H       -6.7150   -10.3920     2.7840 H     1 <1>   0.1500 
 48 H       -4.9470    -7.5710    -0.7630 H     1 <1>   0.1500 
 49 H       -5.9380   -12.5820     2.1490 H     1 <1>   0.1500 
 50 H       -3.6510   -12.2080    -1.7020 H     1 <1>   0.1500 
 51 H       -3.6610    -8.0890    -2.7640 H     1 <1>   0.1500 
 52 H       -3.0000   -10.3940    -3.2540 H     1 <1>   0.1500 
@<TRIPOS>BOND
  1   1   2  2   
  2   2   3  1   
  3   2   4  1   
  4   3   5  2   
  5   3   6  1   
  6   4   7  2   
  7   4   8  1   
  8   5   9  1   
  9   5  10  1   
 10   6  28  1   
 11   6  29  1   
 12   6  30  1   
 13   7   9  1   
 14   7  31  1   
 15   8  32  1   
 16   8  33  1   
 17   8  34  1   
 18   9  35  1   
 19  10  11  1   
 20  10  36  1   
 21  10  37  1   
 22  11  12  1   
 23  11  13  1   
 24  12  14  1   
 25  12  38  1   
 26  12  39  1   
 27  13  15  1   
 28  13  40  1   
 29  13  41  1   
 30  14  15  1   
 31  14  16  1   
 32  14  42  1   
 33  15  17  1   
 34  15  43  1   
 35  16  44  1   
 36  17  18  1   
 37  17  45  1   
 38  17  46  1   
 39  18  19  ar  
 40  18  20  ar  
 41  19  21  ar  
 42  19  22  ar  
 43  20  23  ar  
 44  20  47  1   
 45  21  24  ar  
 46  21  25  ar  
 47  22  26  ar  
 48  22  48  1   
 49  23  24  ar  
 50  23  49  1   
 51  25  27  ar  
 52  25  50  1   
 53  26  27  ar  
 54  26  51  1   
 55  27  52  1   
@<TRIPOS>SUBSTRUCTURE
  1 ****  11 GROUP 4 **** **** 0

# MOE 2024.06 (io_trps.svl 2023.06)
