@<TRIPOS>MOLECULE
NONAME
45 46 1 0 0 
SMALL
USER_CHARGES


@<TRIPOS>ATOM
  1 S        0.2150    -0.9880     0.5650 S.3   1 <1>  -0.0800 
  2 C       -1.4570    -0.7210     1.0250 C.2   1 <1>   0.1980 
  3 C        0.6770     0.3630     1.5570 C.2   1 <1>  -0.1100 
  4 N       -1.6220     0.2490     1.8370 N.2   1 <1>  -0.5650 
  5 C       -2.5090    -1.6780     0.4700 C.3   1 <1>   0.2900 
  6 C       -0.4230     0.8720     2.1330 C.2   1 <1>   0.0460 
  7 N       -3.1120    -1.2520    -0.8220 N.3   1 <1>  -0.8100 
  8 C       -0.4820     2.0560     3.0710 C.3   1 <1>  -0.0590 
  9 C       -4.4100    -1.9520    -1.0700 C.3   1 <1>   0.2510 
 10 C       -2.1480    -1.3880    -1.9310 C.3   1 <1>   0.0300 
 11 C       -4.3180    -3.4960    -1.1700 C.2   1 <1>   0.5690 
 12 C       -5.1490    -1.3170    -2.2640 C.3   1 <1>  -0.1600 
 13 O       -3.8750    -4.0100    -2.1710 O.2   1 <1>  -0.5700 
 14 N       -4.7370    -4.2220    -0.0810 N.am  1 <1>  -0.5470 
 15 C       -6.6330    -1.7090    -2.3150 C.3   1 <1>  -0.2400 
 16 C       -4.7660    -5.6040     0.1620 C.ar  1 <1>   0.1170 
 17 C       -4.7280    -6.5620    -0.8470 C.ar  1 <1>  -0.1500 
 18 C       -4.8520    -6.0420     1.4780 C.ar  1 <1>  -0.1500 
 19 C       -4.7710    -7.9110    -0.5470 C.ar  1 <1>  -0.1500 
 20 C       -4.8950    -7.3920     1.7800 C.ar  1 <1>  -0.1500 
 21 C       -4.8560    -8.3360     0.7680 C.ar  1 <1>  -0.1430 
 22 C       -4.9000    -9.8180     1.0940 C.3   1 <1>  -0.0970 
 23 H        1.7160     0.6290     1.5990 H     1 <1>   0.1500 
 24 H       -3.2840    -1.7330     1.2130 H     1 <1>   0.0800 
 25 H       -2.0780    -2.6590     0.3700 H     1 <1>   0.0800 
 26 H        0.4990     2.4630     3.2290 H     1 <1>   0.0800 
 27 H       -0.8910     1.7470     4.0160 H     1 <1>   0.0800 
 28 H       -1.1150     2.8160     2.6500 H     1 <1>   0.0800 
 29 H       -5.0260    -1.7390    -0.2150 H     1 <1>   0.0800 
 30 H       -1.2900    -0.7660    -1.7520 H     1 <1>   0.0800 
 31 H       -2.5850    -1.0640    -2.8580 H     1 <1>   0.0800 
 32 H       -1.8250    -2.4100    -2.0370 H     1 <1>   0.0800 
 33 H       -4.6850    -1.6240    -3.1850 H     1 <1>   0.0800 
 34 H       -5.0770    -0.2460    -2.1860 H     1 <1>   0.0800 
 35 H       -5.0670    -3.6640     0.7030 H     1 <1>   0.3700 
 36 H       -6.7420    -2.7730    -2.4370 H     1 <1>   0.0800 
 37 H       -7.1080    -1.2250    -3.1500 H     1 <1>   0.0800 
 38 H       -7.1380    -1.4060    -1.4140 H     1 <1>   0.0800 
 39 H       -4.6690    -6.2610    -1.8760 H     1 <1>   0.1500 
 40 H       -4.8820    -5.3280     2.2790 H     1 <1>   0.1500 
 41 H       -4.7370    -8.6310    -1.3470 H     1 <1>   0.1500 
 42 H       -4.9590    -7.7060     2.8070 H     1 <1>   0.1500 
 43 H       -5.4000   -10.3590     0.3100 H     1 <1>   0.0800 
 44 H       -5.4310    -9.9870     2.0130 H     1 <1>   0.0800 
 45 H       -3.9000   -10.1980     1.1950 H     1 <1>   0.0800 
@<TRIPOS>BOND
  1   1   2  1   
  2   1   3  1   
  3   2   4  2   
  4   2   5  1   
  5   3   6  2   
  6   3  23  1   
  7   4   6  1   
  8   5   7  1   
  9   5  24  1   
 10   5  25  1   
 11   6   8  1   
 12   7   9  1   
 13   7  10  1   
 14   8  26  1   
 15   8  27  1   
 16   8  28  1   
 17   9  11  1   
 18   9  12  1   
 19   9  29  1   
 20  10  30  1   
 21  10  31  1   
 22  10  32  1   
 23  11  13  2   
 24  11  14  am  
 25  12  15  1   
 26  12  33  1   
 27  12  34  1   
 28  14  16  1   
 29  14  35  1   
 30  15  36  1   
 31  15  37  1   
 32  15  38  1   
 33  16  17  ar  
 34  16  18  ar  
 35  17  19  ar  
 36  17  39  1   
 37  18  20  ar  
 38  18  40  1   
 39  19  21  ar  
 40  19  41  1   
 41  20  21  ar  
 42  20  42  1   
 43  21  22  1   
 44  22  43  1   
 45  22  44  1   
 46  22  45  1   
@<TRIPOS>SUBSTRUCTURE
  1 ****  11 GROUP 4 **** **** 0

# MOE 2024.06 (io_trps.svl 2023.06)
