@<TRIPOS>MOLECULE
NONAME
52 54 1 0 0 
SMALL
USER_CHARGES


@<TRIPOS>ATOM
  1 O        2.1520     0.2090    -0.2250 O.2   1 <1>  -0.5700 
  2 C        2.5330    -0.7820     0.3710 C.2   1 <1>   0.7150 
  3 N        3.4770    -0.5760     1.3590 N.am  1 <1>  -0.6600 
  4 C        2.0790    -2.1050    -0.0070 C.2   1 <1>   0.0550 
  5 C        4.8070    -1.2390     1.2860 C.3   1 <1>   0.1400 
  6 C        3.3770     0.6090     2.2500 C.3   1 <1>   0.1400 
  7 O        2.4440    -3.1670     0.7030 O.3   1 <1>  -0.2800 
  8 C        1.2880    -2.5230    -1.0200 C.2   1 <1>   0.0460 
  9 C        5.6130    -0.6930     0.0900 C.3   1 <1>   0.3430 
 10 C        4.4850     1.6300     1.9670 C.3   1 <1>  -0.1600 
 11 C        1.8420    -4.1530     0.0690 C.2   1 <1>   0.2980 
 12 N        1.1530    -3.8400    -0.9650 N.2   1 <1>  -0.5650 
 13 C        0.5750    -1.7670    -2.1260 C.3   1 <1>  -0.0590 
 14 N        6.0030     0.7630     0.1810 N.4   1 <1>  -0.9590 
 15 C        4.8810     1.7140     0.4910 C.3   1 <1>   0.3430 
 16 C        2.0270    -5.5560     0.6310 C.3   1 <1>   0.0200 
 17 C        6.6950     1.1700    -1.0740 C.3   1 <1>   0.5240 
 18 C        1.3110    -6.6500    -0.1750 C.3   1 <1>  -0.2400 
 19 C        7.3260     2.5240    -0.8620 C.2   1 <1>  -0.1810 
 20 C        8.4040     2.8750    -0.1400 C.2   1 <1>  -0.0400 
 21 C        6.8830     3.7360    -1.3950 C.2   1 <1>   0.1080 
 22 O        8.5410     4.1680    -0.2370 O.3   1 <1>  -0.0190 
 23 C        9.4060     2.1020     0.6940 C.3   1 <1>  -0.0600 
 24 N        7.6250     4.6990    -0.9910 N.2   1 <1>  -0.4100 
 25 C        5.7080     3.9440    -2.3310 C.3   1 <1>  -0.0590 
 26 H        4.6740    -2.2980     1.1600 H     1 <1>   0.0800 
 27 H        5.3490    -1.0940     2.2050 H     1 <1>   0.0800 
 28 H        3.4190     0.2900     3.2780 H     1 <1>   0.0800 
 29 H        2.4170     1.0790     2.1020 H     1 <1>   0.0800 
 30 H        5.0260    -0.8500    -0.8000 H     1 <1>   0.0800 
 31 H        6.5070    -1.2880    -0.0080 H     1 <1>   0.0800 
 32 H        5.3440     1.4330     2.5830 H     1 <1>   0.0800 
 33 H        4.1090     2.5920     2.2680 H     1 <1>   0.0800 
 34 H        0.7580    -0.7120    -2.0730 H     1 <1>   0.0800 
 35 H       -0.4840    -1.9360    -2.0460 H     1 <1>   0.0800 
 36 H        0.9070    -2.1300    -3.0810 H     1 <1>   0.0800 
 37 H        6.6900     0.8830     0.9330 H     1 <1>   0.4500 
 38 H        5.2080     2.7240     0.3050 H     1 <1>   0.0800 
 39 H        4.0270     1.5230    -0.1400 H     1 <1>   0.0800 
 40 H        1.6580    -5.5650     1.6400 H     1 <1>   0.0800 
 41 H        3.0790    -5.7740     0.6610 H     1 <1>   0.0800 
 42 H        5.9960     1.2100    -1.8930 H     1 <1>   0.0800 
 43 H        7.4690     0.4600    -1.3170 H     1 <1>   0.0800 
 44 H        0.2520    -6.4580    -0.1990 H     1 <1>   0.0800 
 45 H        1.4780    -7.6140     0.2710 H     1 <1>   0.0800 
 46 H        1.6780    -6.6660    -1.1860 H     1 <1>   0.0800 
 47 H        9.2050     1.0480     0.6680 H     1 <1>   0.0800 
 48 H        9.3730     2.4440     1.7130 H     1 <1>   0.0800 
 49 H       10.3970     2.2730     0.3120 H     1 <1>   0.0800 
 50 H        4.7860     3.6840    -1.8470 H     1 <1>   0.0800 
 51 H        5.8300     3.3520    -3.2190 H     1 <1>   0.0800 
 52 H        5.6570     4.9790    -2.6220 H     1 <1>   0.0800 
@<TRIPOS>BOND
  1   1   2  2   
  2   2   3  am  
  3   2   4  1   
  4   3   5  1   
  5   3   6  1   
  6   4   7  1   
  7   4   8  2   
  8   5   9  1   
  9   5  26  1   
 10   5  27  1   
 11   6  10  1   
 12   6  28  1   
 13   6  29  1   
 14   7  11  1   
 15   8  12  1   
 16   8  13  1   
 17   9  14  1   
 18   9  30  1   
 19   9  31  1   
 20  10  15  1   
 21  10  32  1   
 22  10  33  1   
 23  11  12  2   
 24  11  16  1   
 25  13  34  1   
 26  13  35  1   
 27  13  36  1   
 28  14  15  1   
 29  14  17  1   
 30  14  37  1   
 31  15  38  1   
 32  15  39  1   
 33  16  18  1   
 34  16  40  1   
 35  16  41  1   
 36  17  19  1   
 37  17  42  1   
 38  17  43  1   
 39  18  44  1   
 40  18  45  1   
 41  18  46  1   
 42  19  20  2   
 43  19  21  1   
 44  20  22  1   
 45  20  23  1   
 46  21  24  2   
 47  21  25  1   
 48  22  24  1   
 49  23  47  1   
 50  23  48  1   
 51  23  49  1   
 52  25  50  1   
 53  25  51  1   
 54  25  52  1   
@<TRIPOS>SUBSTRUCTURE
  1 ****   9 GROUP 4 **** **** 0

# MOE 2024.06 (io_trps.svl 2023.06)
