@<TRIPOS>MOLECULE
NONAME
36 38 1 0 0 
SMALL
USER_CHARGES


@<TRIPOS>ATOM
  1 F        2.2400    -2.2360     2.4600 F     1 <1>  -0.1900 
  2 C        2.1510    -1.7690     1.2360 C.ar  1 <1>   0.1900 
  3 C        1.3170    -2.4080     0.3070 C.ar  1 <1>   0.4100 
  4 C        2.8900    -0.6600     0.9060 C.ar  1 <1>  -0.1500 
  5 N        1.2030    -1.9780    -0.9470 N.ar  1 <1>  -0.6200 
  6 N        0.5730    -3.5200     0.6620 N.pl3 1 <1>  -0.8690 
  7 C        2.7580    -0.2210    -0.3970 C.ar  1 <1>  -0.1500 
  8 C        1.9180    -0.9050    -1.2620 C.ar  1 <1>   0.1600 
  9 C        0.0610    -4.5040    -0.3250 C.3   1 <1>   0.2890 
 10 C       -1.2460    -5.0790     0.1890 C.3   1 <1>  -0.0800 
 11 C        0.9660    -5.7360    -0.3560 C.3   1 <1>   0.1200 
 12 C       -0.7510    -6.1920     1.1130 C.3   1 <1>   0.1200 
 13 C       -2.1180    -5.6200    -0.9600 C.3   1 <1>  -0.0160 
 14 O        0.4520    -6.6510     0.5720 O.3   1 <1>  -0.5600 
 15 C       -3.4330    -6.1830    -0.4460 C.ar  1 <1>  -0.1430 
 16 C       -3.6680    -7.5410    -0.3640 C.ar  1 <1>  -0.1500 
 17 C       -4.4620    -5.3610    -0.0330 C.ar  1 <1>  -0.1500 
 18 C       -4.8840    -7.9980     0.1170 C.ar  1 <1>   0.1600 
 19 C       -5.6410    -5.9200     0.4330 C.ar  1 <1>   0.1600 
 20 N       -5.8760    -7.2190     0.5190 N.ar  1 <1>  -0.6200 
 21 H        3.5280    -0.1720     1.6210 H     1 <1>   0.1500 
 22 H        0.8560    -3.9530     1.5460 H     1 <1>   0.4000 
 23 H        3.3010     0.6420    -0.7390 H     1 <1>   0.1500 
 24 H        1.8270    -0.5490    -2.2750 H     1 <1>   0.1500 
 25 H       -0.0430    -4.0590    -1.3000 H     1 <1>   0.0800 
 26 H       -1.8060    -4.3400     0.7360 H     1 <1>   0.0800 
 27 H        1.9840    -5.5000    -0.1030 H     1 <1>   0.0800 
 28 H        0.9320    -6.2040    -1.3230 H     1 <1>   0.0800 
 29 H       -1.4380    -7.0150     1.2000 H     1 <1>   0.0800 
 30 H       -0.5370    -5.8010     2.0930 H     1 <1>   0.0800 
 31 H       -1.5860    -6.3840    -1.5020 H     1 <1>   0.0800 
 32 H       -2.3320    -4.8230    -1.6500 H     1 <1>   0.0800 
 33 H       -2.9180    -8.2480    -0.6670 H     1 <1>   0.1500 
 34 H       -4.3570    -4.2920    -0.0670 H     1 <1>   0.1500 
 35 H       -5.0490    -9.0600     0.1740 H     1 <1>   0.1500 
 36 H       -6.4310    -5.2630     0.7510 H     1 <1>   0.1500 
@<TRIPOS>BOND
  1   1   2  1   
  2   2   3  ar  
  3   2   4  ar  
  4   3   5  ar  
  5   3   6  1   
  6   4   7  ar  
  7   4  21  1   
  8   5   8  ar  
  9   6   9  1   
 10   6  22  1   
 11   7   8  ar  
 12   7  23  1   
 13   8  24  1   
 14   9  10  1   
 15   9  11  1   
 16   9  25  1   
 17  10  12  1   
 18  10  13  1   
 19  10  26  1   
 20  11  14  1   
 21  11  27  1   
 22  11  28  1   
 23  12  14  1   
 24  12  29  1   
 25  12  30  1   
 26  13  15  1   
 27  13  31  1   
 28  13  32  1   
 29  15  16  ar  
 30  15  17  ar  
 31  16  18  ar  
 32  16  33  1   
 33  17  19  ar  
 34  17  34  1   
 35  18  20  ar  
 36  18  35  1   
 37  19  20  ar  
 38  19  36  1   
@<TRIPOS>SUBSTRUCTURE
  1 ****  10 GROUP 4 **** **** 0

# MOE 2024.06 (io_trps.svl 2023.06)
