@<TRIPOS>MOLECULE
NONAME
51 54 1 0 0 
SMALL
USER_CHARGES


@<TRIPOS>ATOM
  1 O        0.7970     0.1950     2.9330 O.2   1 <1>  -0.5700 
  2 C        1.1380    -0.4310     1.9560 C.2   1 <1>   0.5690 
  3 N        1.7180     0.1860     0.8880 N.am  1 <1>  -0.5100 
  4 C        0.9140    -1.9500     1.9450 C.3   1 <1>   0.1710 
  5 C        2.5070     1.4520     0.9090 C.3   1 <1>   0.2250 
  6 C        2.6400    -0.4060    -0.1310 C.3   1 <1>   0.2250 
  7 N        0.3400    -2.5090     0.6890 N.3   1 <1>  -0.8100 
  8 C        3.1040     1.0340    -0.4500 C.3   1 <1>   0.0850 
  9 C       -1.0210    -1.9720     0.4390 C.3   1 <1>   0.1100 
 10 C        0.3000    -3.9880     0.7400 C.3   1 <1>   0.1100 
 11 N        4.5690     1.2210    -0.4900 N.pl3 1 <1>   0.4850 
 12 C       -1.6540    -2.5480    -0.8430 C.3   1 <1>   0.2090 
 13 C       -0.2920    -4.5950    -0.5460 C.3   1 <1>   0.2090 
 14 N        5.4460     0.1950    -0.5050 N.2   1 <1>  -0.7070 
 15 C        5.2190     2.4100    -0.5500 C.2   1 <1>  -0.3320 
 16 N       -1.6570    -4.0430    -0.8030 N.pl3 1 <1>  -0.8380 
 17 C        6.6140     0.7470    -0.5640 C.2   1 <1>   0.1080 
 18 C        6.5390     2.1330    -0.5950 C.2   1 <1>  -0.1500 
 19 C        4.5540     3.7780    -0.5690 C.3   1 <1>  -0.0600 
 20 C       -2.8120    -4.7840    -0.6660 C.ar  1 <1>   0.7200 
 21 C        7.8910    -0.0600    -0.5950 C.3   1 <1>  -0.0590 
 22 N       -2.6880    -6.0350    -0.2190 N.ar  1 <1>  -0.6200 
 23 N       -3.9590    -4.1860    -0.9900 N.ar  1 <1>  -0.6200 
 24 C       -3.7940    -6.7260    -0.1010 C.ar  1 <1>   0.1600 
 25 C       -5.0480    -4.9020    -0.8620 C.ar  1 <1>   0.1600 
 26 C       -5.0220    -6.1990    -0.4140 C.ar  1 <1>  -0.1500 
 27 H        0.2710    -2.2000     2.7710 H     1 <1>   0.0800 
 28 H        1.8680    -2.4110     2.1250 H     1 <1>   0.0800 
 29 H        3.2110     1.4570     1.7240 H     1 <1>   0.0000 
 30 H        1.8690     2.3160     0.8580 H     1 <1>   0.0000 
 31 H        2.0940    -0.8710    -0.9320 H     1 <1>   0.0000 
 32 H        3.3670    -1.0420     0.3440 H     1 <1>   0.0000 
 33 H        2.6040     1.4740    -1.2950 H     1 <1>   0.0000 
 34 H       -0.9750    -0.9020     0.3430 H     1 <1>   0.0800 
 35 H       -1.6650    -2.2050     1.2710 H     1 <1>   0.0800 
 36 H       -0.2970    -4.3120     1.5760 H     1 <1>   0.0800 
 37 H        1.2980    -4.3670     0.8710 H     1 <1>   0.0800 
 38 H       -1.0830    -2.2210    -1.6940 H     1 <1>   0.0800 
 39 H       -2.6480    -2.1530    -0.9490 H     1 <1>   0.0800 
 40 H       -0.3080    -5.6670    -0.4620 H     1 <1>   0.0800 
 41 H        0.3470    -4.3480    -1.3750 H     1 <1>   0.0800 
 42 H        7.3720     2.8110    -0.6470 H     1 <1>   0.1500 
 43 H        3.8710     3.8510    -1.3970 H     1 <1>   0.0800 
 44 H        5.2970     4.5480    -0.6740 H     1 <1>   0.0800 
 45 H        4.0170     3.9480     0.3470 H     1 <1>   0.0800 
 46 H        7.9590    -0.6570     0.2960 H     1 <1>   0.0800 
 47 H        8.7450     0.5870    -0.6530 H     1 <1>   0.0800 
 48 H        7.8810    -0.7110    -1.4500 H     1 <1>   0.0800 
 49 H       -3.7190    -7.7400     0.2550 H     1 <1>   0.1500 
 50 H       -5.9860    -4.4420    -1.1220 H     1 <1>   0.1500 
 51 H       -5.9210    -6.7760    -0.3140 H     1 <1>   0.1500 
@<TRIPOS>BOND
  1   1   2  2   
  2   2   3  am  
  3   2   4  1   
  4   3   5  1   
  5   3   6  1   
  6   4   7  1   
  7   4  27  1   
  8   4  28  1   
  9   5   8  1   
 10   5  29  1   
 11   5  30  1   
 12   6   8  1   
 13   6  31  1   
 14   6  32  1   
 15   7   9  1   
 16   7  10  1   
 17   8  11  1   
 18   8  33  1   
 19   9  12  1   
 20   9  34  1   
 21   9  35  1   
 22  10  13  1   
 23  10  36  1   
 24  10  37  1   
 25  11  14  1   
 26  11  15  1   
 27  12  16  1   
 28  12  38  1   
 29  12  39  1   
 30  13  16  1   
 31  13  40  1   
 32  13  41  1   
 33  14  17  2   
 34  15  18  2   
 35  15  19  1   
 36  16  20  1   
 37  17  18  1   
 38  17  21  1   
 39  18  42  1   
 40  19  43  1   
 41  19  44  1   
 42  19  45  1   
 43  20  22  ar  
 44  20  23  ar  
 45  21  46  1   
 46  21  47  1   
 47  21  48  1   
 48  22  24  ar  
 49  23  25  ar  
 50  24  26  ar  
 51  24  49  1   
 52  25  26  ar  
 53  25  50  1   
 54  26  51  1   
@<TRIPOS>SUBSTRUCTURE
  1 ****   7 GROUP 4 **** **** 0

# MOE 2024.06 (io_trps.svl 2023.06)
