@<TRIPOS>MOLECULE
NONAME
48 50 1 0 0 
SMALL
USER_CHARGES


@<TRIPOS>ATOM
  1 O        0.9900    -1.0590    -0.0450 O.3   1 <1>  -0.5600 
  2 C        0.3560    -2.2520     0.3630 C.3   1 <1>   0.4180 
  3 C        0.2180     0.1140    -0.0690 C.3   1 <1>   0.1200 
  4 C       -1.0760    -2.3180    -0.1520 C.2   1 <1>  -0.2880 
  5 C        0.4180    -2.3450     1.8950 C.3   1 <1>  -0.1600 
  6 C        1.1740    -3.3960    -0.2410 C.3   1 <1>  -0.1600 
  7 C       -0.9510    -0.0200    -1.0530 C.3   1 <1>  -0.0220 
  8 C       -1.6810    -1.3260    -0.8090 C.2   1 <1>  -0.2760 
  9 C        1.8190    -2.6490     2.4400 C.3   1 <1>   0.3430 
 10 C        2.6370    -3.3980     0.2170 C.3   1 <1>   0.3430 
 11 C       -3.0920    -1.3970    -1.3660 C.3   1 <1>  -0.1020 
 12 N        2.8390    -2.4790     1.3760 N.4   1 <1>  -0.9590 
 13 C        4.2380    -2.4690     1.8640 C.3   1 <1>   0.5240 
 14 C        5.1280    -2.0350     0.7160 C.2   1 <1>  -0.1810 
 15 C        6.0380    -2.7660     0.0120 C.2   1 <1>  -0.3320 
 16 C        5.1370    -0.7480     0.1730 C.2   1 <1>  -0.1500 
 17 N        6.6040    -1.9750    -0.9450 N.pl3 1 <1>   0.0480 
 18 C        6.4250    -4.2270     0.2060 C.3   1 <1>  -0.0600 
 19 C        6.0470    -0.7310    -0.8420 C.2   1 <1>  -0.1320 
 20 C        7.6610    -2.3590    -1.9120 C.3   1 <1>   0.0160 
 21 C        6.4050     0.3680    -1.6870 C.1   1 <1>   0.5370 
 22 N        6.7030     1.2260    -2.3750 N.1   1 <1>  -0.5570 
 23 H        0.8570     0.9290    -0.3640 H     1 <1>   0.0800 
 24 H       -0.1540     0.3060     0.9220 H     1 <1>   0.0800 
 25 H       -1.5600    -3.2560     0.0540 H     1 <1>   0.1500 
 26 H       -0.2370    -3.1320     2.2230 H     1 <1>   0.0800 
 27 H        0.0410    -1.4400     2.3330 H     1 <1>   0.0800 
 28 H        1.1340    -3.3360    -1.3140 H     1 <1>   0.0800 
 29 H        0.7270    -4.3340     0.0350 H     1 <1>   0.0800 
 30 H       -0.5870     0.0150    -2.0650 H     1 <1>   0.0800 
 31 H       -1.6170     0.8120    -0.9080 H     1 <1>   0.0800 
 32 H        1.8500    -3.6630     2.8060 H     1 <1>   0.0800 
 33 H        2.0290    -1.9870     3.2650 H     1 <1>   0.0800 
 34 H        3.2560    -3.0690    -0.6030 H     1 <1>   0.0800 
 35 H        2.9340    -4.4000     0.4770 H     1 <1>   0.0800 
 36 H       -3.7100    -0.6400    -0.9160 H     1 <1>   0.0800 
 37 H       -3.5310    -2.3580    -1.1650 H     1 <1>   0.0800 
 38 H       -3.0770    -1.2460    -2.4310 H     1 <1>   0.0800 
 39 H        2.6580    -1.5470     0.9590 H     1 <1>   0.4500 
 40 H        4.5230    -3.4500     2.2050 H     1 <1>   0.0800 
 41 H        4.3450    -1.7730     2.6800 H     1 <1>   0.0800 
 42 H        4.5350     0.0840     0.5000 H     1 <1>   0.1500 
 43 H        5.8920    -4.6680     1.0270 H     1 <1>   0.0800 
 44 H        7.4790    -4.3040     0.4110 H     1 <1>   0.0800 
 45 H        6.2050    -4.7920    -0.6830 H     1 <1>   0.0800 
 46 H        7.7320    -3.4270    -1.9840 H     1 <1>   0.0800 
 47 H        8.6040    -1.9600    -1.5840 H     1 <1>   0.0800 
 48 H        7.4250    -1.9610    -2.8830 H     1 <1>   0.0800 
@<TRIPOS>BOND
  1   1   2  1   
  2   1   3  1   
  3   2   4  1   
  4   2   5  1   
  5   2   6  1   
  6   3   7  1   
  7   3  23  1   
  8   3  24  1   
  9   4   8  2   
 10   4  25  1   
 11   5   9  1   
 12   5  26  1   
 13   5  27  1   
 14   6  10  1   
 15   6  28  1   
 16   6  29  1   
 17   7   8  1   
 18   7  30  1   
 19   7  31  1   
 20   8  11  1   
 21   9  12  1   
 22   9  32  1   
 23   9  33  1   
 24  10  12  1   
 25  10  34  1   
 26  10  35  1   
 27  11  36  1   
 28  11  37  1   
 29  11  38  1   
 30  12  13  1   
 31  12  39  1   
 32  13  14  1   
 33  13  40  1   
 34  13  41  1   
 35  14  15  2   
 36  14  16  1   
 37  15  17  1   
 38  15  18  1   
 39  16  19  2   
 40  16  42  1   
 41  17  19  1   
 42  17  20  1   
 43  18  43  1   
 44  18  44  1   
 45  18  45  1   
 46  19  21  1   
 47  20  46  1   
 48  20  47  1   
 49  20  48  1   
 50  21  22  3   
@<TRIPOS>SUBSTRUCTURE
  1 ****  12 GROUP 4 **** **** 0

# MOE 2024.06 (io_trps.svl 2023.06)
