@<TRIPOS>MOLECULE
NONAME
44 49 1 0 0 
SMALL
USER_CHARGES


@<TRIPOS>ATOM
  1 O       -0.0710     0.0190    -1.5290 O.3   1 <1>  -0.3570 
  2 C        0.0480    -1.1990    -1.0650 C.2   1 <1>   0.1770 
  3 C        1.1720     0.6980    -1.6370 C.3   1 <1>   0.2000 
  4 N        1.3280    -1.4850    -0.8460 N.pl3 1 <1>  -0.8690 
  5 C       -1.0300    -2.0240    -0.8290 C.2   1 <1>  -0.1360 
  6 C        2.1950    -0.3390    -1.1360 C.3   1 <1>   0.4330 
  7 C        1.2060     1.8980    -0.6720 C.3   1 <1>  -0.0160 
  8 C       -2.3750    -1.7620    -1.0210 C.2   1 <1>   0.5360 
  9 C        2.7410     0.2520     0.1420 C.ar  1 <1>  -0.1440 
 10 C        2.1900     1.4860     0.3980 C.ar  1 <1>  -0.1440 
 11 O       -2.8340    -0.6220    -1.4850 O.3   1 <1>  -0.4300 
 12 N       -3.3930    -2.5830    -0.7660 N.2   1 <1>  -0.1460 
 13 C        3.6740    -0.2970     1.0050 C.ar  1 <1>  -0.1500 
 14 C        2.5520     2.2010     1.5250 C.ar  1 <1>  -0.1500 
 15 C       -4.2470    -0.5620    -1.5310 C.3   1 <1>   0.2000 
 16 C       -4.6810    -1.9600    -1.0470 C.3   1 <1>   0.4100 
 17 C        4.0430     0.4140     2.1370 C.ar  1 <1>  -0.1500 
 18 C        3.4840     1.6570     2.3950 C.ar  1 <1>  -0.1500 
 19 C       -4.7580     0.4700    -0.5080 C.3   1 <1>  -0.0170 
 20 C       -5.4140    -1.7120     0.2450 C.ar  1 <1>  -0.1440 
 21 C       -5.4330    -0.3730     0.5510 C.ar  1 <1>  -0.1440 
 22 C       -6.0120    -2.6390     1.0830 C.ar  1 <1>  -0.1500 
 23 C       -6.0350     0.0770     1.7110 C.ar  1 <1>  -0.1500 
 24 C       -6.6200    -2.1940     2.2460 C.ar  1 <1>  -0.1500 
 25 C       -6.6280    -0.8430     2.5600 C.ar  1 <1>  -0.1500 
 26 H        1.3350     0.9780    -2.6610 H     1 <1>   0.0800 
 27 H        1.7390    -2.3080    -0.3980 H     1 <1>   0.4000 
 28 H       -0.7760    -2.9900    -0.4400 H     1 <1>   0.1500 
 29 H        2.9590    -0.5620    -1.8600 H     1 <1>   0.0800 
 30 H        1.5730     2.7730    -1.1770 H     1 <1>   0.0800 
 31 H        0.2350     2.0950    -0.2520 H     1 <1>   0.0800 
 32 H       -3.3470    -3.4870    -0.2970 H     1 <1>   0.4000 
 33 H        4.1060    -1.2610     0.8060 H     1 <1>   0.1500 
 34 H        2.1180     3.1650     1.7250 H     1 <1>   0.1500 
 35 H       -4.5660    -0.3410    -2.5360 H     1 <1>   0.0800 
 36 H       -5.2640    -2.5000    -1.7720 H     1 <1>   0.0800 
 37 H        4.7650     0.0000     2.8180 H     1 <1>   0.1500 
 38 H        3.7750     2.2030     3.2760 H     1 <1>   0.1500 
 39 H       -3.9560     1.0560    -0.0920 H     1 <1>   0.0800 
 40 H       -5.4840     1.1210    -0.9620 H     1 <1>   0.0800 
 41 H       -6.0230    -3.6910     0.8530 H     1 <1>   0.1500 
 42 H       -6.0490     1.1270     1.9540 H     1 <1>   0.1500 
 43 H       -7.0920    -2.8960     2.9130 H     1 <1>   0.1500 
 44 H       -7.1020    -0.5060     3.4660 H     1 <1>   0.1500 
@<TRIPOS>BOND
  1   1   2  1   
  2   1   3  1   
  3   2   4  1   
  4   2   5  2   
  5   3   6  1   
  6   3   7  1   
  7   3  26  1   
  8   4   6  1   
  9   4  27  1   
 10   5   8  1   
 11   5  28  1   
 12   6   9  1   
 13   6  29  1   
 14   7  10  1   
 15   7  30  1   
 16   7  31  1   
 17   8  11  1   
 18   8  12  2   
 19   9  10  ar  
 20   9  13  ar  
 21  10  14  ar  
 22  11  15  1   
 23  12  16  1   
 24  12  32  1   
 25  13  17  ar  
 26  13  33  1   
 27  14  18  ar  
 28  14  34  1   
 29  15  16  1   
 30  15  19  1   
 31  15  35  1   
 32  16  20  1   
 33  16  36  1   
 34  17  18  ar  
 35  17  37  1   
 36  18  38  1   
 37  19  21  1   
 38  19  39  1   
 39  19  40  1   
 40  20  21  ar  
 41  20  22  ar  
 42  21  23  ar  
 43  22  24  ar  
 44  22  41  1   
 45  23  25  ar  
 46  23  42  1   
 47  24  25  ar  
 48  24  43  1   
 49  25  44  1   
@<TRIPOS>SUBSTRUCTURE
  1 ****   5 GROUP 4 **** **** 0

# MOE 2024.06 (io_trps.svl 2023.06)
