@<TRIPOS>MOLECULE
NONAME
54 57 1 0 0 
SMALL
USER_CHARGES


@<TRIPOS>ATOM
  1 O       -0.7800     0.4820    -1.5960 O.2   1 <1>  -0.5700 
  2 C       -1.5620     1.2210    -1.0280 C.2   1 <1>   0.5440 
  3 N       -2.6920     0.6810    -0.4520 N.am  1 <1>  -0.6600 
  4 C       -1.2750     2.6400    -0.9760 C.ar  1 <1>   0.0860 
  5 C       -3.0900    -0.7400    -0.6810 C.3   1 <1>   0.1400 
  6 C       -3.5360     1.3620     0.5740 C.3   1 <1>   0.1400 
  7 C       -0.0940     3.1330    -0.4600 C.ar  1 <1>  -0.1500 
  8 C       -2.1550     3.6010    -1.4540 C.ar  1 <1>  -0.1500 
  9 C       -4.6080    -0.8450    -0.9050 C.3   1 <1>   0.1200 
 10 C       -5.0290     1.1460     0.2710 C.3   1 <1>   0.1200 
 11 C        0.1620     4.4980    -0.4230 C.ar  1 <1>   0.4100 
 12 C       -1.8270     4.9390    -1.3710 C.ar  1 <1>   0.1600 
 13 O       -5.3130    -0.2180     0.1310 O.3   1 <1>  -0.5600 
 14 N       -0.7020     5.4060    -0.8620 N.ar  1 <1>  -0.6200 
 15 N        1.3660     4.9500     0.0820 N.pl3 1 <1>  -0.8380 
 16 C        1.4600     6.3600     0.5840 C.3   1 <1>   0.2090 
 17 C        2.6080     4.5760    -0.6610 C.3   1 <1>   0.2090 
 18 C        2.7110     6.5770     1.4600 C.3   1 <1>   0.2090 
 19 C        3.8640     4.7390     0.2180 C.3   1 <1>   0.2090 
 20 N        3.9750     6.1140     0.7960 N.pl3 1 <1>  -0.8380 
 21 C        4.7480     7.0280     0.1140 C.ar  1 <1>   0.4100 
 22 N        4.1060     7.8500    -0.6890 N.ar  1 <1>  -0.6200 
 23 C        6.1340     7.0680     0.2430 C.ar  1 <1>  -0.1430 
 24 C        4.8600     8.6890    -1.3640 C.ar  1 <1>   0.4700 
 25 C        6.8070     7.9860    -0.5340 C.ar  1 <1>   0.1670 
 26 C        6.8580     6.1330     1.2160 C.3   1 <1>  -0.0970 
 27 N        6.1740     8.8100    -1.3440 N.ar  1 <1>  -0.6200 
 28 C        8.3180     8.1320    -0.5240 C.3   1 <1>  -0.0970 
 29 H       -2.8140    -1.3280     0.1760 H     1 <1>   0.0800 
 30 H       -2.5790    -1.1410    -1.5390 H     1 <1>   0.0800 
 31 H       -3.3260     2.4140     0.6170 H     1 <1>   0.0800 
 32 H       -3.3140     0.9440     1.5410 H     1 <1>   0.0800 
 33 H        0.6420     2.4540    -0.0770 H     1 <1>   0.1500 
 34 H       -3.0880     3.2980    -1.8910 H     1 <1>   0.1500 
 35 H       -4.9080    -1.8780    -0.9290 H     1 <1>   0.0800 
 36 H       -4.8830    -0.3840    -1.8380 H     1 <1>   0.0800 
 37 H       -5.3100     1.6510    -0.6360 H     1 <1>   0.0800 
 38 H       -5.6300     1.5230     1.0790 H     1 <1>   0.0800 
 39 H       -2.5250     5.6690    -1.7440 H     1 <1>   0.1500 
 40 H        0.5810     6.5970     1.1570 H     1 <1>   0.0800 
 41 H        1.4980     7.0340    -0.2550 H     1 <1>   0.0800 
 42 H        2.7050     5.2110    -1.5250 H     1 <1>   0.0800 
 43 H        2.5430     3.5580    -1.0010 H     1 <1>   0.0800 
 44 H        2.5850     6.0380     2.3820 H     1 <1>   0.0800 
 45 H        2.7950     7.6230     1.6990 H     1 <1>   0.0800 
 46 H        4.7350     4.5270    -0.3750 H     1 <1>   0.0800 
 47 H        3.8250     4.0230     1.0200 H     1 <1>   0.0800 
 48 H        4.3380     9.3630    -2.0210 H     1 <1>   0.1500 
 49 H        6.2170     5.8660     2.0370 H     1 <1>   0.0800 
 50 H        7.7270     6.6050     1.6330 H     1 <1>   0.0800 
 51 H        7.1540     5.2350     0.7050 H     1 <1>   0.0800 
 52 H        8.7970     7.1780    -0.4100 H     1 <1>   0.0800 
 53 H        8.6120     8.7800     0.2800 H     1 <1>   0.0800 
 54 H        8.6530     8.5620    -1.4510 H     1 <1>   0.0800 
@<TRIPOS>BOND
  1   1   2  2   
  2   2   3  am  
  3   2   4  1   
  4   3   5  1   
  5   3   6  1   
  6   4   7  ar  
  7   4   8  ar  
  8   5   9  1   
  9   5  29  1   
 10   5  30  1   
 11   6  10  1   
 12   6  31  1   
 13   6  32  1   
 14   7  11  ar  
 15   7  33  1   
 16   8  12  ar  
 17   8  34  1   
 18   9  13  1   
 19   9  35  1   
 20   9  36  1   
 21  10  13  1   
 22  10  37  1   
 23  10  38  1   
 24  11  14  ar  
 25  11  15  1   
 26  12  14  ar  
 27  12  39  1   
 28  15  16  1   
 29  15  17  1   
 30  16  18  1   
 31  16  40  1   
 32  16  41  1   
 33  17  19  1   
 34  17  42  1   
 35  17  43  1   
 36  18  20  1   
 37  18  44  1   
 38  18  45  1   
 39  19  20  1   
 40  19  46  1   
 41  19  47  1   
 42  20  21  1   
 43  21  22  ar  
 44  21  23  ar  
 45  22  24  ar  
 46  23  25  ar  
 47  23  26  1   
 48  24  27  ar  
 49  24  48  1   
 50  25  27  ar  
 51  25  28  1   
 52  26  49  1   
 53  26  50  1   
 54  26  51  1   
 55  28  52  1   
 56  28  53  1   
 57  28  54  1   
@<TRIPOS>SUBSTRUCTURE
  1 ****  15 GROUP 4 **** **** 0

# MOE 2024.06 (io_trps.svl 2023.06)
