@<TRIPOS>MOLECULE
NONAME
55 57 1 0 0 
SMALL
USER_CHARGES


@<TRIPOS>ATOM
  1 O       -1.3370    -0.2790     0.2200 O.2   1 <1>  -0.5700 
  2 C       -2.0660    -1.2520     0.1370 C.2   1 <1>   0.6950 
  3 N       -1.4790    -2.4920     0.2140 N.2   1 <1>  -0.6610 
  4 C       -3.4900    -1.0980    -0.0330 C.ar  1 <1>   0.0860 
  5 C       -2.2280    -3.5240     0.1300 C.2   1 <1>   0.4390 
  6 C       -4.2530    -2.2620    -0.1120 C.ar  1 <1>   0.1000 
  7 C       -4.1500     0.1330    -0.1190 C.ar  1 <1>  -0.1500 
  8 N       -3.5770    -3.4620    -0.0260 N.pl3 1 <1>  -0.5500 
  9 C       -1.6050    -4.9020     0.2070 C.3   1 <1>  -0.0990 
 10 C       -5.6350    -2.1970    -0.2680 C.ar  1 <1>  -0.1500 
 11 C       -5.5190     0.1960    -0.2750 C.ar  1 <1>  -0.1500 
 12 C       -2.1330    -5.6980     1.4070 C.3   1 <1>   0.1400 
 13 C       -6.2650    -0.9740    -0.3500 C.ar  1 <1>  -0.1500 
 14 N       -2.7990    -6.9450     0.9550 N.am  1 <1>  -0.7300 
 15 C       -4.0660    -7.0520     0.4670 C.2   1 <1>   0.7160 
 16 O       -4.7220    -6.0390     0.3030 O.2   1 <1>  -0.5700 
 17 C       -4.6280    -8.3470     0.1650 C.2   1 <1>  -0.0860 
 18 C       -4.0490    -9.5160    -0.2340 C.2   1 <1>  -0.0400 
 19 C       -6.0020    -8.6550     0.2380 C.2   1 <1>  -0.1500 
 20 O       -4.9490   -10.4570    -0.3780 O.3   1 <1>  -0.2800 
 21 C       -2.6100    -9.8830    -0.5470 C.3   1 <1>  -0.0600 
 22 C       -6.1310    -9.9550    -0.1040 C.2   1 <1>  -0.0400 
 23 C       -7.3220   -10.8920    -0.2250 C.3   1 <1>   0.5230 
 24 N       -8.6160   -10.1410    -0.1880 N.4   1 <1>  -0.9590 
 25 C       -9.7770   -11.0510     0.0020 C.3   1 <1>   0.3430 
 26 C       -8.7610    -9.3050    -1.4110 C.3   1 <1>   0.3430 
 27 C       -9.8160   -11.5430     1.4450 C.3   1 <1>  -0.2400 
 28 C       -9.7520    -8.1790    -1.1430 C.3   1 <1>  -0.2400 
 29 H       -3.5690     1.0380    -0.0600 H     1 <1>   0.1500 
 30 H       -4.1120    -4.3470    -0.0320 H     1 <1>   0.4000 
 31 H       -0.5400    -4.7900     0.3070 H     1 <1>   0.0800 
 32 H       -1.7930    -5.4190    -0.7170 H     1 <1>   0.0800 
 33 H       -6.2050    -3.1070    -0.3240 H     1 <1>   0.1500 
 34 H       -6.0140     1.1500    -0.3400 H     1 <1>   0.1500 
 35 H       -2.8300    -5.1070     1.9790 H     1 <1>   0.0800 
 36 H       -1.3130    -5.9510     2.0590 H     1 <1>   0.0800 
 37 H       -7.3340    -0.9170    -0.4710 H     1 <1>   0.1500 
 38 H       -2.3000    -7.8100     1.1690 H     1 <1>   0.3700 
 39 H       -6.7480    -7.9330     0.5230 H     1 <1>   0.1500 
 40 H       -1.9750    -9.0170    -0.5510 H     1 <1>   0.0800 
 41 H       -2.5600   -10.3390    -1.5190 H     1 <1>   0.0800 
 42 H       -2.2460   -10.5860     0.1800 H     1 <1>   0.0800 
 43 H       -7.2750   -11.6020     0.5830 H     1 <1>   0.0800 
 44 H       -7.2450   -11.4380    -1.1510 H     1 <1>   0.0800 
 45 H       -8.5650    -9.5110     0.6210 H     1 <1>   0.4500 
 46 H       -9.7150   -11.8870    -0.6770 H     1 <1>   0.0800 
 47 H      -10.6940   -10.5230    -0.2030 H     1 <1>   0.0800 
 48 H       -9.0940    -9.9080    -2.2410 H     1 <1>   0.0800 
 49 H       -7.8100    -8.8690    -1.6760 H     1 <1>   0.0800 
 50 H       -8.9670   -12.1580     1.6820 H     1 <1>   0.0800 
 51 H      -10.6980   -12.1420     1.5860 H     1 <1>   0.0800 
 52 H       -9.8690   -10.7150     2.1300 H     1 <1>   0.0800 
 53 H      -10.7390    -8.5570    -0.9460 H     1 <1>   0.0800 
 54 H       -9.8120    -7.5510    -2.0140 H     1 <1>   0.0800 
 55 H       -9.4260    -7.5690    -0.3200 H     1 <1>   0.0800 
@<TRIPOS>BOND
  1   1   2  2   
  2   2   3  1   
  3   2   4  1   
  4   3   5  2   
  5   4   6  ar  
  6   4   7  ar  
  7   5   8  1   
  8   5   9  1   
  9   6   8  1   
 10   6  10  ar  
 11   7  11  ar  
 12   7  29  1   
 13   8  30  1   
 14   9  12  1   
 15   9  31  1   
 16   9  32  1   
 17  10  13  ar  
 18  10  33  1   
 19  11  13  ar  
 20  11  34  1   
 21  12  14  1   
 22  12  35  1   
 23  12  36  1   
 24  13  37  1   
 25  14  15  am  
 26  14  38  1   
 27  15  16  2   
 28  15  17  1   
 29  17  18  2   
 30  17  19  1   
 31  18  20  1   
 32  18  21  1   
 33  19  22  2   
 34  19  39  1   
 35  20  22  1   
 36  21  40  1   
 37  21  41  1   
 38  21  42  1   
 39  22  23  1   
 40  23  24  1   
 41  23  43  1   
 42  23  44  1   
 43  24  25  1   
 44  24  26  1   
 45  24  45  1   
 46  25  27  1   
 47  25  46  1   
 48  25  47  1   
 49  26  28  1   
 50  26  48  1   
 51  26  49  1   
 52  27  50  1   
 53  27  51  1   
 54  27  52  1   
 55  28  53  1   
 56  28  54  1   
 57  28  55  1   
@<TRIPOS>SUBSTRUCTURE
  1 ****  16 GROUP 4 **** **** 0

# MOE 2024.06 (io_trps.svl 2023.06)
