@<TRIPOS>MOLECULE
NONAME
50 51 1 0 0 
SMALL
USER_CHARGES


@<TRIPOS>ATOM
  1 O        3.6970    -1.1430    -1.7170 O.2   1 <1>  -0.5700 
  2 C        2.5580    -1.3120    -1.3150 C.2   1 <1>   0.5440 
  3 N        1.9100    -0.1840    -0.8750 N.am  1 <1>  -0.6600 
  4 C        1.9580    -2.6330    -1.2280 C.ar  1 <1>   0.0860 
  5 C        2.0180     1.0620    -1.7200 C.3   1 <1>   0.1400 
  6 C        1.9870     0.0930     0.5980 C.3   1 <1>   0.1400 
  7 C        0.6270    -2.8160    -0.8480 C.ar  1 <1>  -0.1500 
  8 C        2.6940    -3.7830    -1.5150 C.ar  1 <1>  -0.1500 
  9 C        3.0660     2.0760    -1.1700 C.3   1 <1>   0.4230 
 10 C        3.3090     0.8240     0.9600 C.3   1 <1>   0.3430 
 11 C        0.0500    -4.0700    -0.7370 C.ar  1 <1>  -0.1440 
 12 C        2.1370    -5.0430    -1.4190 C.ar  1 <1>  -0.1500 
 13 N        4.0050     1.3160    -0.2780 N.4   1 <1>  -0.9590 
 14 C        2.3250     3.2650    -0.5060 C.3   1 <1>  -0.1600 
 15 C        0.8100    -5.2010    -1.0270 C.ar  1 <1>   0.0820 
 16 C       -1.4120    -4.1630    -0.3030 C.3   1 <1>   0.1220 
 17 C        5.3390     1.9320    -0.0280 C.3   1 <1>   0.2630 
 18 C        3.1590     4.3720     0.1470 C.3   1 <1>   0.1200 
 19 O        0.2230    -6.4180    -0.9190 O.3   1 <1>  -0.3630 
 20 C       -1.6230    -3.4510     1.0240 C.2   1 <1>  -0.2880 
 21 O        3.5420     3.9600     1.4110 O.3   1 <1>  -0.6800 
 22 C        0.9110    -7.6180    -1.1970 C.3   1 <1>   0.0400 
 23 C       -2.4270    -2.4020     1.2230 C.2   1 <1>  -0.3000 
 24 H        1.0480     1.5210    -1.8000 H     1 <1>   0.0800 
 25 H        2.3090     0.7840    -2.7190 H     1 <1>   0.0800 
 26 H        1.9260    -0.8290     1.1520 H     1 <1>   0.0800 
 27 H        1.1460     0.6970     0.8910 H     1 <1>   0.0800 
 28 H        0.0230    -1.9530    -0.6310 H     1 <1>   0.1500 
 29 H        3.7210    -3.6850    -1.8210 H     1 <1>   0.1500 
 30 H        3.6210     2.4640    -2.0090 H     1 <1>   0.0800 
 31 H        3.9530     0.1390     1.4850 H     1 <1>   0.0800 
 32 H        3.0960     1.6470     1.6230 H     1 <1>   0.0800 
 33 H        2.7510    -5.8920    -1.6530 H     1 <1>   0.1500 
 34 H        4.1630     0.4370    -0.8220 H     1 <1>   0.4500 
 35 H        1.5920     2.9180     0.1990 H     1 <1>   0.0800 
 36 H        1.7680     3.7420    -1.2920 H     1 <1>   0.0800 
 37 H       -1.7300    -5.1840    -0.1960 H     1 <1>   0.0800 
 38 H       -2.0280    -3.7140    -1.0620 H     1 <1>   0.0800 
 39 H        5.2520     2.8040     0.5930 H     1 <1>   0.0800 
 40 H        5.7990     2.2140    -0.9610 H     1 <1>   0.0800 
 41 H        5.9830     1.2250     0.4690 H     1 <1>   0.0800 
 42 H        2.5590     5.2600     0.2640 H     1 <1>   0.0800 
 43 H        4.0370     4.6130    -0.4290 H     1 <1>   0.0800 
 44 H       -1.0400    -3.8940     1.8150 H     1 <1>   0.1500 
 45 H        3.8240     4.7310     1.9510 H     1 <1>   0.4000 
 46 H        0.2310    -8.4360    -1.0390 H     1 <1>   0.0800 
 47 H        1.7480    -7.7050    -0.5280 H     1 <1>   0.0800 
 48 H        1.2340    -7.6060    -2.2230 H     1 <1>   0.0800 
 49 H       -2.5580    -1.9200     2.1770 H     1 <1>   0.1500 
 50 H       -3.0230    -1.9390     0.4550 H     1 <1>   0.1500 
@<TRIPOS>BOND
  1   1   2  2   
  2   2   3  am  
  3   2   4  1   
  4   3   5  1   
  5   3   6  1   
  6   4   7  ar  
  7   4   8  ar  
  8   5   9  1   
  9   5  24  1   
 10   5  25  1   
 11   6  10  1   
 12   6  26  1   
 13   6  27  1   
 14   7  11  ar  
 15   7  28  1   
 16   8  12  ar  
 17   8  29  1   
 18   9  13  1   
 19   9  14  1   
 20   9  30  1   
 21  10  13  1   
 22  10  31  1   
 23  10  32  1   
 24  11  15  ar  
 25  11  16  1   
 26  12  15  ar  
 27  12  33  1   
 28  13  17  1   
 29  13  34  1   
 30  14  18  1   
 31  14  35  1   
 32  14  36  1   
 33  15  19  1   
 34  16  20  1   
 35  16  37  1   
 36  16  38  1   
 37  17  39  1   
 38  17  40  1   
 39  17  41  1   
 40  18  21  1   
 41  18  42  1   
 42  18  43  1   
 43  19  22  1   
 44  20  23  2   
 45  20  44  1   
 46  21  45  1   
 47  22  46  1   
 48  22  47  1   
 49  22  48  1   
 50  23  49  1   
 51  23  50  1   
@<TRIPOS>SUBSTRUCTURE
  1 ****   2 GROUP 4 **** **** 0

# MOE 2024.06 (io_trps.svl 2023.06)
