@<TRIPOS>MOLECULE
NONAME
44 46 1 0 0 
SMALL
USER_CHARGES


@<TRIPOS>ATOM
  1 S        0.5570     0.5890    -1.5360 S.o2  1 <1>   1.3330 
  2 O       -0.1610     1.6310    -2.2340 O.2   1 <1>  -0.6500 
  3 O        0.7640    -0.6920    -2.1730 O.2   1 <1>  -0.6500 
  4 N       -0.2550     0.3160    -0.0680 N.am  1 <1>  -0.8490 
  5 C        2.1590     1.2160    -1.0220 C.3   1 <1>  -0.0550 
  6 C       -0.8730     1.5260     0.4870 C.3   1 <1>   0.1160 
  7 C       -1.2620    -0.7430    -0.1830 C.3   1 <1>   0.1160 
  8 C        3.0610     0.1630    -0.3400 C.3   1 <1>  -0.0800 
  9 C        4.4810     0.6240    -0.0500 C.3   1 <1>   0.2200 
 10 C        2.5770    -0.3270     1.0310 C.3   1 <1>   0.1200 
 11 N        4.4860     1.9950     0.5150 N.am  1 <1>  -0.7300 
 12 C        4.8670    -0.3540     1.0500 C.3   1 <1>   0.1200 
 13 O        3.7170    -0.4800     1.8290 O.3   1 <1>  -0.5600 
 14 C        4.7870     3.1370    -0.1610 C.2   1 <1>   0.7160 
 15 O        5.0010     3.0480    -1.3530 O.2   1 <1>  -0.5700 
 16 C        4.8030     4.4000     0.5490 C.2   1 <1>  -0.0860 
 17 C        5.4960     5.5850     0.0680 C.ar  1 <1>   0.0000 
 18 C        4.1770     4.6150     1.7330 C.2   1 <1>  -0.1100 
 19 C        5.3640     6.6770     0.9180 C.ar  1 <1>   0.0400 
 20 C        6.2600     5.7800    -1.0850 C.ar  1 <1>  -0.1500 
 21 S        4.3870     6.2520     2.3210 S.3   1 <1>  -0.0800 
 22 C        5.9310     7.9150     0.6810 C.ar  1 <1>  -0.1500 
 23 C        6.8390     7.0100    -1.3470 C.ar  1 <1>  -0.1500 
 24 C        6.6780     8.0770    -0.4700 C.ar  1 <1>  -0.1500 
 25 H        2.6720     1.5740    -1.8940 H     1 <1>   0.0800 
 26 H        2.0170     2.0540    -0.3700 H     1 <1>   0.0800 
 27 H       -1.2910     1.3160     1.4560 H     1 <1>   0.0800 
 28 H       -1.6560     1.8810    -0.1630 H     1 <1>   0.0800 
 29 H       -0.1370     2.3040     0.5950 H     1 <1>   0.0800 
 30 H       -1.7510    -0.8990     0.7630 H     1 <1>   0.0800 
 31 H       -0.7930    -1.6690    -0.4740 H     1 <1>   0.0800 
 32 H       -1.9980    -0.4810    -0.9250 H     1 <1>   0.0800 
 33 H        3.1230    -0.6960    -0.9860 H     1 <1>   0.0800 
 34 H        5.1290     0.5570    -0.9080 H     1 <1>   0.0800 
 35 H        2.0670    -1.2730     0.9600 H     1 <1>   0.0800 
 36 H        1.9400     0.3930     1.5140 H     1 <1>   0.0800 
 37 H        4.3110     2.0290     1.5210 H     1 <1>   0.3700 
 38 H        5.6840    -0.0050     1.6570 H     1 <1>   0.0800 
 39 H        5.0990    -1.3220     0.6400 H     1 <1>   0.0800 
 40 H        3.5840     3.9650     2.3500 H     1 <1>   0.1500 
 41 H        6.4040     4.9750    -1.7820 H     1 <1>   0.1500 
 42 H        5.7910     8.7220     1.3780 H     1 <1>   0.1500 
 43 H        7.4230     7.1440    -2.2410 H     1 <1>   0.1500 
 44 H        7.1350     9.0270    -0.6900 H     1 <1>   0.1500 
@<TRIPOS>BOND
  1   1   2  2   
  2   1   3  2   
  3   1   4  am  
  4   1   5  1   
  5   4   6  1   
  6   4   7  1   
  7   5   8  1   
  8   5  25  1   
  9   5  26  1   
 10   6  27  1   
 11   6  28  1   
 12   6  29  1   
 13   7  30  1   
 14   7  31  1   
 15   7  32  1   
 16   8   9  1   
 17   8  10  1   
 18   8  33  1   
 19   9  11  1   
 20   9  12  1   
 21   9  34  1   
 22  10  13  1   
 23  10  35  1   
 24  10  36  1   
 25  11  14  am  
 26  11  37  1   
 27  12  13  1   
 28  12  38  1   
 29  12  39  1   
 30  14  15  2   
 31  14  16  1   
 32  16  17  1   
 33  16  18  2   
 34  17  19  ar  
 35  17  20  ar  
 36  18  21  1   
 37  18  40  1   
 38  19  21  1   
 39  19  22  ar  
 40  20  23  ar  
 41  20  41  1   
 42  22  24  ar  
 43  22  42  1   
 44  23  24  ar  
 45  23  43  1   
 46  24  44  1   
@<TRIPOS>SUBSTRUCTURE
  1 ****  14 GROUP 4 **** **** 0

# MOE 2024.06 (io_trps.svl 2023.06)
