@<TRIPOS>MOLECULE
NONAME
40 41 1 0 0 
SMALL
USER_CHARGES


@<TRIPOS>ATOM
  1 O        0.3210    -1.0920    -1.1130 O.2   1 <1>  -0.5700 
  2 C        1.2430    -1.3830    -0.3790 C.2   1 <1>   0.6900 
  3 N        1.1340    -2.4210     0.5210 N.am  1 <1>  -0.4200 
  4 N        2.4250    -0.7040    -0.4660 N.am  1 <1>  -0.5390 
  5 C        2.2510    -2.8670     1.2000 C.2   1 <1>   0.6160 
  6 C       -0.1730    -3.0960     0.7190 C.3   1 <1>   0.1400 
  7 C        3.5430    -1.0560     0.2630 C.2   1 <1>  -0.0290 
  8 O        2.1780    -3.8980     1.8440 O.2   1 <1>  -0.5700 
  9 C        3.4630    -2.1260     1.0850 C.2   1 <1>  -0.1360 
 10 C       -0.2220    -4.3510    -0.1600 C.3   1 <1>   0.3430 
 11 C        4.7840    -0.2070     0.0750 C.3   1 <1>  -0.1020 
 12 N       -1.5530    -5.0340    -0.1200 N.4   1 <1>  -0.9590 
 13 C       -1.4580    -6.4130    -0.6870 C.3   1 <1>   0.5230 
 14 C       -2.6210    -4.2440    -0.8190 C.3   1 <1>   0.2630 
 15 C       -2.5410    -7.2780    -0.0730 C.2   1 <1>  -0.0400 
 16 O       -3.8080    -6.9930    -0.3070 O.3   1 <1>  -0.2800 
 17 C       -2.4440    -8.3620     0.7290 C.2   1 <1>  -0.1500 
 18 C       -4.5440    -7.8780     0.3310 C.2   1 <1>  -0.0400 
 19 C       -3.7610    -8.7540     0.9940 C.2   1 <1>  -0.1500 
 20 C       -6.0520    -7.7890     0.2280 C.3   1 <1>  -0.0600 
 21 H        2.4310     0.0790    -1.1240 H     1 <1>   0.3700 
 22 H       -0.9680    -2.4170     0.4640 H     1 <1>   0.0800 
 23 H       -0.2780    -3.3670     1.7560 H     1 <1>   0.0800 
 24 H        4.2900    -2.4690     1.6780 H     1 <1>   0.1500 
 25 H        0.5420    -5.0280     0.1880 H     1 <1>   0.0800 
 26 H        0.0070    -4.0730    -1.1770 H     1 <1>   0.0800 
 27 H        4.5790     0.8120     0.3510 H     1 <1>   0.0800 
 28 H        5.0980    -0.2340    -0.9530 H     1 <1>   0.0800 
 29 H        5.5890    -0.5710     0.6880 H     1 <1>   0.0800 
 30 H       -1.8440    -5.1770     0.8590 H     1 <1>   0.4500 
 31 H       -0.5010    -6.8440    -0.4470 H     1 <1>   0.0800 
 32 H       -1.5670    -6.3920    -1.7590 H     1 <1>   0.0800 
 33 H       -2.3720    -4.1120    -1.8590 H     1 <1>   0.0800 
 34 H       -2.7300    -3.2720    -0.3660 H     1 <1>   0.0800 
 35 H       -3.5700    -4.7530    -0.7560 H     1 <1>   0.0800 
 36 H       -1.5700    -8.8610     1.1130 H     1 <1>   0.1500 
 37 H       -4.0530    -9.5910     1.6050 H     1 <1>   0.1500 
 38 H       -6.3900    -6.8420     0.6080 H     1 <1>   0.0800 
 39 H       -6.5110    -8.5770     0.7980 H     1 <1>   0.0800 
 40 H       -6.3540    -7.8820    -0.7990 H     1 <1>   0.0800 
@<TRIPOS>BOND
  1   1   2  2   
  2   2   3  am  
  3   2   4  am  
  4   3   5  am  
  5   3   6  1   
  6   4   7  1   
  7   4  21  1   
  8   5   8  2   
  9   5   9  1   
 10   6  10  1   
 11   6  22  1   
 12   6  23  1   
 13   7   9  2   
 14   7  11  1   
 15   9  24  1   
 16  10  12  1   
 17  10  25  1   
 18  10  26  1   
 19  11  27  1   
 20  11  28  1   
 21  11  29  1   
 22  12  13  1   
 23  12  14  1   
 24  12  30  1   
 25  13  15  1   
 26  13  31  1   
 27  13  32  1   
 28  14  33  1   
 29  14  34  1   
 30  14  35  1   
 31  15  16  1   
 32  15  17  2   
 33  16  18  1   
 34  17  19  1   
 35  17  36  1   
 36  18  19  2   
 37  18  20  1   
 38  19  37  1   
 39  20  38  1   
 40  20  39  1   
 41  20  40  1   
@<TRIPOS>SUBSTRUCTURE
  1 ****  10 GROUP 4 **** **** 0

# MOE 2024.06 (io_trps.svl 2023.06)
