@<TRIPOS>MOLECULE
NONAME
52 54 1 0 0 
SMALL
USER_CHARGES


@<TRIPOS>ATOM
  1 CL      -1.0210     1.2600     2.2110 Cl    1 <1>  -0.1770 
  2 C       -2.2740     1.7860     1.1120 C.ar  1 <1>   0.1770 
  3 C       -3.5240     1.1950     1.1380 C.ar  1 <1>  -0.1440 
  4 C       -1.9840     2.7980     0.2200 C.ar  1 <1>  -0.1500 
  5 C       -4.4830     1.6540     0.2500 C.ar  1 <1>  -0.1500 
  6 C       -3.8460     0.0690     2.1090 C.3   1 <1>  -0.0960 
  7 C       -2.9510     3.2480    -0.6670 C.ar  1 <1>  -0.1430 
  8 C       -4.2350     2.6880    -0.6530 C.ar  1 <1>  -0.0090 
  9 C       -2.5580     4.3520    -1.6420 C.3   1 <1>  -0.0960 
 10 S       -5.5850     3.2090    -1.7670 S.o2  1 <1>   1.4470 
 11 O       -5.7290     2.2030    -2.7980 O.2   1 <1>  -0.6500 
 12 O       -5.4600     4.5970    -2.1590 O.2   1 <1>  -0.6500 
 13 N       -6.9640     3.1170    -0.7790 N.am  1 <1>  -0.8490 
 14 C       -6.9360     4.0870     0.3290 C.3   1 <1>   0.1960 
 15 C       -8.2300     3.0960    -1.5380 C.3   1 <1>   0.1960 
 16 C       -8.3180     4.1910     0.9710 C.3   1 <1>  -0.1600 
 17 C       -8.9690     4.4350    -1.4700 C.3   1 <1>  -0.1600 
 18 C       -9.3190     4.8370    -0.0130 C.3   1 <1>   0.2800 
 19 O       -9.1140     6.2330     0.0390 O.3   1 <1>  -0.5600 
 20 C      -10.7850     4.4950     0.4040 C.3   1 <1>   0.2000 
 21 C       -9.7910     6.9570     1.0250 C.3   1 <1>   0.1200 
 22 O      -11.2330     3.2800    -0.1240 O.3   1 <1>  -0.6800 
 23 C      -11.7810     5.6430     0.0870 C.3   1 <1>   0.2800 
 24 C      -11.3030     6.9500     0.7470 C.3   1 <1>  -0.1600 
 25 O      -13.0030     5.3050     0.6420 O.3   1 <1>  -0.6800 
 26 C      -12.0580     5.8600    -1.4080 C.3   1 <1>  -0.2400 
 27 H       -0.9970     3.2240     0.2280 H     1 <1>   0.1500 
 28 H       -5.4590     1.1990     0.2510 H     1 <1>   0.1500 
 29 H       -4.8510    -0.2880     1.9710 H     1 <1>   0.0800 
 30 H       -3.7440     0.4160     3.1220 H     1 <1>   0.0800 
 31 H       -3.1700    -0.7540     1.9560 H     1 <1>   0.0800 
 32 H       -1.4960     4.5180    -1.6330 H     1 <1>   0.0800 
 33 H       -3.0440     5.2730    -1.3740 H     1 <1>   0.0800 
 34 H       -2.8410     4.0870    -2.6450 H     1 <1>   0.0800 
 35 H       -6.2160     3.7720     1.0640 H     1 <1>   0.0800 
 36 H       -6.6470     5.0630    -0.0290 H     1 <1>   0.0800 
 37 H       -8.0600     2.8320    -2.5690 H     1 <1>   0.0800 
 38 H       -8.8640     2.3320    -1.1200 H     1 <1>   0.0800 
 39 H       -8.2550     4.7570     1.8800 H     1 <1>   0.0800 
 40 H       -8.6420     3.1990     1.2320 H     1 <1>   0.0800 
 41 H       -9.8560     4.3520    -2.0660 H     1 <1>   0.0800 
 42 H       -8.3430     5.1820    -1.9260 H     1 <1>   0.0800 
 43 H      -10.7920     4.3670     1.4720 H     1 <1>   0.0800 
 44 H       -9.5760     6.5220     1.9860 H     1 <1>   0.0800 
 45 H       -9.4110     7.9640     1.0150 H     1 <1>   0.0800 
 46 H      -12.1960     3.2270     0.0590 H     1 <1>   0.4000 
 47 H      -11.5320     7.7910     0.1180 H     1 <1>   0.0800 
 48 H      -11.8050     7.1060     1.6860 H     1 <1>   0.0800 
 49 H      -13.6630     5.9840     0.4090 H     1 <1>   0.4000 
 50 H      -11.1750     6.2290    -1.8960 H     1 <1>   0.0800 
 51 H      -12.8370     6.5860    -1.5530 H     1 <1>   0.0800 
 52 H      -12.3450     4.9380    -1.8800 H     1 <1>   0.0800 
@<TRIPOS>BOND
  1   1   2  1   
  2   2   3  ar  
  3   2   4  ar  
  4   3   5  ar  
  5   3   6  1   
  6   4   7  ar  
  7   4  27  1   
  8   5   8  ar  
  9   5  28  1   
 10   6  29  1   
 11   6  30  1   
 12   6  31  1   
 13   7   8  ar  
 14   7   9  1   
 15   8  10  1   
 16   9  32  1   
 17   9  33  1   
 18   9  34  1   
 19  10  11  2   
 20  10  12  2   
 21  10  13  am  
 22  13  14  1   
 23  13  15  1   
 24  14  16  1   
 25  14  35  1   
 26  14  36  1   
 27  15  17  1   
 28  15  37  1   
 29  15  38  1   
 30  16  18  1   
 31  16  39  1   
 32  16  40  1   
 33  17  18  1   
 34  17  41  1   
 35  17  42  1   
 36  18  19  1   
 37  18  20  1   
 38  19  21  1   
 39  20  22  1   
 40  20  23  1   
 41  20  43  1   
 42  21  24  1   
 43  21  44  1   
 44  21  45  1   
 45  22  46  1   
 46  23  24  1   
 47  23  25  1   
 48  23  26  1   
 49  24  47  1   
 50  24  48  1   
 51  25  49  1   
 52  26  50  1   
 53  26  51  1   
 54  26  52  1   
@<TRIPOS>SUBSTRUCTURE
  1 ****  14 GROUP 4 **** **** 0

# MOE 2024.06 (io_trps.svl 2023.06)
