@<TRIPOS>MOLECULE
NONAME
41 43 1 0 0 
SMALL
USER_CHARGES


@<TRIPOS>ATOM
  1 O       -0.0330    -0.0090    -0.9420 O.3   1 <1>  -0.6800 
  2 C        1.1930    -0.3900    -1.4800 C.3   1 <1>   0.2000 
  3 C        1.7740    -1.5130    -0.6230 C.3   1 <1>  -0.0800 
  4 C        2.1990     0.7660    -1.3550 C.3   1 <1>   0.2090 
  5 C        2.5210    -0.7600     0.4800 C.3   1 <1>   0.2090 
  6 C        2.7160    -2.4000    -1.4600 C.3   1 <1>   0.0210 
  7 N        3.0670     0.4550    -0.1730 N.pl3 1 <1>  -0.8380 
  8 C        3.4330    -3.4200    -0.6000 C.2   1 <1>   0.1080 
  9 C        4.4450     0.5910    -0.2290 C.ar  1 <1>   0.4100 
 10 N        2.8340    -4.4300    -0.0490 N.2   1 <1>  -0.7070 
 11 C        4.7890    -3.3810    -0.2980 C.2   1 <1>  -0.1500 
 12 N        5.0180     0.2670    -1.3870 N.ar  1 <1>  -0.6200 
 13 C        5.1690     1.0220     0.8930 C.ar  1 <1>   0.0730 
 14 N        3.8070    -5.0730     0.6240 N.pl3 1 <1>   0.3000 
 15 C        5.0000    -4.4550     0.4910 C.2   1 <1>  -0.3320 
 16 C        6.3300     0.3680    -1.4560 C.ar  1 <1>   0.1670 
 17 C        4.5100     1.3520     2.1190 C.1   1 <1>   0.4840 
 18 C        6.5440     1.1200     0.7940 C.ar  1 <1>  -0.1500 
 19 C        6.2870    -4.9350     1.1360 C.3   1 <1>  -0.0600 
 20 C        7.1290     0.7850    -0.4070 C.ar  1 <1>  -0.1500 
 21 C        6.9490    -0.0090    -2.7850 C.3   1 <1>  -0.0970 
 22 N        4.0470     1.6080     3.1310 N.1   1 <1>  -0.5570 
 23 H       -0.6390    -0.7730    -0.9050 H     1 <1>   0.4000 
 24 H        1.0320    -0.6750    -2.5060 H     1 <1>   0.0800 
 25 H        1.0090    -2.1390    -0.1980 H     1 <1>   0.0800 
 26 H        1.6890     1.7020    -1.2050 H     1 <1>   0.0800 
 27 H        2.7880     0.8310    -2.2520 H     1 <1>   0.0800 
 28 H        3.2970    -1.3520     0.9350 H     1 <1>   0.0800 
 29 H        1.8280    -0.4540     1.2450 H     1 <1>   0.0800 
 30 H        3.4470    -1.8010    -1.9700 H     1 <1>   0.0800 
 31 H        2.1470    -2.9280    -2.2030 H     1 <1>   0.0800 
 32 H        5.4860    -2.6330    -0.6360 H     1 <1>   0.1500 
 33 H        3.6240    -5.9270     1.1630 H     1 <1>   0.2700 
 34 H        7.1400     1.4490     1.6290 H     1 <1>   0.1500 
 35 H        7.0960    -4.2740     0.8810 H     1 <1>   0.0800 
 36 H        6.5310    -5.9240     0.7900 H     1 <1>   0.0800 
 37 H        6.1830    -4.9520     2.2070 H     1 <1>   0.0800 
 38 H        8.1960     0.8490    -0.5240 H     1 <1>   0.1500 
 39 H        8.0180     0.0970    -2.7620 H     1 <1>   0.0800 
 40 H        6.5540     0.6260    -3.5570 H     1 <1>   0.0800 
 41 H        6.7060    -1.0290    -3.0190 H     1 <1>   0.0800 
@<TRIPOS>BOND
  1   1   2  1   
  2   1  23  1   
  3   2   3  1   
  4   2   4  1   
  5   2  24  1   
  6   3   5  1   
  7   3   6  1   
  8   3  25  1   
  9   4   7  1   
 10   4  26  1   
 11   4  27  1   
 12   5   7  1   
 13   5  28  1   
 14   5  29  1   
 15   6   8  1   
 16   6  30  1   
 17   6  31  1   
 18   7   9  1   
 19   8  10  2   
 20   8  11  1   
 21   9  12  ar  
 22   9  13  ar  
 23  10  14  1   
 24  11  15  2   
 25  11  32  1   
 26  12  16  ar  
 27  13  17  1   
 28  13  18  ar  
 29  14  15  1   
 30  14  33  1   
 31  15  19  1   
 32  16  20  ar  
 33  16  21  1   
 34  17  22  3   
 35  18  20  ar  
 36  18  34  1   
 37  19  35  1   
 38  19  36  1   
 39  19  37  1   
 40  20  38  1   
 41  21  39  1   
 42  21  40  1   
 43  21  41  1   
@<TRIPOS>SUBSTRUCTURE
  1 ****   9 GROUP 4 **** **** 0

# MOE 2024.06 (io_trps.svl 2023.06)
