@<TRIPOS>MOLECULE
NONAME
38 38 1 0 0 
SMALL
USER_CHARGES


@<TRIPOS>ATOM
  1 S        0.5570     1.0430     1.4240 S.3   1 <1>  -0.4600 
  2 C        1.1370     0.9130    -0.3090 C.3   1 <1>   0.1310 
  3 C        0.0370    -0.6450     1.8170 C.3   1 <1>   0.0700 
  4 C        1.6420     2.2440    -0.8550 C.2   1 <1>   0.5690 
  5 C       -0.4720    -0.6440     3.2550 C.3   1 <1>  -0.2400 
  6 O        2.1410     2.2650    -1.9550 O.2   1 <1>  -0.5700 
  7 N        1.5360     3.3660    -0.1060 N.am  1 <1>  -0.7300 
  8 C        1.9980     4.7080    -0.4890 C.3   1 <1>   0.4000 
  9 C        3.2440     5.0470     0.3360 C.2   1 <1>   0.0060 
 10 C        0.8310     5.6880    -0.3000 C.3   1 <1>  -0.1600 
 11 N        3.2460     5.7360     1.4380 N.2   1 <1>  -0.5650 
 12 N        4.4800     4.6200    -0.0300 N.pl3 1 <1>   0.0480 
 13 C        1.1400     7.0900    -0.8540 C.3   1 <1>  -0.1600 
 14 C        4.5390     5.7650     1.8040 C.2   1 <1>   0.0770 
 15 C        5.3050     5.0900     0.9220 C.2   1 <1>  -0.3020 
 16 C        4.8780     3.7870    -1.1810 C.3   1 <1>   0.0160 
 17 C       -0.0610     8.0240    -0.6860 C.3   1 <1>  -0.2400 
 18 H        0.3080     0.5680    -0.8990 H     1 <1>   0.0800 
 19 H        1.9280     0.1870    -0.3280 H     1 <1>   0.0800 
 20 H        0.8930    -1.2870     1.7010 H     1 <1>   0.0800 
 21 H       -0.7370    -0.9200     1.1220 H     1 <1>   0.0800 
 22 H        0.3100    -0.3330     3.9250 H     1 <1>   0.0800 
 23 H       -0.7940    -1.6310     3.5330 H     1 <1>   0.0800 
 24 H       -1.3040     0.0310     3.3530 H     1 <1>   0.0800 
 25 H        1.2260     3.2840     0.8680 H     1 <1>   0.3700 
 26 H        2.2590     4.7060    -1.5330 H     1 <1>   0.0800 
 27 H        0.5980     5.7620     0.7470 H     1 <1>   0.0800 
 28 H       -0.0300     5.2980    -0.8140 H     1 <1>   0.0800 
 29 H        1.3940     7.0220    -1.8980 H     1 <1>   0.0800 
 30 H        1.9850     7.5080    -0.3310 H     1 <1>   0.0800 
 31 H        4.8540     6.2770     2.6980 H     1 <1>   0.1500 
 32 H        6.3660     4.9230     0.9260 H     1 <1>   0.1500 
 33 H        4.3830     4.1320    -2.0700 H     1 <1>   0.0800 
 34 H        4.6010     2.7670    -0.9910 H     1 <1>   0.0800 
 35 H        5.9410     3.8490    -1.3210 H     1 <1>   0.0800 
 36 H       -0.9150     7.6420    -1.2160 H     1 <1>   0.0800 
 37 H        0.1760     8.9990    -1.0730 H     1 <1>   0.0800 
 38 H       -0.3140     8.1230     0.3550 H     1 <1>   0.0800 
@<TRIPOS>BOND
  1   1   2  1   
  2   1   3  1   
  3   2   4  1   
  4   2  18  1   
  5   2  19  1   
  6   3   5  1   
  7   3  20  1   
  8   3  21  1   
  9   4   6  2   
 10   4   7  am  
 11   5  22  1   
 12   5  23  1   
 13   5  24  1   
 14   7   8  1   
 15   7  25  1   
 16   8   9  1   
 17   8  10  1   
 18   8  26  1   
 19   9  11  2   
 20   9  12  1   
 21  10  13  1   
 22  10  27  1   
 23  10  28  1   
 24  11  14  1   
 25  12  15  1   
 26  12  16  1   
 27  13  17  1   
 28  13  29  1   
 29  13  30  1   
 30  14  15  2   
 31  14  31  1   
 32  15  32  1   
 33  16  33  1   
 34  16  34  1   
 35  16  35  1   
 36  17  36  1   
 37  17  37  1   
 38  17  38  1   
@<TRIPOS>SUBSTRUCTURE
  1 ****   7 GROUP 4 **** **** 0

# MOE 2024.06 (io_trps.svl 2023.06)
