@<TRIPOS>MOLECULE
NONAME
50 52 1 0 0 
SMALL
USER_CHARGES


@<TRIPOS>ATOM
  1 CL      -2.1840    -2.6620    -1.1670 Cl    1 <1>  -0.1230 
  2 C       -2.9910    -1.2130    -0.6070 C.2   1 <1>   0.3500 
  3 N       -2.8130    -0.0440    -1.2340 N.2   1 <1>  -0.5650 
  4 C       -3.8310    -1.1200     0.4400 C.2   1 <1>  -0.3320 
  5 C       -3.5440     0.7720    -0.5450 C.2   1 <1>   0.0060 
  6 N       -4.1920     0.1820     0.4900 N.pl3 1 <1>   0.0330 
  7 C       -4.2930    -2.1990     1.3840 C.3   1 <1>   0.5230 
  8 C       -3.6720     2.2530    -0.8580 C.3   1 <1>   0.0200 
  9 N       -5.0440    -3.2070     0.6110 N.4   1 <1>  -0.9590 
 10 C       -3.0340     3.1120     0.2420 C.3   1 <1>  -0.1600 
 11 C       -6.1670    -2.6630    -0.2200 C.3   1 <1>   0.3430 
 12 C       -5.6230    -4.2820     1.4560 C.3   1 <1>   0.3430 
 13 C       -3.1410     4.6080    -0.0810 C.3   1 <1>  -0.1600 
 14 C       -7.4060    -3.5050     0.1240 C.3   1 <1>   0.2000 
 15 C       -6.8150    -4.8100     0.6530 C.3   1 <1>  -0.0800 
 16 C       -2.5020     5.4560     1.0220 C.3   1 <1>  -0.2400 
 17 O       -8.0760    -2.8810     1.1700 O.3   1 <1>  -0.6800 
 18 C       -6.4290    -5.7600    -0.5140 C.3   1 <1>  -0.0170 
 19 C       -5.0480    -6.3870    -0.3900 C.ar  1 <1>   0.1670 
 20 N       -4.0260    -5.6060    -0.7160 N.ar  1 <1>  -0.6200 
 21 C       -4.9190    -7.6990     0.0400 C.ar  1 <1>  -0.1500 
 22 C       -2.8280    -6.1700    -0.6360 C.ar  1 <1>   0.1600 
 23 C       -3.6660    -8.2630     0.1360 C.ar  1 <1>  -0.1500 
 24 C       -2.5980    -7.4690    -0.2180 C.ar  1 <1>  -0.1500 
 25 H       -4.8060     0.6630     1.1550 H     1 <1>   0.2700 
 26 H       -4.9260    -1.7760     2.1470 H     1 <1>   0.0800 
 27 H       -3.4400    -2.6590     1.8570 H     1 <1>   0.0800 
 28 H       -3.1800     2.4510    -1.7950 H     1 <1>   0.0800 
 29 H       -4.7110     2.5070    -0.9720 H     1 <1>   0.0800 
 30 H       -4.3870    -3.6930    -0.0370 H     1 <1>   0.4500 
 31 H       -3.5170     2.9170     1.1830 H     1 <1>   0.0800 
 32 H       -1.9960     2.8400     0.3360 H     1 <1>   0.0800 
 33 H       -6.3570    -1.6230    -0.0110 H     1 <1>   0.0800 
 34 H       -5.9230    -2.7750    -1.2630 H     1 <1>   0.0800 
 35 H       -4.9000    -5.0530     1.6720 H     1 <1>   0.0800 
 36 H       -5.9850    -3.8620     2.3810 H     1 <1>   0.0800 
 37 H       -2.6440     4.8130    -1.0150 H     1 <1>   0.0800 
 38 H       -4.1760     4.8870    -0.1860 H     1 <1>   0.0800 
 39 H       -8.0830    -3.6160    -0.7070 H     1 <1>   0.0800 
 40 H       -7.4990    -5.3230     1.3060 H     1 <1>   0.0800 
 41 H       -1.4590     5.2110     1.1280 H     1 <1>   0.0800 
 42 H       -2.9960     5.2880     1.9630 H     1 <1>   0.0800 
 43 H       -2.5830     6.5000     0.7760 H     1 <1>   0.0800 
 44 H       -8.9710    -3.2630     1.2980 H     1 <1>   0.4000 
 45 H       -6.4510    -5.2370    -1.4550 H     1 <1>   0.0800 
 46 H       -7.1680    -6.5380    -0.5890 H     1 <1>   0.0800 
 47 H       -5.7860    -8.2840     0.2930 H     1 <1>   0.1500 
 48 H       -1.9790    -5.5690    -0.9190 H     1 <1>   0.1500 
 49 H       -3.5270    -9.2800     0.4640 H     1 <1>   0.1500 
 50 H       -1.5940    -7.8540    -0.1760 H     1 <1>   0.1500 
@<TRIPOS>BOND
  1   1   2  1   
  2   2   3  1   
  3   2   4  2   
  4   3   5  2   
  5   4   6  1   
  6   4   7  1   
  7   5   6  1   
  8   5   8  1   
  9   6  25  1   
 10   7   9  1   
 11   7  26  1   
 12   7  27  1   
 13   8  10  1   
 14   8  28  1   
 15   8  29  1   
 16   9  11  1   
 17   9  12  1   
 18   9  30  1   
 19  10  13  1   
 20  10  31  1   
 21  10  32  1   
 22  11  14  1   
 23  11  33  1   
 24  11  34  1   
 25  12  15  1   
 26  12  35  1   
 27  12  36  1   
 28  13  16  1   
 29  13  37  1   
 30  13  38  1   
 31  14  15  1   
 32  14  17  1   
 33  14  39  1   
 34  15  18  1   
 35  15  40  1   
 36  16  41  1   
 37  16  42  1   
 38  16  43  1   
 39  17  44  1   
 40  18  19  1   
 41  18  45  1   
 42  18  46  1   
 43  19  20  ar  
 44  19  21  ar  
 45  20  22  ar  
 46  21  23  ar  
 47  21  47  1   
 48  22  24  ar  
 49  22  48  1   
 50  23  24  ar  
 51  23  49  1   
 52  24  50  1   
@<TRIPOS>SUBSTRUCTURE
  1 ****   9 GROUP 4 **** **** 0

# MOE 2024.06 (io_trps.svl 2023.06)
