@<TRIPOS>MOLECULE
NONAME
42 45 1 0 0 
SMALL
USER_CHARGES


@<TRIPOS>ATOM
  1 S       -1.1290     0.0470    -1.8350 S.3   1 <1>  -0.0800 
  2 C       -1.1810     1.2200    -0.5290 C.2   1 <1>  -0.1400 
  3 C       -2.5760    -0.7440    -1.2240 C.2   1 <1>  -0.1100 
  4 C       -2.2350     0.9980     0.2660 C.2   1 <1>  -0.1810 
  5 C       -0.1470     2.3220    -0.3720 C.3   1 <1>   0.4600 
  6 C       -3.0320    -0.1250    -0.1180 C.2   1 <1>  -0.1500 
  7 C       -2.4880     1.9110     1.4440 C.3   1 <1>   0.0210 
  8 O       -0.3940     3.0260     0.8360 O.3   1 <1>  -0.5600 
  9 C        1.2690     1.7410    -0.2410 C.3   1 <1>  -0.1600 
 10 C       -0.1840     3.3230    -1.5320 C.3   1 <1>  -0.1600 
 11 C       -1.7410     3.2400     1.2120 C.3   1 <1>   0.1200 
 12 C        2.3820     2.7760    -0.4350 C.3   1 <1>   0.3430 
 13 C        0.8190     4.4680    -1.3550 C.3   1 <1>   0.3430 
 14 N        1.8290     4.1480    -0.2990 N.4   1 <1>  -0.9590 
 15 C        2.8650     5.1990    -0.1320 C.3   1 <1>   0.4860 
 16 C        2.1750     6.4990     0.2380 C.ar  1 <1>  -0.1430 
 17 C        2.1120     7.5650    -0.6400 C.ar  1 <1>  -0.1500 
 18 C        1.5670     6.6790     1.4670 C.ar  1 <1>  -0.1500 
 19 C        1.4500     8.7220    -0.2630 C.ar  1 <1>   0.1600 
 20 C        0.9310     7.8780     1.7440 C.ar  1 <1>   0.1600 
 21 N        0.8540     8.8940     0.9040 N.ar  1 <1>  -0.6200 
 22 H       -2.9370    -1.6010    -1.7650 H     1 <1>   0.1500 
 23 H       -3.9020    -0.4150     0.4460 H     1 <1>   0.1500 
 24 H       -2.1440     1.4450     2.3500 H     1 <1>   0.0800 
 25 H       -3.5410     2.1060     1.5400 H     1 <1>   0.0800 
 26 H        1.4160     0.9710    -0.9760 H     1 <1>   0.0800 
 27 H        1.3650     1.2690     0.7200 H     1 <1>   0.0800 
 28 H       -1.1760     3.7190    -1.6530 H     1 <1>   0.0800 
 29 H        0.0480     2.8030    -2.4440 H     1 <1>   0.0800 
 30 H       -1.7440     3.8250     2.1160 H     1 <1>   0.0800 
 31 H       -2.2270     3.8050     0.4360 H     1 <1>   0.0800 
 32 H        2.8140     2.6600    -1.4160 H     1 <1>   0.0800 
 33 H        3.1540     2.6070     0.2980 H     1 <1>   0.0800 
 34 H        0.2820     5.3580    -1.0660 H     1 <1>   0.0800 
 35 H        1.3100     4.6650    -2.2940 H     1 <1>   0.0800 
 36 H        1.2690     4.1240     0.5740 H     1 <1>   0.4500 
 37 H        3.4220     5.3220    -1.0450 H     1 <1>   0.0800 
 38 H        3.5490     4.9240     0.6540 H     1 <1>   0.0800 
 39 H        2.5680     7.5220    -1.6140 H     1 <1>   0.1500 
 40 H        1.5760     5.9100     2.2190 H     1 <1>   0.1500 
 41 H        1.4070     9.5480    -0.9530 H     1 <1>   0.1500 
 42 H        0.4610     8.0090     2.7050 H     1 <1>   0.1500 
@<TRIPOS>BOND
  1   1   2  1   
  2   1   3  1   
  3   2   4  2   
  4   2   5  1   
  5   3   6  2   
  6   3  22  1   
  7   4   6  1   
  8   4   7  1   
  9   5   8  1   
 10   5   9  1   
 11   5  10  1   
 12   6  23  1   
 13   7  11  1   
 14   7  24  1   
 15   7  25  1   
 16   8  11  1   
 17   9  12  1   
 18   9  26  1   
 19   9  27  1   
 20  10  13  1   
 21  10  28  1   
 22  10  29  1   
 23  11  30  1   
 24  11  31  1   
 25  12  14  1   
 26  12  32  1   
 27  12  33  1   
 28  13  14  1   
 29  13  34  1   
 30  13  35  1   
 31  14  15  1   
 32  14  36  1   
 33  15  16  1   
 34  15  37  1   
 35  15  38  1   
 36  16  17  ar  
 37  16  18  ar  
 38  17  19  ar  
 39  17  39  1   
 40  18  20  ar  
 41  18  40  1   
 42  19  21  ar  
 43  19  41  1   
 44  20  21  ar  
 45  20  42  1   
@<TRIPOS>SUBSTRUCTURE
  1 ****   8 GROUP 4 **** **** 0

# MOE 2024.06 (io_trps.svl 2023.06)
