@<TRIPOS>MOLECULE
NONAME
56 59 1 0 0 
SMALL
USER_CHARGES


@<TRIPOS>ATOM
  1 O        0.8810    -0.0460    -0.2030 O.2   1 <1>  -0.5700 
  2 C        0.9440    -1.2520    -0.1320 C.2   1 <1>   0.4690 
  3 C        2.1590    -1.9570     0.1390 C.ar  1 <1>   0.0860 
  4 C       -0.1510    -2.1940    -0.3030 C.2   1 <1>  -0.1240 
  5 C        1.9280    -3.3150     0.1530 C.ar  1 <1>  -0.1440 
  6 C        3.4450    -1.4870     0.3690 C.ar  1 <1>  -0.1500 
  7 C       -1.4780    -2.1140    -0.5640 C.2   1 <1>  -0.2880 
  8 C        0.4650    -3.5870    -0.1260 C.3   1 <1>   0.1220 
  9 C        2.9410    -4.2210     0.3980 C.ar  1 <1>  -0.1500 
 10 C        4.4830    -2.3720     0.6070 C.ar  1 <1>   0.0820 
 11 C       -2.4680    -0.9720    -0.8080 C.3   1 <1>   0.0580 
 12 C        4.2370    -3.7590     0.6370 C.ar  1 <1>   0.0820 
 13 O        5.6990    -1.7920     0.8080 O.3   1 <1>  -0.3630 
 14 C       -1.8830     0.4430    -0.8110 C.3   1 <1>  -0.1600 
 15 C       -3.5900    -1.0470     0.2370 C.3   1 <1>  -0.1600 
 16 O        5.2520    -4.6200     0.9140 O.3   1 <1>  -0.3630 
 17 C        6.8710    -2.3830     0.2900 C.3   1 <1>   0.0400 
 18 C       -2.9500     1.5060    -1.0360 C.3   1 <1>   0.3430 
 19 C       -4.6420     0.0440     0.0290 C.3   1 <1>   0.3430 
 20 C        5.0530    -6.0060     1.0920 C.3   1 <1>   0.0400 
 21 N       -3.9940     1.3840     0.0240 N.4   1 <1>  -0.9590 
 22 C       -4.9950     2.4820    -0.0610 C.3   1 <1>   0.4860 
 23 C       -4.2930     3.8000     0.1970 C.ar  1 <1>  -0.1430 
 24 C       -4.0420     4.6750    -0.8520 C.ar  1 <1>  -0.1500 
 25 C       -3.8910     4.1410     1.4810 C.ar  1 <1>  -0.1500 
 26 C       -3.3860     5.8700    -0.6190 C.ar  1 <1>  -0.1500 
 27 C       -3.2340     5.3370     1.7110 C.ar  1 <1>  -0.1500 
 28 C       -2.9800     6.2000     0.6610 C.ar  1 <1>  -0.1500 
 29 H        3.6320    -0.4280     0.3590 H     1 <1>   0.1500 
 30 H       -2.0210    -3.0420    -0.6370 H     1 <1>   0.1500 
 31 H        0.3570    -4.1700    -1.0240 H     1 <1>   0.0800 
 32 H        0.0150    -4.1030     0.7040 H     1 <1>   0.0800 
 33 H        2.7090    -5.2680     0.4010 H     1 <1>   0.1500 
 34 H       -2.9010    -1.1420    -1.7800 H     1 <1>   0.0800 
 35 H       -1.1460     0.5250    -1.5910 H     1 <1>   0.0800 
 36 H       -1.4060     0.6450     0.1310 H     1 <1>   0.0800 
 37 H       -3.1730    -0.9600     1.2250 H     1 <1>   0.0800 
 38 H       -4.0740    -2.0050     0.1750 H     1 <1>   0.0800 
 39 H        7.6170    -1.6160     0.1900 H     1 <1>   0.0800 
 40 H        6.6540    -2.8150    -0.6710 H     1 <1>   0.0800 
 41 H        7.2140    -3.1340     0.9780 H     1 <1>   0.0800 
 42 H       -3.3920     1.3790    -2.0100 H     1 <1>   0.0800 
 43 H       -2.4890     2.4810    -0.9940 H     1 <1>   0.0800 
 44 H       -5.3730    -0.0110     0.8190 H     1 <1>   0.0800 
 45 H       -5.1450    -0.1200    -0.9110 H     1 <1>   0.0800 
 46 H        5.9980    -6.4470     1.3540 H     1 <1>   0.0800 
 47 H        4.6970    -6.4290     0.1700 H     1 <1>   0.0800 
 48 H        4.3470    -6.1580     1.8880 H     1 <1>   0.0800 
 49 H       -3.5000     1.5120     0.9170 H     1 <1>   0.4500 
 50 H       -5.7640     2.3420     0.6810 H     1 <1>   0.0800 
 51 H       -5.4560     2.4940    -1.0350 H     1 <1>   0.0800 
 52 H       -4.3520     4.4430    -1.8560 H     1 <1>   0.1500 
 53 H       -4.0830     3.4900     2.3170 H     1 <1>   0.1500 
 54 H       -3.1900     6.5490    -1.4320 H     1 <1>   0.1500 
 55 H       -2.9210     5.6010     2.7070 H     1 <1>   0.1500 
 56 H       -2.4690     7.1310     0.8410 H     1 <1>   0.1500 
@<TRIPOS>BOND
  1   1   2  2   
  2   2   3  1   
  3   2   4  1   
  4   3   5  ar  
  5   3   6  ar  
  6   4   7  2   
  7   4   8  1   
  8   5   8  1   
  9   5   9  ar  
 10   6  10  ar  
 11   6  29  1   
 12   7  11  1   
 13   7  30  1   
 14   8  31  1   
 15   8  32  1   
 16   9  12  ar  
 17   9  33  1   
 18  10  12  ar  
 19  10  13  1   
 20  11  14  1   
 21  11  15  1   
 22  11  34  1   
 23  12  16  1   
 24  13  17  1   
 25  14  18  1   
 26  14  35  1   
 27  14  36  1   
 28  15  19  1   
 29  15  37  1   
 30  15  38  1   
 31  16  20  1   
 32  17  39  1   
 33  17  40  1   
 34  17  41  1   
 35  18  21  1   
 36  18  42  1   
 37  18  43  1   
 38  19  21  1   
 39  19  44  1   
 40  19  45  1   
 41  20  46  1   
 42  20  47  1   
 43  20  48  1   
 44  21  22  1   
 45  21  49  1   
 46  22  23  1   
 47  22  50  1   
 48  22  51  1   
 49  23  24  ar  
 50  23  25  ar  
 51  24  26  ar  
 52  24  52  1   
 53  25  27  ar  
 54  25  53  1   
 55  26  28  ar  
 56  26  54  1   
 57  27  28  ar  
 58  27  55  1   
 59  28  56  1   
@<TRIPOS>SUBSTRUCTURE
  1 ****   1 GROUP 4 **** **** 0

# MOE 2024.06 (io_trps.svl 2023.06)
