@<TRIPOS>MOLECULE
NONAME
44 45 1 0 0 
SMALL
USER_CHARGES


@<TRIPOS>ATOM
  1 S       -0.0870     0.2450     0.1680 S.o2  1 <1>   1.3330 
  2 O       -0.7390     1.5350     0.1790 O.2   1 <1>  -0.6500 
  3 O       -0.0120    -0.5270     1.3880 O.2   1 <1>  -0.6500 
  4 N       -0.8310    -0.7210    -1.0130 N.am  1 <1>  -0.8490 
  5 C        1.5610     0.4760    -0.5010 C.3   1 <1>  -0.0550 
  6 C       -2.2750    -0.4790    -1.1020 C.3   1 <1>   0.1160 
  7 C       -0.5760    -2.1550    -0.8400 C.3   1 <1>   0.1160 
  8 C        2.4390     1.4230     0.3410 C.3   1 <1>  -0.0800 
  9 C        3.7370     1.7520    -0.3780 C.3   1 <1>   0.2200 
 10 C        2.9310     0.7600     1.6370 C.3   1 <1>   0.1200 
 11 N        4.2400     3.0570     0.1090 N.am  1 <1>  -0.7300 
 12 C        4.6540     0.6430     0.1170 C.3   1 <1>   0.1200 
 13 O        4.2680     0.4050     1.4360 O.3   1 <1>  -0.5600 
 14 C        4.5070     4.1470    -0.6690 C.2   1 <1>   0.6160 
 15 O        4.3380     4.0460    -1.8700 O.2   1 <1>  -0.5700 
 16 C        4.9940     5.3810    -0.0910 C.2   1 <1>   0.0140 
 17 C        5.6010     6.3450    -0.8600 C.2   1 <1>  -0.0410 
 18 C        4.8590     5.6580     1.3060 C.2   1 <1>  -0.1500 
 19 N        6.0850     7.5230    -0.3420 N.am  1 <1>  -0.4690 
 20 C        5.3340     6.8200     1.8270 C.2   1 <1>  -0.1360 
 21 C        5.9700     7.7950     1.0130 C.2   1 <1>   0.6160 
 22 C        6.7310     8.5250    -1.2290 C.3   1 <1>   0.0600 
 23 O        6.4040     8.8380     1.4830 O.2   1 <1>  -0.5700 
 24 H        2.0450    -0.4760    -0.5980 H     1 <1>   0.0800 
 25 H        1.4590     0.8930    -1.4840 H     1 <1>   0.0800 
 26 H       -2.7100    -1.0950    -1.8700 H     1 <1>   0.0800 
 27 H       -2.4610     0.5520    -1.3540 H     1 <1>   0.0800 
 28 H       -2.7500    -0.6960    -0.1600 H     1 <1>   0.0800 
 29 H       -0.9910    -2.7070    -1.6660 H     1 <1>   0.0800 
 30 H       -1.0200    -2.5090     0.0770 H     1 <1>   0.0800 
 31 H        0.4840    -2.3430    -0.8040 H     1 <1>   0.0800 
 32 H        1.8770     2.3180     0.5500 H     1 <1>   0.0800 
 33 H        3.6440     1.7530    -1.4520 H     1 <1>   0.0800 
 34 H        2.3810    -0.1270     1.8980 H     1 <1>   0.0800 
 35 H        2.8980     1.4520     2.4610 H     1 <1>   0.0800 
 36 H        4.5420     3.0420     1.0840 H     1 <1>   0.3700 
 37 H        5.6940     0.9160     0.0860 H     1 <1>   0.0800 
 38 H        4.4970    -0.2630    -0.4410 H     1 <1>   0.0800 
 39 H        5.7150     6.1870    -1.9210 H     1 <1>   0.1500 
 40 H        4.3680     4.9380     1.9370 H     1 <1>   0.1500 
 41 H        5.2490     7.0620     2.8690 H     1 <1>   0.1500 
 42 H        6.7420     8.1790    -2.2470 H     1 <1>   0.0800 
 43 H        7.7420     8.6940    -0.9020 H     1 <1>   0.0800 
 44 H        6.1880     9.4520    -1.1770 H     1 <1>   0.0800 
@<TRIPOS>BOND
  1   1   2  2   
  2   1   3  2   
  3   1   4  am  
  4   1   5  1   
  5   4   6  1   
  6   4   7  1   
  7   5   8  1   
  8   5  24  1   
  9   5  25  1   
 10   6  26  1   
 11   6  27  1   
 12   6  28  1   
 13   7  29  1   
 14   7  30  1   
 15   7  31  1   
 16   8   9  1   
 17   8  10  1   
 18   8  32  1   
 19   9  11  1   
 20   9  12  1   
 21   9  33  1   
 22  10  13  1   
 23  10  34  1   
 24  10  35  1   
 25  11  14  am  
 26  11  36  1   
 27  12  13  1   
 28  12  37  1   
 29  12  38  1   
 30  14  15  2   
 31  14  16  1   
 32  16  17  2   
 33  16  18  1   
 34  17  19  1   
 35  17  39  1   
 36  18  20  2   
 37  18  40  1   
 38  19  21  am  
 39  19  22  1   
 40  20  21  1   
 41  20  41  1   
 42  21  23  2   
 43  22  42  1   
 44  22  43  1   
 45  22  44  1   
@<TRIPOS>SUBSTRUCTURE
  1 ****  11 GROUP 4 **** **** 0

# MOE 2024.06 (io_trps.svl 2023.06)
