@<TRIPOS>MOLECULE
NONAME
49 50 1 0 0 
SMALL
USER_CHARGES


@<TRIPOS>ATOM
  1 O        0.1940    -0.3770     1.2780 O.2   1 <1>  -0.5700 
  2 C        1.1670    -0.9090     0.7810 C.2   1 <1>   0.5440 
  3 N        2.1800    -0.1500     0.2440 N.am  1 <1>  -0.4940 
  4 C        1.2680    -2.3550     0.7410 C.ar  1 <1>   0.0860 
  5 C        2.3990     1.2500     0.2160 C.2   1 <1>  -0.0880 
  6 C        0.1460    -3.1410     0.4870 C.ar  1 <1>  -0.1500 
  7 C        2.4810    -3.0150     0.9500 C.ar  1 <1>  -0.1500 
  8 N        1.4720     2.2400     0.0730 N.pl3 1 <1>   0.3140 
  9 C        3.6030     1.8700     0.2930 C.2   1 <1>  -0.1810 
 10 C        0.2200    -4.5210     0.4220 C.ar  1 <1>   0.0830 
 11 C        2.5700    -4.3940     0.8880 C.ar  1 <1>  -0.1500 
 12 N        2.0530     3.4600     0.0540 N.2   1 <1>  -0.7070 
 13 C        0.0250     2.1280    -0.1530 C.3   1 <1>   0.0160 
 14 C        3.3200     3.2300     0.1900 C.2   1 <1>   0.1080 
 15 C        4.9800     1.2520     0.4610 C.3   1 <1>  -0.0590 
 16 O       -0.9340    -5.1820     0.1610 O.3   1 <1>  -0.3630 
 17 C        1.4440    -5.1520     0.6220 C.ar  1 <1>  -0.1500 
 18 C        4.3370     4.3560     0.2230 C.3   1 <1>   0.0210 
 19 C       -0.9760    -6.5930     0.1090 C.3   1 <1>   0.1200 
 20 C        4.8680     4.6640    -1.1810 C.3   1 <1>  -0.2400 
 21 C       -2.4090    -7.0250    -0.1790 C.3   1 <1>   0.1200 
 22 O       -2.4400    -8.4160    -0.2370 O.3   1 <1>  -0.5600 
 23 C       -3.6990    -8.9400    -0.4950 C.3   1 <1>   0.1200 
 24 C       -3.5660   -10.4580    -0.5260 C.3   1 <1>  -0.2400 
 25 H        2.9500    -0.6910    -0.1430 H     1 <1>   0.3700 
 26 H       -0.8070    -2.6650     0.3380 H     1 <1>   0.1500 
 27 H        3.3660    -2.4470     1.1750 H     1 <1>   0.1500 
 28 H        3.5160    -4.8820     1.0520 H     1 <1>   0.1500 
 29 H       -0.1770     1.2550    -0.7430 H     1 <1>   0.0800 
 30 H       -0.3200     3.0030    -0.6700 H     1 <1>   0.0800 
 31 H       -0.4700     2.0510     0.7970 H     1 <1>   0.0800 
 32 H        4.9140     0.1830     0.5360 H     1 <1>   0.0800 
 33 H        5.4400     1.6280     1.3570 H     1 <1>   0.0800 
 34 H        5.5980     1.5030    -0.3820 H     1 <1>   0.0800 
 35 H        1.5380    -6.2210     0.5780 H     1 <1>   0.1500 
 36 H        5.1500     4.0910     0.8740 H     1 <1>   0.0800 
 37 H        3.8640     5.2330     0.6270 H     1 <1>   0.0800 
 38 H       -0.6560    -6.9790     1.0610 H     1 <1>   0.0800 
 39 H       -0.3230    -6.9240    -0.6790 H     1 <1>   0.0800 
 40 H        5.3510     3.7980    -1.5960 H     1 <1>   0.0800 
 41 H        5.5730     5.4750    -1.1430 H     1 <1>   0.0800 
 42 H        4.0510     4.9430    -1.8230 H     1 <1>   0.0800 
 43 H       -2.7330    -6.6330    -1.1280 H     1 <1>   0.0800 
 44 H       -3.0620    -6.6970     0.6110 H     1 <1>   0.0800 
 45 H       -4.0430    -8.5700    -1.4460 H     1 <1>   0.0800 
 46 H       -4.3720    -8.6340     0.2880 H     1 <1>   0.0800 
 47 H       -2.8810   -10.7510    -1.3020 H     1 <1>   0.0800 
 48 H       -4.5230   -10.9040    -0.7240 H     1 <1>   0.0800 
 49 H       -3.2080   -10.8150     0.4230 H     1 <1>   0.0800 
@<TRIPOS>BOND
  1   1   2  2   
  2   2   3  am  
  3   2   4  1   
  4   3   5  1   
  5   3  25  1   
  6   4   6  ar  
  7   4   7  ar  
  8   5   8  1   
  9   5   9  2   
 10   6  10  ar  
 11   6  26  1   
 12   7  11  ar  
 13   7  27  1   
 14   8  12  1   
 15   8  13  1   
 16   9  14  1   
 17   9  15  1   
 18  10  16  1   
 19  10  17  ar  
 20  11  17  ar  
 21  11  28  1   
 22  12  14  2   
 23  13  29  1   
 24  13  30  1   
 25  13  31  1   
 26  14  18  1   
 27  15  32  1   
 28  15  33  1   
 29  15  34  1   
 30  16  19  1   
 31  17  35  1   
 32  18  20  1   
 33  18  36  1   
 34  18  37  1   
 35  19  21  1   
 36  19  38  1   
 37  19  39  1   
 38  20  40  1   
 39  20  41  1   
 40  20  42  1   
 41  21  22  1   
 42  21  43  1   
 43  21  44  1   
 44  22  23  1   
 45  23  24  1   
 46  23  45  1   
 47  23  46  1   
 48  24  47  1   
 49  24  48  1   
 50  24  49  1   
@<TRIPOS>SUBSTRUCTURE
  1 ****   4 GROUP 4 **** **** 0

# MOE 2024.06 (io_trps.svl 2023.06)
