@<TRIPOS>MOLECULE
NONAME
47 49 1 0 0 
SMALL
USER_CHARGES


@<TRIPOS>ATOM
  1 O        3.7220    -0.6620    -0.6120 O.2   1 <1>  -0.5700 
  2 C        2.7580    -1.3310    -0.3180 C.2   1 <1>   0.5690 
  3 N        1.8510    -0.8900     0.5960 N.am  1 <1>  -0.7300 
  4 C        2.5510    -2.6870    -1.0020 C.3   1 <1>   0.1250 
  5 C        1.9610     0.3840     1.3400 C.3   1 <1>   0.1400 
  6 C        1.0860    -3.1390    -0.9140 C.ar  1 <1>  -0.1440 
  7 C        3.5310    -3.7440    -0.4610 C.3   1 <1>  -0.2400 
  8 C        1.4950     1.5490     0.4650 C.3   1 <1>   0.0200 
  9 C        0.5980    -3.9110     0.1100 C.ar  1 <1>  -0.1500 
 10 C        0.2020    -2.7130    -1.9180 C.ar  1 <1>  -0.1500 
 11 C        2.1340     2.8410     0.9360 C.2   1 <1>   0.0060 
 12 C       -0.7590    -4.2850     0.1800 C.ar  1 <1>   0.0000 
 13 C       -1.1190    -3.0590    -1.8760 C.ar  1 <1>  -0.1500 
 14 N        1.5400     3.7170     1.6610 N.2   1 <1>  -0.5650 
 15 N        3.3940     3.2090     0.6570 N.pl3 1 <1>   0.3140 
 16 C       -1.6370    -3.8470    -0.8320 C.ar  1 <1>   0.0000 
 17 C       -1.2750    -5.0770     1.2260 C.ar  1 <1>  -0.1500 
 18 C        2.5010     4.6370     1.8070 C.2   1 <1>   0.3660 
 19 N        3.6280     4.3800     1.2290 N.2   1 <1>  -0.7070 
 20 C        4.4220     2.5000    -0.1230 C.3   1 <1>   0.0160 
 21 C       -2.9940    -4.2130    -0.7570 C.ar  1 <1>  -0.1500 
 22 C       -2.5980    -5.4190     1.2770 C.ar  1 <1>  -0.1500 
 23 C       -3.4780    -4.9790     0.2700 C.ar  1 <1>   0.0830 
 24 O       -4.7990    -5.2780     0.2590 O.3   1 <1>  -0.3630 
 25 C       -5.3920    -6.0650     1.2680 C.3   1 <1>   0.0400 
 26 H        0.9970    -1.4410     0.7380 H     1 <1>   0.3700 
 27 H        2.7890    -2.5480    -2.0410 H     1 <1>   0.0800 
 28 H        1.3760     0.3410     2.2430 H     1 <1>   0.0800 
 29 H        2.9920     0.5270     1.6190 H     1 <1>   0.0800 
 30 H        3.4450    -3.8370     0.6060 H     1 <1>   0.0800 
 31 H        4.5410    -3.4510    -0.6910 H     1 <1>   0.0800 
 32 H        3.3390    -4.6980    -0.9190 H     1 <1>   0.0800 
 33 H        0.4250     1.6360     0.5210 H     1 <1>   0.0800 
 34 H        1.7670     1.3830    -0.5620 H     1 <1>   0.0800 
 35 H        1.2380    -4.2550     0.9010 H     1 <1>   0.1500 
 36 H        0.5710    -2.1050    -2.7270 H     1 <1>   0.1500 
 37 H       -1.7930    -2.7300    -2.6480 H     1 <1>   0.1500 
 38 H       -0.6000    -5.4120     1.9930 H     1 <1>   0.1500 
 39 H        2.3230     5.5330     2.3790 H     1 <1>   0.1500 
 40 H        4.0000     2.1520    -1.0470 H     1 <1>   0.0800 
 41 H        4.7850     1.6630     0.4440 H     1 <1>   0.0800 
 42 H        5.2340     3.1720    -0.3300 H     1 <1>   0.0800 
 43 H       -3.6650    -3.8810    -1.5260 H     1 <1>   0.1500 
 44 H       -2.9560    -6.0230     2.0880 H     1 <1>   0.1500 
 45 H       -6.4380    -6.1630     1.0430 H     1 <1>   0.0800 
 46 H       -5.2660    -5.5700     2.2150 H     1 <1>   0.0800 
 47 H       -4.9260    -7.0340     1.2730 H     1 <1>   0.0800 
@<TRIPOS>BOND
  1   1   2  2   
  2   2   3  am  
  3   2   4  1   
  4   3   5  1   
  5   3  26  1   
  6   4   6  1   
  7   4   7  1   
  8   4  27  1   
  9   5   8  1   
 10   5  28  1   
 11   5  29  1   
 12   6   9  ar  
 13   6  10  ar  
 14   7  30  1   
 15   7  31  1   
 16   7  32  1   
 17   8  11  1   
 18   8  33  1   
 19   8  34  1   
 20   9  12  ar  
 21   9  35  1   
 22  10  13  ar  
 23  10  36  1   
 24  11  14  2   
 25  11  15  1   
 26  12  16  ar  
 27  12  17  ar  
 28  13  16  ar  
 29  13  37  1   
 30  14  18  1   
 31  15  19  1   
 32  15  20  1   
 33  16  21  ar  
 34  17  22  ar  
 35  17  38  1   
 36  18  19  2   
 37  18  39  1   
 38  20  40  1   
 39  20  41  1   
 40  20  42  1   
 41  21  23  ar  
 42  21  43  1   
 43  22  23  ar  
 44  22  44  1   
 45  23  24  1   
 46  24  25  1   
 47  25  45  1   
 48  25  46  1   
 49  25  47  1   
@<TRIPOS>SUBSTRUCTURE
  1 ****   3 GROUP 4 **** **** 0

# MOE 2024.06 (io_trps.svl 2023.06)
