@<TRIPOS>MOLECULE
NONAME
48 49 1 0 0 
SMALL
USER_CHARGES


@<TRIPOS>ATOM
  1 S        0.0610     1.7850    -2.1530 S.3   1 <1>  -0.0800 
  2 C        1.3260     1.9260    -0.9580 C.2   1 <1>  -0.1400 
  3 C        0.2830     0.0560    -2.1650 C.2   1 <1>   0.2280 
  4 C        1.7820     0.6840    -0.6840 C.2   1 <1>   0.0460 
  5 C        1.5910     3.3680    -0.5360 C.3   1 <1>   0.0200 
  6 N        1.1850    -0.3580    -1.3740 N.2   1 <1>  -0.5650 
  7 C        2.8610     0.2240     0.2770 C.3   1 <1>  -0.0590 
  8 C        2.7840     3.5570     0.4040 C.3   1 <1>   0.1100 
  9 N        3.0830     4.9850     0.6230 N.3   1 <1>  -0.8100 
 10 C        4.4680     5.1500     1.1710 C.3   1 <1>   0.1710 
 11 C        2.1020     5.6110     1.5310 C.3   1 <1>   0.0300 
 12 C        5.0180     6.5720     1.0520 C.2   1 <1>   0.5690 
 13 O        5.8690     6.9370     1.8290 O.2   1 <1>  -0.5700 
 14 N        4.4880     7.3390     0.0620 N.am  1 <1>  -0.4930 
 15 C        4.6710     8.7000    -0.2890 C.2   1 <1>   0.0630 
 16 C        5.8160     9.5030    -0.2530 C.2   1 <1>   0.1080 
 17 C        3.7010     9.5060    -0.7750 C.2   1 <1>  -0.3320 
 18 N        5.5820    10.7070    -0.6750 N.2   1 <1>  -0.7070 
 19 C        7.1990     9.0850     0.1930 C.3   1 <1>  -0.0590 
 20 N        4.2770    10.7160    -0.9930 N.pl3 1 <1>   0.3140 
 21 C        2.2360     9.1920    -1.0450 C.3   1 <1>  -0.0600 
 22 C        3.6360    11.9420    -1.5150 C.3   1 <1>   0.0960 
 23 C        3.0270    12.7760    -0.3800 C.3   1 <1>  -0.2400 
 24 H       -0.3450    -0.5170    -2.8240 H     1 <1>   0.1500 
 25 H        0.7000     3.7410    -0.0680 H     1 <1>   0.0800 
 26 H        1.7720     3.9470    -1.4240 H     1 <1>   0.0800 
 27 H        3.2760     1.0230     0.8520 H     1 <1>   0.0800 
 28 H        3.6510    -0.2490    -0.2780 H     1 <1>   0.0800 
 29 H        2.4440    -0.4990     0.9550 H     1 <1>   0.0800 
 30 H        3.6360     3.0880    -0.0590 H     1 <1>   0.0800 
 31 H        2.5930     3.0730     1.3470 H     1 <1>   0.0800 
 32 H        5.1460     4.5140     0.6310 H     1 <1>   0.0800 
 33 H        4.4930     4.8540     2.2050 H     1 <1>   0.0800 
 34 H        1.1180     5.5890     1.0970 H     1 <1>   0.0800 
 35 H        2.3570     6.6430     1.7100 H     1 <1>   0.0800 
 36 H        2.0780     5.0960     2.4770 H     1 <1>   0.0800 
 37 H        3.7090     6.8700    -0.4070 H     1 <1>   0.3700 
 38 H        7.3950     8.0740    -0.1090 H     1 <1>   0.0800 
 39 H        7.2660     9.1560     1.2620 H     1 <1>   0.0800 
 40 H        7.9350     9.7300    -0.2480 H     1 <1>   0.0800 
 41 H        2.0060     8.1790    -0.7700 H     1 <1>   0.0800 
 42 H        2.0160     9.3200    -2.0900 H     1 <1>   0.0800 
 43 H        1.6060     9.8480    -0.4710 H     1 <1>   0.0800 
 44 H        2.8820    11.6650    -2.2260 H     1 <1>   0.0800 
 45 H        4.3890    12.5170    -2.0240 H     1 <1>   0.0800 
 46 H        2.2690    12.2140     0.1360 H     1 <1>   0.0800 
 47 H        2.5830    13.6690    -0.7790 H     1 <1>   0.0800 
 48 H        3.7960    13.0570     0.3190 H     1 <1>   0.0800 
@<TRIPOS>BOND
  1   1   2  1   
  2   1   3  1   
  3   2   4  2   
  4   2   5  1   
  5   3   6  2   
  6   3  24  1   
  7   4   6  1   
  8   4   7  1   
  9   5   8  1   
 10   5  25  1   
 11   5  26  1   
 12   7  27  1   
 13   7  28  1   
 14   7  29  1   
 15   8   9  1   
 16   8  30  1   
 17   8  31  1   
 18   9  10  1   
 19   9  11  1   
 20  10  12  1   
 21  10  32  1   
 22  10  33  1   
 23  11  34  1   
 24  11  35  1   
 25  11  36  1   
 26  12  13  2   
 27  12  14  am  
 28  14  15  1   
 29  14  37  1   
 30  15  16  1   
 31  15  17  2   
 32  16  18  2   
 33  16  19  1   
 34  17  20  1   
 35  17  21  1   
 36  18  20  1   
 37  19  38  1   
 38  19  39  1   
 39  19  40  1   
 40  20  22  1   
 41  21  41  1   
 42  21  42  1   
 43  21  43  1   
 44  22  23  1   
 45  22  44  1   
 46  22  45  1   
 47  23  46  1   
 48  23  47  1   
 49  23  48  1   
@<TRIPOS>SUBSTRUCTURE
  1 ****   9 GROUP 4 **** **** 0

# MOE 2024.06 (io_trps.svl 2023.06)
