@<TRIPOS>MOLECULE
NONAME
50 53 1 0 0 
SMALL
USER_CHARGES


@<TRIPOS>ATOM
  1 O       -2.9870    -1.1280     1.4550 O.2   1 <1>  -0.5700 
  2 C       -2.9340     0.0060     1.0080 C.2   1 <1>   0.7670 
  3 N       -2.8000     1.0270     1.9210 N.2   1 <1>  -0.6610 
  4 C       -3.0170     0.2810    -0.3890 C.2   1 <1>   0.0290 
  5 C       -2.7100     2.2250     1.4870 C.2   1 <1>   0.4390 
  6 C       -3.1870    -0.7930    -1.3180 C.2   1 <1>   0.6160 
  7 C       -2.9030     1.5800    -0.7870 C.2   1 <1>  -0.0500 
  8 N       -2.7510     2.5460     0.1620 N.pl3 1 <1>  -0.5500 
  9 C       -2.5490     3.3690     2.4570 C.3   1 <1>  -0.1790 
 10 O       -2.3260    -0.9550    -2.1650 O.2   1 <1>  -0.5700 
 11 N       -4.3130    -1.5960    -1.3500 N.am  1 <1>  -0.6600 
 12 C       -5.5470    -1.3560    -0.5500 C.3   1 <1>   0.1400 
 13 C       -4.3990    -2.7950    -2.2320 C.3   1 <1>   0.1400 
 14 C       -5.8430    -2.5830     0.3170 C.3   1 <1>  -0.1600 
 15 C       -4.6810    -4.0320    -1.3770 C.3   1 <1>  -0.1600 
 16 C       -5.9460    -3.8660    -0.5240 C.3   1 <1>   0.4240 
 17 O       -6.9970    -3.6970    -1.4480 O.3   1 <1>  -0.5600 
 18 C       -6.1610    -5.1100     0.3670 C.ar  1 <1>  -0.1430 
 19 C       -8.2900    -3.9840    -1.0130 C.3   1 <1>   0.1200 
 20 C       -7.3160    -5.8790     0.2680 C.ar  1 <1>  -0.1430 
 21 C       -5.1960    -5.4830     1.2970 C.ar  1 <1>  -0.1500 
 22 C       -8.3900    -5.4780    -0.7240 C.3   1 <1>  -0.0170 
 23 C       -7.4940    -6.9980     1.0660 C.ar  1 <1>  -0.1500 
 24 C       -5.3740    -6.5980     2.0960 C.ar  1 <1>  -0.1500 
 25 C       -6.5190    -7.3650     1.9870 C.ar  1 <1>   0.0830 
 26 O       -6.6160    -8.4460     2.8020 O.3   1 <1>  -0.3630 
 27 C       -7.7330    -9.3040     2.7540 C.3   1 <1>   0.0400 
 28 H       -2.9260     1.8620    -1.8280 H     1 <1>   0.1500 
 29 H       -2.6540     3.5320    -0.0980 H     1 <1>   0.4000 
 30 H       -3.3710     4.0540     2.3590 H     1 <1>   0.0800 
 31 H       -1.6260     3.8840     2.2680 H     1 <1>   0.0800 
 32 H       -2.5320     2.9960     3.4660 H     1 <1>   0.0800 
 33 H       -6.3700    -1.1840    -1.2230 H     1 <1>   0.0800 
 34 H       -5.4450    -0.4890     0.0760 H     1 <1>   0.0800 
 35 H       -3.4810    -2.9400    -2.7760 H     1 <1>   0.0800 
 36 H       -5.1910    -2.6510    -2.9480 H     1 <1>   0.0800 
 37 H       -6.7470    -2.4330     0.8740 H     1 <1>   0.0800 
 38 H       -5.0500    -2.6890     1.0330 H     1 <1>   0.0800 
 39 H       -3.8280    -4.2010    -0.7470 H     1 <1>   0.0800 
 40 H       -4.7930    -4.8940    -2.0080 H     1 <1>   0.0800 
 41 H       -8.9710    -3.7040    -1.7970 H     1 <1>   0.0800 
 42 H       -8.5050    -3.4030    -0.1330 H     1 <1>   0.0800 
 43 H       -4.2940    -4.9070     1.4100 H     1 <1>   0.1500 
 44 H       -8.2640    -6.0300    -1.6380 H     1 <1>   0.0800 
 45 H       -9.3650    -5.6970    -0.3270 H     1 <1>   0.0800 
 46 H       -8.3940    -7.5720     0.9600 H     1 <1>   0.1500 
 47 H       -4.6220    -6.8790     2.8110 H     1 <1>   0.1500 
 48 H       -7.5840   -10.0860     3.4760 H     1 <1>   0.0800 
 49 H       -7.8050    -9.7270     1.7670 H     1 <1>   0.0800 
 50 H       -8.6160    -8.7420     3.0000 H     1 <1>   0.0800 
@<TRIPOS>BOND
  1   1   2  2   
  2   2   3  1   
  3   2   4  1   
  4   3   5  2   
  5   4   6  1   
  6   4   7  2   
  7   5   8  1   
  8   5   9  1   
  9   6  10  2   
 10   6  11  am  
 11   7   8  1   
 12   7  28  1   
 13   8  29  1   
 14   9  30  1   
 15   9  31  1   
 16   9  32  1   
 17  11  12  1   
 18  11  13  1   
 19  12  14  1   
 20  12  33  1   
 21  12  34  1   
 22  13  15  1   
 23  13  35  1   
 24  13  36  1   
 25  14  16  1   
 26  14  37  1   
 27  14  38  1   
 28  15  16  1   
 29  15  39  1   
 30  15  40  1   
 31  16  17  1   
 32  16  18  1   
 33  17  19  1   
 34  18  20  ar  
 35  18  21  ar  
 36  19  22  1   
 37  19  41  1   
 38  19  42  1   
 39  20  22  1   
 40  20  23  ar  
 41  21  24  ar  
 42  21  43  1   
 43  22  44  1   
 44  22  45  1   
 45  23  25  ar  
 46  23  46  1   
 47  24  25  ar  
 48  24  47  1   
 49  25  26  1   
 50  26  27  1   
 51  27  48  1   
 52  27  49  1   
 53  27  50  1   
@<TRIPOS>SUBSTRUCTURE
  1 ****  14 GROUP 4 **** **** 0

# MOE 2024.06 (io_trps.svl 2023.06)
