@<TRIPOS>MOLECULE
NONAME
58 60 1 0 0 
SMALL
USER_CHARGES


@<TRIPOS>ATOM
  1 F       -1.5480    -0.6580     0.6260 F     1 <1>  -0.1900 
  2 C       -0.6310    -1.5250     0.2830 C.ar  1 <1>   0.1900 
  3 C       -0.6180    -2.7820     0.8740 C.ar  1 <1>  -0.1440 
  4 C        0.2920    -1.1390    -0.6700 C.ar  1 <1>  -0.1500 
  5 C        0.3740    -3.6680     0.4790 C.ar  1 <1>  -0.1500 
  6 C       -1.6420    -3.2100     1.9250 C.3   1 <1>   0.0450 
  7 C        1.2710    -2.0400    -1.0520 C.ar  1 <1>  -0.1500 
  8 C        1.3090    -3.3000    -0.4770 C.ar  1 <1>  -0.1500 
  9 C       -2.3830    -4.4840     1.5370 C.2   1 <1>   0.5690 
 10 O       -2.2560    -5.4410     2.2670 O.2   1 <1>  -0.5700 
 11 N       -3.1730    -4.5600     0.4130 N.am  1 <1>  -0.6600 
 12 C       -3.7150    -5.8830    -0.0060 C.3   1 <1>   0.1400 
 13 C       -3.5290    -3.3960    -0.4500 C.3   1 <1>   0.1400 
 14 C       -5.0480    -6.1670     0.7020 C.3   1 <1>   0.1400 
 15 C       -5.0120    -3.3760    -0.8480 C.3   1 <1>  -0.1600 
 16 N       -6.1770    -5.3270     0.1730 N.am  1 <1>  -0.6600 
 17 C       -5.9660    -3.8460     0.2570 C.3   1 <1>   0.1400 
 18 C       -7.3460    -5.8250    -0.3490 C.2   1 <1>   0.5690 
 19 O       -8.1850    -5.1100    -0.8510 O.2   1 <1>  -0.5700 
 20 C       -7.6850    -7.3270    -0.3120 C.3   1 <1>   0.4040 
 21 N       -9.1710    -7.5970    -0.3770 N.4   1 <1>  -0.9590 
 22 C       -9.8370    -7.1990     0.8970 C.3   1 <1>   0.3430 
 23 C       -9.4640    -8.9770    -0.8460 C.3   1 <1>   0.3430 
 24 C      -11.2640    -6.7350     0.6090 C.3   1 <1>  -0.1600 
 25 C      -10.9440    -9.1750    -1.1780 C.3   1 <1>  -0.1600 
 26 C      -12.3200    -7.8530     0.5590 C.3   1 <1>  -0.1600 
 27 C      -11.8430    -9.2260     0.0660 C.3   1 <1>  -0.1600 
 28 H        0.2440    -0.1560    -1.1010 H     1 <1>   0.1500 
 29 H        0.4240    -4.6530     0.9140 H     1 <1>   0.1500 
 30 H       -2.3630    -2.4400     2.1190 H     1 <1>   0.0800 
 31 H       -1.1210    -3.3880     2.8490 H     1 <1>   0.0800 
 32 H        2.0020    -1.7620    -1.7930 H     1 <1>   0.1500 
 33 H        2.0720    -4.0000    -0.7730 H     1 <1>   0.1500 
 34 H       -3.0080    -6.6490     0.2650 H     1 <1>   0.0800 
 35 H       -3.8360    -5.9210    -1.0740 H     1 <1>   0.0800 
 36 H       -2.9130    -3.4070    -1.3330 H     1 <1>   0.0800 
 37 H       -3.3230    -2.4830     0.0760 H     1 <1>   0.0800 
 38 H       -4.9280    -5.9850     1.7570 H     1 <1>   0.0800 
 39 H       -5.2650    -7.2110     0.5790 H     1 <1>   0.0800 
 40 H       -5.1690    -3.9570    -1.7400 H     1 <1>   0.0800 
 41 H       -5.2590    -2.3600    -1.0990 H     1 <1>   0.0800 
 42 H       -6.9080    -3.3370     0.1400 H     1 <1>   0.0800 
 43 H       -5.5810    -3.5820     1.2280 H     1 <1>   0.0800 
 44 H       -7.2780    -7.7590     0.5850 H     1 <1>   0.0800 
 45 H       -7.2010    -7.7840    -1.1570 H     1 <1>   0.0800 
 46 H       -9.5190    -6.9240    -1.0820 H     1 <1>   0.4500 
 47 H       -9.3040    -6.3670     1.3300 H     1 <1>   0.0800 
 48 H       -9.8350    -8.0100     1.6070 H     1 <1>   0.0800 
 49 H       -9.1670    -9.6910    -0.0950 H     1 <1>   0.0800 
 50 H       -8.8900    -9.1750    -1.7370 H     1 <1>   0.0800 
 51 H      -11.2810    -6.1700    -0.3070 H     1 <1>   0.0800 
 52 H      -11.5540    -6.0530     1.3890 H     1 <1>   0.0800 
 53 H      -11.0270   -10.1280    -1.6730 H     1 <1>   0.0800 
 54 H      -11.2870    -8.4310    -1.8760 H     1 <1>   0.0800 
 55 H      -13.1310    -7.5190    -0.0680 H     1 <1>   0.0800 
 56 H      -12.7330    -7.9850     1.5460 H     1 <1>   0.0800 
 57 H      -11.3360    -9.7460     0.8620 H     1 <1>   0.0800 
 58 H      -12.7200    -9.8070    -0.1690 H     1 <1>   0.0800 
@<TRIPOS>BOND
  1   1   2  1   
  2   2   3  ar  
  3   2   4  ar  
  4   3   5  ar  
  5   3   6  1   
  6   4   7  ar  
  7   4  28  1   
  8   5   8  ar  
  9   5  29  1   
 10   6   9  1   
 11   6  30  1   
 12   6  31  1   
 13   7   8  ar  
 14   7  32  1   
 15   8  33  1   
 16   9  10  2   
 17   9  11  am  
 18  11  12  1   
 19  11  13  1   
 20  12  14  1   
 21  12  34  1   
 22  12  35  1   
 23  13  15  1   
 24  13  36  1   
 25  13  37  1   
 26  14  16  1   
 27  14  38  1   
 28  14  39  1   
 29  15  17  1   
 30  15  40  1   
 31  15  41  1   
 32  16  17  1   
 33  16  18  am  
 34  17  42  1   
 35  17  43  1   
 36  18  19  2   
 37  18  20  1   
 38  20  21  1   
 39  20  44  1   
 40  20  45  1   
 41  21  22  1   
 42  21  23  1   
 43  21  46  1   
 44  22  24  1   
 45  22  47  1   
 46  22  48  1   
 47  23  25  1   
 48  23  49  1   
 49  23  50  1   
 50  24  26  1   
 51  24  51  1   
 52  24  52  1   
 53  25  27  1   
 54  25  53  1   
 55  25  54  1   
 56  26  27  1   
 57  26  55  1   
 58  26  56  1   
 59  27  57  1   
 60  27  58  1   
@<TRIPOS>SUBSTRUCTURE
  1 ****  16 GROUP 4 **** **** 0

# MOE 2024.06 (io_trps.svl 2023.06)
