@<TRIPOS>MOLECULE
NONAME
22 22 1 0 0 
SMALL
USER_CHARGES


@<TRIPOS>ATOM
  1 O       -0.2180    -2.0790    -1.6840 O.2   1 <1>  -0.5700 
  2 C       -0.0610    -1.9480    -0.4960 C.2   1 <1>   0.6590 
  3 O       -0.9630    -1.3570     0.2790 O.3   1 <1>  -0.4300 
  4 C        1.1840    -2.4570     0.2070 C.3   1 <1>   0.2370 
  5 C       -2.1800    -0.8410    -0.2160 C.3   1 <1>   0.1200 
  6 N        2.3150    -1.5870    -0.1620 N.pl3 1 <1>   0.3140 
  7 C        1.5040    -3.9330    -0.1070 C.3   1 <1>  -0.2400 
  8 C       -3.2130    -1.9650    -0.2550 C.3   1 <1>  -0.2400 
  9 N        3.1180    -1.0440     0.7290 N.2   1 <1>  -0.4180 
 10 C        2.7420    -1.2140    -1.3550 C.2   1 <1>   0.0360 
 11 N        3.9890    -0.3690     0.0690 N.2   1 <1>   0.0000 
 12 N        3.7690    -0.4640    -1.2380 N.2   1 <1>  -0.3380 
 13 H        1.0310    -2.3570     1.2660 H     1 <1>   0.0800 
 14 H       -2.0180    -0.4200    -1.1950 H     1 <1>   0.0800 
 15 H       -2.5000    -0.0600     0.4530 H     1 <1>   0.0800 
 16 H        1.6610    -4.0730    -1.1620 H     1 <1>   0.0800 
 17 H        0.6820    -4.5560     0.1970 H     1 <1>   0.0800 
 18 H        2.3840    -4.2450     0.4290 H     1 <1>   0.0800 
 19 H       -2.9030    -2.7370    -0.9370 H     1 <1>   0.0800 
 20 H       -4.1560    -1.5760    -0.5940 H     1 <1>   0.0800 
 21 H       -3.3500    -2.3820     0.7270 H     1 <1>   0.0800 
 22 H        2.2790    -1.5070    -2.2800 H     1 <1>   0.1500 
@<TRIPOS>BOND
  1   1   2  2   
  2   2   3  1   
  3   2   4  1   
  4   3   5  1   
  5   4   6  1   
  6   4   7  1   
  7   4  13  1   
  8   5   8  1   
  9   5  14  1   
 10   5  15  1   
 11   6   9  1   
 12   6  10  1   
 13   7  16  1   
 14   7  17  1   
 15   7  18  1   
 16   8  19  1   
 17   8  20  1   
 18   8  21  1   
 19   9  11  2   
 20  10  12  2   
 21  10  22  1   
 22  11  12  1   
@<TRIPOS>SUBSTRUCTURE
  1 ****   4 GROUP 4 **** **** 0

# MOE 2024.06 (io_trps.svl 2023.06)
