@<TRIPOS>MOLECULE
NONAME
52 55 1 0 0 
SMALL
USER_CHARGES


@<TRIPOS>ATOM
  1 CL      -1.6720     2.1570    -1.0890 Cl    1 <1>  -0.1770 
  2 C       -1.8830     2.8670     0.5030 C.ar  1 <1>   0.1770 
  3 C       -1.2390     4.0580     0.8160 C.ar  1 <1>   0.0830 
  4 C       -2.7030     2.2330     1.4250 C.ar  1 <1>  -0.1440 
  5 O       -0.4590     4.6760    -0.0900 O.3   1 <1>  -0.5320 
  6 C       -1.4080     4.6190     2.0710 C.ar  1 <1>  -0.1500 
  7 C       -2.8650     2.8040     2.6810 C.ar  1 <1>  -0.1500 
  8 C       -3.4200     0.9450     1.0670 C.3   1 <1>   0.4860 
  9 C       -2.2200     3.9890     2.9990 C.ar  1 <1>  -0.1500 
 10 N       -4.3850     1.2150    -0.0330 N.4   1 <1>  -0.9590 
 11 C       -5.4080     2.2460     0.3560 C.3   1 <1>   0.3430 
 12 C       -5.0280    -0.0280    -0.5390 C.3   1 <1>   0.3430 
 13 C       -6.2850     2.6490    -0.8390 C.3   1 <1>   0.1440 
 14 C       -5.8840     0.3010    -1.7670 C.3   1 <1>  -0.1600 
 15 C       -7.3500     3.5910    -0.3360 C.ar  1 <1>   0.1670 
 16 C       -6.9250     1.3980    -1.4770 C.3   1 <1>  -0.1600 
 17 C       -5.5290     3.5200    -1.8800 C.3   1 <1>  -0.1600 
 18 N       -8.0720     3.3790     0.7330 N.ar  1 <1>  -0.6200 
 19 C       -7.4530     4.7030    -1.1110 C.ar  1 <1>  -0.1430 
 20 C       -6.4780     4.6740    -2.2620 C.3   1 <1>  -0.0170 
 21 C       -8.9470     4.3490     1.0170 C.ar  1 <1>   0.7200 
 22 C       -8.3800     5.6450    -0.7420 C.ar  1 <1>   0.1600 
 23 N       -9.1290     5.4760     0.3220 N.ar  1 <1>  -0.6200 
 24 N       -9.7260     4.1700     2.1410 N.pl3 1 <1>  -0.8380 
 25 C      -10.0740     2.8210     2.6640 C.3   1 <1>   0.1290 
 26 C      -10.4690     5.3030     2.7610 C.3   1 <1>   0.1290 
 27 H       -0.0090     5.4720     0.2480 H     1 <1>   0.4500 
 28 H       -0.9150     5.5390     2.3310 H     1 <1>   0.1500 
 29 H       -3.4910     2.3400     3.4260 H     1 <1>   0.1500 
 30 H       -3.9390     0.5610     1.9300 H     1 <1>   0.0800 
 31 H       -2.6950     0.2130     0.7490 H     1 <1>   0.0800 
 32 H       -2.3500     4.4250     3.9770 H     1 <1>   0.1500 
 33 H       -3.8260     1.6150    -0.8020 H     1 <1>   0.4500 
 34 H       -4.9270     3.1300     0.7430 H     1 <1>   0.0800 
 35 H       -6.0460     1.8520     1.1310 H     1 <1>   0.0800 
 36 H       -5.6530    -0.4550     0.2290 H     1 <1>   0.0800 
 37 H       -4.2760    -0.7530    -0.8100 H     1 <1>   0.0800 
 38 H       -6.3950    -0.5920    -2.0830 H     1 <1>   0.0800 
 39 H       -5.2420     0.5990    -2.5780 H     1 <1>   0.0800 
 40 H       -7.4430     1.6680    -2.3820 H     1 <1>   0.0800 
 41 H       -7.6630     1.0030    -0.7970 H     1 <1>   0.0800 
 42 H       -5.2240     2.9680    -2.7520 H     1 <1>   0.0800 
 43 H       -4.6520     3.9500    -1.4260 H     1 <1>   0.0800 
 44 H       -7.0050     4.4520    -3.1750 H     1 <1>   0.0800 
 45 H       -5.9510     5.6070    -2.3620 H     1 <1>   0.0800 
 46 H       -8.5080     6.5440    -1.3200 H     1 <1>   0.1500 
 47 H       -9.8430     2.0580     1.9420 H     1 <1>   0.0800 
 48 H      -11.1270     2.7720     2.8790 H     1 <1>   0.0800 
 49 H       -9.5200     2.6310     3.5660 H     1 <1>   0.0800 
 50 H       -9.9280     6.2250     2.6280 H     1 <1>   0.0800 
 51 H      -10.5910     5.1310     3.8160 H     1 <1>   0.0800 
 52 H      -11.4360     5.3960     2.2990 H     1 <1>   0.0800 
@<TRIPOS>BOND
  1   1   2  1   
  2   2   3  ar  
  3   2   4  ar  
  4   3   5  1   
  5   3   6  ar  
  6   4   7  ar  
  7   4   8  1   
  8   5  27  1   
  9   6   9  ar  
 10   6  28  1   
 11   7   9  ar  
 12   7  29  1   
 13   8  10  1   
 14   8  30  1   
 15   8  31  1   
 16   9  32  1   
 17  10  11  1   
 18  10  12  1   
 19  10  33  1   
 20  11  13  1   
 21  11  34  1   
 22  11  35  1   
 23  12  14  1   
 24  12  36  1   
 25  12  37  1   
 26  13  15  1   
 27  13  16  1   
 28  13  17  1   
 29  14  16  1   
 30  14  38  1   
 31  14  39  1   
 32  15  18  ar  
 33  15  19  ar  
 34  16  40  1   
 35  16  41  1   
 36  17  20  1   
 37  17  42  1   
 38  17  43  1   
 39  18  21  ar  
 40  19  20  1   
 41  19  22  ar  
 42  20  44  1   
 43  20  45  1   
 44  21  23  ar  
 45  21  24  1   
 46  22  23  ar  
 47  22  46  1   
 48  24  25  1   
 49  24  26  1   
 50  25  47  1   
 51  25  48  1   
 52  25  49  1   
 53  26  50  1   
 54  26  51  1   
 55  26  52  1   
@<TRIPOS>SUBSTRUCTURE
  1 ****  11 GROUP 4 **** **** 0

# MOE 2024.06 (io_trps.svl 2023.06)
