@<TRIPOS>MOLECULE
NONAME
51 53 1 0 0 
SMALL
USER_CHARGES


@<TRIPOS>ATOM
  1 S        0.3870     0.0230     0.6150 S.o2  1 <1>   1.3330 
  2 O        1.8140     0.2540     0.6750 O.2   1 <1>  -0.6500 
  3 O       -0.3770    -0.0430     1.8390 O.2   1 <1>  -0.6500 
  4 N        0.1110    -1.4010    -0.2660 N.am  1 <1>  -0.8490 
  5 C       -0.3110     1.2960    -0.4360 C.3   1 <1>  -0.0550 
  6 C        1.0980    -2.4410     0.0400 C.3   1 <1>   0.1160 
  7 C       -1.2440    -1.9370    -0.0930 C.3   1 <1>   0.1160 
  8 C       -0.2180     2.7030     0.1800 C.3   1 <1>  -0.0800 
  9 C       -0.7780     3.7770    -0.7370 C.3   1 <1>   0.2000 
 10 C        1.2110     3.1750     0.4490 C.3   1 <1>   0.2090 
 11 O       -2.1610     3.8160    -0.6350 O.3   1 <1>  -0.6800 
 12 C       -0.1210     5.0680    -0.2570 C.3   1 <1>   0.2090 
 13 N        1.2190     4.6620     0.2760 N.pl3 1 <1>  -0.8380 
 14 C        2.3400     5.4400     0.3540 C.ar  1 <1>   0.1000 
 15 C        2.3550     6.8790     0.2860 C.ar  1 <1>   0.0000 
 16 C        3.5900     4.8150     0.4480 C.ar  1 <1>  -0.1500 
 17 C        3.5730     7.5440     0.0170 C.ar  1 <1>   0.3610 
 18 C        1.2390     7.7080     0.5180 C.ar  1 <1>  -0.1500 
 19 C        4.7600     5.4990     0.2750 C.ar  1 <1>   0.2110 
 20 N        4.7390     6.8170     0.0220 N.ar  1 <1>  -0.1790 
 21 C        3.6140     8.9360    -0.1960 C.ar  1 <1>  -0.1440 
 22 C        1.2800     9.0670     0.3440 C.ar  1 <1>  -0.1440 
 23 C        2.4710     9.6790    -0.0390 C.ar  1 <1>  -0.1500 
 24 C        4.9030     9.6580    -0.5860 C.3   1 <1>  -0.0970 
 25 C        0.0510     9.9310     0.5700 C.3   1 <1>  -0.0970 
 26 H        0.1970     1.2850    -1.3810 H     1 <1>   0.0800 
 27 H       -1.3440     1.0730    -0.6200 H     1 <1>   0.0800 
 28 H        0.9060    -3.3230    -0.5480 H     1 <1>   0.0800 
 29 H        1.0620    -2.6970     1.0860 H     1 <1>   0.0800 
 30 H        2.0890    -2.0910    -0.1960 H     1 <1>   0.0800 
 31 H       -1.3880    -2.7890    -0.7360 H     1 <1>   0.0800 
 32 H       -1.9760    -1.1920    -0.3500 H     1 <1>   0.0800 
 33 H       -1.4020    -2.2390     0.9300 H     1 <1>   0.0800 
 34 H       -0.7420     2.7200     1.1210 H     1 <1>   0.0800 
 35 H       -0.5160     3.5970    -1.7660 H     1 <1>   0.0800 
 36 H        1.8810     2.7340    -0.2710 H     1 <1>   0.0800 
 37 H        1.5250     2.9050     1.4440 H     1 <1>   0.0800 
 38 H       -2.4400     3.9380     0.2940 H     1 <1>   0.4000 
 39 H       -0.7090     5.4830     0.5420 H     1 <1>   0.0800 
 40 H       -0.0210     5.7720    -1.0650 H     1 <1>   0.0800 
 41 H        3.6530     3.7590     0.6330 H     1 <1>   0.1500 
 42 H        0.3250     7.2710     0.8610 H     1 <1>   0.1500 
 43 H        5.7090     4.9890     0.3280 H     1 <1>   0.1500 
 44 H        5.6040     7.3370    -0.1320 H     1 <1>   0.4570 
 45 H        2.4730    10.7460    -0.1920 H     1 <1>   0.1500 
 46 H        4.7100    10.7000    -0.7810 H     1 <1>   0.0800 
 47 H        5.3210     9.2360    -1.4830 H     1 <1>   0.0800 
 48 H        5.6250     9.6080     0.2100 H     1 <1>   0.0800 
 49 H        0.2440    10.6510     1.3450 H     1 <1>   0.0800 
 50 H       -0.7950     9.3350     0.8630 H     1 <1>   0.0800 
 51 H       -0.2010    10.4560    -0.3340 H     1 <1>   0.0800 
@<TRIPOS>BOND
  1   1   2  2   
  2   1   3  2   
  3   1   4  am  
  4   1   5  1   
  5   4   6  1   
  6   4   7  1   
  7   5   8  1   
  8   5  26  1   
  9   5  27  1   
 10   6  28  1   
 11   6  29  1   
 12   6  30  1   
 13   7  31  1   
 14   7  32  1   
 15   7  33  1   
 16   8   9  1   
 17   8  10  1   
 18   8  34  1   
 19   9  11  1   
 20   9  12  1   
 21   9  35  1   
 22  10  13  1   
 23  10  36  1   
 24  10  37  1   
 25  11  38  1   
 26  12  13  1   
 27  12  39  1   
 28  12  40  1   
 29  13  14  1   
 30  14  15  ar  
 31  14  16  ar  
 32  15  17  ar  
 33  15  18  ar  
 34  16  19  ar  
 35  16  41  1   
 36  17  20  ar  
 37  17  21  ar  
 38  18  22  ar  
 39  18  42  1   
 40  19  20  ar  
 41  19  43  1   
 42  20  44  1   
 43  21  23  ar  
 44  21  24  1   
 45  22  23  ar  
 46  22  25  1   
 47  23  45  1   
 48  24  46  1   
 49  24  47  1   
 50  24  48  1   
 51  25  49  1   
 52  25  50  1   
 53  25  51  1   
@<TRIPOS>SUBSTRUCTURE
  1 ****  13 GROUP 4 **** **** 0

# MOE 2024.06 (io_trps.svl 2023.06)
