@<TRIPOS>MOLECULE
NONAME
40 42 1 0 0 
SMALL
USER_CHARGES


@<TRIPOS>ATOM
  1 F       -0.9270    -1.4140    -1.5460 F     1 <1>  -0.1900 
  2 C       -2.1010    -1.6480    -1.0140 C.ar  1 <1>   0.1900 
  3 C       -2.9760    -0.6190    -0.7710 C.ar  1 <1>   0.1600 
  4 C       -2.4770    -2.9280    -0.6920 C.ar  1 <1>   0.1600 
  5 N       -4.1560    -0.8470    -0.2380 N.ar  1 <1>  -0.6200 
  6 N       -3.6550    -3.1790    -0.1570 N.ar  1 <1>  -0.6200 
  7 C       -4.4430    -2.1170     0.0550 C.ar  1 <1>   0.7200 
  8 N       -5.6750    -2.3610     0.6150 N.pl3 1 <1>  -0.8380 
  9 C       -5.9850    -3.6650     1.2690 C.3   1 <1>   0.2090 
 10 C       -6.8920    -1.6850     0.0810 C.3   1 <1>   0.2090 
 11 C       -6.5790    -4.6230     0.2060 C.3   1 <1>   0.4230 
 12 C       -7.5430    -2.6100    -0.9590 C.3   1 <1>  -0.1600 
 13 N       -6.8290    -6.0280     0.6860 N.4   1 <1>  -0.9590 
 14 C       -7.8760    -4.0160    -0.3770 C.3   1 <1>  -0.1060 
 15 C       -7.2750    -6.9190    -0.4150 C.3   1 <1>   0.3430 
 16 C       -5.7330    -6.6220     1.4940 C.3   1 <1>   0.2630 
 17 C       -8.9180    -3.9030     0.7520 C.2   1 <1>   0.9060 
 18 C       -8.4010    -4.9180    -1.5200 C.3   1 <1>  -0.1600 
 19 C       -8.5530    -6.3760    -1.0590 C.3   1 <1>  -0.1600 
 20 O       -8.8920    -4.7300     1.6790 O.co2 1 <1>  -0.9000 
 21 O       -9.7550    -3.0030     0.7160 O.co2 1 <1>  -0.9000 
 22 H       -2.7020     0.3920    -1.0170 H     1 <1>   0.1500 
 23 H       -1.8020    -3.7440    -0.8780 H     1 <1>   0.1500 
 24 H       -5.0840    -4.0710     1.6910 H     1 <1>   0.0800 
 25 H       -6.6830    -3.5000     2.0710 H     1 <1>   0.0800 
 26 H       -7.5790    -1.4880     0.8890 H     1 <1>   0.0800 
 27 H       -6.6450    -0.7410    -0.3730 H     1 <1>   0.0800 
 28 H       -5.8540    -4.6730    -0.5880 H     1 <1>   0.0800 
 29 H       -8.4460    -2.1420    -1.3120 H     1 <1>   0.0800 
 30 H       -6.8760    -2.6960    -1.7980 H     1 <1>   0.0800 
 31 H       -7.6730    -5.8720     1.3020 H     1 <1>   0.4500 
 32 H       -6.4990    -6.9890    -1.1590 H     1 <1>   0.0800 
 33 H       -7.4690    -7.9060    -0.0280 H     1 <1>   0.0800 
 34 H       -4.8260    -6.6730     0.9140 H     1 <1>   0.0800 
 35 H       -6.0050    -7.6160     1.8110 H     1 <1>   0.0800 
 36 H       -5.5550    -6.0250     2.3730 H     1 <1>   0.0800 
 37 H       -9.3560    -4.5460    -1.8540 H     1 <1>   0.0800 
 38 H       -7.7230    -4.8810    -2.3540 H     1 <1>   0.0800 
 39 H       -8.8130    -6.9910    -1.9020 H     1 <1>   0.0800 
 40 H       -9.3610    -6.4510    -0.3510 H     1 <1>   0.0800 
@<TRIPOS>BOND
  1   1   2  1   
  2   2   3  ar  
  3   2   4  ar  
  4   3   5  ar  
  5   3  22  1   
  6   4   6  ar  
  7   4  23  1   
  8   5   7  ar  
  9   6   7  ar  
 10   7   8  1   
 11   8   9  1   
 12   8  10  1   
 13   9  11  1   
 14   9  24  1   
 15   9  25  1   
 16  10  12  1   
 17  10  26  1   
 18  10  27  1   
 19  11  13  1   
 20  11  14  1   
 21  11  28  1   
 22  12  14  1   
 23  12  29  1   
 24  12  30  1   
 25  13  15  1   
 26  13  16  1   
 27  13  31  1   
 28  14  17  1   
 29  14  18  1   
 30  15  19  1   
 31  15  32  1   
 32  15  33  1   
 33  16  34  1   
 34  16  35  1   
 35  16  36  1   
 36  17  20  ar  
 37  17  21  ar  
 38  18  19  1   
 39  18  37  1   
 40  18  38  1   
 41  19  39  1   
 42  19  40  1   
@<TRIPOS>SUBSTRUCTURE
  1 ****  11 GROUP 4 **** **** 0

# MOE 2024.06 (io_trps.svl 2023.06)
