@<TRIPOS>MOLECULE
NONAME
44 46 1 0 0 
SMALL
USER_CHARGES


@<TRIPOS>ATOM
  1 O       -0.2890     1.1770    -0.8520 O.co2 1 <1>  -0.9000 
  2 C       -0.3290     1.7670     0.2400 C.2   1 <1>   0.9060 
  3 O        0.5400     1.6350     1.1040 O.co2 1 <1>  -0.9000 
  4 C       -1.6490     2.4930     0.5970 C.3   1 <1>   0.4600 
  5 N       -2.8630     1.6960     0.1420 N.4   1 <1>  -0.9590 
  6 C       -1.7480     3.8990     0.0040 C.ar  1 <1>  -0.1430 
  7 C       -4.1560     2.4110     0.2900 C.3   1 <1>   0.3430 
  8 C       -2.8230     0.3390     0.7500 C.3   1 <1>   0.3430 
  9 C       -2.1530     4.9540     0.8090 C.ar  1 <1>  -0.1500 
 10 C       -1.4630     4.1430    -1.3340 C.ar  1 <1>  -0.1500 
 11 C       -5.2820     1.5580    -0.2870 C.3   1 <1>  -0.1600 
 12 C       -3.9540    -0.5180     0.1870 C.3   1 <1>  -0.1600 
 13 C       -2.2920     6.2310     0.2930 C.ar  1 <1>   0.0830 
 14 C       -1.5930     5.4180    -1.8560 C.ar  1 <1>  -0.1500 
 15 C       -5.3180     0.1630     0.3510 C.3   1 <1>   0.1000 
 16 O       -2.7080     7.1910     1.1540 O.3   1 <1>  -0.3630 
 17 C       -2.0090     6.4630    -1.0500 C.ar  1 <1>  -0.1500 
 18 C       -6.4060    -0.7010    -0.2690 C.2   1 <1>  -0.3320 
 19 C       -2.7480     8.5490     0.7720 C.3   1 <1>   0.0400 
 20 N       -6.8090    -1.8770     0.2650 N.pl3 1 <1>   0.3000 
 21 C       -7.1510    -0.5200    -1.3840 C.2   1 <1>  -0.1500 
 22 N       -7.7780    -2.4530    -0.4660 N.2   1 <1>  -0.7070 
 23 C       -7.9790    -1.6340    -1.4510 C.2   1 <1>   0.1390 
 24 H       -1.6620     2.5770     1.6680 H     1 <1>   0.0800 
 25 H       -2.6410     1.5540    -0.8580 H     1 <1>   0.4500 
 26 H       -4.1190     3.3550    -0.2310 H     1 <1>   0.0800 
 27 H       -4.3440     2.6080     1.3330 H     1 <1>   0.0800 
 28 H       -2.9210     0.4180     1.8210 H     1 <1>   0.0800 
 29 H       -1.8770    -0.1350     0.5320 H     1 <1>   0.0800 
 30 H       -2.3660     4.8030     1.8520 H     1 <1>   0.1500 
 31 H       -1.1280     3.3440    -1.9780 H     1 <1>   0.1500 
 32 H       -5.1420     1.4770    -1.3510 H     1 <1>   0.0800 
 33 H       -6.2210     2.0540    -0.1160 H     1 <1>   0.0800 
 34 H       -3.9520    -1.4660     0.6930 H     1 <1>   0.0800 
 35 H       -3.7620    -0.7100    -0.8550 H     1 <1>   0.0800 
 36 H       -1.3640     5.5950    -2.8930 H     1 <1>   0.1500 
 37 H       -5.5320     0.2760     1.4010 H     1 <1>   0.0800 
 38 H       -2.1030     7.4410    -1.4810 H     1 <1>   0.1500 
 39 H       -3.0520     9.1270     1.6250 H     1 <1>   0.0800 
 40 H       -3.4620     8.6680    -0.0230 H     1 <1>   0.0800 
 41 H       -1.7650     8.8520     0.4570 H     1 <1>   0.0800 
 42 H       -6.4510    -2.3190     1.1200 H     1 <1>   0.2700 
 43 H       -7.1460     0.2860    -2.0950 H     1 <1>   0.1500 
 44 H       -8.7060    -1.8100    -2.2270 H     1 <1>   0.1500 
@<TRIPOS>BOND
  1   1   2  ar  
  2   2   3  ar  
  3   2   4  1   
  4   4   5  1   
  5   4   6  1   
  6   4  24  1   
  7   5   7  1   
  8   5   8  1   
  9   5  25  1   
 10   6   9  ar  
 11   6  10  ar  
 12   7  11  1   
 13   7  26  1   
 14   7  27  1   
 15   8  12  1   
 16   8  28  1   
 17   8  29  1   
 18   9  13  ar  
 19   9  30  1   
 20  10  14  ar  
 21  10  31  1   
 22  11  15  1   
 23  11  32  1   
 24  11  33  1   
 25  12  15  1   
 26  12  34  1   
 27  12  35  1   
 28  13  16  1   
 29  13  17  ar  
 30  14  17  ar  
 31  14  36  1   
 32  15  18  1   
 33  15  37  1   
 34  16  19  1   
 35  17  38  1   
 36  18  20  1   
 37  18  21  2   
 38  19  39  1   
 39  19  40  1   
 40  19  41  1   
 41  20  22  1   
 42  20  42  1   
 43  21  23  1   
 44  21  43  1   
 45  22  23  2   
 46  23  44  1   
@<TRIPOS>SUBSTRUCTURE
  1 ****   7 GROUP 4 **** **** 0

# MOE 2024.06 (io_trps.svl 2023.06)
