@<TRIPOS>MOLECULE
NONAME
50 54 1 0 0 
SMALL
USER_CHARGES


@<TRIPOS>ATOM
  1 O        2.1910    -2.0430    -0.5640 O.3   1 <1>  -0.0190 
  2 N        1.5800    -3.1680    -0.8070 N.2   1 <1>  -0.4100 
  3 C        1.9010    -1.5770     0.6210 C.2   1 <1>   0.0550 
  4 C        0.8840    -3.4290     0.2450 C.2   1 <1>   0.1080 
  5 C        1.0520    -2.4340     1.2070 C.2   1 <1>  -0.1500 
  6 C        2.5130    -0.2720     1.0920 C.3   1 <1>  -0.0150 
  7 C       -0.0010    -4.6610     0.3840 C.3   1 <1>   0.5240 
  8 C        1.8350     0.5810     2.1160 C.3   1 <1>  -0.2000 
  9 C        1.9070     1.0320     0.6840 C.3   1 <1>  -0.2000 
 10 N       -0.4900    -5.0860    -0.9640 N.4   1 <1>  -0.9590 
 11 C       -1.4950    -4.1070    -1.4850 C.3   1 <1>   0.3430 
 12 C       -1.1580    -6.4210    -0.9160 C.3   1 <1>   0.3430 
 13 C       -2.8600    -4.7260    -1.1710 C.3   1 <1>   0.2000 
 14 C       -2.5960    -6.2130    -1.4090 C.3   1 <1>  -0.0800 
 15 O       -3.1370    -4.5090     0.1780 O.3   1 <1>  -0.6800 
 16 C       -3.6210    -7.1970    -0.8070 C.3   1 <1>  -0.0170 
 17 C       -3.1090    -8.6270    -0.9370 C.ar  1 <1>  -0.1440 
 18 C       -2.3870    -9.2900     0.0880 C.ar  1 <1>   0.0000 
 19 C       -3.3250    -9.3090    -2.0990 C.ar  1 <1>  -0.1500 
 20 C       -1.9000   -10.5910    -0.1930 C.ar  1 <1>   0.3100 
 21 C       -2.1160    -8.7510     1.3690 C.ar  1 <1>  -0.1500 
 22 C       -2.8170   -10.6020    -2.2650 C.ar  1 <1>   0.1600 
 23 N       -2.1200   -11.2250    -1.3710 N.ar  1 <1>  -0.6200 
 24 C       -1.1510   -11.2660     0.7830 C.ar  1 <1>  -0.1500 
 25 C       -1.3860    -9.4380     2.3010 C.ar  1 <1>  -0.1500 
 26 C       -0.8920   -10.7100     2.0050 C.ar  1 <1>  -0.1500 
 27 H        0.6040    -2.3760     2.1820 H     1 <1>   0.1500 
 28 H        3.5890    -0.3200     1.1240 H     1 <1>   0.1000 
 29 H       -0.8360    -4.4420     1.0290 H     1 <1>   0.0800 
 30 H        0.5800    -5.4520     0.8290 H     1 <1>   0.0800 
 31 H        0.8770     0.2860     2.5070 H     1 <1>   0.1000 
 32 H        2.4400     1.0880     2.8470 H     1 <1>   0.1000 
 33 H        2.5630     1.8440     0.4250 H     1 <1>   0.1000 
 34 H        1.0090     1.0200     0.0900 H     1 <1>   0.1000 
 35 H        0.3410    -5.0740    -1.5780 H     1 <1>   0.4500 
 36 H       -1.3910    -3.1310    -1.0390 H     1 <1>   0.0800 
 37 H       -1.3860    -4.0170    -2.5530 H     1 <1>   0.0800 
 38 H       -0.6450    -7.1430    -1.5320 H     1 <1>   0.0800 
 39 H       -1.1750    -6.7840     0.0980 H     1 <1>   0.0800 
 40 H       -3.6530    -4.3120    -1.7710 H     1 <1>   0.0800 
 41 H       -2.5800    -6.3780    -2.4730 H     1 <1>   0.0800 
 42 H       -4.0980    -4.5930     0.3580 H     1 <1>   0.4000 
 43 H       -4.5500    -7.1050    -1.3440 H     1 <1>   0.0800 
 44 H       -3.8430    -6.9700     0.2180 H     1 <1>   0.0800 
 45 H       -3.8800    -8.8810    -2.9150 H     1 <1>   0.1500 
 46 H       -2.4960    -7.7850     1.6390 H     1 <1>   0.1500 
 47 H       -3.0120   -11.1070    -3.1970 H     1 <1>   0.1500 
 48 H       -0.7890   -12.2480     0.5370 H     1 <1>   0.1500 
 49 H       -1.1890    -9.0200     3.2740 H     1 <1>   0.1500 
 50 H       -0.3190   -11.2430     2.7450 H     1 <1>   0.1500 
@<TRIPOS>BOND
  1   1   2  1   
  2   1   3  1   
  3   2   4  2   
  4   3   5  2   
  5   3   6  1   
  6   4   5  1   
  7   4   7  1   
  8   5  27  1   
  9   6   8  1   
 10   6   9  1   
 11   6  28  1   
 12   7  10  1   
 13   7  29  1   
 14   7  30  1   
 15   8   9  1   
 16   8  31  1   
 17   8  32  1   
 18   9  33  1   
 19   9  34  1   
 20  10  11  1   
 21  10  12  1   
 22  10  35  1   
 23  11  13  1   
 24  11  36  1   
 25  11  37  1   
 26  12  14  1   
 27  12  38  1   
 28  12  39  1   
 29  13  14  1   
 30  13  15  1   
 31  13  40  1   
 32  14  16  1   
 33  14  41  1   
 34  15  42  1   
 35  16  17  1   
 36  16  43  1   
 37  16  44  1   
 38  17  18  ar  
 39  17  19  ar  
 40  18  20  ar  
 41  18  21  ar  
 42  19  22  ar  
 43  19  45  1   
 44  20  23  ar  
 45  20  24  ar  
 46  21  25  ar  
 47  21  46  1   
 48  22  23  ar  
 49  22  47  1   
 50  24  26  ar  
 51  24  48  1   
 52  25  26  ar  
 53  25  49  1   
 54  26  50  1   
@<TRIPOS>SUBSTRUCTURE
  1 ****  12 GROUP 4 **** **** 0

# MOE 2024.06 (io_trps.svl 2023.06)
