@<TRIPOS>MOLECULE
NONAME
48 49 1 0 0 
SMALL
USER_CHARGES


@<TRIPOS>ATOM
  1 F       -5.9510    -0.6370     1.1200 F     1 <1>  -0.1900 
  2 C       -5.2590     0.3030     0.5220 C.ar  1 <1>   0.1900 
  3 C       -4.2970    -0.0650    -0.4190 C.ar  1 <1>   0.1170 
  4 C       -5.5230     1.6150     0.8600 C.ar  1 <1>  -0.1500 
  5 N       -4.0870    -1.4260    -0.7120 N.am  1 <1>  -0.5470 
  6 C       -3.5890     0.9680    -1.0280 C.ar  1 <1>  -0.1500 
  7 C       -4.8020     2.6200     0.2390 C.ar  1 <1>  -0.1500 
  8 C       -3.1620    -2.1010    -1.4540 C.2   1 <1>   0.5690 
  9 C       -3.8380     2.2920    -0.7030 C.ar  1 <1>  -0.1500 
 10 O       -2.2590    -1.5780    -2.0610 O.2   1 <1>  -0.5700 
 11 C       -3.3090    -3.6240    -1.5030 C.3   1 <1>   0.1710 
 12 N       -4.0680    -4.1930    -0.3460 N.3   1 <1>  -0.8100 
 13 C       -4.5380    -5.5600    -0.6230 C.3   1 <1>   0.1100 
 14 C       -3.2540    -4.1510     0.8950 C.3   1 <1>   0.1100 
 15 C       -5.6250    -5.9800     0.4040 C.3   1 <1>   0.0000 
 16 C       -3.8020    -5.0800     1.9920 C.3   1 <1>  -0.1600 
 17 C       -5.2960    -5.3350     1.7880 C.3   1 <1>   0.2000 
 18 C       -6.9920    -5.3810    -0.0140 C.3   1 <1>   0.1200 
 19 C       -5.7550    -7.5370     0.4290 C.3   1 <1>  -0.1600 
 20 O       -5.7770    -6.0910     2.8420 O.3   1 <1>  -0.6800 
 21 O       -7.4040    -5.8240    -1.2670 O.3   1 <1>  -0.6800 
 22 C       -4.5390    -8.3460     0.9260 C.3   1 <1>  -0.1600 
 23 C       -4.8480    -9.8450     0.9090 C.3   1 <1>  -0.2400 
 24 H       -6.2760     1.8440     1.5930 H     1 <1>   0.1500 
 25 H       -4.7140    -2.0750    -0.2220 H     1 <1>   0.3700 
 26 H       -2.8380     0.7460    -1.7630 H     1 <1>   0.1500 
 27 H       -4.9880     3.6520     0.4850 H     1 <1>   0.1500 
 28 H       -3.2770     3.0730    -1.1870 H     1 <1>   0.1500 
 29 H       -2.3310    -4.0680    -1.5600 H     1 <1>   0.0800 
 30 H       -3.8270    -3.8540    -2.4160 H     1 <1>   0.0800 
 31 H       -4.9330    -5.6260    -1.6210 H     1 <1>   0.0800 
 32 H       -3.6930    -6.2230    -0.5770 H     1 <1>   0.0800 
 33 H       -2.2350    -4.4300     0.6850 H     1 <1>   0.0800 
 34 H       -3.2450    -3.1400     1.2670 H     1 <1>   0.0800 
 35 H       -3.6350    -4.6240     2.9520 H     1 <1>   0.0800 
 36 H       -3.2570    -6.0040     1.9640 H     1 <1>   0.0800 
 37 H       -5.7820    -4.3760     1.8610 H     1 <1>   0.0800 
 38 H       -6.9450    -4.3050    -0.0460 H     1 <1>   0.0800 
 39 H       -7.7500    -5.6690     0.6960 H     1 <1>   0.0800 
 40 H       -6.6100    -7.8000     1.0300 H     1 <1>   0.0800 
 41 H       -5.9810    -7.8720    -0.5690 H     1 <1>   0.0800 
 42 H       -5.5410    -7.0270     2.7010 H     1 <1>   0.4000 
 43 H       -6.9180    -5.3510    -1.9690 H     1 <1>   0.4000 
 44 H       -3.6850    -8.1710     0.2980 H     1 <1>   0.0800 
 45 H       -4.2750    -8.0710     1.9310 H     1 <1>   0.0800 
 46 H       -5.0860   -10.1700    -0.0890 H     1 <1>   0.0800 
 47 H       -5.6810   -10.0680     1.5520 H     1 <1>   0.0800 
 48 H       -3.9940   -10.4030     1.2530 H     1 <1>   0.0800 
@<TRIPOS>BOND
  1   1   2  1   
  2   2   3  ar  
  3   2   4  ar  
  4   3   5  1   
  5   3   6  ar  
  6   4   7  ar  
  7   4  24  1   
  8   5   8  am  
  9   5  25  1   
 10   6   9  ar  
 11   6  26  1   
 12   7   9  ar  
 13   7  27  1   
 14   8  10  2   
 15   8  11  1   
 16   9  28  1   
 17  11  12  1   
 18  11  29  1   
 19  11  30  1   
 20  12  13  1   
 21  12  14  1   
 22  13  15  1   
 23  13  31  1   
 24  13  32  1   
 25  14  16  1   
 26  14  33  1   
 27  14  34  1   
 28  15  17  1   
 29  15  18  1   
 30  15  19  1   
 31  16  17  1   
 32  16  35  1   
 33  16  36  1   
 34  17  20  1   
 35  17  37  1   
 36  18  21  1   
 37  18  38  1   
 38  18  39  1   
 39  19  22  1   
 40  19  40  1   
 41  19  41  1   
 42  20  42  1   
 43  21  43  1   
 44  22  23  1   
 45  22  44  1   
 46  22  45  1   
 47  23  46  1   
 48  23  47  1   
 49  23  48  1   
@<TRIPOS>SUBSTRUCTURE
  1 ****  12 GROUP 4 **** **** 0

# MOE 2024.06 (io_trps.svl 2023.06)
