@<TRIPOS>MOLECULE
NONAME
48 49 1 0 0 
SMALL
USER_CHARGES


@<TRIPOS>ATOM
  1 S        0.3460     0.0500     0.5040 S.3   1 <1>  -0.4600 
  2 C       -1.0990    -0.8720    -0.0910 C.3   1 <1>   0.2140 
  3 C        0.3580     1.5250    -0.5470 C.3   1 <1>   0.0700 
  4 C       -1.2590    -2.1210     0.7590 C.ar  1 <1>  -0.1440 
  5 C        1.6030     2.3390    -0.1990 C.3   1 <1>  -0.0990 
  6 C       -0.4150    -3.2050     0.5710 C.ar  1 <1>  -0.1500 
  7 C       -2.2510    -2.1920     1.7250 C.ar  1 <1>  -0.1500 
  8 C        1.6370     3.6280    -0.9870 C.2   1 <1>   0.5690 
  9 C       -0.5650    -4.3500     1.3350 C.ar  1 <1>  -0.1500 
 10 C       -2.4020    -3.3360     2.4890 C.ar  1 <1>  -0.1500 
 11 O        1.4650     3.5930    -2.1810 O.2   1 <1>  -0.5700 
 12 N        1.8610     4.7870    -0.3260 N.am  1 <1>  -0.7300 
 13 C       -1.5600    -4.4160     2.2940 C.ar  1 <1>  -0.1500 
 14 C        1.9840     6.1140    -0.9570 C.3   1 <1>   0.2840 
 15 C        3.3290     6.7130    -0.5730 C.ar  1 <1>  -0.1430 
 16 C        3.4390     7.4560     0.6030 C.ar  1 <1>   0.3930 
 17 C        4.4530     6.5370    -1.3610 C.ar  1 <1>  -0.1430 
 18 O        2.3310     7.5950     1.3690 O.3   1 <1>  -0.3630 
 19 N        4.5600     8.0300     1.0280 N.ar  1 <1>  -0.6200 
 20 C        5.6160     7.1350    -0.9180 C.ar  1 <1>  -0.1500 
 21 C        4.4500     5.7300    -2.6520 C.3   1 <1>  -0.0970 
 22 C        2.3590     8.3500     2.5650 C.3   1 <1>   0.0400 
 23 C        5.6190     7.8600     0.2610 C.ar  1 <1>   0.1670 
 24 C        6.8930     8.5170     0.7460 C.3   1 <1>  -0.0970 
 25 H       -0.9210    -1.1210    -1.1220 H     1 <1>   0.0800 
 26 H       -1.9520    -0.2230    -0.0090 H     1 <1>   0.0800 
 27 H       -0.5450     2.0760    -0.3460 H     1 <1>   0.0800 
 28 H        0.3760     1.1990    -1.5730 H     1 <1>   0.0800 
 29 H        2.4820     1.7690    -0.4360 H     1 <1>   0.0800 
 30 H        1.6060     2.5540     0.8540 H     1 <1>   0.0800 
 31 H        0.3660    -3.1570    -0.1680 H     1 <1>   0.1500 
 32 H       -2.9090    -1.3560     1.8880 H     1 <1>   0.1500 
 33 H        0.0940    -5.1860     1.1840 H     1 <1>   0.1500 
 34 H       -3.1740    -3.3850     3.2380 H     1 <1>   0.1500 
 35 H        2.0650     4.7860     0.6750 H     1 <1>   0.3700 
 36 H       -1.6760    -5.3050     2.8880 H     1 <1>   0.1500 
 37 H        1.1790     6.7440    -0.6210 H     1 <1>   0.0800 
 38 H        1.8970     6.0290    -2.0260 H     1 <1>   0.0800 
 39 H        6.5220     7.0380    -1.4880 H     1 <1>   0.1500 
 40 H        4.0400     4.7510    -2.4780 H     1 <1>   0.0800 
 41 H        5.4480     5.6100    -3.0350 H     1 <1>   0.0800 
 42 H        3.8580     6.2270    -3.3990 H     1 <1>   0.0800 
 43 H        1.3770     8.3310     3.0020 H     1 <1>   0.0800 
 44 H        2.6410     9.3610     2.3310 H     1 <1>   0.0800 
 45 H        3.0740     7.9080     3.2380 H     1 <1>   0.0800 
 46 H        7.1500     8.1290     1.7150 H     1 <1>   0.0800 
 47 H        6.7400     9.5780     0.8290 H     1 <1>   0.0800 
 48 H        7.7080     8.3350     0.0710 H     1 <1>   0.0800 
@<TRIPOS>BOND
  1   1   2  1   
  2   1   3  1   
  3   2   4  1   
  4   2  25  1   
  5   2  26  1   
  6   3   5  1   
  7   3  27  1   
  8   3  28  1   
  9   4   6  ar  
 10   4   7  ar  
 11   5   8  1   
 12   5  29  1   
 13   5  30  1   
 14   6   9  ar  
 15   6  31  1   
 16   7  10  ar  
 17   7  32  1   
 18   8  11  2   
 19   8  12  am  
 20   9  13  ar  
 21   9  33  1   
 22  10  13  ar  
 23  10  34  1   
 24  12  14  1   
 25  12  35  1   
 26  13  36  1   
 27  14  15  1   
 28  14  37  1   
 29  14  38  1   
 30  15  16  ar  
 31  15  17  ar  
 32  16  18  1   
 33  16  19  ar  
 34  17  20  ar  
 35  17  21  1   
 36  18  22  1   
 37  19  23  ar  
 38  20  23  ar  
 39  20  39  1   
 40  21  40  1   
 41  21  41  1   
 42  21  42  1   
 43  22  43  1   
 44  22  44  1   
 45  22  45  1   
 46  23  24  1   
 47  24  46  1   
 48  24  47  1   
 49  24  48  1   
@<TRIPOS>SUBSTRUCTURE
  1 ****   5 GROUP 4 **** **** 0

# MOE 2024.06 (io_trps.svl 2023.06)
