@<TRIPOS>MOLECULE
NONAME
49 51 1 0 0 
SMALL
USER_CHARGES


@<TRIPOS>ATOM
  1 S       -0.1960    -0.6160    -0.8390 S.o2  1 <1>   1.3330 
  2 O        0.0770     0.7920    -0.7170 O.2   1 <1>  -0.6500 
  3 O       -0.5250    -1.2030    -2.1120 O.2   1 <1>  -0.6500 
  4 N        1.2400    -1.3250    -0.4310 N.am  1 <1>  -0.9780 
  5 C       -1.3490    -1.1540     0.4300 C.3   1 <1>  -0.0550 
  6 C       -1.5630    -2.6780     0.4720 C.3   1 <1>  -0.1600 
  7 C       -2.6480    -3.0710     1.4880 C.3   1 <1>  -0.0990 
  8 C       -2.8550    -4.5760     1.5470 C.2   1 <1>   0.5690 
  9 O       -2.3460    -5.1780     2.4610 O.2   1 <1>  -0.5700 
 10 N       -3.5880    -5.2220     0.5910 N.am  1 <1>  -0.6600 
 11 C       -4.2760    -4.6260    -0.5840 C.3   1 <1>   0.1400 
 12 C       -3.7890    -6.6920     0.6110 C.3   1 <1>   0.1400 
 13 C       -5.2780    -5.6960    -1.0130 C.3   1 <1>   0.2000 
 14 C       -4.5680    -7.0130    -0.6730 C.3   1 <1>  -0.0800 
 15 O       -6.4120    -5.5570    -0.2250 O.3   1 <1>  -0.6800 
 16 C       -5.5060    -8.2340    -0.5560 C.3   1 <1>  -0.0170 
 17 C       -4.8390    -9.6030    -0.3710 C.ar  1 <1>  -0.1430 
 18 C       -5.6370   -10.7360    -0.0760 C.ar  1 <1>   0.0000 
 19 C       -3.4920    -9.8110    -0.4860 C.ar  1 <1>  -0.1500 
 20 C       -4.9870   -11.9830     0.1010 C.ar  1 <1>   0.3100 
 21 C       -7.0470   -10.7090     0.0480 C.ar  1 <1>  -0.1500 
 22 C       -2.9500   -11.0880    -0.2950 C.ar  1 <1>   0.1600 
 23 N       -3.6450   -12.1410    -0.0100 N.ar  1 <1>  -0.6200 
 24 C       -5.7560   -13.1180     0.4030 C.ar  1 <1>  -0.1500 
 25 C       -7.7680   -11.8340     0.3410 C.ar  1 <1>  -0.1500 
 26 C       -7.1170   -13.0560     0.5230 C.ar  1 <1>  -0.1500 
 27 H        1.8650    -0.5350    -0.2870 H     1 <1>   0.4200 
 28 H        1.5440    -1.7660    -1.2970 H     1 <1>   0.4200 
 29 H       -0.9940    -0.8240     1.3880 H     1 <1>   0.0800 
 30 H       -2.2930    -0.6770     0.2520 H     1 <1>   0.0800 
 31 H       -1.8420    -3.0230    -0.5080 H     1 <1>   0.0800 
 32 H       -0.6370    -3.1610     0.7380 H     1 <1>   0.0800 
 33 H       -3.5800    -2.5930     1.2510 H     1 <1>   0.0800 
 34 H       -2.3550    -2.7380     2.4670 H     1 <1>   0.0800 
 35 H       -4.7680    -3.6990    -0.3480 H     1 <1>   0.0800 
 36 H       -3.5570    -4.4690    -1.3690 H     1 <1>   0.0800 
 37 H       -2.8400    -7.1990     0.6460 H     1 <1>   0.0800 
 38 H       -4.3600    -6.9560     1.4860 H     1 <1>   0.0800 
 39 H       -5.5670    -5.6170    -2.0470 H     1 <1>   0.0800 
 40 H       -3.8590    -7.1940    -1.4610 H     1 <1>   0.0800 
 41 H       -6.1350    -5.4950     0.7120 H     1 <1>   0.4000 
 42 H       -6.1150    -8.2780    -1.4420 H     1 <1>   0.0800 
 43 H       -6.1640    -8.0690     0.2790 H     1 <1>   0.0800 
 44 H       -2.7980    -9.0290    -0.7240 H     1 <1>   0.1500 
 45 H       -7.5760    -9.7840    -0.0920 H     1 <1>   0.1500 
 46 H       -1.8830   -11.1990    -0.3910 H     1 <1>   0.1500 
 47 H       -5.2330   -14.0470     0.5360 H     1 <1>   0.1500 
 48 H       -8.8400   -11.7950     0.4330 H     1 <1>   0.1500 
 49 H       -7.6940   -13.9350     0.7540 H     1 <1>   0.1500 
@<TRIPOS>BOND
  1   1   2  2   
  2   1   3  2   
  3   1   4  am  
  4   1   5  1   
  5   4  27  1   
  6   4  28  1   
  7   5   6  1   
  8   5  29  1   
  9   5  30  1   
 10   6   7  1   
 11   6  31  1   
 12   6  32  1   
 13   7   8  1   
 14   7  33  1   
 15   7  34  1   
 16   8   9  2   
 17   8  10  am  
 18  10  11  1   
 19  10  12  1   
 20  11  13  1   
 21  11  35  1   
 22  11  36  1   
 23  12  14  1   
 24  12  37  1   
 25  12  38  1   
 26  13  14  1   
 27  13  15  1   
 28  13  39  1   
 29  14  16  1   
 30  14  40  1   
 31  15  41  1   
 32  16  17  1   
 33  16  42  1   
 34  16  43  1   
 35  17  18  ar  
 36  17  19  ar  
 37  18  20  ar  
 38  18  21  ar  
 39  19  22  ar  
 40  19  44  1   
 41  20  23  ar  
 42  20  24  ar  
 43  21  25  ar  
 44  21  45  1   
 45  22  23  ar  
 46  22  46  1   
 47  24  26  ar  
 48  24  47  1   
 49  25  26  ar  
 50  25  48  1   
 51  26  49  1   
@<TRIPOS>SUBSTRUCTURE
  1 ****  12 GROUP 4 **** **** 0

# MOE 2024.06 (io_trps.svl 2023.06)
