@<TRIPOS>MOLECULE
NONAME
58 60 1 0 0 
SMALL
USER_CHARGES


@<TRIPOS>ATOM
  1 O        4.1890     3.2630     0.0030 O.co2 1 <1>  -0.9000 
  2 C        3.8170     3.7940    -1.0460 C.2   1 <1>   0.9060 
  3 O        4.6250     4.2770    -1.8410 O.co2 1 <1>  -0.9000 
  4 C        2.3460     4.0560    -1.2250 C.3   1 <1>  -0.1860 
  5 C        2.0110     4.9440    -0.0410 C.3   1 <1>   0.3430 
  6 C        1.4990     2.7680    -1.2450 C.3   1 <1>  -0.1600 
  7 N        0.5520     5.2270     0.0460 N.4   1 <1>  -0.9590 
  8 C        0.0100     3.1070    -1.0990 C.3   1 <1>  -0.1600 
  9 C       -0.2400     3.9710     0.1390 C.3   1 <1>   0.3430 
 10 C        0.3100     6.1320     1.1980 C.3   1 <1>   0.4860 
 11 C        0.6530     7.5570     0.8070 C.ar  1 <1>  -0.1430 
 12 C        1.8900     8.1100     1.1290 C.ar  1 <1>   0.0830 
 13 C       -0.2930     8.3240     0.1430 C.ar  1 <1>  -0.1500 
 14 O        2.7930     7.3100     1.7510 O.3   1 <1>  -0.3630 
 15 C        2.1610     9.4330     0.7900 C.ar  1 <1>  -0.1500 
 16 C       -0.0140     9.6360    -0.1980 C.ar  1 <1>  -0.1500 
 17 C        3.8770     7.8080     2.5290 C.3   1 <1>   0.1200 
 18 C        1.2110    10.1890     0.1280 C.ar  1 <1>  -0.1500 
 19 C        4.9010     6.6790     2.7440 C.3   1 <1>   0.1100 
 20 N        5.8480     6.4160     1.6210 N.3   1 <1>  -0.8100 
 21 C        6.3000     4.9930     1.6900 C.3   1 <1>   0.1100 
 22 C        5.3220     6.6910     0.2630 C.3   1 <1>   0.1100 
 23 C        6.9430     4.4420     0.3940 C.3   1 <1>   0.3430 
 24 C        6.3600     6.4600    -0.8590 C.3   1 <1>   0.3430 
 25 N        7.4770     5.5310    -0.4800 N.4   1 <1>  -0.9590 
 26 C        8.0620     4.9360    -1.7100 C.3   1 <1>   0.2630 
 27 H        2.2120     4.6040    -2.1380 H     1 <1>   0.0800 
 28 H        2.5540     5.8680    -0.1370 H     1 <1>   0.0800 
 29 H        2.3430     4.4560     0.8630 H     1 <1>   0.0800 
 30 H        1.6740     2.2320    -2.1630 H     1 <1>   0.0800 
 31 H        1.8020     2.1290    -0.4320 H     1 <1>   0.0800 
 32 H        0.2930     5.7310    -0.8100 H     1 <1>   0.4500 
 33 H       -0.5520     2.1940    -1.0110 H     1 <1>   0.0800 
 34 H       -0.3390     3.6220    -1.9770 H     1 <1>   0.0800 
 35 H        0.0540     3.4210     1.0200 H     1 <1>   0.0800 
 36 H       -1.2910     4.1990     0.2120 H     1 <1>   0.0800 
 37 H       -0.7280     6.0940     1.4830 H     1 <1>   0.0800 
 38 H        0.9040     5.8270     2.0440 H     1 <1>   0.0800 
 39 H       -1.2570     7.9180    -0.1120 H     1 <1>   0.1500 
 40 H        3.1000     9.8970     1.0190 H     1 <1>   0.1500 
 41 H       -0.7500    10.2310    -0.7130 H     1 <1>   0.1500 
 42 H        4.3550     8.6380     2.0470 H     1 <1>   0.0800 
 43 H        3.4730     8.1290     3.4720 H     1 <1>   0.0800 
 44 H        1.4240    11.2110    -0.1360 H     1 <1>   0.1500 
 45 H        4.3480     5.7880     2.9890 H     1 <1>   0.0800 
 46 H        5.4940     6.9270     3.6080 H     1 <1>   0.0800 
 47 H        7.0040     4.8950     2.4960 H     1 <1>   0.0800 
 48 H        5.4670     4.3480     1.9150 H     1 <1>   0.0800 
 49 H        4.4840     6.0520     0.0810 H     1 <1>   0.0800 
 50 H        4.9810     7.7060     0.1820 H     1 <1>   0.0800 
 51 H        6.2080     3.8870    -0.1590 H     1 <1>   0.0800 
 52 H        7.7240     3.7500     0.6560 H     1 <1>   0.0800 
 53 H        6.7770     7.4110    -1.1410 H     1 <1>   0.0800 
 54 H        5.8420     6.0760    -1.7210 H     1 <1>   0.0800 
 55 H        8.1440     6.0680     0.0850 H     1 <1>   0.4500 
 56 H        7.2970     4.3920    -2.2450 H     1 <1>   0.0800 
 57 H        8.8560     4.2540    -1.4560 H     1 <1>   0.0800 
 58 H        8.4520     5.7070    -2.3520 H     1 <1>   0.0800 
@<TRIPOS>BOND
  1   1   2  ar  
  2   2   3  ar  
  3   2   4  1   
  4   4   5  1   
  5   4   6  1   
  6   4  27  1   
  7   5   7  1   
  8   5  28  1   
  9   5  29  1   
 10   6   8  1   
 11   6  30  1   
 12   6  31  1   
 13   7   9  1   
 14   7  10  1   
 15   7  32  1   
 16   8   9  1   
 17   8  33  1   
 18   8  34  1   
 19   9  35  1   
 20   9  36  1   
 21  10  11  1   
 22  10  37  1   
 23  10  38  1   
 24  11  12  ar  
 25  11  13  ar  
 26  12  14  1   
 27  12  15  ar  
 28  13  16  ar  
 29  13  39  1   
 30  14  17  1   
 31  15  18  ar  
 32  15  40  1   
 33  16  18  ar  
 34  16  41  1   
 35  17  19  1   
 36  17  42  1   
 37  17  43  1   
 38  18  44  1   
 39  19  20  1   
 40  19  45  1   
 41  19  46  1   
 42  20  21  1   
 43  20  22  1   
 44  21  23  1   
 45  21  47  1   
 46  21  48  1   
 47  22  24  1   
 48  22  49  1   
 49  22  50  1   
 50  23  25  1   
 51  23  51  1   
 52  23  52  1   
 53  24  25  1   
 54  24  53  1   
 55  24  54  1   
 56  25  26  1   
 57  25  55  1   
 58  26  56  1   
 59  26  57  1   
 60  26  58  1   
@<TRIPOS>SUBSTRUCTURE
  1 ****   5 GROUP 4 **** **** 0

# MOE 2024.06 (io_trps.svl 2023.06)
