@<TRIPOS>MOLECULE
NONAME
66 69 1 0 0 
SMALL
USER_CHARGES


@<TRIPOS>ATOM
  1 O        0.1780    -1.4620     0.2250 O.2   1 <1>  -0.5700 
  2 C        1.1510    -2.1430     0.4120 C.2   1 <1>   0.5690 
  3 N        1.1520    -3.1450     1.3150 N.am  1 <1>  -0.7300 
  4 C        2.4300    -1.9010    -0.3600 C.3   1 <1>  -0.0990 
  5 C        2.3300    -3.9870     1.5930 C.3   1 <1>   0.1400 
  6 C        3.0470    -3.2390    -0.8150 C.3   1 <1>  -0.0800 
  7 C        3.0350    -4.3490     0.2680 C.3   1 <1>  -0.0800 
  8 C        4.5030    -3.1020    -1.2820 C.3   1 <1>  -0.1600 
  9 C        4.5010    -4.7630     0.4570 C.3   1 <1>  -0.1600 
 10 C        5.1510    -4.4210    -0.8810 C.3   1 <1>   0.4230 
 11 N        6.6430    -4.4030    -0.8850 N.4   1 <1>  -0.9590 
 12 C        7.3590    -3.7910     0.2740 C.3   1 <1>   0.4860 
 13 C        7.1890    -5.7680    -1.1460 C.3   1 <1>   0.2630 
 14 C        7.2980    -2.2740     0.2130 C.ar  1 <1>  -0.1430 
 15 C        7.6460    -1.5740    -0.9400 C.ar  1 <1>   0.0820 
 16 C        6.8880    -1.5640     1.3320 C.ar  1 <1>  -0.1500 
 17 O        8.0470    -2.2330    -2.0490 O.3   1 <1>  -0.3620 
 18 C        7.5620    -0.1910    -0.9780 C.ar  1 <1>  -0.1500 
 19 C        6.8160    -0.1810     1.2970 C.ar  1 <1>  -0.1500 
 20 C        9.4470    -2.2590    -2.3090 C.3   1 <1>   0.1810 
 21 C        7.1500     0.5050     0.1420 C.ar  1 <1>  -0.1500 
 22 C       10.1650    -3.1400    -1.2860 C.2   1 <1>   0.5690 
 23 O       10.0050    -4.3360    -1.4030 O.2   1 <1>  -0.5700 
 24 N       10.8970    -2.6190    -0.2470 N.am  1 <1>  -0.6600 
 25 C       11.8000    -3.4800     0.5700 C.3   1 <1>   0.1400 
 26 C       10.9430    -1.1820     0.1520 C.3   1 <1>   0.1400 
 27 C       13.2420    -2.9810     0.4320 C.3   1 <1>  -0.1600 
 28 C       12.3720    -0.6550    -0.0050 C.3   1 <1>  -0.1600 
 29 C       13.3710    -1.4950     0.8060 C.3   1 <1>  -0.0800 
 30 C       14.8030    -1.0020     0.5760 C.3   1 <1>  -0.2400 
 31 H        0.3000    -3.2810     1.8650 H     1 <1>   0.3700 
 32 H        2.2210    -1.2780    -1.2110 H     1 <1>   0.0800 
 33 H        3.1020    -1.3700     0.2890 H     1 <1>   0.0800 
 34 H        2.9930    -3.4330     2.2360 H     1 <1>   0.0800 
 35 H        2.0250    -4.8820     2.1080 H     1 <1>   0.0800 
 36 H        2.4550    -3.5970    -1.6430 H     1 <1>   0.0800 
 37 H        2.5050    -5.1910    -0.1480 H     1 <1>   0.0800 
 38 H        4.9540    -2.2760    -0.7710 H     1 <1>   0.0800 
 39 H        4.5580    -2.9370    -2.3440 H     1 <1>   0.0800 
 40 H        4.5850    -5.8100     0.6900 H     1 <1>   0.0800 
 41 H        4.9220    -4.1720     1.2480 H     1 <1>   0.0800 
 42 H        4.8180    -5.1540    -1.5990 H     1 <1>   0.0800 
 43 H        6.9340    -3.7990    -1.6740 H     1 <1>   0.4500 
 44 H        6.9470    -4.1460     1.2020 H     1 <1>   0.0800 
 45 H        8.3960    -4.0840     0.2500 H     1 <1>   0.0800 
 46 H        6.9320    -6.4350    -0.3400 H     1 <1>   0.0800 
 47 H        8.2620    -5.7350    -1.2360 H     1 <1>   0.0800 
 48 H        6.7860    -6.1620    -2.0640 H     1 <1>   0.0800 
 49 H        6.6210    -2.0720     2.2430 H     1 <1>   0.1500 
 50 H        7.8120     0.3390    -1.8810 H     1 <1>   0.1500 
 51 H        6.4970     0.3650     2.1690 H     1 <1>   0.1500 
 52 H        9.5840    -2.6850    -3.2860 H     1 <1>   0.0800 
 53 H        9.8260    -1.2560    -2.3250 H     1 <1>   0.0800 
 54 H        7.0850     1.5800     0.1180 H     1 <1>   0.1500 
 55 H       11.4950    -3.4360     1.6010 H     1 <1>   0.0800 
 56 H       11.7480    -4.5070     0.2480 H     1 <1>   0.0800 
 57 H       10.2680    -0.5830    -0.4280 H     1 <1>   0.0800 
 58 H       10.6420    -1.0990     1.1830 H     1 <1>   0.0800 
 59 H       13.8790    -3.5700     1.0670 H     1 <1>   0.0800 
 60 H       13.5640    -3.1350    -0.5840 H     1 <1>   0.0800 
 61 H       12.6380    -0.6690    -1.0480 H     1 <1>   0.0800 
 62 H       12.4070     0.3680     0.3280 H     1 <1>   0.0800 
 63 H       13.1390    -1.3860     1.8530 H     1 <1>   0.0800 
 64 H       15.0770    -1.0960    -0.4610 H     1 <1>   0.0800 
 65 H       15.4950    -1.5780     1.1650 H     1 <1>   0.0800 
 66 H       14.8940     0.0310     0.8630 H     1 <1>   0.0800 
@<TRIPOS>BOND
  1   1   2  2   
  2   2   3  am  
  3   2   4  1   
  4   3   5  1   
  5   3  31  1   
  6   4   6  1   
  7   4  32  1   
  8   4  33  1   
  9   5   7  1   
 10   5  34  1   
 11   5  35  1   
 12   6   7  1   
 13   6   8  1   
 14   6  36  1   
 15   7   9  1   
 16   7  37  1   
 17   8  10  1   
 18   8  38  1   
 19   8  39  1   
 20   9  10  1   
 21   9  40  1   
 22   9  41  1   
 23  10  11  1   
 24  10  42  1   
 25  11  12  1   
 26  11  13  1   
 27  11  43  1   
 28  12  14  1   
 29  12  44  1   
 30  12  45  1   
 31  13  46  1   
 32  13  47  1   
 33  13  48  1   
 34  14  15  ar  
 35  14  16  ar  
 36  15  17  1   
 37  15  18  ar  
 38  16  19  ar  
 39  16  49  1   
 40  17  20  1   
 41  18  21  ar  
 42  18  50  1   
 43  19  21  ar  
 44  19  51  1   
 45  20  22  1   
 46  20  52  1   
 47  20  53  1   
 48  21  54  1   
 49  22  23  2   
 50  22  24  am  
 51  24  25  1   
 52  24  26  1   
 53  25  27  1   
 54  25  55  1   
 55  25  56  1   
 56  26  28  1   
 57  26  57  1   
 58  26  58  1   
 59  27  29  1   
 60  27  59  1   
 61  27  60  1   
 62  28  29  1   
 63  28  61  1   
 64  28  62  1   
 65  29  30  1   
 66  29  63  1   
 67  30  64  1   
 68  30  65  1   
 69  30  66  1   
@<TRIPOS>SUBSTRUCTURE
  1 ****  14 GROUP 4 **** **** 0

# MOE 2024.06 (io_trps.svl 2023.06)
