@<TRIPOS>MOLECULE
NONAME
57 59 1 0 0 
SMALL
USER_CHARGES


@<TRIPOS>ATOM
  1 O        0.4030    -0.2060    -0.9590 O.3   1 <1>  -0.5600 
  2 C        1.6480    -0.8570    -1.0540 C.3   1 <1>   0.2000 
  3 C        0.4290     1.1760    -1.1650 C.3   1 <1>   0.1200 
  4 C        2.6860    -0.2310    -0.0830 C.3   1 <1>   0.5660 
  5 C        1.4450    -2.3480    -0.7350 C.3   1 <1>   0.1200 
  6 C        1.3300     1.8490    -0.1160 C.3   1 <1>   0.3430 
  7 N        2.7120     1.2650    -0.1240 N.4   1 <1>  -0.9590 
  8 C        4.0960    -0.7230    -0.3830 C.ar  1 <1>  -0.1430 
  9 O        1.2730    -2.5270     0.6360 O.3   1 <1>  -0.6800 
 10 C        3.5600     1.8240     0.9600 C.3   1 <1>   0.4870 
 11 C        4.7650    -1.4650     0.5800 C.ar  1 <1>  -0.1500 
 12 C        4.7320    -0.4420    -1.5880 C.ar  1 <1>  -0.1500 
 13 C        3.8130     3.2790     0.6310 C.ar  1 <1>  -0.1430 
 14 C        6.0550    -1.9130     0.3590 C.ar  1 <1>   0.0830 
 15 C        6.0270    -0.8790    -1.8100 C.ar  1 <1>  -0.1500 
 16 C        3.1020     4.2810     1.2720 C.ar  1 <1>  -0.1500 
 17 C        4.7540     3.6170    -0.3270 C.ar  1 <1>  -0.1500 
 18 O        6.6260    -2.6500     1.3420 O.3   1 <1>  -0.3620 
 19 C        6.7030    -1.5960    -0.8400 C.ar  1 <1>   0.0830 
 20 C        3.3090     5.6140     0.9520 C.ar  1 <1>  -0.1430 
 21 C        4.9650     4.9450    -0.6500 C.ar  1 <1>  -0.1500 
 22 C        6.9490    -3.9890     1.0290 C.3   1 <1>   0.0400 
 23 O        7.9800    -1.9580    -1.1120 O.3   1 <1>  -0.3630 
 24 C        4.2460     5.9480    -0.0200 C.ar  1 <1>  -0.1430 
 25 C        2.5080     6.6860     1.6780 C.3   1 <1>  -0.0970 
 26 C        8.9900    -1.3970    -0.3020 C.3   1 <1>   0.0400 
 27 C        4.5110     7.3980    -0.4050 C.3   1 <1>  -0.0970 
 28 H        1.9810    -0.7650    -2.0720 H     1 <1>   0.0800 
 29 H        0.7730     1.3760    -2.1650 H     1 <1>   0.0800 
 30 H       -0.5800     1.5370    -1.0700 H     1 <1>   0.0800 
 31 H        2.4190    -0.5440     0.9130 H     1 <1>   0.0800 
 32 H        2.3060    -2.9210    -1.0360 H     1 <1>   0.0800 
 33 H        0.5750    -2.7220    -1.2480 H     1 <1>   0.0800 
 34 H        0.8810     1.7130     0.8540 H     1 <1>   0.0800 
 35 H        1.3780     2.9080    -0.3140 H     1 <1>   0.0800 
 36 H        3.1680     1.5370    -0.9980 H     1 <1>   0.4500 
 37 H        0.9110    -3.4190     0.8250 H     1 <1>   0.4000 
 38 H        3.0670     1.7330     1.9140 H     1 <1>   0.0800 
 39 H        4.5040     1.3060     1.0080 H     1 <1>   0.0800 
 40 H        4.2960    -1.7170     1.5160 H     1 <1>   0.1500 
 41 H        4.2420     0.1130    -2.3690 H     1 <1>   0.1500 
 42 H        6.5280    -0.6640    -2.7390 H     1 <1>   0.1500 
 43 H        2.3800     4.0330     2.0310 H     1 <1>   0.1500 
 44 H        5.3360     2.8620    -0.8290 H     1 <1>   0.1500 
 45 H        5.7000     5.1960    -1.3950 H     1 <1>   0.1500 
 46 H        7.2820    -4.4730     1.9290 H     1 <1>   0.0800 
 47 H        7.7340    -4.0070     0.2940 H     1 <1>   0.0800 
 48 H        6.0710    -4.4800     0.6490 H     1 <1>   0.0800 
 49 H        1.8310     6.2530     2.3920 H     1 <1>   0.0800 
 50 H        1.9330     7.2600     0.9740 H     1 <1>   0.0800 
 51 H        3.1720     7.3470     2.2050 H     1 <1>   0.0800 
 52 H        9.9430    -1.7000    -0.6950 H     1 <1>   0.0800 
 53 H        8.8820    -1.7530     0.7060 H     1 <1>   0.0800 
 54 H        8.9040    -0.3250    -0.3310 H     1 <1>   0.0800 
 55 H        5.2620     7.4650    -1.1710 H     1 <1>   0.0800 
 56 H        4.8560     7.9490     0.4510 H     1 <1>   0.0800 
 57 H        3.6110     7.8530    -0.7760 H     1 <1>   0.0800 
@<TRIPOS>BOND
  1   1   2  1   
  2   1   3  1   
  3   2   4  1   
  4   2   5  1   
  5   2  28  1   
  6   3   6  1   
  7   3  29  1   
  8   3  30  1   
  9   4   7  1   
 10   4   8  1   
 11   4  31  1   
 12   5   9  1   
 13   5  32  1   
 14   5  33  1   
 15   6   7  1   
 16   6  34  1   
 17   6  35  1   
 18   7  10  1   
 19   7  36  1   
 20   8  11  ar  
 21   8  12  ar  
 22   9  37  1   
 23  10  13  1   
 24  10  38  1   
 25  10  39  1   
 26  11  14  ar  
 27  11  40  1   
 28  12  15  ar  
 29  12  41  1   
 30  13  16  ar  
 31  13  17  ar  
 32  14  18  1   
 33  14  19  ar  
 34  15  19  ar  
 35  15  42  1   
 36  16  20  ar  
 37  16  43  1   
 38  17  21  ar  
 39  17  44  1   
 40  18  22  1   
 41  19  23  1   
 42  20  24  ar  
 43  20  25  1   
 44  21  24  ar  
 45  21  45  1   
 46  22  46  1   
 47  22  47  1   
 48  22  48  1   
 49  23  26  1   
 50  24  27  1   
 51  25  49  1   
 52  25  50  1   
 53  25  51  1   
 54  26  52  1   
 55  26  53  1   
 56  26  54  1   
 57  27  55  1   
 58  27  56  1   
 59  27  57  1   
@<TRIPOS>SUBSTRUCTURE
  1 ****   7 GROUP 4 **** **** 0

# MOE 2024.06 (io_trps.svl 2023.06)
