@<TRIPOS>MOLECULE
NONAME
49 51 1 0 0 
SMALL
USER_CHARGES


@<TRIPOS>ATOM
  1 S        0.8200     0.9020     1.0800 S.o2  1 <1>   1.0900 
  2 O        0.7440     0.7440     2.5130 O.2   1 <1>  -0.6500 
  3 O        0.3030    -0.0950     0.1710 O.2   1 <1>  -0.6500 
  4 C        0.1520     2.4770     0.6190 C.3   1 <1>  -0.0550 
  5 C        2.4890     1.2940     0.5890 C.3   1 <1>  -0.0550 
  6 C        1.0590     3.0260    -0.4850 C.3   1 <1>   0.1900 
  7 C        2.4940     2.6990    -0.0320 C.3   1 <1>  -0.1600 
  8 N        0.8730     4.4830    -0.6650 N.3   1 <1>  -0.8100 
  9 C        1.7260     5.0420    -1.7710 C.3   1 <1>   0.1710 
 10 C       -0.5390     4.8320    -0.9360 C.3   1 <1>   0.0300 
 11 C        1.8850     6.5680    -1.7470 C.2   1 <1>   0.5690 
 12 O        2.1720     7.1570    -2.7640 O.2   1 <1>  -0.5700 
 13 N        1.7340     7.2180    -0.5680 N.am  1 <1>  -0.7300 
 14 C        1.8830     8.6740    -0.3480 C.3   1 <1>   0.3200 
 15 C        3.3480     9.0720    -0.3740 C.2   1 <1>   0.0060 
 16 N        3.9940     9.5960     0.6110 N.2   1 <1>  -0.5650 
 17 N        4.0960     8.8990    -1.4900 N.pl3 1 <1>   0.0330 
 18 C        5.2600     9.7840     0.1270 C.ar  1 <1>   0.2270 
 19 C        5.3360     9.3510    -1.1840 C.ar  1 <1>  -0.1520 
 20 C        6.3910    10.3190     0.7600 C.ar  1 <1>  -0.1430 
 21 C        6.5240     9.4290    -1.9070 C.ar  1 <1>  -0.1500 
 22 C        7.5790    10.3910     0.0490 C.ar  1 <1>  -0.1430 
 23 C        6.2530    10.7880     2.2040 C.3   1 <1>  -0.0970 
 24 C        7.6330     9.9490    -1.2820 C.ar  1 <1>  -0.1500 
 25 C        8.8570    10.9400     0.6680 C.3   1 <1>  -0.0970 
 26 H        0.1890     3.1400     1.4630 H     1 <1>   0.0800 
 27 H       -0.8610     2.3730     0.2840 H     1 <1>   0.0800 
 28 H        2.8210     0.5760    -0.1370 H     1 <1>   0.0800 
 29 H        3.1540     1.2570     1.4320 H     1 <1>   0.0800 
 30 H        0.8440     2.5060    -1.4060 H     1 <1>   0.0800 
 31 H        3.1910     2.7280    -0.8500 H     1 <1>   0.0800 
 32 H        2.7960     3.4100     0.7200 H     1 <1>   0.0800 
 33 H        1.3210     4.7540    -2.7250 H     1 <1>   0.0800 
 34 H        2.7210     4.6490    -1.7110 H     1 <1>   0.0800 
 35 H       -1.1550     4.6160    -0.0800 H     1 <1>   0.0800 
 36 H       -0.9090     4.2820    -1.7850 H     1 <1>   0.0800 
 37 H       -0.6370     5.8850    -1.1410 H     1 <1>   0.0800 
 38 H        1.5430     6.6440     0.2580 H     1 <1>   0.3700 
 39 H        1.4570     8.9390     0.6040 H     1 <1>   0.0800 
 40 H        1.3560     9.2090    -1.1190 H     1 <1>   0.0800 
 41 H        3.7700     8.4580    -2.3590 H     1 <1>   0.2700 
 42 H        6.5620     9.0890    -2.9270 H     1 <1>   0.1500 
 43 H        5.2610    11.1650     2.3780 H     1 <1>   0.0800 
 44 H        6.9450    11.5760     2.4330 H     1 <1>   0.0800 
 45 H        6.4250     9.9610     2.8680 H     1 <1>   0.0800 
 46 H        8.5590    10.0170    -1.8240 H     1 <1>   0.1500 
 47 H        9.0130    10.5110     1.6410 H     1 <1>   0.0800 
 48 H        8.7860    12.0090     0.7610 H     1 <1>   0.0800 
 49 H        9.7120    10.7050     0.0610 H     1 <1>   0.0800 
@<TRIPOS>BOND
  1   1   2  2   
  2   1   3  2   
  3   1   4  1   
  4   1   5  1   
  5   4   6  1   
  6   4  26  1   
  7   4  27  1   
  8   5   7  1   
  9   5  28  1   
 10   5  29  1   
 11   6   7  1   
 12   6   8  1   
 13   6  30  1   
 14   7  31  1   
 15   7  32  1   
 16   8   9  1   
 17   8  10  1   
 18   9  11  1   
 19   9  33  1   
 20   9  34  1   
 21  10  35  1   
 22  10  36  1   
 23  10  37  1   
 24  11  12  2   
 25  11  13  am  
 26  13  14  1   
 27  13  38  1   
 28  14  15  1   
 29  14  39  1   
 30  14  40  1   
 31  15  16  2   
 32  15  17  1   
 33  16  18  1   
 34  17  19  1   
 35  17  41  1   
 36  18  19  ar  
 37  18  20  ar  
 38  19  21  ar  
 39  20  22  ar  
 40  20  23  1   
 41  21  24  ar  
 42  21  42  1   
 43  22  24  ar  
 44  22  25  1   
 45  23  43  1   
 46  23  44  1   
 47  23  45  1   
 48  24  46  1   
 49  25  47  1   
 50  25  48  1   
 51  25  49  1   
@<TRIPOS>SUBSTRUCTURE
  1 ****  13 GROUP 4 **** **** 0

# MOE 2024.06 (io_trps.svl 2023.06)
