@<TRIPOS>MOLECULE
NONAME
32 33 1 0 0 
SMALL
USER_CHARGES


@<TRIPOS>ATOM
  1 S        0.2880     0.0270     1.8550 S.2   1 <1>  -0.3800 
  2 C        1.5910    -0.4390     1.0540 C.2   1 <1>   0.5810 
  3 S        1.8720    -2.1610     0.9570 S.3   1 <1>  -0.3710 
  4 N        2.5570     0.2750     0.4190 N.am  1 <1>  -0.4200 
  5 C        3.3110    -2.0150    -0.1540 C.3   1 <1>   0.0700 
  6 C        2.6080     1.6300     0.1080 C.2   1 <1>   0.5690 
  7 C        3.7510    -0.5510     0.0180 C.3   1 <1>   0.2200 
  8 O        3.6230     2.1250    -0.3130 O.2   1 <1>  -0.5700 
  9 C        1.4070     2.5640     0.2220 C.3   1 <1>  -0.0990 
 10 C        4.8530    -0.4170     1.0870 C.3   1 <1>  -0.0160 
 11 C        0.3330     2.2970    -0.8470 C.3   1 <1>  -0.2400 
 12 C        6.1180    -1.1540     0.6730 C.ar  1 <1>  -0.1440 
 13 C        6.4830    -2.3410     1.2920 C.ar  1 <1>  -0.1500 
 14 C        6.9190    -0.6380    -0.3340 C.ar  1 <1>  -0.1500 
 15 C        7.6300    -3.0090     0.9000 C.ar  1 <1>  -0.1500 
 16 C        8.0670    -1.3060    -0.7260 C.ar  1 <1>  -0.1500 
 17 C        8.4220    -2.4920    -0.1100 C.ar  1 <1>  -0.1500 
 18 H        4.0520    -2.7390     0.1310 H     1 <1>   0.0800 
 19 H        2.9660    -2.2070    -1.1540 H     1 <1>   0.0800 
 20 H        4.1370    -0.2000    -0.9240 H     1 <1>   0.0800 
 21 H        0.9890     2.5210     1.2090 H     1 <1>   0.0800 
 22 H        1.7590     3.5720     0.0920 H     1 <1>   0.0800 
 23 H        5.1030     0.6200     1.2260 H     1 <1>   0.0800 
 24 H        4.5000    -0.7990     2.0280 H     1 <1>   0.0800 
 25 H       -0.0660     1.3030    -0.7560 H     1 <1>   0.0800 
 26 H        0.7540     2.4100    -1.8300 H     1 <1>   0.0800 
 27 H       -0.4750     2.9990    -0.7380 H     1 <1>   0.0800 
 28 H        5.8790    -2.7530     2.0820 H     1 <1>   0.1500 
 29 H        6.6560     0.2880    -0.8160 H     1 <1>   0.1500 
 30 H        7.9080    -3.9300     1.3830 H     1 <1>   0.1500 
 31 H        8.6840    -0.9000    -1.5090 H     1 <1>   0.1500 
 32 H        9.3150    -3.0110    -0.4140 H     1 <1>   0.1500 
@<TRIPOS>BOND
  1   1   2  2   
  2   2   3  1   
  3   2   4  am  
  4   3   5  1   
  5   4   6  am  
  6   4   7  1   
  7   5   7  1   
  8   5  18  1   
  9   5  19  1   
 10   6   8  2   
 11   6   9  1   
 12   7  10  1   
 13   7  20  1   
 14   9  11  1   
 15   9  21  1   
 16   9  22  1   
 17  10  12  1   
 18  10  23  1   
 19  10  24  1   
 20  11  25  1   
 21  11  26  1   
 22  11  27  1   
 23  12  13  ar  
 24  12  14  ar  
 25  13  15  ar  
 26  13  28  1   
 27  14  16  ar  
 28  14  29  1   
 29  15  17  ar  
 30  15  30  1   
 31  16  17  ar  
 32  16  31  1   
 33  17  32  1   
@<TRIPOS>SUBSTRUCTURE
  1 ****   7 GROUP 4 **** **** 0

# MOE 2024.06 (io_trps.svl 2023.06)
