@<TRIPOS>MOLECULE
NONAME
45 48 1 0 0 
SMALL
USER_CHARGES


@<TRIPOS>ATOM
  1 S       -0.4170    -0.3700    -1.5610 S.3   1 <1>  -0.3320 
  2 C       -0.2600    -2.0080    -0.8290 C.ar  1 <1>   0.1020 
  3 C        1.2690     0.3830    -1.5770 C.3   1 <1>  -0.0100 
  4 C       -1.3900    -2.7670    -0.7150 C.ar  1 <1>  -0.1500 
  5 C        0.9740    -2.4970    -0.3880 C.ar  1 <1>  -0.1500 
  6 C       -1.3510    -4.0530    -0.1570 C.ar  1 <1>   0.3100 
  7 C        1.0410    -3.7500     0.1610 C.ar  1 <1>  -0.1500 
  8 N       -2.5130    -4.7420    -0.0820 N.ar  1 <1>  -0.6200 
  9 C       -0.1080    -4.5610     0.2940 C.ar  1 <1>   0.0000 
 10 C       -2.4720    -5.9410     0.4280 C.ar  1 <1>   0.4100 
 11 C       -0.0980    -5.8570     0.8550 C.ar  1 <1>  -0.1430 
 12 N       -3.6450    -6.6670     0.4890 N.pl3 1 <1>  -0.8380 
 13 C       -1.2840    -6.5210     0.9120 C.ar  1 <1>  -0.1500 
 14 C        1.1790    -6.4960     1.3800 C.3   1 <1>  -0.0970 
 15 C       -3.7180    -7.9550    -0.2620 C.3   1 <1>   0.2090 
 16 C       -4.9420    -5.9400     0.5370 C.3   1 <1>   0.2090 
 17 C       -4.7420    -8.8890     0.4030 C.3   1 <1>   0.1000 
 18 C       -6.0040    -6.8330     1.1880 C.3   1 <1>  -0.1600 
 19 C       -4.8540   -10.2140    -0.3400 C.2   1 <1>   0.0070 
 20 C       -6.1170    -8.2010     0.4920 C.3   1 <1>  -0.1600 
 21 N       -4.4730   -10.4320    -1.5540 N.2   1 <1>  -0.3380 
 22 N       -5.3720   -11.3150     0.2030 N.pl3 1 <1>   0.0330 
 23 N       -4.7420   -11.7110    -1.8290 N.2   1 <1>  -0.3380 
 24 C       -5.2760   -12.2150    -0.7720 C.2   1 <1>   0.0360 
 25 H        1.1820     1.3610    -2.0160 H     1 <1>   0.0800 
 26 H        1.9080    -0.2460    -2.1710 H     1 <1>   0.0800 
 27 H        1.6130     0.4510    -0.5610 H     1 <1>   0.0800 
 28 H       -2.3370    -2.3920    -1.0530 H     1 <1>   0.1500 
 29 H        1.8610    -1.9020    -0.4770 H     1 <1>   0.1500 
 30 H        1.9890    -4.1250     0.5000 H     1 <1>   0.1500 
 31 H       -1.3570    -7.5040     1.3350 H     1 <1>   0.1500 
 32 H        1.5930    -5.8950     2.1700 H     1 <1>   0.0800 
 33 H        1.9000    -6.5850     0.5880 H     1 <1>   0.0800 
 34 H        0.9830    -7.4780     1.7710 H     1 <1>   0.0800 
 35 H       -2.7550    -8.4320    -0.2880 H     1 <1>   0.0800 
 36 H       -4.0140    -7.7530    -1.2780 H     1 <1>   0.0800 
 37 H       -5.2360    -5.6750    -0.4650 H     1 <1>   0.0800 
 38 H       -4.8300    -5.0330     1.1070 H     1 <1>   0.0800 
 39 H       -4.3850    -9.0920     1.3980 H     1 <1>   0.0800 
 40 H       -6.9540    -6.3300     1.1550 H     1 <1>   0.0800 
 41 H       -5.7420    -6.9710     2.2220 H     1 <1>   0.0800 
 42 H       -6.8090    -8.8230     1.0300 H     1 <1>   0.0800 
 43 H       -6.5000    -8.0600    -0.5050 H     1 <1>   0.0800 
 44 H       -5.7540   -11.4400     1.1430 H     1 <1>   0.2700 
 45 H       -5.6070   -13.2340    -0.6770 H     1 <1>   0.1500 
@<TRIPOS>BOND
  1   1   2  1   
  2   1   3  1   
  3   2   4  ar  
  4   2   5  ar  
  5   3  25  1   
  6   3  26  1   
  7   3  27  1   
  8   4   6  ar  
  9   4  28  1   
 10   5   7  ar  
 11   5  29  1   
 12   6   8  ar  
 13   6   9  ar  
 14   7   9  ar  
 15   7  30  1   
 16   8  10  ar  
 17   9  11  ar  
 18  10  12  1   
 19  10  13  ar  
 20  11  13  ar  
 21  11  14  1   
 22  12  15  1   
 23  12  16  1   
 24  13  31  1   
 25  14  32  1   
 26  14  33  1   
 27  14  34  1   
 28  15  17  1   
 29  15  35  1   
 30  15  36  1   
 31  16  18  1   
 32  16  37  1   
 33  16  38  1   
 34  17  19  1   
 35  17  20  1   
 36  17  39  1   
 37  18  20  1   
 38  18  40  1   
 39  18  41  1   
 40  19  21  2   
 41  19  22  1   
 42  20  42  1   
 43  20  43  1   
 44  21  23  1   
 45  22  24  1   
 46  22  44  1   
 47  23  24  2   
 48  24  45  1   
@<TRIPOS>SUBSTRUCTURE
  1 ****  10 GROUP 4 **** **** 0

# MOE 2024.06 (io_trps.svl 2023.06)
