@<TRIPOS>MOLECULE
NONAME
42 44 1 0 0 
SMALL
USER_CHARGES


@<TRIPOS>ATOM
  1 CL       0.1080     0.9860     0.3100 Cl    1 <1>  -0.1770 
  2 C        1.7320     1.6400     0.2320 C.ar  1 <1>   0.1770 
  3 C        2.8380     0.8340    -0.0140 C.ar  1 <1>   0.1660 
  4 C        1.8910     2.9970     0.4140 C.ar  1 <1>  -0.1500 
  5 N        4.0770     1.3020    -0.0930 N.ar  1 <1>  -0.6200 
  6 C        2.7020    -0.6640    -0.2200 C.3   1 <1>  -0.0960 
  7 C        3.1780     3.4780     0.3370 C.ar  1 <1>  -0.1500 
  8 C        4.2390     2.6080     0.0860 C.ar  1 <1>   0.4100 
  9 N        5.5330     3.1000     0.0210 N.pl3 1 <1>  -0.8380 
 10 C        6.1040     3.6460     1.3110 C.3   1 <1>   0.2090 
 11 C        6.5220     2.3290    -0.8180 C.3   1 <1>   0.2090 
 12 C        7.1370     4.7760     1.0540 C.3   1 <1>   0.4230 
 13 C        7.8270     3.0740    -1.2080 C.3   1 <1>  -0.0800 
 14 N        6.9130     5.2740    -0.3570 N.4   1 <1>  -0.9590 
 15 C        8.5790     4.3070     1.3800 C.3   1 <1>   0.1200 
 16 C        9.0310     2.7200    -0.3190 C.3   1 <1>   0.1200 
 17 C        7.7340     4.5960    -1.3940 C.3   1 <1>   0.3430 
 18 C        7.0960     6.7820    -0.4380 C.3   1 <1>   0.2370 
 19 O        8.7850     2.9680     1.0240 O.3   1 <1>  -0.5600 
 20 C        8.4660     7.2610     0.0450 C.2   1 <1>   0.9060 
 21 O        9.4050     7.2340    -0.7550 O.co2 1 <1>  -0.9000 
 22 O        8.5990     7.4720     1.2540 O.co2 1 <1>  -0.9000 
 23 H        1.0440     3.6320     0.6040 H     1 <1>   0.1500 
 24 H        1.8250    -1.0520     0.2630 H     1 <1>   0.0800 
 25 H        3.5580    -1.1670     0.1910 H     1 <1>   0.0800 
 26 H        2.6490    -0.8780    -1.2710 H     1 <1>   0.0800 
 27 H        3.3730     4.5240     0.4640 H     1 <1>   0.1500 
 28 H        5.3090     4.0530     1.9110 H     1 <1>   0.0800 
 29 H        6.5370     2.8440     1.8860 H     1 <1>   0.0800 
 30 H        6.7740     1.4150    -0.3040 H     1 <1>   0.0800 
 31 H        6.0200     2.0430    -1.7280 H     1 <1>   0.0800 
 32 H        6.9230     5.5850     1.7330 H     1 <1>   0.0800 
 33 H        8.1020     2.6890    -2.1730 H     1 <1>   0.0800 
 34 H        5.9460     4.9660    -0.5500 H     1 <1>   0.4500 
 35 H        8.7180     4.3630     2.4450 H     1 <1>   0.0800 
 36 H        9.3290     4.9310     0.9250 H     1 <1>   0.0800 
 37 H        9.9110     3.2700    -0.6110 H     1 <1>   0.0800 
 38 H        9.2510     1.6700    -0.4050 H     1 <1>   0.0800 
 39 H        7.3020     4.8030    -2.3590 H     1 <1>   0.0800 
 40 H        8.7310     5.0130    -1.3910 H     1 <1>   0.0800 
 41 H        6.9750     7.1140    -1.4520 H     1 <1>   0.0800 
 42 H        6.3600     7.2710     0.1730 H     1 <1>   0.0800 
@<TRIPOS>BOND
  1   1   2  1   
  2   2   3  ar  
  3   2   4  ar  
  4   3   5  ar  
  5   3   6  1   
  6   4   7  ar  
  7   4  23  1   
  8   5   8  ar  
  9   6  24  1   
 10   6  25  1   
 11   6  26  1   
 12   7   8  ar  
 13   7  27  1   
 14   8   9  1   
 15   9  10  1   
 16   9  11  1   
 17  10  12  1   
 18  10  28  1   
 19  10  29  1   
 20  11  13  1   
 21  11  30  1   
 22  11  31  1   
 23  12  14  1   
 24  12  15  1   
 25  12  32  1   
 26  13  16  1   
 27  13  17  1   
 28  13  33  1   
 29  14  17  1   
 30  14  18  1   
 31  14  34  1   
 32  15  19  1   
 33  15  35  1   
 34  15  36  1   
 35  16  19  1   
 36  16  37  1   
 37  16  38  1   
 38  17  39  1   
 39  17  40  1   
 40  18  20  1   
 41  18  41  1   
 42  18  42  1   
 43  20  21  ar  
 44  20  22  ar  
@<TRIPOS>SUBSTRUCTURE
  1 ****   9 GROUP 4 **** **** 0

# MOE 2024.06 (io_trps.svl 2023.06)
