@<TRIPOS>MOLECULE
NONAME
58 61 1 0 0 
SMALL
USER_CHARGES


@<TRIPOS>ATOM
  1 O        0.9200    -0.7120    -1.8120 O.3   1 <1>  -0.5600 
  2 C        1.9170    -1.0540    -0.8780 C.3   1 <1>   0.4240 
  3 C       -0.4000    -1.0300    -1.4960 C.3   1 <1>   0.1200 
  4 C        1.6300    -2.4100    -0.2000 C.ar  1 <1>  -0.1440 
  5 C        2.0020     0.0800     0.1580 C.3   1 <1>  -0.1600 
  6 C        3.2170    -1.1310    -1.6910 C.3   1 <1>  -0.1600 
  7 C       -0.5440    -2.5470    -1.4400 C.3   1 <1>  -0.0160 
  8 C        0.4660    -3.1200    -0.4660 C.ar  1 <1>  -0.1440 
  9 C        2.5370    -2.9500     0.7030 C.ar  1 <1>  -0.1500 
 10 C        2.3990     1.4020    -0.4960 C.3   1 <1>   0.2090 
 11 C        3.5930     0.2250    -2.2870 C.3   1 <1>   0.2090 
 12 C        0.2240    -4.3360     0.1530 C.ar  1 <1>  -0.1500 
 13 C        2.3140    -4.1660     1.3250 C.ar  1 <1>   0.0830 
 14 N        3.7200     1.2190    -1.1700 N.pl3 1 <1>  -0.8380 
 15 C        1.1330    -4.8740     1.0590 C.ar  1 <1>   0.0830 
 16 O        3.3040    -4.5640     2.1730 O.3   1 <1>  -0.3630 
 17 C        4.8910     1.8140    -0.8280 C.ar  1 <1>   0.4100 
 18 O        0.8870    -6.0560     1.7000 O.3   1 <1>  -0.3630 
 19 C        3.6390    -5.9280     2.3020 C.3   1 <1>   0.0400 
 20 N        5.9620     1.5530    -1.5930 N.ar  1 <1>  -0.6200 
 21 C        5.0320     2.6710     0.2750 C.ar  1 <1>  -0.1500 
 22 C       -0.3540    -6.7190     1.6010 C.3   1 <1>   0.0400 
 23 C        7.0980     2.1050    -1.3050 C.ar  1 <1>   0.5280 
 24 C        6.2410     3.2360     0.5540 C.ar  1 <1>   0.2180 
 25 N        7.2720     2.9370    -0.2600 N.ar  1 <1>  -0.1790 
 26 C        8.2900     1.7980    -2.1890 C.3   1 <1>  -0.0970 
 27 C        6.4670     4.1750     1.7330 C.3   1 <1>  -0.0170 
 28 C        6.8460     5.5910     1.2790 C.3   1 <1>  -0.2400 
 29 H       -1.0310    -0.6200    -2.2650 H     1 <1>   0.0800 
 30 H       -0.6570    -0.5820    -0.5530 H     1 <1>   0.0800 
 31 H        2.7370    -0.1630     0.9010 H     1 <1>   0.0800 
 32 H        1.0620     0.1840     0.6650 H     1 <1>   0.0800 
 33 H        3.0980    -1.8550    -2.4760 H     1 <1>   0.0800 
 34 H        4.0290    -1.4580    -1.0710 H     1 <1>   0.0800 
 35 H       -0.3770    -2.9590    -2.4200 H     1 <1>   0.0800 
 36 H       -1.5430    -2.7970    -1.1320 H     1 <1>   0.0800 
 37 H        3.4470    -2.4320     0.9400 H     1 <1>   0.1500 
 38 H        2.4180     2.1800     0.2400 H     1 <1>   0.0800 
 39 H        1.6620     1.6790    -1.2330 H     1 <1>   0.0800 
 40 H        2.8280     0.5520    -2.9710 H     1 <1>   0.0800 
 41 H        4.5040     0.1250    -2.8480 H     1 <1>   0.0800 
 42 H       -0.6860    -4.8510    -0.0860 H     1 <1>   0.1500 
 43 H        4.6410    -5.9920     2.6840 H     1 <1>   0.0800 
 44 H        3.5800    -6.3980     1.3360 H     1 <1>   0.0800 
 45 H        2.9560    -6.3890     2.9930 H     1 <1>   0.0800 
 46 H        4.1920     2.8790     0.9020 H     1 <1>   0.1500 
 47 H       -0.3240    -7.5780     2.2470 H     1 <1>   0.0800 
 48 H       -0.5030    -7.0330     0.5840 H     1 <1>   0.0800 
 49 H       -1.1340    -6.0500     1.9200 H     1 <1>   0.0800 
 50 H        8.1930     3.3420    -0.0940 H     1 <1>   0.4570 
 51 H        7.9980     1.1240    -2.9760 H     1 <1>   0.0800 
 52 H        9.0690     1.3280    -1.6180 H     1 <1>   0.0800 
 53 H        8.6640     2.6990    -2.6400 H     1 <1>   0.0800 
 54 H        7.2390     3.7790     2.3710 H     1 <1>   0.0800 
 55 H        5.5670     4.2330     2.3220 H     1 <1>   0.0800 
 56 H        7.7820     5.6020     0.7510 H     1 <1>   0.0800 
 57 H        6.9410     6.2340     2.1380 H     1 <1>   0.0800 
 58 H        6.0810     6.0000     0.6410 H     1 <1>   0.0800 
@<TRIPOS>BOND
  1   1   2  1   
  2   1   3  1   
  3   2   4  1   
  4   2   5  1   
  5   2   6  1   
  6   3   7  1   
  7   3  29  1   
  8   3  30  1   
  9   4   8  ar  
 10   4   9  ar  
 11   5  10  1   
 12   5  31  1   
 13   5  32  1   
 14   6  11  1   
 15   6  33  1   
 16   6  34  1   
 17   7   8  1   
 18   7  35  1   
 19   7  36  1   
 20   8  12  ar  
 21   9  13  ar  
 22   9  37  1   
 23  10  14  1   
 24  10  38  1   
 25  10  39  1   
 26  11  14  1   
 27  11  40  1   
 28  11  41  1   
 29  12  15  ar  
 30  12  42  1   
 31  13  15  ar  
 32  13  16  1   
 33  14  17  1   
 34  15  18  1   
 35  16  19  1   
 36  17  20  ar  
 37  17  21  ar  
 38  18  22  1   
 39  19  43  1   
 40  19  44  1   
 41  19  45  1   
 42  20  23  ar  
 43  21  24  ar  
 44  21  46  1   
 45  22  47  1   
 46  22  48  1   
 47  22  49  1   
 48  23  25  ar  
 49  23  26  1   
 50  24  25  ar  
 51  24  27  1   
 52  25  50  1   
 53  26  51  1   
 54  26  52  1   
 55  26  53  1   
 56  27  28  1   
 57  27  54  1   
 58  27  55  1   
 59  28  56  1   
 60  28  57  1   
 61  28  58  1   
@<TRIPOS>SUBSTRUCTURE
  1 ****   2 GROUP 4 **** **** 0

# MOE 2024.06 (io_trps.svl 2023.06)
