@<TRIPOS>MOLECULE
NONAME
59 63 1 0 0 
SMALL
USER_CHARGES


@<TRIPOS>ATOM
  1 O        0.4340     0.3590    -0.3720 O.2   1 <1>  -0.5700 
  2 C       -0.1250     1.4300    -0.1960 C.2   1 <1>   0.7150 
  3 N       -1.5020     1.4730    -0.3400 N.am  1 <1>  -0.6600 
  4 C        0.6770     2.5880     0.1620 C.2   1 <1>   0.0550 
  5 C       -2.3720     2.5440     0.2430 C.3   1 <1>   0.1400 
  6 C       -2.2640     0.3380    -0.9350 C.3   1 <1>   0.1400 
  7 O        0.3670     3.8050    -0.3220 O.3   1 <1>  -0.2800 
  8 C        1.7950     2.6910     0.9340 C.2   1 <1>  -0.1810 
  9 C       -3.3430     3.1100    -0.8110 C.3   1 <1>   0.1440 
 10 C       -3.2380     0.8600    -2.0000 C.3   1 <1>  -0.1600 
 11 C        1.2670     4.6770     0.1240 C.ar  1 <1>   0.1400 
 12 C        2.1950     4.0390     0.9230 C.ar  1 <1>   0.0000 
 13 C        2.5450     1.6100     1.6940 C.3   1 <1>  -0.0590 
 14 C       -4.2250     4.1450    -0.1380 C.ar  1 <1>   0.1660 
 15 C       -4.1570     1.9600    -1.4420 C.3   1 <1>  -0.1600 
 16 C       -2.6060     3.9570    -1.8830 C.3   1 <1>  -0.1600 
 17 C        1.3310     6.0370    -0.1360 C.ar  1 <1>  -0.1500 
 18 C        3.2310     4.7820     1.4930 C.ar  1 <1>  -0.1500 
 19 N       -5.2160     3.8850     0.6780 N.ar  1 <1>  -0.6200 
 20 C       -3.8500     5.4110    -0.4710 C.ar  1 <1>  -0.1440 
 21 C       -2.6700     5.4190    -1.4110 C.3   1 <1>  -0.0170 
 22 C        2.3550     6.7740     0.4270 C.ar  1 <1>   0.0820 
 23 C        3.3070     6.1380     1.2450 C.ar  1 <1>  -0.1500 
 24 C       -5.8530     4.9550     1.1600 C.ar  1 <1>   0.7200 
 25 C       -4.5610     6.4500     0.0740 C.ar  1 <1>   0.1600 
 26 O        2.3800     8.1000     0.1470 O.3   1 <1>  -0.3630 
 27 N       -5.5660     6.2330     0.8900 N.ar  1 <1>  -0.6200 
 28 N       -6.9060     4.7180     2.0210 N.pl3 1 <1>  -0.8380 
 29 C        3.4040     8.9400     0.6320 C.3   1 <1>   0.0400 
 30 C       -7.5070     5.7980     2.8520 C.3   1 <1>   0.1290 
 31 C       -7.5370     3.3750     2.1500 C.3   1 <1>   0.1290 
 32 H       -1.7870     3.3400     0.6660 H     1 <1>   0.0800 
 33 H       -2.9480     2.1150     1.0450 H     1 <1>   0.0800 
 34 H       -2.8090    -0.1630    -0.1540 H     1 <1>   0.0800 
 35 H       -1.5960    -0.3760    -1.3860 H     1 <1>   0.0800 
 36 H       -3.8360     0.0410    -2.3590 H     1 <1>   0.0800 
 37 H       -2.6710     1.2370    -2.8330 H     1 <1>   0.0800 
 38 H        2.0370     0.6660     1.6250 H     1 <1>   0.0800 
 39 H        2.6240     1.8800     2.7320 H     1 <1>   0.0800 
 40 H        3.5330     1.4970     1.2860 H     1 <1>   0.0800 
 41 H       -4.7970     2.3410    -2.2180 H     1 <1>   0.0800 
 42 H       -4.7920     1.5300    -0.6860 H     1 <1>   0.0800 
 43 H       -3.1370     3.8890    -2.8170 H     1 <1>   0.0800 
 44 H       -1.5960     3.6300    -2.0510 H     1 <1>   0.0800 
 45 H        0.5990     6.5050    -0.7640 H     1 <1>   0.1500 
 46 H        3.9550     4.2880     2.1150 H     1 <1>   0.1500 
 47 H       -2.8140     6.0970    -2.2330 H     1 <1>   0.0800 
 48 H       -1.7790     5.6810    -0.8680 H     1 <1>   0.0800 
 49 H        4.1080     6.6980     1.6880 H     1 <1>   0.1500 
 50 H       -4.3020     7.4680    -0.1590 H     1 <1>   0.1500 
 51 H        3.2200     9.9350     0.2670 H     1 <1>   0.0800 
 52 H        4.3500     8.5860     0.2650 H     1 <1>   0.0800 
 53 H        3.3800     8.9360     1.7080 H     1 <1>   0.0800 
 54 H       -6.7710     6.5480     3.0850 H     1 <1>   0.0800 
 55 H       -7.8790     5.3920     3.7750 H     1 <1>   0.0800 
 56 H       -8.3160     6.2580     2.3120 H     1 <1>   0.0800 
 57 H       -7.4350     2.8210     1.2330 H     1 <1>   0.0800 
 58 H       -8.5850     3.4770     2.3670 H     1 <1>   0.0800 
 59 H       -7.0590     2.8290     2.9440 H     1 <1>   0.0800 
@<TRIPOS>BOND
  1   1   2  2   
  2   2   3  am  
  3   2   4  1   
  4   3   5  1   
  5   3   6  1   
  6   4   7  1   
  7   4   8  2   
  8   5   9  1   
  9   5  32  1   
 10   5  33  1   
 11   6  10  1   
 12   6  34  1   
 13   6  35  1   
 14   7  11  1   
 15   8  12  1   
 16   8  13  1   
 17   9  14  1   
 18   9  15  1   
 19   9  16  1   
 20  10  15  1   
 21  10  36  1   
 22  10  37  1   
 23  11  12  ar  
 24  11  17  ar  
 25  12  18  ar  
 26  13  38  1   
 27  13  39  1   
 28  13  40  1   
 29  14  19  ar  
 30  14  20  ar  
 31  15  41  1   
 32  15  42  1   
 33  16  21  1   
 34  16  43  1   
 35  16  44  1   
 36  17  22  ar  
 37  17  45  1   
 38  18  23  ar  
 39  18  46  1   
 40  19  24  ar  
 41  20  21  1   
 42  20  25  ar  
 43  21  47  1   
 44  21  48  1   
 45  22  23  ar  
 46  22  26  1   
 47  23  49  1   
 48  24  27  ar  
 49  24  28  1   
 50  25  27  ar  
 51  25  50  1   
 52  26  29  1   
 53  28  30  1   
 54  28  31  1   
 55  29  51  1   
 56  29  52  1   
 57  29  53  1   
 58  30  54  1   
 59  30  55  1   
 60  30  56  1   
 61  31  57  1   
 62  31  58  1   
 63  31  59  1   
@<TRIPOS>SUBSTRUCTURE
  1 ****   5 GROUP 4 **** **** 0

# MOE 2024.06 (io_trps.svl 2023.06)
