@<TRIPOS>MOLECULE
NONAME
61 64 1 0 0 
SMALL
USER_CHARGES


@<TRIPOS>ATOM
  1 O        0.0980     2.8030    -0.6280 O.2   1 <1>  -0.5700 
  2 C       -1.0290     2.4130    -0.3620 C.2   1 <1>   0.6900 
  3 N       -2.1080     2.9600    -1.0110 N.am  1 <1>  -0.6600 
  4 N       -1.2130     1.4630     0.6070 N.am  1 <1>  -0.6600 
  5 C       -3.1620     3.6580    -0.2460 C.3   1 <1>   0.1400 
  6 C       -1.9940     3.4260    -2.4100 C.3   1 <1>   0.1400 
  7 C       -2.3940     0.5700     0.6510 C.3   1 <1>   0.1400 
  8 C       -0.0670     0.8420     1.3080 C.3   1 <1>   0.1400 
  9 C       -2.7660     5.1260    -0.1060 C.3   1 <1>  -0.1600 
 10 C       -1.5790     4.8970    -2.4290 C.3   1 <1>  -0.1600 
 11 C       -1.8620    -0.7610     1.1680 C.3   1 <1>  -0.1600 
 12 C       -0.6440    -0.3850     2.0050 C.3   1 <1>  -0.1600 
 13 C       -2.3860     5.7730    -1.4500 C.3   1 <1>   0.2890 
 14 N       -1.6600     7.0400    -1.1970 N.pl3 1 <1>  -0.8690 
 15 C       -0.4380     7.2710    -0.6770 C.ar  1 <1>   0.4100 
 16 N       -0.0690     8.5310    -0.6860 N.ar  1 <1>  -0.6200 
 17 C        0.3990     6.2600    -0.1690 C.ar  1 <1>  -0.1500 
 18 C        1.1340     8.8360    -0.2150 C.ar  1 <1>   0.7710 
 19 C        1.6250     6.5820     0.2970 C.ar  1 <1>   0.2180 
 20 N        1.9680     7.8900     0.2580 N.ar  1 <1>  -0.1790 
 21 N        1.5400    10.1360    -0.2150 N.pl3 1 <1>  -0.8380 
 22 C        2.6070     5.5530     0.8420 C.3   1 <1>  -0.0170 
 23 C        0.7250    11.2240    -0.8760 C.3   1 <1>   0.2090 
 24 C        2.7770    10.7120     0.4220 C.3   1 <1>   0.2090 
 25 C        3.8950     5.4840     0.0110 C.3   1 <1>  -0.2400 
 26 C        0.5010    12.4120     0.0750 C.3   1 <1>   0.1200 
 27 C        2.4340    11.9260     1.3070 C.3   1 <1>   0.1200 
 28 O        1.7210    12.8760     0.5770 O.3   1 <1>  -0.5600 
 29 H       -3.2700     3.2190     0.7310 H     1 <1>   0.0800 
 30 H       -4.1010     3.5670    -0.7660 H     1 <1>   0.0800 
 31 H       -2.9430     3.2990    -2.9020 H     1 <1>   0.0800 
 32 H       -1.2620     2.8320    -2.9320 H     1 <1>   0.0800 
 33 H       -2.8400     0.4640    -0.3230 H     1 <1>   0.0800 
 34 H       -3.1140     0.9750     1.3410 H     1 <1>   0.0800 
 35 H        0.3680     1.5330     2.0100 H     1 <1>   0.0800 
 36 H        0.6740     0.5490     0.5830 H     1 <1>   0.0800 
 37 H       -1.9570     5.1770     0.5950 H     1 <1>   0.0800 
 38 H       -3.5890     5.6690     0.3220 H     1 <1>   0.0800 
 39 H       -1.7070     5.2790    -3.4250 H     1 <1>   0.0800 
 40 H       -0.5300     4.9310    -2.2200 H     1 <1>   0.0800 
 41 H       -1.5570    -1.3640     0.3300 H     1 <1>   0.0800 
 42 H       -2.6020    -1.2960     1.7360 H     1 <1>   0.0800 
 43 H       -0.9520    -0.1100     2.9990 H     1 <1>   0.0800 
 44 H        0.0750    -1.1830     2.0680 H     1 <1>   0.0800 
 45 H       -3.3120     6.0140    -1.9470 H     1 <1>   0.0800 
 46 H       -2.1600     7.8720    -1.5190 H     1 <1>   0.4000 
 47 H        0.0640     5.2430    -0.1610 H     1 <1>   0.1500 
 48 H        2.8800     8.2030     0.5520 H     1 <1>   0.4570 
 49 H        2.1410     4.5800     0.8320 H     1 <1>   0.0800 
 50 H        2.8450     5.7820     1.8670 H     1 <1>   0.0800 
 51 H       -0.2360    10.8690    -1.2050 H     1 <1>   0.0800 
 52 H        1.2490    11.5760    -1.7490 H     1 <1>   0.0800 
 53 H        3.4560    11.0350    -0.3510 H     1 <1>   0.0800 
 54 H        3.2860     9.9870     1.0290 H     1 <1>   0.0800 
 55 H        3.6640     5.2460    -1.0140 H     1 <1>   0.0800 
 56 H        4.5320     4.7050     0.3950 H     1 <1>   0.0800 
 57 H        4.4400     6.4090     0.0420 H     1 <1>   0.0800 
 58 H       -0.1300    12.1270     0.8990 H     1 <1>   0.0800 
 59 H        0.0320    13.2250    -0.4520 H     1 <1>   0.0800 
 60 H        3.3350    12.3970     1.6600 H     1 <1>   0.0800 
 61 H        1.8430    11.6300     2.1570 H     1 <1>   0.0800 
@<TRIPOS>BOND
  1   1   2  2   
  2   2   3  am  
  3   2   4  am  
  4   3   5  1   
  5   3   6  1   
  6   4   7  1   
  7   4   8  1   
  8   5   9  1   
  9   5  29  1   
 10   5  30  1   
 11   6  10  1   
 12   6  31  1   
 13   6  32  1   
 14   7  11  1   
 15   7  33  1   
 16   7  34  1   
 17   8  12  1   
 18   8  35  1   
 19   8  36  1   
 20   9  13  1   
 21   9  37  1   
 22   9  38  1   
 23  10  13  1   
 24  10  39  1   
 25  10  40  1   
 26  11  12  1   
 27  11  41  1   
 28  11  42  1   
 29  12  43  1   
 30  12  44  1   
 31  13  14  1   
 32  13  45  1   
 33  14  15  1   
 34  14  46  1   
 35  15  16  ar  
 36  15  17  ar  
 37  16  18  ar  
 38  17  19  ar  
 39  17  47  1   
 40  18  20  ar  
 41  18  21  1   
 42  19  20  ar  
 43  19  22  1   
 44  20  48  1   
 45  21  23  1   
 46  21  24  1   
 47  22  25  1   
 48  22  49  1   
 49  22  50  1   
 50  23  26  1   
 51  23  51  1   
 52  23  52  1   
 53  24  27  1   
 54  24  53  1   
 55  24  54  1   
 56  25  55  1   
 57  25  56  1   
 58  25  57  1   
 59  26  28  1   
 60  26  58  1   
 61  26  59  1   
 62  27  28  1   
 63  27  60  1   
 64  27  61  1   
@<TRIPOS>SUBSTRUCTURE
  1 ****  17 GROUP 4 **** **** 0

# MOE 2024.06 (io_trps.svl 2023.06)
