@<TRIPOS>MOLECULE
NONAME
49 52 1 0 0 
SMALL
USER_CHARGES


@<TRIPOS>ATOM
  1 S        1.6760    -2.1460     1.1550 S.o2  1 <1>   1.5010 
  2 O        2.5030    -2.8080     0.1670 O.2   1 <1>  -0.6500 
  3 O        2.1530    -2.0740     2.5170 O.2   1 <1>  -0.6500 
  4 N        0.2770    -3.0660     1.2530 N.am  1 <1>  -0.9140 
  5 C        1.0940    -0.4930     0.5890 C.2   1 <1>   0.1640 
  6 C       -0.2110    -3.5100    -0.0470 C.3   1 <1>   0.2760 
  7 N        0.2700    -0.2880    -0.4850 N.2   1 <1>  -0.5650 
  8 C        1.3820     0.7120     1.1470 C.2   1 <1>  -0.3020 
  9 C       -1.7250    -3.6200    -0.0240 C.3   1 <1>  -0.0800 
 10 C        0.1770    -4.9650    -0.2880 C.3   1 <1>   0.1200 
 11 C        0.0840     0.9900    -0.5290 C.2   1 <1>   0.0060 
 12 N        0.7400     1.6570     0.4400 N.pl3 1 <1>   0.0330 
 13 C       -1.9680    -5.0360     0.5110 C.3   1 <1>   0.1200 
 14 C       -2.4460    -2.5090     0.7670 C.3   1 <1>  -0.0170 
 15 O       -0.7420    -5.7090     0.4510 O.3   1 <1>  -0.5600 
 16 C       -0.7860     1.6840    -1.5600 C.3   1 <1>   0.0200 
 17 C       -3.9120    -2.4220     0.3690 C.ar  1 <1>  -0.1430 
 18 C       -2.0930     2.1840    -0.9360 C.3   1 <1>  -0.2400 
 19 C       -4.3200    -1.7920    -0.8300 C.ar  1 <1>   0.0000 
 20 C       -4.8800    -2.9570     1.1660 C.ar  1 <1>  -0.1500 
 21 C       -5.7050    -1.7700    -1.1200 C.ar  1 <1>   0.3100 
 22 C       -3.4380    -1.1830    -1.7550 C.ar  1 <1>  -0.1500 
 23 C       -6.2250    -2.8790     0.7870 C.ar  1 <1>   0.1600 
 24 N       -6.6410    -2.3180    -0.3040 N.ar  1 <1>  -0.6200 
 25 C       -6.1400    -1.1560    -2.3050 C.ar  1 <1>  -0.1500 
 26 C       -3.8960    -0.5930    -2.9010 C.ar  1 <1>  -0.1500 
 27 C       -5.2640    -0.5780    -3.1830 C.ar  1 <1>  -0.1500 
 28 H        0.5390    -3.9030     1.7690 H     1 <1>   0.4200 
 29 H        0.1220    -2.8660    -0.8450 H     1 <1>   0.0800 
 30 H        1.9970     0.9260     2.0030 H     1 <1>   0.1500 
 31 H       -2.0640    -3.5980    -1.0450 H     1 <1>   0.0800 
 32 H        1.1780    -5.1950     0.0310 H     1 <1>   0.0800 
 33 H        0.0550    -5.2240    -1.3250 H     1 <1>   0.0800 
 34 H        0.7370     2.6690     0.6000 H     1 <1>   0.2700 
 35 H       -2.6890    -5.5670    -0.0860 H     1 <1>   0.0800 
 36 H       -2.2830    -5.0270     1.5400 H     1 <1>   0.0800 
 37 H       -1.9770    -1.5580     0.5880 H     1 <1>   0.0800 
 38 H       -2.3580    -2.6960     1.8230 H     1 <1>   0.0800 
 39 H       -0.2460     2.5070    -1.9940 H     1 <1>   0.0800 
 40 H       -1.0130     0.9890    -2.3490 H     1 <1>   0.0800 
 41 H       -1.8960     2.9200    -0.1780 H     1 <1>   0.0800 
 42 H       -2.6260     1.3630    -0.4880 H     1 <1>   0.0800 
 43 H       -2.7190     2.6250    -1.6920 H     1 <1>   0.0800 
 44 H       -4.6400    -3.4470     2.0930 H     1 <1>   0.1500 
 45 H       -2.3820    -1.1780    -1.5580 H     1 <1>   0.1500 
 46 H       -6.9590    -3.3130     1.4440 H     1 <1>   0.1500 
 47 H       -7.1970    -1.1560    -2.5000 H     1 <1>   0.1500 
 48 H       -3.2140    -0.1350    -3.5970 H     1 <1>   0.1500 
 49 H       -5.6130    -0.1120    -4.0870 H     1 <1>   0.1500 
@<TRIPOS>BOND
  1   1   2  2   
  2   1   3  2   
  3   1   4  am  
  4   1   5  1   
  5   4   6  1   
  6   4  28  1   
  7   5   7  1   
  8   5   8  2   
  9   6   9  1   
 10   6  10  1   
 11   6  29  1   
 12   7  11  2   
 13   8  12  1   
 14   8  30  1   
 15   9  13  1   
 16   9  14  1   
 17   9  31  1   
 18  10  15  1   
 19  10  32  1   
 20  10  33  1   
 21  11  12  1   
 22  11  16  1   
 23  12  34  1   
 24  13  15  1   
 25  13  35  1   
 26  13  36  1   
 27  14  17  1   
 28  14  37  1   
 29  14  38  1   
 30  16  18  1   
 31  16  39  1   
 32  16  40  1   
 33  17  19  ar  
 34  17  20  ar  
 35  18  41  1   
 36  18  42  1   
 37  18  43  1   
 38  19  21  ar  
 39  19  22  ar  
 40  20  23  ar  
 41  20  44  1   
 42  21  24  ar  
 43  21  25  ar  
 44  22  26  ar  
 45  22  45  1   
 46  23  24  ar  
 47  23  46  1   
 48  25  27  ar  
 49  25  47  1   
 50  26  27  ar  
 51  26  48  1   
 52  27  49  1   
@<TRIPOS>SUBSTRUCTURE
  1 ****  14 GROUP 4 **** **** 0

# MOE 2024.06 (io_trps.svl 2023.06)
