@<TRIPOS>MOLECULE
NONAME
48 50 1 0 0 
SMALL
USER_CHARGES


@<TRIPOS>ATOM
  1 S        1.9490     0.7850    -2.0600 S.3   1 <1>  -0.0800 
  2 C        2.7320     2.2010    -1.3500 C.2   1 <1>  -0.0450 
  3 C        2.6200    -0.2850    -0.8490 C.2   1 <1>  -0.1100 
  4 C        2.5270     3.4880    -1.9660 C.2   1 <1>   0.7150 
  5 C        3.4480     1.8000    -0.2670 C.2   1 <1>  -0.1500 
  6 C        3.3830     0.4050     0.0170 C.2   1 <1>  -0.1500 
  7 O        2.2760     3.6020    -3.1470 O.2   1 <1>  -0.5700 
  8 N        2.6280     4.6490    -1.2700 N.am  1 <1>  -0.7300 
  9 C        1.6360     5.1560    -0.2750 C.3   1 <1>   0.3610 
 10 C        1.9920     6.6130     0.1980 C.2   1 <1>   0.5690 
 11 C        1.5600     4.2220     0.9430 C.3   1 <1>  -0.2400 
 12 C        0.2630     5.1230    -0.9790 C.3   1 <1>  -0.2400 
 13 O        1.0790     7.4050     0.2980 O.2   1 <1>  -0.5700 
 14 N        3.2800     7.0250     0.5010 N.am  1 <1>  -0.6600 
 15 C        4.4750     6.1490     0.6780 C.3   1 <1>   0.1400 
 16 C        3.5790     8.4700     0.7240 C.3   1 <1>   0.1400 
 17 C        5.5680     6.5720    -0.3050 C.3   1 <1>  -0.1600 
 18 C        4.6720     8.9240    -0.2480 C.3   1 <1>  -0.1600 
 19 C        5.9330     8.0560    -0.1300 C.3   1 <1>   0.1000 
 20 C        6.9870     8.5060    -1.1400 C.2   1 <1>   0.0060 
 21 N        7.1260     8.0120    -2.3250 N.2   1 <1>  -0.3380 
 22 N        7.8860     9.4720    -0.9110 N.pl3 1 <1>   0.0480 
 23 N        8.1390     8.6540    -2.9070 N.2   1 <1>  -0.3380 
 24 C        8.5740     9.5120    -2.0540 C.2   1 <1>   0.0360 
 25 C        8.0990    10.3050     0.2870 C.3   1 <1>   0.0160 
 26 H        2.3710    -1.3300    -0.9150 H     1 <1>   0.1500 
 27 H        4.0350     2.4570     0.3500 H     1 <1>   0.1500 
 28 H        3.9110    -0.0200     0.8540 H     1 <1>   0.1500 
 29 H        2.8700     5.4150    -1.9000 H     1 <1>   0.3700 
 30 H        2.5140     4.1250     1.4240 H     1 <1>   0.0800 
 31 H        1.1970     3.2490     0.6680 H     1 <1>   0.0800 
 32 H        0.8720     4.6330     1.6610 H     1 <1>   0.0800 
 33 H        0.2740     5.7640    -1.8420 H     1 <1>   0.0800 
 34 H       -0.5040     5.4770    -0.3130 H     1 <1>   0.0800 
 35 H       -0.0030     4.1270    -1.2830 H     1 <1>   0.0800 
 36 H        4.2420     5.1140     0.5270 H     1 <1>   0.0800 
 37 H        4.8350     6.2550     1.6870 H     1 <1>   0.0800 
 38 H        3.9040     8.6090     1.7410 H     1 <1>   0.0800 
 39 H        2.7020     9.0760     0.5730 H     1 <1>   0.0800 
 40 H        5.2200     6.3940    -1.3080 H     1 <1>   0.0800 
 41 H        6.4430     5.9670    -0.1540 H     1 <1>   0.0800 
 42 H        4.9140     9.9520    -0.0520 H     1 <1>   0.0800 
 43 H        4.2900     8.8660    -1.2530 H     1 <1>   0.0800 
 44 H        6.3380     8.1740     0.8600 H     1 <1>   0.0800 
 45 H        9.3920    10.1860    -2.2280 H     1 <1>   0.1500 
 46 H        7.1860    10.8120     0.5380 H     1 <1>   0.0800 
 47 H        8.8660    11.0320     0.0900 H     1 <1>   0.0800 
 48 H        8.4050     9.6800     1.1060 H     1 <1>   0.0800 
@<TRIPOS>BOND
  1   1   2  1   
  2   1   3  1   
  3   2   4  1   
  4   2   5  2   
  5   3   6  2   
  6   3  26  1   
  7   4   7  2   
  8   4   8  am  
  9   5   6  1   
 10   5  27  1   
 11   6  28  1   
 12   8   9  1   
 13   8  29  1   
 14   9  10  1   
 15   9  11  1   
 16   9  12  1   
 17  10  13  2   
 18  10  14  am  
 19  11  30  1   
 20  11  31  1   
 21  11  32  1   
 22  12  33  1   
 23  12  34  1   
 24  12  35  1   
 25  14  15  1   
 26  14  16  1   
 27  15  17  1   
 28  15  36  1   
 29  15  37  1   
 30  16  18  1   
 31  16  38  1   
 32  16  39  1   
 33  17  19  1   
 34  17  40  1   
 35  17  41  1   
 36  18  19  1   
 37  18  42  1   
 38  18  43  1   
 39  19  20  1   
 40  19  44  1   
 41  20  21  2   
 42  20  22  1   
 43  21  23  1   
 44  22  24  1   
 45  22  25  1   
 46  23  24  2   
 47  24  45  1   
 48  25  46  1   
 49  25  47  1   
 50  25  48  1   
@<TRIPOS>SUBSTRUCTURE
  1 ****  15 GROUP 4 **** **** 0

# MOE 2024.06 (io_trps.svl 2023.06)
