@<TRIPOS>MOLECULE
NONAME
47 50 1 0 0 
SMALL
USER_CHARGES


@<TRIPOS>ATOM
  1 S       -1.0100     2.7290     3.5000 S.3   1 <1>  -0.0800 
  2 C        0.2380     3.4560     2.5130 C.ar  1 <1>   0.0400 
  3 C       -2.1240     2.8510     2.1430 C.2   1 <1>   0.2280 
  4 C       -0.2970     3.7160     1.2670 C.ar  1 <1>   0.2270 
  5 C        1.5460     3.7480     2.8460 C.ar  1 <1>  -0.1500 
  6 N       -1.6330     3.3660     1.0900 N.2   1 <1>  -0.5650 
  7 C        0.5130     4.2960     0.3070 C.ar  1 <1>  -0.1500 
  8 C        2.3360     4.3320     1.8720 C.ar  1 <1>  -0.1500 
  9 C        1.8400     4.6260     0.5910 C.ar  1 <1>   0.0860 
 10 C        2.6890     5.2530    -0.4070 C.2   1 <1>   0.5440 
 11 O        3.9000     5.1210    -0.3770 O.2   1 <1>  -0.5700 
 12 N        2.1880     6.0860    -1.3830 N.am  1 <1>  -0.6600 
 13 C        2.8360     6.1610    -2.7360 C.3   1 <1>   0.1400 
 14 C        1.3330     7.2480    -1.0220 C.3   1 <1>   0.1400 
 15 C        4.1800     6.9250    -2.7260 C.3   1 <1>   0.3430 
 16 C        2.1910     8.3870    -0.4500 C.3   1 <1>  -0.1600 
 17 N        4.3420     7.7300    -1.4810 N.4   1 <1>  -0.9590 
 18 C        3.3550     8.8350    -1.3410 C.3   1 <1>   0.3430 
 19 C        5.7450     8.1250    -1.1950 C.3   1 <1>   0.5230 
 20 C        5.8850     8.4210     0.2870 C.2   1 <1>  -0.0400 
 21 O        5.3820     9.5400     0.7740 O.3   1 <1>  -0.2800 
 22 C        6.4630     7.6970     1.2700 C.2   1 <1>  -0.1500 
 23 C        5.6270     9.5600     2.0680 C.2   1 <1>  -0.0400 
 24 C        6.2930     8.4470     2.4400 C.2   1 <1>  -0.1500 
 25 C        5.1620    10.7470     2.8830 C.3   1 <1>  -0.0600 
 26 H       -3.1230     2.4850     2.3060 H     1 <1>   0.1500 
 27 H        1.9260     3.5240     3.8270 H     1 <1>   0.1500 
 28 H        0.0940     4.4820    -0.6650 H     1 <1>   0.1500 
 29 H        3.3620     4.5690     2.1000 H     1 <1>   0.1500 
 30 H        2.1630     6.6320    -3.4320 H     1 <1>   0.0800 
 31 H        3.0110     5.1620    -3.0970 H     1 <1>   0.0800 
 32 H        0.6020     6.9520    -0.2880 H     1 <1>   0.0800 
 33 H        0.7960     7.5870    -1.8920 H     1 <1>   0.0800 
 34 H        4.2580     7.5500    -3.6000 H     1 <1>   0.0800 
 35 H        4.9690     6.1920    -2.7720 H     1 <1>   0.0800 
 36 H        2.5710     8.1060     0.5180 H     1 <1>   0.0800 
 37 H        1.5500     9.2350    -0.2910 H     1 <1>   0.0800 
 38 H        4.1100     7.0410    -0.7370 H     1 <1>   0.4500 
 39 H        3.8240     9.6930    -0.8860 H     1 <1>   0.0800 
 40 H        2.9870     9.1330    -2.3090 H     1 <1>   0.0800 
 41 H        6.0250     8.9910    -1.7720 H     1 <1>   0.0800 
 42 H        6.4070     7.3130    -1.4440 H     1 <1>   0.0800 
 43 H        6.9590     6.7420     1.2190 H     1 <1>   0.1500 
 44 H        6.6400     8.1650     3.4190 H     1 <1>   0.1500 
 45 H        4.0940    10.8430     2.8160 H     1 <1>   0.0800 
 46 H        5.6180    11.6460     2.5090 H     1 <1>   0.0800 
 47 H        5.4370    10.6210     3.9140 H     1 <1>   0.0800 
@<TRIPOS>BOND
  1   1   2  1   
  2   1   3  1   
  3   2   4  ar  
  4   2   5  ar  
  5   3   6  2   
  6   3  26  1   
  7   4   6  1   
  8   4   7  ar  
  9   5   8  ar  
 10   5  27  1   
 11   7   9  ar  
 12   7  28  1   
 13   8   9  ar  
 14   8  29  1   
 15   9  10  1   
 16  10  11  2   
 17  10  12  am  
 18  12  13  1   
 19  12  14  1   
 20  13  15  1   
 21  13  30  1   
 22  13  31  1   
 23  14  16  1   
 24  14  32  1   
 25  14  33  1   
 26  15  17  1   
 27  15  34  1   
 28  15  35  1   
 29  16  18  1   
 30  16  36  1   
 31  16  37  1   
 32  17  18  1   
 33  17  19  1   
 34  17  38  1   
 35  18  39  1   
 36  18  40  1   
 37  19  20  1   
 38  19  41  1   
 39  19  42  1   
 40  20  21  1   
 41  20  22  2   
 42  21  23  1   
 43  22  24  1   
 44  22  43  1   
 45  23  24  2   
 46  23  25  1   
 47  24  44  1   
 48  25  45  1   
 49  25  46  1   
 50  25  47  1   
@<TRIPOS>SUBSTRUCTURE
  1 ****  10 GROUP 4 **** **** 0

# MOE 2024.06 (io_trps.svl 2023.06)
