@<TRIPOS>MOLECULE
NONAME
46 48 1 0 0 
SMALL
USER_CHARGES


@<TRIPOS>ATOM
  1 O        0.1290    -0.4310    -0.2290 O.3   1 <1>  -0.0190 
  2 N        0.5860     0.7700    -0.0460 N.2   1 <1>  -0.4100 
  3 C        1.1410    -1.2070     0.0710 C.2   1 <1>   0.2980 
  4 C        1.7960     0.6560     0.3330 C.2   1 <1>   0.3350 
  5 N        2.2030    -0.6010     0.4310 N.2   1 <1>  -0.5650 
  6 C        0.9400    -2.7120    -0.0330 C.3   1 <1>   0.1000 
  7 C        2.7150     1.8200     0.6590 C.3   1 <1>   0.0210 
  8 C        0.0490    -3.1840     1.1220 C.3   1 <1>   0.2090 
  9 C        2.2700    -3.4980    -0.0410 C.3   1 <1>  -0.1600 
 10 C        3.3720     2.4370    -0.5920 C.3   1 <1>  -0.0800 
 11 N       -0.1590    -4.6600     1.0360 N.pl3 1 <1>  -0.8380 
 12 C        2.0200    -5.0160    -0.0490 C.3   1 <1>  -0.1600 
 13 C        4.2970     1.4420    -1.3080 C.3   1 <1>  -0.2400 
 14 C        4.1670     3.6940    -0.2130 C.3   1 <1>  -0.2400 
 15 C       -1.3170    -5.2000     0.5160 C.ar  1 <1>   0.7200 
 16 C        1.0970    -5.4550     1.0940 C.3   1 <1>   0.2090 
 17 N       -1.5480    -6.4870     0.7670 N.ar  1 <1>  -0.6200 
 18 N       -2.0970    -4.3870    -0.1960 N.ar  1 <1>  -0.6200 
 19 C       -2.6550    -6.9890     0.2700 C.ar  1 <1>   0.1600 
 20 C       -3.1970    -4.9180    -0.6820 C.ar  1 <1>   0.1600 
 21 C       -3.5390    -6.2360    -0.4810 C.ar  1 <1>   0.0830 
 22 O       -4.7030    -6.6990    -1.0250 O.3   1 <1>  -0.3620 
 23 C       -5.0990    -8.0390    -0.8260 C.3   1 <1>   0.0400 
 24 H        0.4190    -2.9070    -0.9530 H     1 <1>   0.0800 
 25 H        3.4720     1.4860     1.3460 H     1 <1>   0.0800 
 26 H        2.1290     2.5700     1.1580 H     1 <1>   0.0800 
 27 H       -0.8930    -2.6630     1.1010 H     1 <1>   0.0800 
 28 H        0.5240    -2.9530     2.0600 H     1 <1>   0.0800 
 29 H        2.8400    -3.2420     0.8360 H     1 <1>   0.0800 
 30 H        2.8480    -3.2180    -0.9040 H     1 <1>   0.0800 
 31 H        2.5900     2.7250    -1.2750 H     1 <1>   0.0800 
 32 H        2.9570    -5.5380     0.0330 H     1 <1>   0.0800 
 33 H        1.5670    -5.3040    -0.9820 H     1 <1>   0.0800 
 34 H        5.0720     1.0990    -0.6450 H     1 <1>   0.0800 
 35 H        4.7550     1.9050    -2.1630 H     1 <1>   0.0800 
 36 H        3.7400     0.5880    -1.6520 H     1 <1>   0.0800 
 37 H        4.9630     3.4500     0.4690 H     1 <1>   0.0800 
 38 H        3.5230     4.4190     0.2540 H     1 <1>   0.0800 
 39 H        4.5950     4.1430    -1.0920 H     1 <1>   0.0800 
 40 H        0.8970    -6.5090     1.0120 H     1 <1>   0.0800 
 41 H        1.5760    -5.2830     2.0430 H     1 <1>   0.0800 
 42 H       -2.8520    -8.0250     0.4700 H     1 <1>   0.1500 
 43 H       -3.8520    -4.2910    -1.2600 H     1 <1>   0.1500 
 44 H       -6.0380    -8.1880    -1.3290 H     1 <1>   0.0800 
 45 H       -5.2200    -8.2170     0.2280 H     1 <1>   0.0800 
 46 H       -4.3540    -8.6920    -1.2460 H     1 <1>   0.0800 
@<TRIPOS>BOND
  1   1   2  1   
  2   1   3  1   
  3   2   4  2   
  4   3   5  2   
  5   3   6  1   
  6   4   5  1   
  7   4   7  1   
  8   6   8  1   
  9   6   9  1   
 10   6  24  1   
 11   7  10  1   
 12   7  25  1   
 13   7  26  1   
 14   8  11  1   
 15   8  27  1   
 16   8  28  1   
 17   9  12  1   
 18   9  29  1   
 19   9  30  1   
 20  10  13  1   
 21  10  14  1   
 22  10  31  1   
 23  11  15  1   
 24  11  16  1   
 25  12  16  1   
 26  12  32  1   
 27  12  33  1   
 28  13  34  1   
 29  13  35  1   
 30  13  36  1   
 31  14  37  1   
 32  14  38  1   
 33  14  39  1   
 34  15  17  ar  
 35  15  18  ar  
 36  16  40  1   
 37  16  41  1   
 38  17  19  ar  
 39  18  20  ar  
 40  19  21  ar  
 41  19  42  1   
 42  20  21  ar  
 43  20  43  1   
 44  21  22  1   
 45  22  23  1   
 46  23  44  1   
 47  23  45  1   
 48  23  46  1   
@<TRIPOS>SUBSTRUCTURE
  1 ****   6 GROUP 4 **** **** 0

# MOE 2024.06 (io_trps.svl 2023.06)
