@<TRIPOS>MOLECULE
NONAME
32 32 1 0 0 
SMALL
USER_CHARGES


@<TRIPOS>ATOM
  1 O        3.2500    -1.0690    -1.5650 O.2   1 <1>  -0.5700 
  2 C        2.4760    -1.2880    -0.6660 C.2   1 <1>   0.5690 
  3 N        2.0240    -0.3400     0.2030 N.am  1 <1>  -0.4940 
  4 C        1.9550    -2.7120    -0.4860 C.3   1 <1>   0.1810 
  5 C        2.2600     1.0350     0.2960 C.2   1 <1>   0.2040 
  6 O        0.8520    -2.7570     0.3920 O.3   1 <1>  -0.5600 
  7 O        1.3750     1.7640     0.9320 O.3   1 <1>  -0.0190 
  8 C        3.2370     1.8660    -0.1280 C.2   1 <1>  -0.1810 
  9 C        0.3790    -4.0640     0.6320 C.3   1 <1>   0.1810 
 10 N        1.6920     3.0310     0.9400 N.2   1 <1>  -0.4100 
 11 C        2.8070     3.1210     0.3070 C.2   1 <1>   0.1080 
 12 C        4.5200     1.5640    -0.8860 C.3   1 <1>  -0.0590 
 13 C       -0.8540    -4.0840     1.5360 C.2   1 <1>   0.5690 
 14 C        3.5240     4.4420     0.0870 C.3   1 <1>   0.0210 
 15 O       -1.1750    -5.1120     2.0740 O.2   1 <1>  -0.5700 
 16 N       -1.5850    -2.9670     1.7240 N.am  1 <1>  -0.8000 
 17 C        4.5420     4.7160     1.1990 C.3   1 <1>  -0.2400 
 18 H        1.3020    -0.6930     0.8340 H     1 <1>   0.3700 
 19 H        2.7440    -3.3230    -0.0860 H     1 <1>   0.0800 
 20 H        1.6510    -3.0970    -1.4430 H     1 <1>   0.0800 
 21 H        1.1630    -4.6320     1.1020 H     1 <1>   0.0800 
 22 H        0.1240    -4.5190    -0.3080 H     1 <1>   0.0800 
 23 H        4.9070     0.6060    -0.5920 H     1 <1>   0.0800 
 24 H        5.2720     2.3020    -0.6790 H     1 <1>   0.0800 
 25 H        4.3240     1.5490    -1.9430 H     1 <1>   0.0800 
 26 H        2.7940     5.2330     0.0700 H     1 <1>   0.0800 
 27 H        4.0150     4.4300    -0.8690 H     1 <1>   0.0800 
 28 H       -2.4020    -2.9820     2.3350 H     1 <1>   0.3700 
 29 H       -1.3290    -2.0750     1.3000 H     1 <1>   0.3700 
 30 H        4.0420     4.7500     2.1510 H     1 <1>   0.0800 
 31 H        5.0310     5.6590     1.0310 H     1 <1>   0.0800 
 32 H        5.2840     3.9380     1.2290 H     1 <1>   0.0800 
@<TRIPOS>BOND
  1   1   2  2   
  2   2   3  am  
  3   2   4  1   
  4   3   5  1   
  5   3  18  1   
  6   4   6  1   
  7   4  19  1   
  8   4  20  1   
  9   5   7  1   
 10   5   8  2   
 11   6   9  1   
 12   7  10  1   
 13   8  11  1   
 14   8  12  1   
 15   9  13  1   
 16   9  21  1   
 17   9  22  1   
 18  10  11  2   
 19  11  14  1   
 20  12  23  1   
 21  12  24  1   
 22  12  25  1   
 23  13  15  2   
 24  13  16  am  
 25  14  17  1   
 26  14  26  1   
 27  14  27  1   
 28  16  28  1   
 29  16  29  1   
 30  17  30  1   
 31  17  31  1   
 32  17  32  1   
@<TRIPOS>SUBSTRUCTURE
  1 ****   3 GROUP 4 **** **** 0

# MOE 2024.06 (io_trps.svl 2023.06)
