@<TRIPOS>MOLECULE
NONAME
49 53 1 0 0 
SMALL
USER_CHARGES


@<TRIPOS>ATOM
  1 S        0.1790    -0.1500     1.2670 S.3   1 <1>  -0.0800 
  2 C       -0.1610    -1.8650     1.3270 C.ar  1 <1>   0.0400 
  3 C        1.1070    -0.4060    -0.2060 C.2   1 <1>   0.1980 
  4 C        0.4530    -2.4630     0.2440 C.ar  1 <1>   0.2270 
  5 C       -0.8990    -2.5670     2.2600 C.ar  1 <1>  -0.1500 
  6 N        1.1580    -1.6110    -0.6030 N.2   1 <1>  -0.5650 
  7 C        1.7380     0.8130    -0.8370 C.3   1 <1>  -0.0600 
  8 C        0.3210    -3.8310     0.0830 C.ar  1 <1>  -0.1500 
  9 C       -1.0210    -3.9330     2.0770 C.ar  1 <1>  -0.1500 
 10 C       -0.4250    -4.5880     0.9870 C.ar  1 <1>   0.0860 
 11 C       -0.5770    -6.0190     0.8020 C.2   1 <1>   0.5440 
 12 O        0.3950    -6.6970     0.5310 O.2   1 <1>  -0.5700 
 13 N       -1.8050    -6.6350     0.9010 N.am  1 <1>  -0.6600 
 14 C       -1.9390    -8.1250     0.9450 C.3   1 <1>   0.1400 
 15 C       -3.0900    -5.9590     0.5420 C.3   1 <1>   0.1400 
 16 C       -2.6130    -8.6530    -0.3340 C.3   1 <1>   0.3430 
 17 C       -3.7160    -6.6010    -0.7190 C.3   1 <1>   0.2950 
 18 O       -3.8310    -7.9840    -0.5460 O.3   1 <1>  -0.5600 
 19 C       -2.8620   -10.1550    -0.2280 C.ar  1 <1>  -0.1440 
 20 C       -5.1190    -6.0800    -1.0770 C.3   1 <1>  -0.1950 
 21 C       -1.8800   -11.0400    -0.6490 C.ar  1 <1>  -0.1500 
 22 C       -4.0450   -10.6620     0.2950 C.ar  1 <1>  -0.1500 
 23 C       -5.5850    -4.6830    -0.7970 C.3   1 <1>  -0.2000 
 24 C       -6.2040    -5.8460    -0.0720 C.3   1 <1>  -0.2000 
 25 C       -2.0750   -12.4070    -0.5500 C.ar  1 <1>  -0.1500 
 26 C       -4.2420   -12.0280     0.3950 C.ar  1 <1>  -0.1500 
 27 C       -3.2560   -12.9020    -0.0270 C.ar  1 <1>  -0.1500 
 28 H       -1.3540    -2.0610     3.0930 H     1 <1>   0.1500 
 29 H        2.2740     0.5260    -1.7230 H     1 <1>   0.0800 
 30 H        2.4220     1.2680    -0.1460 H     1 <1>   0.0800 
 31 H        0.9760     1.5210    -1.1040 H     1 <1>   0.0800 
 32 H        0.8040    -4.3060    -0.7510 H     1 <1>   0.1500 
 33 H       -1.5830    -4.5170     2.7870 H     1 <1>   0.1500 
 34 H       -0.9770    -8.5930     1.0560 H     1 <1>   0.0800 
 35 H       -2.5350    -8.4040     1.7960 H     1 <1>   0.0800 
 36 H       -3.7720    -6.0440     1.3680 H     1 <1>   0.0800 
 37 H       -2.9250    -4.9140     0.3500 H     1 <1>   0.0800 
 38 H       -1.9770    -8.4600    -1.1810 H     1 <1>   0.0800 
 39 H       -3.0640    -6.4250    -1.5580 H     1 <1>   0.0800 
 40 H       -5.4320    -6.4960    -2.0200 H     1 <1>   0.1000 
 41 H       -0.9550   -10.6700    -1.0560 H     1 <1>   0.1500 
 42 H       -4.8200    -9.9900     0.6230 H     1 <1>   0.1500 
 43 H       -4.9820    -3.9980    -0.2270 H     1 <1>   0.1000 
 44 H       -6.1700    -4.1780    -1.5470 H     1 <1>   0.1000 
 45 H       -7.2040    -6.1500    -0.3280 H     1 <1>   0.1000 
 46 H       -5.9970    -5.9820     0.9750 H     1 <1>   0.1000 
 47 H       -1.3080   -13.0860    -0.8790 H     1 <1>   0.1500 
 48 H       -5.1630   -12.4090     0.8000 H     1 <1>   0.1500 
 49 H       -3.4090   -13.9640     0.0500 H     1 <1>   0.1500 
@<TRIPOS>BOND
  1   1   2  1   
  2   1   3  1   
  3   2   4  ar  
  4   2   5  ar  
  5   3   6  2   
  6   3   7  1   
  7   4   6  1   
  8   4   8  ar  
  9   5   9  ar  
 10   5  28  1   
 11   7  29  1   
 12   7  30  1   
 13   7  31  1   
 14   8  10  ar  
 15   8  32  1   
 16   9  10  ar  
 17   9  33  1   
 18  10  11  1   
 19  11  12  2   
 20  11  13  am  
 21  13  14  1   
 22  13  15  1   
 23  14  16  1   
 24  14  34  1   
 25  14  35  1   
 26  15  17  1   
 27  15  36  1   
 28  15  37  1   
 29  16  18  1   
 30  16  19  1   
 31  16  38  1   
 32  17  18  1   
 33  17  20  1   
 34  17  39  1   
 35  19  21  ar  
 36  19  22  ar  
 37  20  23  1   
 38  20  24  1   
 39  20  40  1   
 40  21  25  ar  
 41  21  41  1   
 42  22  26  ar  
 43  22  42  1   
 44  23  24  1   
 45  23  43  1   
 46  23  44  1   
 47  24  45  1   
 48  24  46  1   
 49  25  27  ar  
 50  25  47  1   
 51  26  27  ar  
 52  26  48  1   
 53  27  49  1   
@<TRIPOS>SUBSTRUCTURE
  1 ****  13 GROUP 4 **** **** 0

# MOE 2024.06 (io_trps.svl 2023.06)
