@<TRIPOS>MOLECULE
NONAME
49 51 1 0 0 
SMALL
USER_CHARGES


@<TRIPOS>ATOM
  1 S        2.1650    -0.0510    -2.5310 S.3   1 <1>  -0.0800 
  2 C        1.8300    -0.4380    -0.8500 C.2   1 <1>   0.3250 
  3 C        1.3800    -1.5080    -3.0270 C.2   1 <1>  -0.1100 
  4 N        1.1940    -1.5500    -0.7270 N.2   1 <1>  -0.5650 
  5 C        2.2740     0.4630     0.1950 C.ar  1 <1>   0.0530 
  6 C        0.9180    -2.1800    -1.9510 C.2   1 <1>   0.1410 
  7 C        2.2580     0.0440     1.5270 C.ar  1 <1>  -0.1500 
  8 C        2.7240     1.7630    -0.0550 C.ar  1 <1>  -0.1500 
  9 C        0.2180    -3.4630    -2.0340 C.2   1 <1>   0.7160 
 10 C        2.6690     0.8710     2.5560 C.ar  1 <1>  -0.1500 
 11 C        3.1370     2.5950     0.9700 C.ar  1 <1>  -0.1500 
 12 O        0.4320    -4.1760    -2.9980 O.2   1 <1>  -0.5700 
 13 N       -0.6860    -3.9120    -1.0830 N.am  1 <1>  -0.6600 
 14 C        3.1110     2.1510     2.2790 C.ar  1 <1>  -0.1500 
 15 C       -0.9870    -5.3740    -0.9360 C.3   1 <1>   0.1400 
 16 C       -1.3970    -2.9960    -0.1460 C.3   1 <1>   0.1400 
 17 C       -2.5010    -5.6400    -0.8770 C.3   1 <1>   0.2000 
 18 C       -2.9020    -3.2920    -0.1440 C.3   1 <1>  -0.1600 
 19 O       -2.7130    -6.9960    -0.6420 O.3   1 <1>  -0.6800 
 20 C       -3.2390    -4.7690     0.1800 C.3   1 <1>   0.0000 
 21 C       -2.7400    -5.1390     1.6070 C.3   1 <1>   0.1200 
 22 C       -4.7800    -4.9930     0.1310 C.3   1 <1>  -0.1600 
 23 O       -3.3040    -4.3220     2.5780 O.3   1 <1>  -0.6800 
 24 C       -5.4680    -4.8020    -1.2350 C.3   1 <1>  -0.1600 
 25 C       -6.9790    -5.0190    -1.1130 C.3   1 <1>  -0.2400 
 26 H        1.3360    -1.7390    -4.0760 H     1 <1>   0.1500 
 27 H        1.9190    -0.9500     1.7580 H     1 <1>   0.1500 
 28 H        2.7540     2.1430    -1.0590 H     1 <1>   0.1500 
 29 H        2.6470     0.5190     3.5730 H     1 <1>   0.1500 
 30 H        3.4800     3.5920     0.7500 H     1 <1>   0.1500 
 31 H        3.4330     2.7980     3.0770 H     1 <1>   0.1500 
 32 H       -0.5790    -5.9270    -1.7650 H     1 <1>   0.0800 
 33 H       -0.5120    -5.7290    -0.0400 H     1 <1>   0.0800 
 34 H       -0.9790    -3.1030     0.8400 H     1 <1>   0.0800 
 35 H       -1.2630    -1.9730    -0.4510 H     1 <1>   0.0800 
 36 H       -2.8930    -5.4340    -1.8570 H     1 <1>   0.0800 
 37 H       -3.3900    -2.6340     0.5520 H     1 <1>   0.0800 
 38 H       -3.2720    -3.0370    -1.1200 H     1 <1>   0.0800 
 39 H       -2.4330    -7.2480     0.2570 H     1 <1>   0.4000 
 40 H       -1.6730    -5.0500     1.6940 H     1 <1>   0.0800 
 41 H       -3.0160    -6.1500     1.8510 H     1 <1>   0.0800 
 42 H       -4.9890    -5.9950     0.4650 H     1 <1>   0.0800 
 43 H       -5.2490    -4.3300     0.8370 H     1 <1>   0.0800 
 44 H       -3.1260    -3.3820     2.3880 H     1 <1>   0.4000 
 45 H       -5.2970    -3.8100    -1.6130 H     1 <1>   0.0800 
 46 H       -5.0820    -5.5090    -1.9480 H     1 <1>   0.0800 
 47 H       -7.4080    -4.3130    -0.4250 H     1 <1>   0.0800 
 48 H       -7.1880    -6.0150    -0.7640 H     1 <1>   0.0800 
 49 H       -7.4480    -4.8890    -2.0730 H     1 <1>   0.0800 
@<TRIPOS>BOND
  1   1   2  1   
  2   1   3  1   
  3   2   4  2   
  4   2   5  1   
  5   3   6  2   
  6   3  26  1   
  7   4   6  1   
  8   5   7  ar  
  9   5   8  ar  
 10   6   9  1   
 11   7  10  ar  
 12   7  27  1   
 13   8  11  ar  
 14   8  28  1   
 15   9  12  2   
 16   9  13  am  
 17  10  14  ar  
 18  10  29  1   
 19  11  14  ar  
 20  11  30  1   
 21  13  15  1   
 22  13  16  1   
 23  14  31  1   
 24  15  17  1   
 25  15  32  1   
 26  15  33  1   
 27  16  18  1   
 28  16  34  1   
 29  16  35  1   
 30  17  19  1   
 31  17  20  1   
 32  17  36  1   
 33  18  20  1   
 34  18  37  1   
 35  18  38  1   
 36  19  39  1   
 37  20  21  1   
 38  20  22  1   
 39  21  23  1   
 40  21  40  1   
 41  21  41  1   
 42  22  24  1   
 43  22  42  1   
 44  22  43  1   
 45  23  44  1   
 46  24  25  1   
 47  24  45  1   
 48  24  46  1   
 49  25  47  1   
 50  25  48  1   
 51  25  49  1   
@<TRIPOS>SUBSTRUCTURE
  1 ****  16 GROUP 4 **** **** 0

# MOE 2024.06 (io_trps.svl 2023.06)
