@<TRIPOS>MOLECULE
NONAME
61 64 1 0 0 
SMALL
USER_CHARGES


@<TRIPOS>ATOM
  1 O        1.2350     0.0640    -1.0600 O.3   1 <1>  -0.5600 
  2 C        2.4030    -0.6520    -0.7250 C.3   1 <1>   0.2000 
  3 C        1.4580     1.3780    -1.4880 C.3   1 <1>   0.1200 
  4 C        3.1500     0.0710     0.4250 C.3   1 <1>   0.5660 
  5 C        2.0100    -2.0860    -0.3430 C.3   1 <1>   0.1200 
  6 C        2.1540     2.1910    -0.3790 C.3   1 <1>   0.3430 
  7 N        3.4080     1.5080     0.0960 N.4   1 <1>  -0.9590 
  8 C        4.4720    -0.5980     0.7710 C.ar  1 <1>  -0.1440 
  9 O        1.2390    -2.6340    -1.3530 O.3   1 <1>  -0.6800 
 10 C        4.0850     2.2390     1.2070 C.3   1 <1>   0.5240 
 11 C        5.4600    -0.7770    -0.1860 C.ar  1 <1>  -0.1500 
 12 C        4.7080    -1.0350     2.0650 C.ar  1 <1>  -0.1500 
 13 C        4.2520     3.6970     0.8330 C.2   1 <1>  -0.1810 
 14 C        6.6720    -1.3670     0.1260 C.ar  1 <1>   0.0820 
 15 C        5.9150    -1.6240     2.3960 C.ar  1 <1>  -0.1500 
 16 C        4.8120     4.1760    -0.3550 C.2   1 <1>   0.2350 
 17 C        3.8830     4.7980     1.5210 C.2   1 <1>  -0.3020 
 18 O        7.5280    -1.4680    -0.9300 O.3   1 <1>  -0.3620 
 19 C        6.9170    -1.7930     1.4420 C.ar  1 <1>   0.0820 
 20 N        4.7560     5.4780    -0.3980 N.2   1 <1>  -0.7070 
 21 C        5.3280     3.3460    -1.4180 C.ar  1 <1>   0.0540 
 22 N        4.2090     5.8600     0.7610 N.pl3 1 <1>   0.3140 
 23 C        8.5470    -2.4440    -0.9840 C.3   1 <1>   0.0400 
 24 O        8.1200    -2.3430     1.7710 O.3   1 <1>  -0.3630 
 25 C        4.7410     3.3700    -2.6800 C.ar  1 <1>  -0.1500 
 26 C        6.3870     2.4660    -1.2040 C.ar  1 <1>  -0.1500 
 27 C        4.0140     7.2770     1.0970 C.3   1 <1>   0.0160 
 28 C        8.4040    -2.8440     3.0600 C.3   1 <1>   0.0400 
 29 C        5.1650     2.5160    -3.6820 C.ar  1 <1>  -0.1500 
 30 C        6.8180     1.6150    -2.2050 C.ar  1 <1>  -0.1500 
 31 C        6.2010     1.6320    -3.4420 C.ar  1 <1>  -0.1500 
 32 H        3.0290    -0.6980    -1.5990 H     1 <1>   0.0800 
 33 H        2.0530     1.3580    -2.3860 H     1 <1>   0.0800 
 34 H        0.5020     1.8140    -1.7220 H     1 <1>   0.0800 
 35 H        2.5150     0.0220     1.2930 H     1 <1>   0.0800 
 36 H        1.4310    -2.1000     0.5640 H     1 <1>   0.0800 
 37 H        2.8800    -2.7100    -0.2170 H     1 <1>   0.0800 
 38 H        1.4670     2.3110     0.4420 H     1 <1>   0.0800 
 39 H        2.3870     3.1730    -0.7580 H     1 <1>   0.0800 
 40 H        4.0800     1.5180    -0.6850 H     1 <1>   0.4500 
 41 H        0.5270    -2.0050    -1.5970 H     1 <1>   0.4000 
 42 H        3.4990     2.1690     2.1090 H     1 <1>   0.0800 
 43 H        5.0550     1.8070     1.3970 H     1 <1>   0.0800 
 44 H        5.3140    -0.4670    -1.2060 H     1 <1>   0.1500 
 45 H        3.9610    -0.9280     2.8340 H     1 <1>   0.1500 
 46 H        6.0570    -1.9450     3.4110 H     1 <1>   0.1500 
 47 H        3.4170     4.9010     2.4860 H     1 <1>   0.1500 
 48 H        8.8870    -2.5200    -2.0000 H     1 <1>   0.0800 
 49 H        8.1480    -3.3890    -0.6580 H     1 <1>   0.0800 
 50 H        9.3600    -2.1340    -0.3520 H     1 <1>   0.0800 
 51 H        3.9530     4.0770    -2.8740 H     1 <1>   0.1500 
 52 H        6.8880     2.4540    -0.2510 H     1 <1>   0.1500 
 53 H        2.9680     7.4670     1.2490 H     1 <1>   0.0800 
 54 H        4.3750     7.8840     0.2870 H     1 <1>   0.0800 
 55 H        4.5640     7.5090     1.9890 H     1 <1>   0.0800 
 56 H        9.4020    -3.2450     3.0500 H     1 <1>   0.0800 
 57 H        7.7020    -3.6230     3.2970 H     1 <1>   0.0800 
 58 H        8.3450    -2.0390     3.7710 H     1 <1>   0.0800 
 59 H        4.7000     2.5470    -4.6540 H     1 <1>   0.1500 
 60 H        7.6420     0.9420    -2.0250 H     1 <1>   0.1500 
 61 H        6.5390     0.9690    -4.2210 H     1 <1>   0.1500 
@<TRIPOS>BOND
  1   1   2  1   
  2   1   3  1   
  3   2   4  1   
  4   2   5  1   
  5   2  32  1   
  6   3   6  1   
  7   3  33  1   
  8   3  34  1   
  9   4   7  1   
 10   4   8  1   
 11   4  35  1   
 12   5   9  1   
 13   5  36  1   
 14   5  37  1   
 15   6   7  1   
 16   6  38  1   
 17   6  39  1   
 18   7  10  1   
 19   7  40  1   
 20   8  11  ar  
 21   8  12  ar  
 22   9  41  1   
 23  10  13  1   
 24  10  42  1   
 25  10  43  1   
 26  11  14  ar  
 27  11  44  1   
 28  12  15  ar  
 29  12  45  1   
 30  13  16  1   
 31  13  17  2   
 32  14  18  1   
 33  14  19  ar  
 34  15  19  ar  
 35  15  46  1   
 36  16  20  2   
 37  16  21  1   
 38  17  22  1   
 39  17  47  1   
 40  18  23  1   
 41  19  24  1   
 42  20  22  1   
 43  21  25  ar  
 44  21  26  ar  
 45  22  27  1   
 46  23  48  1   
 47  23  49  1   
 48  23  50  1   
 49  24  28  1   
 50  25  29  ar  
 51  25  51  1   
 52  26  30  ar  
 53  26  52  1   
 54  27  53  1   
 55  27  54  1   
 56  27  55  1   
 57  28  56  1   
 58  28  57  1   
 59  28  58  1   
 60  29  31  ar  
 61  29  59  1   
 62  30  31  ar  
 63  30  60  1   
 64  31  61  1   
@<TRIPOS>SUBSTRUCTURE
  1 ****   7 GROUP 4 **** **** 0

# MOE 2024.06 (io_trps.svl 2023.06)
