@<TRIPOS>MOLECULE
NONAME
60 63 1 0 0 
SMALL
USER_CHARGES


@<TRIPOS>ATOM
  1 O        2.6120    -0.6550     2.7260 O.2   1 <1>  -0.5700 
  2 C        2.6380    -0.9020     1.5360 C.2   1 <1>   0.5440 
  3 N        3.3110    -0.0320     0.7030 N.am  1 <1>  -0.6600 
  4 C        1.9230    -2.0430     1.0040 C.ar  1 <1>   0.0860 
  5 C        2.8760     1.3850     0.7350 C.3   1 <1>   0.2200 
  6 C        4.1100    -0.4980    -0.4650 C.3   1 <1>   0.0600 
  7 C        0.5250    -2.0500     0.8950 C.ar  1 <1>   0.0820 
  8 C        2.6070    -3.1720     0.5570 C.ar  1 <1>  -0.1500 
  9 C        2.1180     1.7240    -0.5370 C.3   1 <1>  -0.1600 
 10 C        4.0060     2.3990     0.8920 C.3   1 <1>  -0.1600 
 11 O       -0.2190    -1.0240     1.3680 O.3   1 <1>  -0.3620 
 12 C       -0.1420    -3.1300     0.3350 C.ar  1 <1>  -0.1500 
 13 C        1.9500    -4.2480    -0.0100 C.ar  1 <1>   0.0820 
 14 C        1.3740     3.0220    -0.2900 C.3   1 <1>   0.1400 
 15 C        3.4200     3.8150     1.0390 C.3   1 <1>   0.1400 
 16 C       -0.7560    -0.0910     0.4590 C.3   1 <1>   0.1200 
 17 C        0.5630    -4.2260    -0.1250 C.ar  1 <1>  -0.1500 
 18 O        2.7250    -5.2820    -0.4280 O.3   1 <1>  -0.3630 
 19 N        2.2910     4.1180     0.0940 N.am  1 <1>  -0.6600 
 20 C       -2.2670     0.0250     0.6790 C.3   1 <1>  -0.1600 
 21 C        2.1490    -6.4750    -0.9140 C.3   1 <1>   0.0400 
 22 C        1.9440     5.4270    -0.1090 C.2   1 <1>   0.5690 
 23 C       -2.9310     1.0400    -0.2760 C.3   1 <1>   0.0960 
 24 O        2.7860     6.2560    -0.3580 O.2   1 <1>  -0.5700 
 25 C        0.5150     5.9320     0.0970 C.3   1 <1>  -0.0990 
 26 N       -2.3880     2.4110    -0.1250 N.pl3 1 <1>   0.3140 
 27 C       -0.5960     5.4790    -0.8800 C.3   1 <1>   0.0210 
 28 N       -2.4880     3.1020     1.0120 N.2   1 <1>  -0.4180 
 29 C       -1.7180     3.1390    -1.0230 C.2   1 <1>  -0.3020 
 30 C       -1.4020     4.2790    -0.3830 C.2   1 <1>   0.0460 
 31 N       -1.9000     4.2350     0.8570 N.2   1 <1>  -0.2270 
 32 H        2.2090     1.5060     1.5750 H     1 <1>   0.0800 
 33 H        4.6830    -1.3660    -0.1910 H     1 <1>   0.0800 
 34 H        4.7950     0.2680    -0.7810 H     1 <1>   0.0800 
 35 H        3.4560    -0.7490    -1.2820 H     1 <1>   0.0800 
 36 H        3.6750    -3.2170     0.6570 H     1 <1>   0.1500 
 37 H        1.4210     0.9490    -0.7810 H     1 <1>   0.0800 
 38 H        2.7870     1.8510    -1.3690 H     1 <1>   0.0800 
 39 H        4.6580     2.3820     0.0390 H     1 <1>   0.0800 
 40 H        4.5820     2.1620     1.7680 H     1 <1>   0.0800 
 41 H       -1.2150    -3.1130     0.2730 H     1 <1>   0.1500 
 42 H        0.6490     2.8860     0.4950 H     1 <1>   0.0800 
 43 H        0.8800     3.2870    -1.2040 H     1 <1>   0.0800 
 44 H        4.2040     4.5410     0.9060 H     1 <1>   0.0800 
 45 H        3.0440     3.9260     2.0430 H     1 <1>   0.0800 
 46 H       -0.5300    -0.4030    -0.5470 H     1 <1>   0.0800 
 47 H       -0.2840     0.8500     0.6680 H     1 <1>   0.0800 
 48 H        0.0230    -5.0470    -0.5570 H     1 <1>   0.1500 
 49 H       -2.4540     0.3250     1.6960 H     1 <1>   0.0800 
 50 H       -2.7180    -0.9380     0.5260 H     1 <1>   0.0800 
 51 H        2.9460    -7.1610    -1.1400 H     1 <1>   0.0800 
 52 H        1.5920    -6.2570    -1.8070 H     1 <1>   0.0800 
 53 H        1.5140    -6.8910    -0.1530 H     1 <1>   0.0800 
 54 H       -3.9860     1.0820    -0.0720 H     1 <1>   0.0800 
 55 H       -2.7970     0.7280    -1.2950 H     1 <1>   0.0800 
 56 H        0.5630     7.0040     0.0380 H     1 <1>   0.0800 
 57 H        0.2330     5.7100     1.1090 H     1 <1>   0.0800 
 58 H       -0.1770     5.2790    -1.8500 H     1 <1>   0.0800 
 59 H       -1.2910     6.2910    -0.9940 H     1 <1>   0.0800 
 60 H       -1.5050     2.8140    -2.0230 H     1 <1>   0.1500 
@<TRIPOS>BOND
  1   1   2  2   
  2   2   3  am  
  3   2   4  1   
  4   3   5  1   
  5   3   6  1   
  6   4   7  ar  
  7   4   8  ar  
  8   5   9  1   
  9   5  10  1   
 10   5  32  1   
 11   6  33  1   
 12   6  34  1   
 13   6  35  1   
 14   7  11  1   
 15   7  12  ar  
 16   8  13  ar  
 17   8  36  1   
 18   9  14  1   
 19   9  37  1   
 20   9  38  1   
 21  10  15  1   
 22  10  39  1   
 23  10  40  1   
 24  11  16  1   
 25  12  17  ar  
 26  12  41  1   
 27  13  17  ar  
 28  13  18  1   
 29  14  19  1   
 30  14  42  1   
 31  14  43  1   
 32  15  19  1   
 33  15  44  1   
 34  15  45  1   
 35  16  20  1   
 36  16  46  1   
 37  16  47  1   
 38  17  48  1   
 39  18  21  1   
 40  19  22  am  
 41  20  23  1   
 42  20  49  1   
 43  20  50  1   
 44  21  51  1   
 45  21  52  1   
 46  21  53  1   
 47  22  24  2   
 48  22  25  1   
 49  23  26  1   
 50  23  54  1   
 51  23  55  1   
 52  25  27  1   
 53  25  56  1   
 54  25  57  1   
 55  26  28  1   
 56  26  29  1   
 57  27  30  1   
 58  27  58  1   
 59  27  59  1   
 60  28  31  2   
 61  29  30  2   
 62  29  60  1   
 63  30  31  1   
@<TRIPOS>SUBSTRUCTURE
  1 ****   9 GROUP 4 **** **** 0

# MOE 2024.06 (io_trps.svl 2023.06)
