@<TRIPOS>MOLECULE
NONAME
49 52 1 0 0 
SMALL
USER_CHARGES


@<TRIPOS>ATOM
  1 S       -0.0080     0.0150     1.7250 S.o2  1 <1>   1.5010 
  2 O       -0.5760     1.1350     2.4430 O.2   1 <1>  -0.6500 
  3 O        0.9940    -0.7910     2.3920 O.2   1 <1>  -0.6500 
  4 N       -1.3100    -1.0100     1.4670 N.am  1 <1>  -0.9140 
  5 C        0.5240     0.5310     0.0410 C.2   1 <1>   0.1640 
  6 C       -0.9240    -2.3530     1.0490 C.3   1 <1>   0.2760 
  7 N        0.7210    -0.3260    -1.0050 N.2   1 <1>  -0.5650 
  8 C        0.7930     1.7950    -0.3800 C.2   1 <1>  -0.3020 
  9 C       -2.0540    -2.9860     0.2570 C.3   1 <1>  -0.0800 
 10 C       -0.8920    -3.2830     2.2590 C.3   1 <1>   0.1200 
 11 C        1.0890     0.4260    -1.9880 C.2   1 <1>   0.0060 
 12 N        1.1530     1.7380    -1.6710 N.pl3 1 <1>   0.0480 
 13 C       -3.0000    -3.4690     1.3610 C.3   1 <1>   0.1200 
 14 C       -2.6790    -2.0870    -0.8300 C.3   1 <1>  -0.0170 
 15 O       -2.2300    -3.5860     2.5260 O.3   1 <1>  -0.5600 
 16 C        1.4180    -0.1160    -3.3650 C.3   1 <1>  -0.0600 
 17 C        1.5320     2.8770    -2.5270 C.3   1 <1>   0.0160 
 18 C       -3.8070    -2.8110    -1.5580 C.ar  1 <1>  -0.1430 
 19 C       -5.1740    -2.6690    -1.2130 C.ar  1 <1>   0.0000 
 20 C       -3.5000    -3.6470    -2.5900 C.ar  1 <1>  -0.1500 
 21 C       -6.1150    -3.4270    -1.9520 C.ar  1 <1>   0.3100 
 22 C       -5.6680    -1.8270    -0.1880 C.ar  1 <1>  -0.1500 
 23 C       -4.5110    -4.3420    -3.2620 C.ar  1 <1>   0.1600 
 24 N       -5.7690    -4.2550    -2.9690 N.ar  1 <1>  -0.6200 
 25 C       -7.4780    -3.3260    -1.6270 C.ar  1 <1>  -0.1500 
 26 C       -7.0030    -1.7500     0.1020 C.ar  1 <1>  -0.1500 
 27 C       -7.9220    -2.5090    -0.6240 C.ar  1 <1>  -0.1500 
 28 H       -1.7490    -1.1110     2.3800 H     1 <1>   0.4200 
 29 H        0.0020    -2.3560     0.4980 H     1 <1>   0.0800 
 30 H        0.7400     2.7100     0.1820 H     1 <1>   0.1500 
 31 H       -1.6640    -3.8630    -0.2290 H     1 <1>   0.0800 
 32 H       -0.4380    -2.8390     3.1280 H     1 <1>   0.0800 
 33 H       -0.3880    -4.2020     2.0170 H     1 <1>   0.0800 
 34 H       -3.4400    -4.4240     1.1280 H     1 <1>   0.0800 
 35 H       -3.7730    -2.7510     1.5630 H     1 <1>   0.0800 
 36 H       -1.9110    -1.8300    -1.5390 H     1 <1>   0.0800 
 37 H       -3.0260    -1.1560    -0.4230 H     1 <1>   0.0800 
 38 H        1.3000    -1.1840    -3.3740 H     1 <1>   0.0800 
 39 H        2.4350     0.1190    -3.6200 H     1 <1>   0.0800 
 40 H        0.7570     0.3100    -4.0980 H     1 <1>   0.0800 
 41 H        1.4850     3.7880    -1.9590 H     1 <1>   0.0800 
 42 H        0.8530     2.9400    -3.3580 H     1 <1>   0.0800 
 43 H        2.5340     2.7330    -2.8880 H     1 <1>   0.0800 
 44 H       -2.4840    -3.7960    -2.9090 H     1 <1>   0.1500 
 45 H       -4.9880    -1.2260     0.3840 H     1 <1>   0.1500 
 46 H       -4.2250    -4.9920    -4.0710 H     1 <1>   0.1500 
 47 H       -8.1660    -3.9180    -2.2020 H     1 <1>   0.1500 
 48 H       -7.3600    -1.1050     0.8870 H     1 <1>   0.1500 
 49 H       -8.9700    -2.4420    -0.3860 H     1 <1>   0.1500 
@<TRIPOS>BOND
  1   1   2  2   
  2   1   3  2   
  3   1   4  am  
  4   1   5  1   
  5   4   6  1   
  6   4  28  1   
  7   5   7  1   
  8   5   8  2   
  9   6   9  1   
 10   6  10  1   
 11   6  29  1   
 12   7  11  2   
 13   8  12  1   
 14   8  30  1   
 15   9  13  1   
 16   9  14  1   
 17   9  31  1   
 18  10  15  1   
 19  10  32  1   
 20  10  33  1   
 21  11  12  1   
 22  11  16  1   
 23  12  17  1   
 24  13  15  1   
 25  13  34  1   
 26  13  35  1   
 27  14  18  1   
 28  14  36  1   
 29  14  37  1   
 30  16  38  1   
 31  16  39  1   
 32  16  40  1   
 33  17  41  1   
 34  17  42  1   
 35  17  43  1   
 36  18  19  ar  
 37  18  20  ar  
 38  19  21  ar  
 39  19  22  ar  
 40  20  23  ar  
 41  20  44  1   
 42  21  24  ar  
 43  21  25  ar  
 44  22  26  ar  
 45  22  45  1   
 46  23  24  ar  
 47  23  46  1   
 48  25  27  ar  
 49  25  47  1   
 50  26  27  ar  
 51  26  48  1   
 52  27  49  1   
@<TRIPOS>SUBSTRUCTURE
  1 ****  14 GROUP 4 **** **** 0

# MOE 2024.06 (io_trps.svl 2023.06)
