@<TRIPOS>MOLECULE
NONAME
49 52 1 0 0 
SMALL
USER_CHARGES


@<TRIPOS>ATOM
  1 O       -1.0780     0.5080    -2.6440 O.2   1 <1>  -0.5700 
  2 C       -1.4840     1.1380    -1.6870 C.2   1 <1>   0.5440 
  3 N       -2.3860     0.5360    -0.8390 N.am  1 <1>  -0.6600 
  4 C       -1.0040     2.4730    -1.4830 C.ar  1 <1>   0.0860 
  5 C       -3.0460     1.1500     0.3410 C.3   1 <1>   0.1400 
  6 C       -2.5530    -0.9310    -0.7720 C.3   1 <1>   0.1400 
  7 C       -0.1920     2.8500    -0.4120 C.ar  1 <1>   0.3100 
  8 C       -1.3310     3.4690    -2.3820 C.ar  1 <1>   0.1600 
  9 C       -3.1730     0.0180     1.3690 C.3   1 <1>   0.2000 
 10 C       -2.5620    -1.2330     0.7260 C.3   1 <1>  -0.0800 
 11 N        0.1860     4.1090    -0.2570 N.ar  1 <1>  -0.6200 
 12 C        0.2540     1.8940     0.5840 C.ar  1 <1>   0.0000 
 13 N       -0.9540     4.7150    -2.2440 N.ar  1 <1>  -0.6200 
 14 O       -2.4730     0.3220     2.5240 O.3   1 <1>  -0.6800 
 15 C       -3.3220    -2.5160     1.0960 C.3   1 <1>   0.0200 
 16 C       -0.2200     4.9620    -1.1740 C.ar  1 <1>   0.7200 
 17 C        0.0870     2.1600     1.9430 C.ar  1 <1>  -0.1500 
 18 C        0.8550     0.6830     0.2370 C.ar  1 <1>  -0.1500 
 19 C       -2.7020    -3.7720     0.5080 C.2   1 <1>  -0.0400 
 20 N        0.1670     6.2230    -1.0140 N.pl3 1 <1>  -0.9000 
 21 C        0.4720     1.2500     2.9110 C.ar  1 <1>  -0.1500 
 22 C        1.2380    -0.2330     1.2000 C.ar  1 <1>  -0.1500 
 23 O       -3.3710    -4.8920     0.5760 O.3   1 <1>  -0.0190 
 24 C       -1.5370    -4.0310    -0.1080 C.2   1 <1>  -0.1500 
 25 C        1.0420     0.0470     2.5400 C.ar  1 <1>  -0.1500 
 26 N       -2.7230    -5.8820     0.0340 N.2   1 <1>  -0.4100 
 27 C       -1.6130    -5.3920    -0.3870 C.2   1 <1>   0.1080 
 28 C       -0.5410    -6.1950    -1.0900 C.3   1 <1>  -0.0590 
 29 H       -2.4880     1.9800     0.7340 H     1 <1>   0.0800 
 30 H       -4.0260     1.4870     0.0530 H     1 <1>   0.0800 
 31 H       -3.4900    -1.1990    -1.2300 H     1 <1>   0.0800 
 32 H       -1.7510    -1.4430    -1.2770 H     1 <1>   0.0800 
 33 H       -1.9280     3.2140    -3.2410 H     1 <1>   0.1500 
 34 H       -4.2060    -0.1230     1.6340 H     1 <1>   0.0800 
 35 H       -1.5370    -1.3310     1.0380 H     1 <1>   0.0800 
 36 H       -1.5210     0.4610     2.3190 H     1 <1>   0.4000 
 37 H       -4.3390    -2.4430     0.7510 H     1 <1>   0.0800 
 38 H       -3.3460    -2.6200     2.1670 H     1 <1>   0.0800 
 39 H       -0.3500     3.0980     2.2440 H     1 <1>   0.1500 
 40 H        1.0280     0.4510    -0.8000 H     1 <1>   0.1500 
 41 H        0.9100     6.4120    -0.3470 H     1 <1>   0.4000 
 42 H        0.0590     6.8560    -1.8010 H     1 <1>   0.4000 
 43 H        0.3300     1.4800     3.9540 H     1 <1>   0.1500 
 44 H        1.6950    -1.1630     0.9070 H     1 <1>   0.1500 
 45 H       -0.7150    -3.3830    -0.3490 H     1 <1>   0.1500 
 46 H        1.3420    -0.6640     3.2920 H     1 <1>   0.1500 
 47 H       -0.3670    -5.7910    -2.0700 H     1 <1>   0.0800 
 48 H       -0.8550    -7.2190    -1.1860 H     1 <1>   0.0800 
 49 H        0.3700    -6.1620    -0.5230 H     1 <1>   0.0800 
@<TRIPOS>BOND
  1   1   2  2   
  2   2   3  am  
  3   2   4  1   
  4   3   5  1   
  5   3   6  1   
  6   4   7  ar  
  7   4   8  ar  
  8   5   9  1   
  9   5  29  1   
 10   5  30  1   
 11   6  10  1   
 12   6  31  1   
 13   6  32  1   
 14   7  11  ar  
 15   7  12  1   
 16   8  13  ar  
 17   8  33  1   
 18   9  10  1   
 19   9  14  1   
 20   9  34  1   
 21  10  15  1   
 22  10  35  1   
 23  11  16  ar  
 24  12  17  ar  
 25  12  18  ar  
 26  13  16  ar  
 27  14  36  1   
 28  15  19  1   
 29  15  37  1   
 30  15  38  1   
 31  16  20  1   
 32  17  21  ar  
 33  17  39  1   
 34  18  22  ar  
 35  18  40  1   
 36  19  23  1   
 37  19  24  2   
 38  20  41  1   
 39  20  42  1   
 40  21  25  ar  
 41  21  43  1   
 42  22  25  ar  
 43  22  44  1   
 44  23  26  1   
 45  24  27  1   
 46  24  45  1   
 47  25  46  1   
 48  26  27  2   
 49  27  28  1   
 50  28  47  1   
 51  28  48  1   
 52  28  49  1   
@<TRIPOS>SUBSTRUCTURE
  1 ****   3 GROUP 4 **** **** 0

# MOE 2024.06 (io_trps.svl 2023.06)
