@<TRIPOS>MOLECULE
NONAME
41 43 1 0 0 
SMALL
USER_CHARGES


@<TRIPOS>ATOM
  1 CL       0.9810     0.8390    -2.3070 Cl    1 <1>  -0.1770 
  2 C        1.9810     1.3910    -0.9810 C.ar  1 <1>   0.1770 
  3 C        2.7750     0.5050    -0.2620 C.ar  1 <1>   0.0830 
  4 C        1.9710     2.7400    -0.6790 C.ar  1 <1>  -0.1500 
  5 O        2.8250    -0.8140    -0.5480 O.3   1 <1>  -0.3630 
  6 C        3.5670     0.9890     0.7650 C.ar  1 <1>  -0.1500 
  7 C        2.7690     3.2250     0.3500 C.ar  1 <1>  -0.1430 
  8 C        1.7460    -1.6030    -0.0980 C.3   1 <1>   0.0400 
  9 C        3.5610     2.3390     1.0730 C.ar  1 <1>  -0.1500 
 10 C        2.7900     4.7100     0.6650 C.3   1 <1>   0.4870 
 11 N        4.1400     5.2400     0.3410 N.4   1 <1>  -0.9590 
 12 C        4.3930     6.6030     0.9360 C.3   1 <1>   0.3430 
 13 C        4.5060     5.0630    -1.1070 C.3   1 <1>   0.3430 
 14 C        5.8750     7.0760     0.8940 C.3   1 <1>   0.2200 
 15 C        6.0090     5.1990    -1.3920 C.3   1 <1>  -0.0190 
 16 N        6.2500     7.4790    -0.4810 N.am  1 <1>  -0.7300 
 17 C        6.8780     6.0290     1.4410 C.3   1 <1>   0.1200 
 18 C        6.3350     6.6590    -1.5430 C.2   1 <1>   0.5690 
 19 C        6.9710     4.4990    -0.4050 C.3   1 <1>   0.1200 
 20 O        6.6500     4.7340     0.9410 O.3   1 <1>  -0.5600 
 21 O        6.6390     7.0920    -2.6200 O.2   1 <1>  -0.5700 
 22 H        1.3390     3.3900    -1.2590 H     1 <1>   0.1500 
 23 H        4.1850     0.3010     1.3170 H     1 <1>   0.1500 
 24 H        1.9440    -2.6250    -0.3680 H     1 <1>   0.0800 
 25 H        0.8390    -1.2710    -0.5700 H     1 <1>   0.0800 
 26 H        1.6690    -1.5130     0.9710 H     1 <1>   0.0800 
 27 H        4.1860     2.6830     1.8820 H     1 <1>   0.1500 
 28 H        2.5750     4.8510     1.7120 H     1 <1>   0.0800 
 29 H        2.0380     5.2240     0.0870 H     1 <1>   0.0800 
 30 H        4.8240     4.6230     0.8240 H     1 <1>   0.4500 
 31 H        3.7820     7.3380     0.4390 H     1 <1>   0.0800 
 32 H        4.0930     6.5810     1.9710 H     1 <1>   0.0800 
 33 H        4.2110     4.0750    -1.4210 H     1 <1>   0.0800 
 34 H        3.9630     5.7710    -1.7140 H     1 <1>   0.0800 
 35 H        5.9560     7.9560     1.5090 H     1 <1>   0.0800 
 36 H        6.1830     4.7590    -2.3580 H     1 <1>   0.0800 
 37 H        6.5420     8.4500    -0.6390 H     1 <1>   0.3700 
 38 H        6.7750     5.9660     2.5110 H     1 <1>   0.0800 
 39 H        7.8940     6.3170     1.2250 H     1 <1>   0.0800 
 40 H        7.9900     4.8070    -0.5790 H     1 <1>   0.0800 
 41 H        6.9200     3.4340    -0.5540 H     1 <1>   0.0800 
@<TRIPOS>BOND
  1   1   2  1   
  2   2   3  ar  
  3   2   4  ar  
  4   3   5  1   
  5   3   6  ar  
  6   4   7  ar  
  7   4  22  1   
  8   5   8  1   
  9   6   9  ar  
 10   6  23  1   
 11   7   9  ar  
 12   7  10  1   
 13   8  24  1   
 14   8  25  1   
 15   8  26  1   
 16   9  27  1   
 17  10  11  1   
 18  10  28  1   
 19  10  29  1   
 20  11  12  1   
 21  11  13  1   
 22  11  30  1   
 23  12  14  1   
 24  12  31  1   
 25  12  32  1   
 26  13  15  1   
 27  13  33  1   
 28  13  34  1   
 29  14  16  1   
 30  14  17  1   
 31  14  35  1   
 32  15  18  1   
 33  15  19  1   
 34  15  36  1   
 35  16  18  am  
 36  16  37  1   
 37  17  20  1   
 38  17  38  1   
 39  17  39  1   
 40  18  21  2   
 41  19  20  1   
 42  19  40  1   
 43  19  41  1   
@<TRIPOS>SUBSTRUCTURE
  1 ****  13 GROUP 4 **** **** 0

# MOE 2024.06 (io_trps.svl 2023.06)
