@<TRIPOS>MOLECULE
NONAME
45 47 1 0 0 
SMALL
USER_CHARGES


@<TRIPOS>ATOM
  1 O        0.5930     1.5770     0.4590 O.co2 1 <1>  -0.9000 
  2 C        1.4300     0.6890     0.6150 C.2   1 <1>   0.9060 
  3 O        1.4010    -0.0650     1.6030 O.co2 1 <1>  -0.9000 
  4 C        2.5470     0.5070    -0.4290 C.3   1 <1>  -0.1060 
  5 C        3.8210     0.0160     0.2910 C.3   1 <1>   0.4230 
  6 C        2.8800     1.8560    -1.1260 C.3   1 <1>  -0.1600 
  7 C        2.1310    -0.5210    -1.5090 C.3   1 <1>  -0.1600 
  8 N        3.5900    -1.3470     0.8880 N.4   1 <1>  -0.9590 
  9 C        4.3100     1.0920     1.2950 C.3   1 <1>   0.2090 
 10 C        3.4080     2.9080    -0.1390 C.3   1 <1>   0.2090 
 11 C        2.0080    -1.9350    -0.9220 C.3   1 <1>  -0.1600 
 12 C        3.2620    -2.3530    -0.1510 C.3   1 <1>   0.3430 
 13 C        4.6550    -1.8100     1.8150 C.3   1 <1>   0.2630 
 14 N        4.6020     2.3650     0.5700 N.pl3 1 <1>  -0.8380 
 15 C        5.8450     2.5340    -0.0150 C.ar  1 <1>   0.4100 
 16 N        6.4980     1.4380    -0.3930 N.ar  1 <1>  -0.6200 
 17 C        6.3500     3.8200    -0.1870 C.ar  1 <1>  -0.1500 
 18 C        7.6760     1.6400    -0.9620 C.ar  1 <1>   0.1600 
 19 C        7.5760     4.0180    -0.7810 C.ar  1 <1>  -0.1440 
 20 C        8.2490     2.8790    -1.1780 C.ar  1 <1>  -0.1500 
 21 C        8.1600     5.4030    -0.9880 C.3   1 <1>   0.2640 
 22 O        9.3160     5.4910    -0.2390 O.3   1 <1>  -0.6800 
 23 H        4.5970    -0.0800    -0.4480 H     1 <1>   0.0800 
 24 H        1.9950     2.2460    -1.5980 H     1 <1>   0.0800 
 25 H        3.6200     1.7120    -1.8930 H     1 <1>   0.0800 
 26 H        1.1860    -0.2250    -1.9360 H     1 <1>   0.0800 
 27 H        2.8610    -0.5320    -2.3000 H     1 <1>   0.0800 
 28 H        2.6990    -1.1730     1.4290 H     1 <1>   0.4500 
 29 H        5.2110     0.7680     1.7820 H     1 <1>   0.0800 
 30 H        3.5650     1.2780     2.0500 H     1 <1>   0.0800 
 31 H        2.6460     3.1610     0.5810 H     1 <1>   0.0800 
 32 H        3.6660     3.8050    -0.6740 H     1 <1>   0.0800 
 33 H        1.8320    -2.6370    -1.7180 H     1 <1>   0.0800 
 34 H        1.1580    -1.9830    -0.2620 H     1 <1>   0.0800 
 35 H        4.0900    -2.4470    -0.8340 H     1 <1>   0.0800 
 36 H        3.0880    -3.3100     0.3120 H     1 <1>   0.0800 
 37 H        5.5990    -1.8650     1.2980 H     1 <1>   0.0800 
 38 H        4.4080    -2.7830     2.2060 H     1 <1>   0.0800 
 39 H        4.7490    -1.1260     2.6430 H     1 <1>   0.0800 
 40 H        5.7620     4.6470     0.1610 H     1 <1>   0.1500 
 41 H        8.2200     0.7660    -1.2770 H     1 <1>   0.1500 
 42 H        9.2150     2.9560    -1.6460 H     1 <1>   0.1500 
 43 H        7.4810     6.1690    -0.6520 H     1 <1>   0.0800 
 44 H        8.4120     5.5720    -2.0200 H     1 <1>   0.0800 
 45 H        9.1570     5.0920     0.6390 H     1 <1>   0.4000 
@<TRIPOS>BOND
  1   1   2  ar  
  2   2   3  ar  
  3   2   4  1   
  4   4   5  1   
  5   4   6  1   
  6   4   7  1   
  7   5   8  1   
  8   5   9  1   
  9   5  23  1   
 10   6  10  1   
 11   6  24  1   
 12   6  25  1   
 13   7  11  1   
 14   7  26  1   
 15   7  27  1   
 16   8  12  1   
 17   8  13  1   
 18   8  28  1   
 19   9  14  1   
 20   9  29  1   
 21   9  30  1   
 22  10  14  1   
 23  10  31  1   
 24  10  32  1   
 25  11  12  1   
 26  11  33  1   
 27  11  34  1   
 28  12  35  1   
 29  12  36  1   
 30  13  37  1   
 31  13  38  1   
 32  13  39  1   
 33  14  15  1   
 34  15  16  ar  
 35  15  17  ar  
 36  16  18  ar  
 37  17  19  ar  
 38  17  40  1   
 39  18  20  ar  
 40  18  41  1   
 41  19  20  ar  
 42  19  21  1   
 43  20  42  1   
 44  21  22  1   
 45  21  43  1   
 46  21  44  1   
 47  22  45  1   
@<TRIPOS>SUBSTRUCTURE
  1 ****  14 GROUP 4 **** **** 0

# MOE 2024.06 (io_trps.svl 2023.06)
