@<TRIPOS>MOLECULE
NONAME
46 48 1 0 0 
SMALL
USER_CHARGES


@<TRIPOS>ATOM
  1 S        0.3130     0.2250    -0.4840 S.o2  1 <1>   1.3330 
  2 O        0.2730    -1.2130    -0.3450 O.2   1 <1>  -0.6500 
  3 O        0.0940     0.8260    -1.7810 O.2   1 <1>  -0.6500 
  4 N       -0.8130     0.8860     0.5990 N.am  1 <1>  -0.8490 
  5 C        1.8690     0.8730     0.1230 C.3   1 <1>  -0.0550 
  6 C       -2.1440     1.0140    -0.0030 C.3   1 <1>   0.1160 
  7 C       -0.9100     0.1370     1.8580 C.3   1 <1>   0.1160 
  8 C        3.0930     0.4090    -0.7050 C.3   1 <1>  -0.0800 
  9 C        4.3800     1.1740    -0.4080 C.3   1 <1>   0.2200 
 10 C        3.5110    -0.9900    -0.2610 C.3   1 <1>   0.1200 
 11 N        4.1660     2.6280    -0.1870 N.am  1 <1>  -0.7300 
 12 C        4.9440     0.4350     0.8110 C.3   1 <1>   0.1200 
 13 O        4.2550    -0.7810     0.8950 O.3   1 <1>  -0.5600 
 14 C        5.1460     3.5060     0.1860 C.2   1 <1>   0.5440 
 15 O        6.2600     3.0720     0.4000 O.2   1 <1>  -0.5700 
 16 C        4.8650     4.9270     0.2980 C.ar  1 <1>   0.0860 
 17 C        5.8700     5.8690     0.0690 C.ar  1 <1>  -0.1500 
 18 C        3.5820     5.3940     0.6370 C.ar  1 <1>  -0.1500 
 19 C        5.6110     7.2250     0.1580 C.ar  1 <1>   0.2270 
 20 C        3.3010     6.7450     0.7330 C.ar  1 <1>  -0.1500 
 21 N        6.5340     8.2450    -0.0580 N.2   1 <1>  -0.5650 
 22 C        4.3320     7.6300     0.4870 C.ar  1 <1>   0.0400 
 23 C        6.0130     9.3930     0.0940 C.2   1 <1>   0.1980 
 24 S        4.3050     9.3780     0.5240 S.3   1 <1>  -0.0800 
 25 C        6.6710    10.7450    -0.0480 C.3   1 <1>  -0.0600 
 26 H        1.7910     1.9400     0.0920 H     1 <1>   0.0800 
 27 H        2.0070     0.5930     1.1490 H     1 <1>   0.0800 
 28 H       -2.8330     1.4490     0.7020 H     1 <1>   0.0800 
 29 H       -2.5120     0.0490    -0.3090 H     1 <1>   0.0800 
 30 H       -2.0980     1.6560    -0.8670 H     1 <1>   0.0800 
 31 H       -1.5740     0.6430     2.5390 H     1 <1>   0.0800 
 32 H        0.0570     0.0600     2.3230 H     1 <1>   0.0800 
 33 H       -1.2860    -0.8570     1.6780 H     1 <1>   0.0800 
 34 H        2.8700     0.4280    -1.7580 H     1 <1>   0.0800 
 35 H        5.0720     1.0480    -1.2240 H     1 <1>   0.0800 
 36 H        4.1550    -1.4540    -0.9900 H     1 <1>   0.0800 
 37 H        2.6900    -1.6480    -0.0380 H     1 <1>   0.0800 
 38 H        3.3340     3.0130    -0.6340 H     1 <1>   0.3700 
 39 H        4.7710     0.9790     1.7220 H     1 <1>   0.0800 
 40 H        5.9940     0.2320     0.6930 H     1 <1>   0.0800 
 41 H        6.8660     5.5490    -0.1810 H     1 <1>   0.1500 
 42 H        2.7980     4.6860     0.8380 H     1 <1>   0.1500 
 43 H        2.3200     7.1060     0.9920 H     1 <1>   0.1500 
 44 H        7.7050    10.6180    -0.3100 H     1 <1>   0.0800 
 45 H        6.6080    11.2800     0.8810 H     1 <1>   0.0800 
 46 H        6.1810    11.3100    -0.8190 H     1 <1>   0.0800 
@<TRIPOS>BOND
  1   1   2  2   
  2   1   3  2   
  3   1   4  am  
  4   1   5  1   
  5   4   6  1   
  6   4   7  1   
  7   5   8  1   
  8   5  26  1   
  9   5  27  1   
 10   6  28  1   
 11   6  29  1   
 12   6  30  1   
 13   7  31  1   
 14   7  32  1   
 15   7  33  1   
 16   8   9  1   
 17   8  10  1   
 18   8  34  1   
 19   9  11  1   
 20   9  12  1   
 21   9  35  1   
 22  10  13  1   
 23  10  36  1   
 24  10  37  1   
 25  11  14  am  
 26  11  38  1   
 27  12  13  1   
 28  12  39  1   
 29  12  40  1   
 30  14  15  2   
 31  14  16  1   
 32  16  17  ar  
 33  16  18  ar  
 34  17  19  ar  
 35  17  41  1   
 36  18  20  ar  
 37  18  42  1   
 38  19  21  1   
 39  19  22  ar  
 40  20  22  ar  
 41  20  43  1   
 42  21  23  2   
 43  22  24  1   
 44  23  24  1   
 45  23  25  1   
 46  25  44  1   
 47  25  45  1   
 48  25  46  1   
@<TRIPOS>SUBSTRUCTURE
  1 ****  11 GROUP 4 **** **** 0

# MOE 2024.06 (io_trps.svl 2023.06)
