@<TRIPOS>MOLECULE
NONAME
54 56 1 0 0 
SMALL
USER_CHARGES


@<TRIPOS>ATOM
  1 O        1.8220     1.4070     2.7610 O.co2 1 <1>  -0.9000 
  2 C        1.7420     0.5790     1.8470 C.2   1 <1>   0.9060 
  3 O        1.4440    -0.6050     2.0650 O.co2 1 <1>  -0.9000 
  4 C        2.1230     0.9650     0.4160 C.3   1 <1>  -0.1060 
  5 C        3.4550     0.2040     0.1990 C.3   1 <1>   0.2000 
  6 C        2.3590     2.4980     0.2410 C.3   1 <1>  -0.1600 
  7 C        1.0100     0.5200    -0.5800 C.3   1 <1>  -0.0160 
  8 O        3.2050    -1.1150    -0.1460 O.3   1 <1>  -0.6800 
  9 C        4.3770     0.8780    -0.8240 C.3   1 <1>   0.1400 
 10 C        3.7880     2.9150     0.5890 C.3   1 <1>   0.1400 
 11 C       -0.2360     1.4050    -0.5780 C.ar  1 <1>  -0.1440 
 12 N        4.7480     2.2610    -0.3630 N.am  1 <1>  -0.6600 
 13 C       -1.1000     1.3970     0.5060 C.ar  1 <1>  -0.1500 
 14 C       -0.5200     2.2230    -1.6620 C.ar  1 <1>  -0.1500 
 15 C        5.9170     2.8340    -0.7880 C.2   1 <1>   0.5690 
 16 C       -2.2280     2.1990     0.5100 C.ar  1 <1>  -0.1500 
 17 C       -1.6490     3.0250    -1.6610 C.ar  1 <1>  -0.1500 
 18 O        6.6060     2.3120    -1.6350 O.2   1 <1>  -0.5700 
 19 C        6.3720     4.1630    -0.1920 C.3   1 <1>  -0.0990 
 20 C       -2.5040     3.0140    -0.5730 C.ar  1 <1>  -0.1500 
 21 C        7.8430     4.5230    -0.4800 C.3   1 <1>  -0.1600 
 22 C        8.2500     5.8710     0.1360 C.3   1 <1>  -0.0800 
 23 C        9.6950     6.2440    -0.1830 C.3   1 <1>  -0.1600 
 24 C        8.2050     5.9040     1.6630 C.3   1 <1>  -0.1600 
 25 C       10.0660     7.2920     0.8650 C.3   1 <1>  -0.1600 
 26 C        9.1640     7.0240     2.0750 C.3   1 <1>  -0.1600 
 27 H        4.0000     0.1670     1.1290 H     1 <1>   0.0800 
 28 H        1.6640     3.0440     0.8550 H     1 <1>   0.0800 
 29 H        2.1780     2.7940    -0.7770 H     1 <1>   0.0800 
 30 H        1.4220     0.5020    -1.5720 H     1 <1>   0.0800 
 31 H        0.6990    -0.4870    -0.3600 H     1 <1>   0.0800 
 32 H        2.5820    -1.4550     0.5480 H     1 <1>   0.4000 
 33 H        3.8780     0.9460    -1.7740 H     1 <1>   0.0800 
 34 H        5.2690     0.2860    -0.9390 H     1 <1>   0.0800 
 35 H        4.0140     2.6160     1.6000 H     1 <1>   0.0800 
 36 H        3.8600     3.9850     0.5240 H     1 <1>   0.0800 
 37 H       -0.8910     0.7660     1.3550 H     1 <1>   0.1500 
 38 H        0.1400     2.2380    -2.5110 H     1 <1>   0.1500 
 39 H       -2.8840     2.1840     1.3620 H     1 <1>   0.1500 
 40 H       -1.8590     3.6560    -2.5050 H     1 <1>   0.1500 
 41 H        5.7380     4.9360    -0.5830 H     1 <1>   0.0800 
 42 H        6.2320     4.1130     0.8710 H     1 <1>   0.0800 
 43 H       -3.3800     3.6370    -0.5680 H     1 <1>   0.1500 
 44 H        7.9880     4.5690    -1.5460 H     1 <1>   0.0800 
 45 H        8.4770     3.7400    -0.1000 H     1 <1>   0.0800 
 46 H        7.6100     6.6500    -0.2460 H     1 <1>   0.0800 
 47 H       10.3290     5.3820    -0.0600 H     1 <1>   0.0800 
 48 H        9.8030     6.6200    -1.1850 H     1 <1>   0.0800 
 49 H        7.2100     6.0770     2.0340 H     1 <1>   0.0800 
 50 H        8.5680     4.9690     2.0560 H     1 <1>   0.0800 
 51 H       11.1090     7.2290     1.1250 H     1 <1>   0.0800 
 52 H        9.8630     8.2760     0.4780 H     1 <1>   0.0800 
 53 H        8.6110     7.9150     2.3180 H     1 <1>   0.0800 
 54 H        9.7420     6.7290     2.9340 H     1 <1>   0.0800 
@<TRIPOS>BOND
  1   1   2  ar  
  2   2   3  ar  
  3   2   4  1   
  4   4   5  1   
  5   4   6  1   
  6   4   7  1   
  7   5   8  1   
  8   5   9  1   
  9   5  27  1   
 10   6  10  1   
 11   6  28  1   
 12   6  29  1   
 13   7  11  1   
 14   7  30  1   
 15   7  31  1   
 16   8  32  1   
 17   9  12  1   
 18   9  33  1   
 19   9  34  1   
 20  10  12  1   
 21  10  35  1   
 22  10  36  1   
 23  11  13  ar  
 24  11  14  ar  
 25  12  15  am  
 26  13  16  ar  
 27  13  37  1   
 28  14  17  ar  
 29  14  38  1   
 30  15  18  2   
 31  15  19  1   
 32  16  20  ar  
 33  16  39  1   
 34  17  20  ar  
 35  17  40  1   
 36  19  21  1   
 37  19  41  1   
 38  19  42  1   
 39  20  43  1   
 40  21  22  1   
 41  21  44  1   
 42  21  45  1   
 43  22  23  1   
 44  22  24  1   
 45  22  46  1   
 46  23  25  1   
 47  23  47  1   
 48  23  48  1   
 49  24  26  1   
 50  24  49  1   
 51  24  50  1   
 52  25  26  1   
 53  25  51  1   
 54  25  52  1   
 55  26  53  1   
 56  26  54  1   
@<TRIPOS>SUBSTRUCTURE
  1 ****  10 GROUP 4 **** **** 0

# MOE 2024.06 (io_trps.svl 2023.06)
