@<TRIPOS>MOLECULE
Untitled Document
45 48 1 0 0 
SMALL
USER_CHARGES


@<TRIPOS>ATOM
  1 F       -0.4470    -0.7720     1.6320 F     1 <1>  -0.1900 
  2 C       -1.4080    -1.1870     0.8520 C.ar  1 <1>   0.1900 
  3 C       -1.3800    -2.4820     0.3820 C.ar  1 <1>  -0.1440 
  4 C       -2.4330    -0.3200     0.5210 C.ar  1 <1>  -0.1500 
  5 C       -2.4090    -2.9380    -0.4240 C.ar  1 <1>   0.0410 
  6 C       -0.3500    -3.5780     0.6250 C.3   1 <1>   0.5780 
  7 C       -3.4570    -0.7750    -0.2990 C.ar  1 <1>  -0.1500 
  8 C       -2.1490    -4.3110    -0.7300 C.2   1 <1>   0.3090 
  9 C       -3.4500    -2.0810    -0.7720 C.ar  1 <1>  -0.1500 
 10 N       -0.9860    -4.6900    -0.1270 N.pl3 1 <1>  -0.7640 
 11 C        1.0240    -3.2310     0.0310 C.3   1 <1>  -0.1600 
 12 C       -2.6160    -5.4010    -1.3890 C.2   1 <1>   0.2000 
 13 C       -0.7490    -5.9610    -0.4000 C.cat 1 <1>   0.6500 
 14 C        2.2000    -3.9140     0.7470 C.3   1 <1>   0.2000 
 15 N       -1.7270    -6.4260    -1.1710 N.pl3 1 <1>  -0.7000 
 16 O        1.9040    -5.2570     0.8880 O.3   1 <1>  -0.6800 
 17 C        3.5540    -3.7760     0.0060 C.3   1 <1>  -0.0800 
 18 C        4.6820    -4.5610     0.7180 C.3   1 <1>  -0.1600 
 19 C        3.9640    -2.2920    -0.1480 C.3   1 <1>  -0.1600 
 20 C        6.0380    -4.3960     0.0160 C.3   1 <1>  -0.1600 
 21 C        5.3230    -2.1330    -0.8460 C.3   1 <1>  -0.1600 
 22 C        6.4100    -2.9200    -0.1140 C.3   1 <1>   0.2000 
 23 O        7.5770    -2.8260    -0.8360 O.3   1 <1>  -0.6800 
 24 H       -2.4310     0.6890     0.8980 H     1 <1>   0.1500 
 25 H       -0.2890    -3.8080     1.6770 H     1 <1>   0.0800 
 26 H       -4.2610    -0.1090    -0.5670 H     1 <1>   0.1500 
 27 H       -4.2520    -2.4250    -1.4020 H     1 <1>   0.1500 
 28 H        1.1680    -2.1720     0.1310 H     1 <1>   0.0800 
 29 H        1.0400    -3.4510    -1.0210 H     1 <1>   0.0800 
 30 H       -3.5120    -5.4960    -1.9820 H     1 <1>   0.1500 
 31 H        0.1010    -6.5350    -0.0560 H     1 <1>   0.1500 
 32 H        2.2970    -3.5070     1.7410 H     1 <1>   0.0800 
 33 H       -1.8000    -7.3810    -1.5360 H     1 <1>   0.4500 
 34 H        2.6680    -5.7050     1.3100 H     1 <1>   0.4000 
 35 H        3.4340    -4.1830    -0.9850 H     1 <1>   0.0800 
 36 H        4.7730    -4.2170     1.7350 H     1 <1>   0.0800 
 37 H        4.4540    -5.6120     0.7430 H     1 <1>   0.0800 
 38 H        3.2340    -1.7570    -0.7280 H     1 <1>   0.0800 
 39 H        4.0160    -1.8300     0.8240 H     1 <1>   0.0800 
 40 H        5.9830    -4.8440    -0.9610 H     1 <1>   0.0800 
 41 H        6.7980    -4.9040     0.5840 H     1 <1>   0.0800 
 42 H        5.5930    -1.0920    -0.8670 H     1 <1>   0.0800 
 43 H        5.2390    -2.4860    -1.8590 H     1 <1>   0.0800 
 44 H        6.5910    -2.4920     0.8590 H     1 <1>   0.0800 
 45 H        7.4480    -3.1970    -1.7280 H     1 <1>   0.4000 
@<TRIPOS>BOND
  1   1   2  1   
  2   2   3  ar  
  3   2   4  ar  
  4   3   5  ar  
  5   3   6  1   
  6   4   7  ar  
  7   4  24  1   
  8   5   8  1   
  9   5   9  ar  
 10   6  10  1   
 11   6  11  1   
 12   6  25  1   
 13   7   9  ar  
 14   7  26  1   
 15   8  10  1   
 16   8  12  2   
 17   9  27  1   
 18  10  13  ar  
 19  11  14  1   
 20  11  28  1   
 21  11  29  1   
 22  12  15  1   
 23  12  30  1   
 24  13  15  ar  
 25  13  31  1   
 26  14  16  1   
 27  14  17  1   
 28  14  32  1   
 29  15  33  1   
 30  16  34  1   
 31  17  18  1   
 32  17  19  1   
 33  17  35  1   
 34  18  20  1   
 35  18  36  1   
 36  18  37  1   
 37  19  21  1   
 38  19  38  1   
 39  19  39  1   
 40  20  22  1   
 41  20  40  1   
 42  20  41  1   
 43  21  22  1   
 44  21  42  1   
 45  21  43  1   
 46  22  23  1   
 47  22  44  1   
 48  23  45  1   
@<TRIPOS>SUBSTRUCTURE
  1 ****  11 GROUP 4 **** **** 0

# MOE 2024.06 (io_trps.svl 2023.06)
