@<TRIPOS>MOLECULE
NONAME
57 60 1 0 0 
SMALL
USER_CHARGES


@<TRIPOS>ATOM
  1 O        0.3110    -0.4740    -1.1900 O.2   1 <1>  -0.5700 
  2 C        1.3260     0.1440    -0.9080 C.2   1 <1>   0.5440 
  3 N        1.1960     1.3250    -0.2100 N.am  1 <1>  -0.6600 
  4 C        2.6210    -0.3730    -1.2900 C.ar  1 <1>   0.0860 
  5 C       -0.1270     1.8860     0.1500 C.3   1 <1>   0.1400 
  6 C        2.2660     1.9370     0.6120 C.3   1 <1>   0.1400 
  7 C        2.9540    -1.7240    -1.0700 C.ar  1 <1>   0.4100 
  8 C        3.5770     0.4360    -1.8900 C.ar  1 <1>  -0.1500 
  9 C        0.1770     3.0370     1.1010 C.3   1 <1>  -0.1600 
 10 C        1.5270     2.6820     1.7160 C.3   1 <1>  -0.1600 
 11 N        4.1360    -2.2600    -1.3720 N.ar  1 <1>  -0.6200 
 12 N        2.0330    -2.5810    -0.5110 N.pl3 1 <1>  -0.8690 
 13 C        4.7950    -0.1200    -2.2090 C.ar  1 <1>  -0.1500 
 14 C        5.0200    -1.4550    -1.9280 C.ar  1 <1>   0.1600 
 15 C        2.0680    -4.0310    -0.6940 C.3   1 <1>   0.2890 
 16 C        0.6400    -4.5440    -0.8370 C.3   1 <1>  -0.1600 
 17 C        2.7470    -4.6540     0.5210 C.3   1 <1>  -0.1600 
 18 C        0.6340    -6.0670    -0.9250 C.3   1 <1>   0.3430 
 19 C        2.7280    -6.1720     0.4150 C.3   1 <1>   0.3430 
 20 N        1.3240    -6.6520     0.2660 N.4   1 <1>  -0.9590 
 21 C        1.2630    -8.1400     0.2600 C.3   1 <1>   0.4860 
 22 C       -0.1870    -8.5700     0.3570 C.ar  1 <1>  -0.1440 
 23 C       -0.8780    -8.4160     1.5500 C.ar  1 <1>  -0.1500 
 24 C       -0.8370    -9.1190    -0.7410 C.ar  1 <1>  -0.1500 
 25 C       -2.2040    -8.7980     1.6350 C.ar  1 <1>   0.0820 
 26 C       -2.1650    -9.5020    -0.6480 C.ar  1 <1>  -0.1500 
 27 O       -2.8490    -8.6340     2.7980 O.3   1 <1>  -0.5330 
 28 C       -2.8550    -9.3420     0.5410 C.ar  1 <1>  -0.1500 
 29 H       -0.7080     1.1280     0.6470 H     1 <1>   0.0800 
 30 H       -0.6490     2.2200    -0.7300 H     1 <1>   0.0800 
 31 H        2.8220     2.6310     0.0060 H     1 <1>   0.0800 
 32 H        2.9280     1.1900     1.0160 H     1 <1>   0.0800 
 33 H        3.3630     1.4690    -2.1020 H     1 <1>   0.1500 
 34 H       -0.5940     3.1550     1.8420 H     1 <1>   0.0800 
 35 H        0.2600     3.9470     0.5330 H     1 <1>   0.0800 
 36 H        2.0700     3.5500     2.0470 H     1 <1>   0.0800 
 37 H        1.3850     2.0180     2.5510 H     1 <1>   0.0800 
 38 H        1.0810    -2.1790    -0.5030 H     1 <1>   0.4000 
 39 H        5.5660     0.4710    -2.6720 H     1 <1>   0.1500 
 40 H        5.9780    -1.8780    -2.1770 H     1 <1>   0.1500 
 41 H        2.6240    -4.2700    -1.5870 H     1 <1>   0.0800 
 42 H        0.2060    -4.1390    -1.7340 H     1 <1>   0.0800 
 43 H        0.0420    -4.2290    -0.0010 H     1 <1>   0.0800 
 44 H        2.2570    -4.3410     1.4250 H     1 <1>   0.0800 
 45 H        3.7680    -4.3170     0.5610 H     1 <1>   0.0800 
 46 H        1.1360    -6.3760    -1.8280 H     1 <1>   0.0800 
 47 H       -0.3870    -6.4150    -0.9700 H     1 <1>   0.0800 
 48 H        3.1750    -6.5950     1.3000 H     1 <1>   0.0800 
 49 H        3.3130    -6.4760    -0.4390 H     1 <1>   0.0800 
 50 H        0.7900    -6.3470     1.0910 H     1 <1>   0.4500 
 51 H        1.8040    -8.5370     1.1030 H     1 <1>   0.0800 
 52 H        1.7040    -8.5290    -0.6430 H     1 <1>   0.0800 
 53 H       -0.4110    -8.0080     2.4290 H     1 <1>   0.1500 
 54 H       -0.3220    -9.2600    -1.6770 H     1 <1>   0.1500 
 55 H       -2.6650    -9.9300    -1.5020 H     1 <1>   0.1500 
 56 H       -3.7630    -8.9720     2.7880 H     1 <1>   0.4500 
 57 H       -3.8850    -9.6410     0.6080 H     1 <1>   0.1500 
@<TRIPOS>BOND
  1   1   2  2   
  2   2   3  am  
  3   2   4  1   
  4   3   5  1   
  5   3   6  1   
  6   4   7  ar  
  7   4   8  ar  
  8   5   9  1   
  9   5  29  1   
 10   5  30  1   
 11   6  10  1   
 12   6  31  1   
 13   6  32  1   
 14   7  11  ar  
 15   7  12  1   
 16   8  13  ar  
 17   8  33  1   
 18   9  10  1   
 19   9  34  1   
 20   9  35  1   
 21  10  36  1   
 22  10  37  1   
 23  11  14  ar  
 24  12  15  1   
 25  12  38  1   
 26  13  14  ar  
 27  13  39  1   
 28  14  40  1   
 29  15  16  1   
 30  15  17  1   
 31  15  41  1   
 32  16  18  1   
 33  16  42  1   
 34  16  43  1   
 35  17  19  1   
 36  17  44  1   
 37  17  45  1   
 38  18  20  1   
 39  18  46  1   
 40  18  47  1   
 41  19  20  1   
 42  19  48  1   
 43  19  49  1   
 44  20  21  1   
 45  20  50  1   
 46  21  22  1   
 47  21  51  1   
 48  21  52  1   
 49  22  23  ar  
 50  22  24  ar  
 51  23  25  ar  
 52  23  53  1   
 53  24  26  ar  
 54  24  54  1   
 55  25  27  1   
 56  25  28  ar  
 57  26  28  ar  
 58  26  55  1   
 59  27  56  1   
 60  28  57  1   
@<TRIPOS>SUBSTRUCTURE
  1 ****  15 GROUP 4 **** **** 0

# MOE 2024.06 (io_trps.svl 2023.06)
