@<TRIPOS>MOLECULE
NONAME
51 54 1 0 0 
SMALL
USER_CHARGES


@<TRIPOS>ATOM
  1 O        2.4280    -0.2840    -2.0590 O.2   1 <1>  -0.5700 
  2 C        2.7560    -0.7580    -0.9940 C.2   1 <1>   0.5690 
  3 N        2.7200    -0.0100     0.1600 N.am  1 <1>  -0.6600 
  4 C        3.2470    -2.1910    -1.0090 C.3   1 <1>   0.1570 
  5 C        3.1800    -0.5000     1.4970 C.3   1 <1>   0.1400 
  6 C        2.4870     1.4560     0.1040 C.3   1 <1>   0.1400 
  7 N        2.2490    -3.0880    -0.4130 N.pl3 1 <1>   0.3140 
  8 C        4.7130    -0.4870     1.6440 C.3   1 <1>   0.1400 
  9 C        3.8030     2.2040    -0.1500 C.3   1 <1>  -0.1600 
 10 N        2.5220    -3.8150     0.7000 N.2   1 <1>  -0.7070 
 11 C        1.0000    -3.3650    -0.9000 C.ar  1 <1>  -0.1520 
 12 N        5.3920     0.4830     0.7230 N.am  1 <1>  -0.6600 
 13 C        4.9350     1.8990     0.8460 C.3   1 <1>   0.1400 
 14 C        1.4650    -4.5290     0.9040 C.2   1 <1>   0.1390 
 15 C        0.4610    -4.3090    -0.0520 C.ar  1 <1>   0.0000 
 16 C        0.2740    -2.8910    -2.0000 C.ar  1 <1>  -0.1500 
 17 C        6.2910     0.0450    -0.2210 C.2   1 <1>   0.5690 
 18 C       -0.8290    -4.8060    -0.2850 C.ar  1 <1>  -0.1500 
 19 C       -0.9900    -3.3820    -2.2220 C.ar  1 <1>  -0.1500 
 20 O        6.5090    -1.1350    -0.3840 O.2   1 <1>  -0.5700 
 21 C        7.0560     1.0070    -1.1130 C.3   1 <1>   0.0440 
 22 C       -1.5430    -4.3420    -1.3640 C.ar  1 <1>  -0.1500 
 23 C        8.1560     1.7150    -0.3460 C.ar  1 <1>   0.1670 
 24 N        8.1250     3.0400    -0.3530 N.ar  1 <1>  -0.6200 
 25 C        9.1260     0.9660     0.3070 C.ar  1 <1>  -0.1500 
 26 C        9.0970     3.6400     0.3160 C.ar  1 <1>   0.1600 
 27 C       10.1300     1.6060     1.0020 C.ar  1 <1>  -0.1500 
 28 C       10.1050     2.9830     0.9990 C.ar  1 <1>  -0.1500 
 29 H        4.1680    -2.2760    -0.4680 H     1 <1>   0.0800 
 30 H        3.4200    -2.5000    -2.0220 H     1 <1>   0.0800 
 31 H        2.8100    -1.4900     1.6850 H     1 <1>   0.0800 
 32 H        2.7590     0.1260     2.2640 H     1 <1>   0.0800 
 33 H        2.0430     1.7890     1.0250 H     1 <1>   0.0800 
 34 H        1.7920     1.6790    -0.6890 H     1 <1>   0.0800 
 35 H        5.0760    -1.4850     1.4670 H     1 <1>   0.0800 
 36 H        4.9690    -0.2470     2.6600 H     1 <1>   0.0800 
 37 H        3.5960     3.2580    -0.1070 H     1 <1>   0.0800 
 38 H        4.1300     1.9950    -1.1520 H     1 <1>   0.0800 
 39 H        4.5970     2.0830     1.8510 H     1 <1>   0.0800 
 40 H        5.7590     2.5650     0.6640 H     1 <1>   0.0800 
 41 H        1.3590    -5.2240     1.7190 H     1 <1>   0.1500 
 42 H        0.7020    -2.1520    -2.6560 H     1 <1>   0.1500 
 43 H       -1.2380    -5.5410     0.3840 H     1 <1>   0.1500 
 44 H       -1.5680    -3.0320    -3.0600 H     1 <1>   0.1500 
 45 H        6.3840     1.7190    -1.5490 H     1 <1>   0.0800 
 46 H        7.5020     0.4560    -1.9200 H     1 <1>   0.0800 
 47 H       -2.5350    -4.7090    -1.5610 H     1 <1>   0.1500 
 48 H        9.0950    -0.1090     0.2730 H     1 <1>   0.1500 
 49 H        9.0910     4.7170     0.3190 H     1 <1>   0.1500 
 50 H       10.8960     1.0540     1.5190 H     1 <1>   0.1500 
 51 H       10.8600     3.5440     1.5200 H     1 <1>   0.1500 
@<TRIPOS>BOND
  1   1   2  2   
  2   2   3  am  
  3   2   4  1   
  4   3   5  1   
  5   3   6  1   
  6   4   7  1   
  7   4  29  1   
  8   4  30  1   
  9   5   8  1   
 10   5  31  1   
 11   5  32  1   
 12   6   9  1   
 13   6  33  1   
 14   6  34  1   
 15   7  10  1   
 16   7  11  1   
 17   8  12  1   
 18   8  35  1   
 19   8  36  1   
 20   9  13  1   
 21   9  37  1   
 22   9  38  1   
 23  10  14  2   
 24  11  15  ar  
 25  11  16  ar  
 26  12  13  1   
 27  12  17  am  
 28  13  39  1   
 29  13  40  1   
 30  14  15  1   
 31  14  41  1   
 32  15  18  ar  
 33  16  19  ar  
 34  16  42  1   
 35  17  20  2   
 36  17  21  1   
 37  18  22  ar  
 38  18  43  1   
 39  19  22  ar  
 40  19  44  1   
 41  21  23  1   
 42  21  45  1   
 43  21  46  1   
 44  22  47  1   
 45  23  24  ar  
 46  23  25  ar  
 47  24  26  ar  
 48  25  27  ar  
 49  25  48  1   
 50  26  28  ar  
 51  26  49  1   
 52  27  28  ar  
 53  27  50  1   
 54  28  51  1   
@<TRIPOS>SUBSTRUCTURE
  1 ****   3 GROUP 4 **** **** 0

# MOE 2024.06 (io_trps.svl 2023.06)
