@<TRIPOS>MOLECULE
NONAME
48 50 1 0 0 
SMALL
USER_CHARGES


@<TRIPOS>ATOM
  1 CL      -0.5150    -1.1710     2.1410 Cl    1 <1>  -0.1770 
  2 C       -1.6210    -1.4390     0.8150 C.ar  1 <1>   0.1770 
  3 C       -2.1870    -0.3800     0.1260 C.ar  1 <1>   0.1900 
  4 C       -1.9340    -2.7390     0.4580 C.ar  1 <1>  -0.1500 
  5 F       -1.8990     0.8490     0.4620 F     1 <1>  -0.1900 
  6 C       -3.0620    -0.5940    -0.9220 C.ar  1 <1>  -0.1500 
  7 C       -2.8240    -2.9740    -0.5860 C.ar  1 <1>  -0.1440 
  8 C       -3.3760    -1.8980    -1.2770 C.ar  1 <1>  -0.1500 
  9 C       -3.1930    -4.3960    -0.9710 C.3   1 <1>   0.4870 
 10 N       -4.1300    -4.9430     0.0610 N.4   1 <1>  -0.9590 
 11 C       -4.3930    -6.4170    -0.1320 C.3   1 <1>   0.3430 
 12 C       -5.3900    -4.1260     0.1340 C.3   1 <1>   0.3430 
 13 C       -5.5730    -6.8640     0.7740 C.3   1 <1>   0.4230 
 14 C       -6.4930    -4.8380     0.9460 C.3   1 <1>  -0.1600 
 15 N       -5.6180    -8.3050     1.2520 N.4   1 <1>  -0.9590 
 16 C       -6.9370    -6.2200     0.2300 C.3   1 <1>   0.0000 
 17 C       -5.6590    -9.3110     0.1740 C.3   1 <1>   0.3430 
 18 C       -4.5890    -8.6620     2.2830 C.3   1 <1>   0.2630 
 19 C       -7.3810    -7.5580    -0.5630 C.3   1 <1>  -0.1600 
 20 C       -8.3190    -5.5380    -0.2210 C.3   1 <1>   0.1200 
 21 C       -6.4180    -8.6980    -0.9810 C.3   1 <1>  -0.1600 
 22 O       -9.1450    -5.5340     0.8970 O.3   1 <1>  -0.6800 
 23 H       -1.4670    -3.5390     1.0050 H     1 <1>   0.1500 
 24 H       -3.4810     0.2480    -1.4470 H     1 <1>   0.1500 
 25 H       -4.0540    -2.0530    -2.1010 H     1 <1>   0.1500 
 26 H       -2.2950    -4.9930    -1.0180 H     1 <1>   0.0800 
 27 H       -3.6570    -4.4040    -1.9440 H     1 <1>   0.0800 
 28 H       -3.6450    -4.7940     0.9590 H     1 <1>   0.4500 
 29 H       -4.6510    -6.6060    -1.1610 H     1 <1>   0.0800 
 30 H       -3.5080    -6.9790     0.1160 H     1 <1>   0.0800 
 31 H       -5.1750    -3.1670     0.5820 H     1 <1>   0.0800 
 32 H       -5.7600    -3.9420    -0.8630 H     1 <1>   0.0800 
 33 H       -5.3160    -6.3950     1.7030 H     1 <1>   0.0800 
 34 H       -6.2100    -4.9300     1.9830 H     1 <1>   0.0800 
 35 H       -7.2370    -4.0640     1.0690 H     1 <1>   0.0800 
 36 H       -6.5400    -8.3860     1.7170 H     1 <1>   0.4500 
 37 H       -4.6650    -9.5880    -0.1430 H     1 <1>   0.0800 
 38 H       -6.1670   -10.1970     0.5220 H     1 <1>   0.0800 
 39 H       -3.5970    -8.6220     1.8640 H     1 <1>   0.0800 
 40 H       -4.7630    -9.6610     2.6510 H     1 <1>   0.0800 
 41 H       -4.6430    -7.9840     3.1200 H     1 <1>   0.0800 
 42 H       -8.1990    -8.0170    -0.0250 H     1 <1>   0.0800 
 43 H       -7.7440    -7.3250    -1.5530 H     1 <1>   0.0800 
 44 H       -8.9330    -5.9850    -0.9850 H     1 <1>   0.0800 
 45 H       -8.2140    -4.5270    -0.5840 H     1 <1>   0.0800 
 46 H       -5.7200    -8.3460    -1.7200 H     1 <1>   0.0800 
 47 H       -6.9820    -9.4820    -1.4610 H     1 <1>   0.0800 
 48 H      -10.0370    -5.1800     0.6880 H     1 <1>   0.4000 
@<TRIPOS>BOND
  1   1   2  1   
  2   2   3  ar  
  3   2   4  ar  
  4   3   5  1   
  5   3   6  ar  
  6   4   7  ar  
  7   4  23  1   
  8   6   8  ar  
  9   6  24  1   
 10   7   8  ar  
 11   7   9  1   
 12   8  25  1   
 13   9  10  1   
 14   9  26  1   
 15   9  27  1   
 16  10  11  1   
 17  10  12  1   
 18  10  28  1   
 19  11  13  1   
 20  11  29  1   
 21  11  30  1   
 22  12  14  1   
 23  12  31  1   
 24  12  32  1   
 25  13  15  1   
 26  13  16  1   
 27  13  33  1   
 28  14  16  1   
 29  14  34  1   
 30  14  35  1   
 31  15  17  1   
 32  15  18  1   
 33  15  36  1   
 34  16  19  1   
 35  16  20  1   
 36  17  21  1   
 37  17  37  1   
 38  17  38  1   
 39  18  39  1   
 40  18  40  1   
 41  18  41  1   
 42  19  21  1   
 43  19  42  1   
 44  19  43  1   
 45  20  22  1   
 46  20  44  1   
 47  20  45  1   
 48  21  46  1   
 49  21  47  1   
 50  22  48  1   
@<TRIPOS>SUBSTRUCTURE
  1 ****  10 GROUP 4 **** **** 0

# MOE 2024.06 (io_trps.svl 2023.06)
