@<TRIPOS>MOLECULE
NONAME
48 50 1 0 0 
SMALL
USER_CHARGES


@<TRIPOS>ATOM
  1 F       -0.5310    -1.9670     0.2450 F     1 <1>  -0.1900 
  2 C       -1.7930    -2.2930     0.3240 C.ar  1 <1>   0.1900 
  3 C       -2.6540    -1.8680    -0.6690 C.ar  1 <1>  -0.1500 
  4 C       -2.2200    -3.0500     1.3970 C.ar  1 <1>  -0.1500 
  5 C       -3.9910    -2.2180    -0.5790 C.ar  1 <1>  -0.1500 
  6 C       -3.5590    -3.3930     1.4750 C.ar  1 <1>  -0.1500 
  7 C       -4.4470    -2.9790     0.4900 C.ar  1 <1>  -0.1430 
  8 C       -5.9150    -3.3630     0.5750 C.3   1 <1>  -0.0160 
  9 C       -6.1740    -4.6470    -0.2200 C.3   1 <1>  -0.1600 
 10 C       -7.6480    -5.0770    -0.1480 C.3   1 <1>  -0.0990 
 11 C       -7.9110    -6.3200    -0.9740 C.2   1 <1>   0.5690 
 12 O       -8.4840    -6.2180    -2.0300 O.2   1 <1>  -0.5700 
 13 N       -7.4980    -7.5170    -0.4960 N.am  1 <1>  -0.7300 
 14 C       -7.6150    -8.8040    -1.2190 C.3   1 <1>   0.2200 
 15 C       -8.7060    -9.6810    -0.6200 C.3   1 <1>  -0.0800 
 16 C       -6.3840    -9.6470    -0.9160 C.3   1 <1>   0.1200 
 17 C       -7.9910   -10.3800     0.5420 C.3   1 <1>   0.1200 
 18 C      -10.0070    -8.9580    -0.2230 C.3   1 <1>  -0.0170 
 19 O       -6.6190   -10.1830     0.3510 O.3   1 <1>  -0.5600 
 20 C      -11.0530    -9.9520     0.2590 C.ar  1 <1>  -0.1430 
 21 C      -11.2740   -10.1930     1.6000 C.ar  1 <1>  -0.1500 
 22 C      -11.8350   -10.6660    -0.6250 C.ar  1 <1>  -0.1500 
 23 C      -12.2350   -11.1160     1.9800 C.ar  1 <1>   0.1600 
 24 C      -12.7700   -11.5650    -0.1410 C.ar  1 <1>   0.1600 
 25 N      -12.9870   -11.8100     1.1410 N.ar  1 <1>  -0.6200 
 26 H       -2.2850    -1.2800    -1.4890 H     1 <1>   0.1500 
 27 H       -1.5190    -3.3620     2.1500 H     1 <1>   0.1500 
 28 H       -4.6760    -1.8980    -1.3460 H     1 <1>   0.1500 
 29 H       -3.9060    -3.9840     2.3050 H     1 <1>   0.1500 
 30 H       -6.1920    -3.5060     1.6050 H     1 <1>   0.0800 
 31 H       -6.5180    -2.5620     0.1830 H     1 <1>   0.0800 
 32 H       -5.5470    -5.4340     0.1630 H     1 <1>   0.0800 
 33 H       -5.9040    -4.4850    -1.2500 H     1 <1>   0.0800 
 34 H       -8.2740    -4.2860    -0.5210 H     1 <1>   0.0800 
 35 H       -7.9290    -5.2710     0.8700 H     1 <1>   0.0800 
 36 H       -7.0200    -7.5900     0.4050 H     1 <1>   0.3700 
 37 H       -7.7470    -8.6370    -2.2750 H     1 <1>   0.0800 
 38 H       -8.9520   -10.4360    -1.3450 H     1 <1>   0.0800 
 39 H       -5.4740    -9.0730    -0.9070 H     1 <1>   0.0800 
 40 H       -6.2990   -10.4640    -1.6110 H     1 <1>   0.0800 
 41 H       -8.1950   -11.4380     0.5550 H     1 <1>   0.0800 
 42 H       -8.2530    -9.9480     1.4920 H     1 <1>   0.0800 
 43 H      -10.3910    -8.4220    -1.0750 H     1 <1>   0.0800 
 44 H       -9.8170    -8.2370     0.5510 H     1 <1>   0.0800 
 45 H      -10.7110    -9.6750     2.3540 H     1 <1>   0.1500 
 46 H      -11.7270   -10.5300    -1.6860 H     1 <1>   0.1500 
 47 H      -12.3940   -11.2920     3.0300 H     1 <1>   0.1500 
 48 H      -13.3720   -12.1130    -0.8460 H     1 <1>   0.1500 
@<TRIPOS>BOND
  1   1   2  1   
  2   2   3  ar  
  3   2   4  ar  
  4   3   5  ar  
  5   3  26  1   
  6   4   6  ar  
  7   4  27  1   
  8   5   7  ar  
  9   5  28  1   
 10   6   7  ar  
 11   6  29  1   
 12   7   8  1   
 13   8   9  1   
 14   8  30  1   
 15   8  31  1   
 16   9  10  1   
 17   9  32  1   
 18   9  33  1   
 19  10  11  1   
 20  10  34  1   
 21  10  35  1   
 22  11  12  2   
 23  11  13  am  
 24  13  14  1   
 25  13  36  1   
 26  14  15  1   
 27  14  16  1   
 28  14  37  1   
 29  15  17  1   
 30  15  18  1   
 31  15  38  1   
 32  16  19  1   
 33  16  39  1   
 34  16  40  1   
 35  17  19  1   
 36  17  41  1   
 37  17  42  1   
 38  18  20  1   
 39  18  43  1   
 40  18  44  1   
 41  20  21  ar  
 42  20  22  ar  
 43  21  23  ar  
 44  21  45  1   
 45  22  24  ar  
 46  22  46  1   
 47  23  25  ar  
 48  23  47  1   
 49  24  25  ar  
 50  24  48  1   
@<TRIPOS>SUBSTRUCTURE
  1 ****  13 GROUP 4 **** **** 0

# MOE 2024.06 (io_trps.svl 2023.06)
