@<TRIPOS>MOLECULE
NONAME
38 38 1 0 0 
SMALL
USER_CHARGES


@<TRIPOS>ATOM
  1 O       -0.1670    -0.9220    -0.7050 O.co2 1 <1>  -0.9000 
  2 C       -1.2800    -0.7860    -0.1710 C.2   1 <1>   0.9060 
  3 O       -1.3960    -1.0290     1.0290 O.co2 1 <1>  -0.9000 
  4 C       -2.3190     0.0570    -0.9590 C.3   1 <1>   0.1830 
  5 N       -2.0350     1.5570    -0.9610 N.pl3 1 <1>  -0.8690 
  6 C       -3.8090    -0.1670    -0.5880 C.3   1 <1>  -0.0800 
  7 C       -0.9580     2.2460    -0.5470 C.ar  1 <1>   0.7710 
  8 C       -4.2120     0.4180     0.7790 C.3   1 <1>  -0.2400 
  9 C       -4.1910    -1.6550    -0.6440 C.3   1 <1>  -0.2400 
 10 N       -1.1030     3.5570    -0.5130 N.ar  1 <1>  -0.6200 
 11 N        0.1930     1.6450    -0.1980 N.ar  1 <1>  -0.1790 
 12 C       -0.0770     4.2830    -0.1030 C.ar  1 <1>   0.4100 
 13 C        1.2450     2.3410     0.2690 C.ar  1 <1>   0.2110 
 14 N       -0.2510     5.6310    -0.1240 N.pl3 1 <1>  -0.8380 
 15 C        1.1370     3.6920     0.3370 C.ar  1 <1>  -0.1430 
 16 C        0.6280     6.5370    -0.9120 C.3   1 <1>   0.1290 
 17 C       -1.5470     6.2440     0.2850 C.3   1 <1>   0.1290 
 18 C        2.2820     4.5240     0.9100 C.3   1 <1>  -0.0970 
 19 H       -2.2120    -0.2750    -1.9750 H     1 <1>   0.0800 
 20 H       -2.8440     2.1330    -1.1930 H     1 <1>   0.4000 
 21 H       -4.3960     0.3320    -1.3390 H     1 <1>   0.0800 
 22 H       -3.6750    -0.0690     1.5740 H     1 <1>   0.0800 
 23 H       -5.2640     0.2760     0.9490 H     1 <1>   0.0800 
 24 H       -4.0050     1.4710     0.8270 H     1 <1>   0.0800 
 25 H       -3.6790    -2.2070     0.1270 H     1 <1>   0.0800 
 26 H       -3.9310    -2.0760    -1.5980 H     1 <1>   0.0800 
 27 H       -5.2490    -1.7740    -0.4960 H     1 <1>   0.0800 
 28 H        0.2200     0.6120    -0.2890 H     1 <1>   0.4570 
 29 H        2.1200     1.7920     0.5750 H     1 <1>   0.1500 
 30 H        0.0390     7.0960    -1.6190 H     1 <1>   0.0800 
 31 H        1.3590     5.9680    -1.4590 H     1 <1>   0.0800 
 32 H        1.1310     7.2220    -0.2520 H     1 <1>   0.0800 
 33 H       -1.3680     7.1530     0.8310 H     1 <1>   0.0800 
 34 H       -2.0960     5.5660     0.9160 H     1 <1>   0.0800 
 35 H       -2.1390     6.4610    -0.5870 H     1 <1>   0.0800 
 36 H        2.9800     3.9070     1.4460 H     1 <1>   0.0800 
 37 H        1.8940     5.2600     1.5940 H     1 <1>   0.0800 
 38 H        2.8110     5.0280     0.1220 H     1 <1>   0.0800 
@<TRIPOS>BOND
  1   1   2  ar  
  2   2   3  ar  
  3   2   4  1   
  4   4   5  1   
  5   4   6  1   
  6   4  19  1   
  7   5   7  1   
  8   5  20  1   
  9   6   8  1   
 10   6   9  1   
 11   6  21  1   
 12   7  10  ar  
 13   7  11  ar  
 14   8  22  1   
 15   8  23  1   
 16   8  24  1   
 17   9  25  1   
 18   9  26  1   
 19   9  27  1   
 20  10  12  ar  
 21  11  13  ar  
 22  11  28  1   
 23  12  14  1   
 24  12  15  ar  
 25  13  15  ar  
 26  13  29  1   
 27  14  16  1   
 28  14  17  1   
 29  15  18  1   
 30  16  30  1   
 31  16  31  1   
 32  16  32  1   
 33  17  33  1   
 34  17  34  1   
 35  17  35  1   
 36  18  36  1   
 37  18  37  1   
 38  18  38  1   
@<TRIPOS>SUBSTRUCTURE
  1 ****   7 GROUP 4 **** **** 0

# MOE 2024.06 (io_trps.svl 2023.06)
