@<TRIPOS>MOLECULE
NONAME
49 51 1 0 0 
SMALL
USER_CHARGES


@<TRIPOS>ATOM
  1 O       -0.6320    -1.0950     0.6050 O.2   1 <1>  -0.5700 
  2 C        0.3140    -1.6560     0.0940 C.2   1 <1>   0.6900 
  3 N        0.9880    -2.6930     0.7230 N.am  1 <1>  -0.4690 
  4 N        0.7190    -1.2740    -1.1450 N.am  1 <1>  -0.4900 
  5 C        2.0600    -3.3180     0.0920 C.2   1 <1>  -0.0410 
  6 C        0.5740    -3.1520     2.0910 C.3   1 <1>   0.2010 
  7 C        1.7530    -1.8630    -1.8030 C.2   1 <1>   0.6160 
  8 C        2.4400    -2.9200    -1.1430 C.2   1 <1>  -0.1360 
  9 C        0.2340    -4.6420     2.1290 C.2   1 <1>   0.5690 
 10 O        2.0390    -1.4700    -2.9140 O.2   1 <1>  -0.5700 
 11 O        1.0830    -5.3840     2.5660 O.2   1 <1>  -0.5700 
 12 N       -0.9650    -5.1260     1.6630 N.am  1 <1>  -0.6600 
 13 C       -1.2360    -6.5950     1.5730 C.3   1 <1>   0.1400 
 14 C       -2.0130    -4.3270     0.9570 C.3   1 <1>   0.1400 
 15 C       -1.4670    -7.0130     0.1090 C.3   1 <1>   0.3430 
 16 C       -2.1780    -4.8340    -0.4940 C.3   1 <1>   0.2000 
 17 O       -2.4610    -6.2080    -0.4720 O.3   1 <1>  -0.5600 
 18 C       -1.8830    -8.4790     0.0270 C.ar  1 <1>  -0.1430 
 19 C       -3.3070    -4.1170    -1.2710 C.3   1 <1>  -0.0800 
 20 C       -3.2140    -8.8610     0.1230 C.ar  1 <1>  -0.1500 
 21 C       -0.9120    -9.4590    -0.1340 C.ar  1 <1>  -0.1500 
 22 C       -3.4820    -4.7050    -2.6820 C.3   1 <1>  -0.2400 
 23 C       -3.0540    -2.6050    -1.4010 C.3   1 <1>  -0.2400 
 24 C       -3.5700   -10.1970     0.0610 C.ar  1 <1>  -0.1500 
 25 C       -1.2660   -10.7960    -0.1960 C.ar  1 <1>  -0.1500 
 26 C       -2.5950   -11.1660    -0.0980 C.ar  1 <1>  -0.1500 
 27 H        0.2370    -0.5040    -1.5950 H     1 <1>   0.3700 
 28 H        2.5600    -4.1150     0.6230 H     1 <1>   0.1500 
 29 H        1.3870    -2.9730     2.7700 H     1 <1>   0.0800 
 30 H       -0.2700    -2.5920     2.4480 H     1 <1>   0.0800 
 31 H        3.2580    -3.3660    -1.6760 H     1 <1>   0.1500 
 32 H       -0.4150    -7.1640     1.9740 H     1 <1>   0.0800 
 33 H       -2.1110    -6.8340     2.1500 H     1 <1>   0.0800 
 34 H       -2.9500    -4.4330     1.4750 H     1 <1>   0.0800 
 35 H       -1.7620    -3.2860     0.9530 H     1 <1>   0.0800 
 36 H       -0.5610    -6.8710    -0.4530 H     1 <1>   0.0800 
 37 H       -1.2520    -4.6950    -1.0250 H     1 <1>   0.0800 
 38 H       -4.2280    -4.2570    -0.7300 H     1 <1>   0.0800 
 39 H       -3.9800    -8.1140     0.2430 H     1 <1>   0.1500 
 40 H        0.1260    -9.1870    -0.2100 H     1 <1>   0.1500 
 41 H       -2.5730    -4.6080    -3.2490 H     1 <1>   0.0800 
 42 H       -4.2730    -4.2000    -3.2060 H     1 <1>   0.0800 
 43 H       -3.7380    -5.7490    -2.6260 H     1 <1>   0.0800 
 44 H       -2.1110    -2.4190    -1.8840 H     1 <1>   0.0800 
 45 H       -3.0540    -2.1240    -0.4400 H     1 <1>   0.0800 
 46 H       -3.8310    -2.1490    -1.9890 H     1 <1>   0.0800 
 47 H       -4.6050   -10.4810     0.1350 H     1 <1>   0.1500 
 48 H       -0.5070   -11.5480    -0.3200 H     1 <1>   0.1500 
 49 H       -2.8710   -12.2050    -0.1460 H     1 <1>   0.1500 
@<TRIPOS>BOND
  1   1   2  2   
  2   2   3  am  
  3   2   4  am  
  4   3   5  1   
  5   3   6  1   
  6   4   7  am  
  7   4  27  1   
  8   5   8  2   
  9   5  28  1   
 10   6   9  1   
 11   6  29  1   
 12   6  30  1   
 13   7   8  1   
 14   7  10  2   
 15   8  31  1   
 16   9  11  2   
 17   9  12  am  
 18  12  13  1   
 19  12  14  1   
 20  13  15  1   
 21  13  32  1   
 22  13  33  1   
 23  14  16  1   
 24  14  34  1   
 25  14  35  1   
 26  15  17  1   
 27  15  18  1   
 28  15  36  1   
 29  16  17  1   
 30  16  19  1   
 31  16  37  1   
 32  18  20  ar  
 33  18  21  ar  
 34  19  22  1   
 35  19  23  1   
 36  19  38  1   
 37  20  24  ar  
 38  20  39  1   
 39  21  25  ar  
 40  21  40  1   
 41  22  41  1   
 42  22  42  1   
 43  22  43  1   
 44  23  44  1   
 45  23  45  1   
 46  23  46  1   
 47  24  26  ar  
 48  24  47  1   
 49  25  26  ar  
 50  25  48  1   
 51  26  49  1   
@<TRIPOS>SUBSTRUCTURE
  1 ****  16 GROUP 4 **** **** 0

# MOE 2024.06 (io_trps.svl 2023.06)
