@<TRIPOS>MOLECULE
NONAME
50 51 1 0 0 
SMALL
USER_CHARGES


@<TRIPOS>ATOM
  1 S        1.0360     1.1380     0.5550 S.o2  1 <1>   1.3330 
  2 O        1.9270     1.8390     1.4550 O.2   1 <1>  -0.6500 
  3 O       -0.2850     0.7790     1.0110 O.2   1 <1>  -0.6500 
  4 N        1.8200    -0.2210    -0.0830 N.am  1 <1>  -0.8490 
  5 C        0.8490     2.2320    -0.8530 C.3   1 <1>  -0.0550 
  6 C        2.6870    -0.8820     0.8980 C.3   1 <1>   0.1160 
  7 C        0.8990    -1.2040    -0.6670 C.3   1 <1>   0.1160 
  8 C       -0.1330     3.4060    -0.6070 C.3   1 <1>  -0.0800 
  9 C        0.1290     4.5380    -1.5940 C.3   1 <1>   0.2000 
 10 C        0.0440     4.0980     0.7530 C.3   1 <1>   0.3430 
 11 O       -1.0270     5.2980    -1.7270 O.3   1 <1>  -0.6800 
 12 C        1.2310     5.3640    -0.9200 C.3   1 <1>   0.3430 
 13 N        1.0710     5.1700     0.5670 N.4   1 <1>  -0.9590 
 14 C        2.3640     4.8010     1.2400 C.3   1 <1>   0.3430 
 15 C        3.1900     6.0240     1.6540 C.3   1 <1>  -0.0990 
 16 C        3.8430     6.7280     0.4860 C.2   1 <1>   0.5690 
 17 O        3.9950     6.1260    -0.5470 O.2   1 <1>  -0.5700 
 18 N        4.2320     8.0140     0.6350 N.am  1 <1>  -0.7300 
 19 C        4.8720     8.8280    -0.4230 C.3   1 <1>   0.3200 
 20 C        4.2370    10.2050    -0.4630 C.2   1 <1>  -0.1400 
 21 S        4.9730    11.3570    -1.5670 S.3   1 <1>  -0.0800 
 22 C        3.1960    10.7730     0.1770 C.2   1 <1>  -0.1500 
 23 C        3.8230    12.6010    -1.1140 C.2   1 <1>  -0.1100 
 24 C        2.9610    12.1350    -0.1920 C.2   1 <1>  -0.1500 
 25 H        1.8210     2.6050    -1.1130 H     1 <1>   0.0800 
 26 H        0.4920     1.6660    -1.6920 H     1 <1>   0.0800 
 27 H        3.1880    -1.7230     0.4470 H     1 <1>   0.0800 
 28 H        2.1090    -1.2270     1.7400 H     1 <1>   0.0800 
 29 H        3.4390    -0.1960     1.2520 H     1 <1>   0.0800 
 30 H        1.4540    -2.0020    -1.1300 H     1 <1>   0.0800 
 31 H        0.2840    -0.7410    -1.4200 H     1 <1>   0.0800 
 32 H        0.2580    -1.6200     0.0930 H     1 <1>   0.0800 
 33 H       -1.1370     3.0240    -0.6970 H     1 <1>   0.0800 
 34 H        0.4140     4.1990    -2.5770 H     1 <1>   0.0800 
 35 H        0.3110     3.4150     1.5430 H     1 <1>   0.0800 
 36 H       -0.8940     4.5560     1.0240 H     1 <1>   0.0800 
 37 H       -1.3860     5.6180    -0.8780 H     1 <1>   0.4000 
 38 H        1.1760     6.4010    -1.2070 H     1 <1>   0.0800 
 39 H        2.1850     4.9710    -1.2330 H     1 <1>   0.0800 
 40 H        0.7170     6.0400     0.9830 H     1 <1>   0.4500 
 41 H        2.1440     4.2340     2.1320 H     1 <1>   0.0800 
 42 H        2.9510     4.1650     0.5970 H     1 <1>   0.0800 
 43 H        3.9810     5.6850     2.2970 H     1 <1>   0.0800 
 44 H        2.5840     6.7100     2.2140 H     1 <1>   0.0800 
 45 H        4.1650     8.4970     1.5330 H     1 <1>   0.3700 
 46 H        5.9230     8.9220    -0.2100 H     1 <1>   0.0800 
 47 H        4.7620     8.3530    -1.3840 H     1 <1>   0.0800 
 48 H        2.5650    10.2950     0.9050 H     1 <1>   0.1500 
 49 H        3.9160    13.5600    -1.5930 H     1 <1>   0.1500 
 50 H        2.1580    12.7000     0.2500 H     1 <1>   0.1500 
@<TRIPOS>BOND
  1   1   2  2   
  2   1   3  2   
  3   1   4  am  
  4   1   5  1   
  5   4   6  1   
  6   4   7  1   
  7   5   8  1   
  8   5  25  1   
  9   5  26  1   
 10   6  27  1   
 11   6  28  1   
 12   6  29  1   
 13   7  30  1   
 14   7  31  1   
 15   7  32  1   
 16   8   9  1   
 17   8  10  1   
 18   8  33  1   
 19   9  11  1   
 20   9  12  1   
 21   9  34  1   
 22  10  13  1   
 23  10  35  1   
 24  10  36  1   
 25  11  37  1   
 26  12  13  1   
 27  12  38  1   
 28  12  39  1   
 29  13  14  1   
 30  13  40  1   
 31  14  15  1   
 32  14  41  1   
 33  14  42  1   
 34  15  16  1   
 35  15  43  1   
 36  15  44  1   
 37  16  17  2   
 38  16  18  am  
 39  18  19  1   
 40  18  45  1   
 41  19  20  1   
 42  19  46  1   
 43  19  47  1   
 44  20  21  1   
 45  20  22  2   
 46  21  23  1   
 47  22  24  1   
 48  22  48  1   
 49  23  24  2   
 50  23  49  1   
 51  24  50  1   
@<TRIPOS>SUBSTRUCTURE
  1 ****  12 GROUP 4 **** **** 0

# MOE 2024.06 (io_trps.svl 2023.06)
