@<TRIPOS>MOLECULE
NONAME
46 48 1 0 0 
SMALL
USER_CHARGES


@<TRIPOS>ATOM
  1 O       -0.3600    -1.2540    -0.1950 O.2   1 <1>  -0.5700 
  2 C        0.7990    -1.6090    -0.2610 C.2   1 <1>   0.6900 
  3 N        1.3690    -2.4560     0.6740 N.am  1 <1>  -0.4690 
  4 N        1.5650    -1.1760    -1.2940 N.am  1 <1>  -0.4900 
  5 C        2.6850    -2.8810     0.5300 C.2   1 <1>  -0.0410 
  6 C        0.5590    -2.9780     1.8200 C.3   1 <1>   0.2010 
  7 C        2.8580    -1.5580    -1.4750 C.2   1 <1>   0.6160 
  8 C        3.4330    -2.4540    -0.5150 C.2   1 <1>  -0.1240 
  9 C        0.2710    -4.4720     1.6880 C.2   1 <1>   0.5690 
 10 O        3.4520    -1.1220    -2.4400 O.2   1 <1>  -0.5700 
 11 C        4.8770    -2.9020    -0.7060 C.3   1 <1>  -0.1020 
 12 O        0.9550    -5.2330     2.3330 O.2   1 <1>  -0.5700 
 13 N       -0.7210    -4.9320     0.8650 N.am  1 <1>  -0.6600 
 14 C       -1.6430    -4.1170     0.0300 C.3   1 <1>   0.1400 
 15 C       -0.9360    -6.3780     0.5980 C.3   1 <1>   0.1400 
 16 C       -2.7450    -5.0940    -0.3760 C.3   1 <1>   0.2000 
 17 C       -2.0030    -6.4260    -0.5010 C.3   1 <1>  -0.0800 
 18 O       -3.6590    -5.1680     0.6660 O.3   1 <1>  -0.6800 
 19 C       -2.8820    -7.6890    -0.4580 C.3   1 <1>   0.0210 
 20 C       -2.0320    -8.9410    -0.5610 C.2   1 <1>   0.1080 
 21 N       -1.2430    -9.1770    -1.5630 N.2   1 <1>  -0.7070 
 22 C       -1.9900    -9.9540     0.3910 C.2   1 <1>  -0.1500 
 23 N       -0.6710   -10.3620    -1.2750 N.pl3 1 <1>   0.3000 
 24 C       -1.1070   -10.8520    -0.0950 C.2   1 <1>  -0.3320 
 25 C       -0.6450   -12.1670     0.5050 C.3   1 <1>  -0.0600 
 26 H        1.1530    -0.5460    -1.9710 H     1 <1>   0.3700 
 27 H        3.0670    -3.5610     1.2770 H     1 <1>   0.1500 
 28 H        1.1090    -2.8180     2.7290 H     1 <1>   0.0800 
 29 H       -0.3680    -2.4430     1.9080 H     1 <1>   0.0800 
 30 H        4.9810    -3.4050    -1.6510 H     1 <1>   0.0800 
 31 H        5.1810    -3.5730     0.0770 H     1 <1>   0.0800 
 32 H        5.5290    -2.0460    -0.7000 H     1 <1>   0.0800 
 33 H       -2.0400    -3.2690     0.5610 H     1 <1>   0.0800 
 34 H       -1.1170    -3.7800    -0.8460 H     1 <1>   0.0800 
 35 H       -0.0220    -6.8500     0.2760 H     1 <1>   0.0800 
 36 H       -1.2820    -6.8560     1.4980 H     1 <1>   0.0800 
 37 H       -3.2650    -4.8020    -1.2730 H     1 <1>   0.0800 
 38 H       -1.4830    -6.4210    -1.4440 H     1 <1>   0.0800 
 39 H       -3.1640    -5.2920     1.5010 H     1 <1>   0.4000 
 40 H       -3.5740    -7.6740    -1.2800 H     1 <1>   0.0800 
 41 H       -3.4490    -7.7260     0.4540 H     1 <1>   0.0800 
 42 H       -2.5500    -9.9880     1.3080 H     1 <1>   0.1500 
 43 H        0.0100   -10.8070    -1.9010 H     1 <1>   0.2700 
 44 H       -1.1340   -12.3350     1.4480 H     1 <1>   0.0800 
 45 H        0.4180   -12.1470     0.6710 H     1 <1>   0.0800 
 46 H       -0.8840   -12.9810    -0.1550 H     1 <1>   0.0800 
@<TRIPOS>BOND
  1   1   2  2   
  2   2   3  am  
  3   2   4  am  
  4   3   5  1   
  5   3   6  1   
  6   4   7  am  
  7   4  26  1   
  8   5   8  2   
  9   5  27  1   
 10   6   9  1   
 11   6  28  1   
 12   6  29  1   
 13   7   8  1   
 14   7  10  2   
 15   8  11  1   
 16   9  12  2   
 17   9  13  am  
 18  11  30  1   
 19  11  31  1   
 20  11  32  1   
 21  13  14  1   
 22  13  15  1   
 23  14  16  1   
 24  14  33  1   
 25  14  34  1   
 26  15  17  1   
 27  15  35  1   
 28  15  36  1   
 29  16  17  1   
 30  16  18  1   
 31  16  37  1   
 32  17  19  1   
 33  17  38  1   
 34  18  39  1   
 35  19  20  1   
 36  19  40  1   
 37  19  41  1   
 38  20  21  2   
 39  20  22  1   
 40  21  23  1   
 41  22  24  2   
 42  22  42  1   
 43  23  24  1   
 44  23  43  1   
 45  24  25  1   
 46  25  44  1   
 47  25  45  1   
 48  25  46  1   
@<TRIPOS>SUBSTRUCTURE
  1 ****  13 GROUP 4 **** **** 0

# MOE 2024.06 (io_trps.svl 2023.06)
