@<TRIPOS>MOLECULE
NONAME
51 54 1 0 0 
SMALL
USER_CHARGES


@<TRIPOS>ATOM
  1 O        1.8100    -0.3560     0.5450 O.3   1 <1>  -0.5600 
  2 C        2.5350    -1.2270    -0.3010 C.3   1 <1>   0.4240 
  3 C        0.4180    -0.3520     0.4240 C.3   1 <1>   0.1200 
  4 C        1.7970    -2.5590    -0.5440 C.ar  1 <1>  -0.1440 
  5 C        3.8710    -1.4720     0.4250 C.3   1 <1>  -0.1600 
  6 C        2.8050    -0.4720    -1.6120 C.3   1 <1>  -0.1600 
  7 C       -0.1190    -1.7170     0.8420 C.3   1 <1>  -0.0160 
  8 C        0.5410    -2.7940     0.0070 C.ar  1 <1>  -0.1440 
  9 C        2.3720    -3.5550    -1.3280 C.ar  1 <1>  -0.1500 
 10 C        4.8530    -0.2970     0.3470 C.3   1 <1>   0.3430 
 11 C        3.5440     0.8550    -1.4010 C.3   1 <1>   0.3430 
 12 C       -0.1130    -3.9970    -0.2050 C.ar  1 <1>  -0.1500 
 13 C        1.7180    -4.7540    -1.5440 C.ar  1 <1>  -0.1500 
 14 N        4.1250     0.9400    -0.0250 N.4   1 <1>  -0.9590 
 15 C        0.4750    -4.9870    -0.9840 C.ar  1 <1>   0.0830 
 16 C        4.9020     2.1930     0.1730 C.3   1 <1>   0.3430 
 17 O       -0.0950    -6.1900    -1.2420 O.3   1 <1>  -0.3630 
 18 C        4.1060     3.2550     0.9550 C.3   1 <1>  -0.0800 
 19 C       -1.3510    -6.5380    -0.7040 C.3   1 <1>   0.0400 
 20 C        2.7310     3.5250     0.3610 C.3   1 <1>   0.1200 
 21 C        4.7500     4.6200     0.7340 C.3   1 <1>  -0.1600 
 22 O        3.0310     4.2230    -0.7950 O.3   1 <1>  -0.5600 
 23 C        4.0320     5.1550    -0.5110 C.3   1 <1>   0.1200 
 24 H        0.1490    -0.1300    -0.5950 H     1 <1>   0.0800 
 25 H        0.0270     0.4160     1.0680 H     1 <1>   0.0800 
 26 H        4.3670    -2.3300     0.0120 H     1 <1>   0.0800 
 27 H        3.6660    -1.7100     1.4540 H     1 <1>   0.0800 
 28 H        1.8840    -0.2980    -2.1370 H     1 <1>   0.0800 
 29 H        3.4050    -1.0880    -2.2560 H     1 <1>   0.0800 
 30 H       -1.1850    -1.7360     0.6980 H     1 <1>   0.0800 
 31 H        0.0840    -1.8840     1.8850 H     1 <1>   0.0800 
 32 H        3.3360    -3.4170    -1.7830 H     1 <1>   0.1500 
 33 H        5.6080    -0.5040    -0.3950 H     1 <1>   0.0800 
 34 H        5.3390    -0.1750     1.3010 H     1 <1>   0.0800 
 35 H        2.8540     1.6710    -1.5470 H     1 <1>   0.0800 
 36 H        4.3240     0.9510    -2.1390 H     1 <1>   0.0800 
 37 H       -1.0770    -4.1520     0.2380 H     1 <1>   0.1500 
 38 H        2.1670    -5.5220    -2.1480 H     1 <1>   0.1500 
 39 H        3.2990     0.9470     0.6040 H     1 <1>   0.4500 
 40 H        5.1690     2.5990    -0.7890 H     1 <1>   0.0800 
 41 H        5.8140     1.9820     0.7070 H     1 <1>   0.0800 
 42 H        4.0530     2.9980     1.9990 H     1 <1>   0.0800 
 43 H       -1.5920    -7.5320    -1.0350 H     1 <1>   0.0800 
 44 H       -2.0900    -5.8450    -1.0650 H     1 <1>   0.0800 
 45 H       -1.2900    -6.5150     0.3690 H     1 <1>   0.0800 
 46 H        2.1480     4.1690     1.0000 H     1 <1>   0.0800 
 47 H        2.1550     2.6490     0.1230 H     1 <1>   0.0800 
 48 H        5.8170     4.5810     0.5950 H     1 <1>   0.0800 
 49 H        4.5400     5.2740     1.5630 H     1 <1>   0.0800 
 50 H        4.6840     5.2240    -1.3650 H     1 <1>   0.0800 
 51 H        3.5690     6.1100    -0.3240 H     1 <1>   0.0800 
@<TRIPOS>BOND
  1   1   2  1   
  2   1   3  1   
  3   2   4  1   
  4   2   5  1   
  5   2   6  1   
  6   3   7  1   
  7   3  24  1   
  8   3  25  1   
  9   4   8  ar  
 10   4   9  ar  
 11   5  10  1   
 12   5  26  1   
 13   5  27  1   
 14   6  11  1   
 15   6  28  1   
 16   6  29  1   
 17   7   8  1   
 18   7  30  1   
 19   7  31  1   
 20   8  12  ar  
 21   9  13  ar  
 22   9  32  1   
 23  10  14  1   
 24  10  33  1   
 25  10  34  1   
 26  11  14  1   
 27  11  35  1   
 28  11  36  1   
 29  12  15  ar  
 30  12  37  1   
 31  13  15  ar  
 32  13  38  1   
 33  14  16  1   
 34  14  39  1   
 35  15  17  1   
 36  16  18  1   
 37  16  40  1   
 38  16  41  1   
 39  17  19  1   
 40  18  20  1   
 41  18  21  1   
 42  18  42  1   
 43  19  43  1   
 44  19  44  1   
 45  19  45  1   
 46  20  22  1   
 47  20  46  1   
 48  20  47  1   
 49  21  23  1   
 50  21  48  1   
 51  21  49  1   
 52  22  23  1   
 53  23  50  1   
 54  23  51  1   
@<TRIPOS>SUBSTRUCTURE
  1 ****   2 GROUP 4 **** **** 0

# MOE 2024.06 (io_trps.svl 2023.06)
