@<TRIPOS>MOLECULE
NONAME
50 52 1 0 0 
SMALL
USER_CHARGES


@<TRIPOS>ATOM
  1 O        2.9680    -0.7320     2.9420 O.2   1 <1>  -0.5700 
  2 C        2.6280    -1.1680     1.8660 C.2   1 <1>   0.5690 
  3 N        2.6040    -0.3510     0.7500 N.am  1 <1>  -0.6600 
  4 C        2.2840    -2.6540     1.8000 C.3   1 <1>   0.1810 
  5 C        2.9990     1.0870     0.9030 C.3   1 <1>   0.1400 
  6 C        2.4170    -0.8810    -0.6400 C.3   1 <1>   0.1400 
  7 O        1.0040    -2.8570     1.2170 O.3   1 <1>  -0.3620 
  8 C        4.4280     1.4020     0.3850 C.3   1 <1>   0.4230 
  9 C        3.5440    -0.5080    -1.6280 C.3   1 <1>  -0.0800 
 10 C        0.6840    -4.0330     0.6190 C.ar  1 <1>   0.0820 
 11 N        4.4630     1.7860    -1.0740 N.4   1 <1>  -0.9590 
 12 C        5.4780     0.2930     0.6720 C.3   1 <1>   0.1200 
 13 C        4.9410    -1.0680    -1.2820 C.3   1 <1>   0.1200 
 14 C        3.5440     0.9900    -1.9420 C.3   1 <1>   0.3430 
 15 C       -0.3380    -4.0380    -0.3320 C.ar  1 <1>  -0.1440 
 16 C        1.3560    -5.2120     0.9270 C.ar  1 <1>  -0.1500 
 17 C        4.2230     3.2510    -1.2620 C.3   1 <1>   0.2630 
 18 O        5.2410    -0.9590     0.0740 O.3   1 <1>  -0.5600 
 19 C       -0.6510    -5.2240    -0.9930 C.ar  1 <1>  -0.1440 
 20 C       -1.1120    -2.7580    -0.6520 C.3   1 <1>  -0.0970 
 21 C        1.0350    -6.3840     0.2720 C.ar  1 <1>  -0.1500 
 22 C        0.0390    -6.3860    -0.6860 C.ar  1 <1>  -0.1500 
 23 C       -1.7420    -5.2910    -2.0550 C.3   1 <1>  -0.0970 
 24 H        2.2680    -3.0720     2.7890 H     1 <1>   0.0800 
 25 H        3.0260    -3.1540     1.2050 H     1 <1>   0.0800 
 26 H        2.2740     1.7110     0.4150 H     1 <1>   0.0800 
 27 H        2.9680     1.3560     1.9440 H     1 <1>   0.0800 
 28 H        2.3520    -1.9530    -0.6260 H     1 <1>   0.0800 
 29 H        1.4720    -0.5220    -1.0120 H     1 <1>   0.0800 
 30 H        4.7570     2.2620     0.9420 H     1 <1>   0.0800 
 31 H        3.2650    -0.9790    -2.5540 H     1 <1>   0.0800 
 32 H        5.4210     1.5750    -1.3860 H     1 <1>   0.4500 
 33 H        5.5060     0.1170     1.7340 H     1 <1>   0.0800 
 34 H        6.4570     0.6210     0.3730 H     1 <1>   0.0800 
 35 H        5.7240    -0.6010    -1.8540 H     1 <1>   0.0800 
 36 H        4.9570    -2.1220    -1.5040 H     1 <1>   0.0800 
 37 H        2.5370     1.3610    -1.8440 H     1 <1>   0.0800 
 38 H        3.8390     1.1250    -2.9700 H     1 <1>   0.0800 
 39 H        2.1240    -5.2390     1.6760 H     1 <1>   0.1500 
 40 H        3.2290     3.5140    -0.9380 H     1 <1>   0.0800 
 41 H        4.3270     3.5180    -2.3020 H     1 <1>   0.0800 
 42 H        4.9340     3.8250    -0.6910 H     1 <1>   0.0800 
 43 H       -2.1670    -2.9570    -0.6760 H     1 <1>   0.0800 
 44 H       -0.8060    -2.3780    -1.6100 H     1 <1>   0.0800 
 45 H       -0.9530    -1.9940     0.0860 H     1 <1>   0.0800 
 46 H        1.5550    -7.2960     0.5080 H     1 <1>   0.1500 
 47 H       -0.1980    -7.3070    -1.1890 H     1 <1>   0.1500 
 48 H       -1.7380    -6.2440    -2.5530 H     1 <1>   0.0800 
 49 H       -1.5890    -4.5270    -2.7950 H     1 <1>   0.0800 
 50 H       -2.7050    -5.1530    -1.5980 H     1 <1>   0.0800 
@<TRIPOS>BOND
  1   1   2  2   
  2   2   3  am  
  3   2   4  1   
  4   3   5  1   
  5   3   6  1   
  6   4   7  1   
  7   4  24  1   
  8   4  25  1   
  9   5   8  1   
 10   5  26  1   
 11   5  27  1   
 12   6   9  1   
 13   6  28  1   
 14   6  29  1   
 15   7  10  1   
 16   8  11  1   
 17   8  12  1   
 18   8  30  1   
 19   9  13  1   
 20   9  14  1   
 21   9  31  1   
 22  10  15  ar  
 23  10  16  ar  
 24  11  14  1   
 25  11  17  1   
 26  11  32  1   
 27  12  18  1   
 28  12  33  1   
 29  12  34  1   
 30  13  18  1   
 31  13  35  1   
 32  13  36  1   
 33  14  37  1   
 34  14  38  1   
 35  15  19  ar  
 36  15  20  1   
 37  16  21  ar  
 38  16  39  1   
 39  17  40  1   
 40  17  41  1   
 41  17  42  1   
 42  19  22  ar  
 43  19  23  1   
 44  20  43  1   
 45  20  44  1   
 46  20  45  1   
 47  21  22  ar  
 48  21  46  1   
 49  22  47  1   
 50  23  48  1   
 51  23  49  1   
 52  23  50  1   
@<TRIPOS>SUBSTRUCTURE
  1 ****   6 GROUP 4 **** **** 0

# MOE 2024.06 (io_trps.svl 2023.06)
