@<TRIPOS>MOLECULE
NONAME
20 21 1 0 0 
SMALL
USER_CHARGES


@<TRIPOS>ATOM
  1 O       12.0620    -1.6230    -0.1510 O.2   1 <1>  -0.5700 
  2 C       11.0890    -0.9260    -0.0820 C.2   1 <1>   0.5690 
  3 N       10.9820     0.1840     0.6650 N.am  1 <1>  -0.7300 
  4 C        9.8110    -1.1930    -0.8250 C.3   1 <1>  -0.0990 
  5 C        9.6870     0.8600     0.5700 C.3   1 <1>   0.1400 
  6 C        8.8380    -0.1990    -0.1570 C.3   1 <1>   0.0000 
  7 C        7.7980    -0.8740     0.7650 C.3   1 <1>   0.4720 
  8 C        7.6360     0.3010    -0.9850 C.3   1 <1>   0.4720 
  9 N        6.7840     0.0980     0.2340 N.4   1 <1>  -0.8440 
 10 H       11.7870     0.5550     1.1830 H     1 <1>   0.3700 
 11 H        9.5190    -2.2220    -0.7150 H     1 <1>   0.0800 
 12 H        9.9680    -0.9640    -1.8640 H     1 <1>   0.0800 
 13 H        9.7990     1.7560    -0.0200 H     1 <1>   0.0800 
 14 H        9.3130     1.1030     1.5510 H     1 <1>   0.0800 
 15 H        7.9790    -0.7430     1.8160 H     1 <1>   0.0000 
 16 H        7.5570    -1.8790     0.4700 H     1 <1>   0.0000 
 17 H        7.3520    -0.3760    -1.7710 H     1 <1>   0.0000 
 18 H        7.6930     1.3340    -1.2780 H     1 <1>   0.0000 
 19 H        6.6940     0.9410     0.8100 H     1 <1>   0.4500 
 20 H        5.8770    -0.3370     0.0280 H     1 <1>   0.4500 
@<TRIPOS>BOND
  1   1   2  2   
  2   2   3  am  
  3   2   4  1   
  4   3   5  1   
  5   3  10  1   
  6   4   6  1   
  7   4  11  1   
  8   4  12  1   
  9   5   6  1   
 10   5  13  1   
 11   5  14  1   
 12   6   7  1   
 13   6   8  1   
 14   7   9  1   
 15   7  15  1   
 16   7  16  1   
 17   8   9  1   
 18   8  17  1   
 19   8  18  1   
 20   9  19  1   
 21   9  20  1   
@<TRIPOS>SUBSTRUCTURE
  1 ****   6 GROUP 4 **** **** 0

# MOE 2024.06 (io_trps.svl 2023.06)
