@<TRIPOS>MOLECULE
NONAME
40 42 1 0 0 
SMALL
USER_CHARGES


@<TRIPOS>ATOM
  1 O       -1.1040    -1.2920     0.4540 O.2   1 <1>  -0.5700 
  2 C       -2.2080    -0.7750     0.3910 C.2   1 <1>   0.6900 
  3 N       -2.5150     0.4300    -0.1140 N.am  1 <1>  -0.3680 
  4 N       -3.3530    -1.2970     0.8150 N.am  1 <1>  -0.4900 
  5 N       -3.8570     0.6830    -0.0100 N.2   1 <1>  -0.5120 
  6 C       -4.3630    -0.3760     0.5590 C.2   1 <1>   0.5100 
  7 C       -5.7480    -0.6730     0.9330 C.2   1 <1>   0.6300 
  8 O       -5.9650    -1.7130     1.5440 O.2   1 <1>  -0.5700 
  9 N       -6.8400     0.1390     0.6450 N.am  1 <1>  -0.6600 
 10 C       -8.2050    -0.1540     1.1860 C.3   1 <1>   0.1400 
 11 C       -6.7770     1.2870    -0.3120 C.3   1 <1>   0.1400 
 12 C       -9.1820    -0.4990     0.0420 C.3   1 <1>   0.0000 
 13 C       -8.1680     1.7050    -0.8160 C.3   1 <1>  -0.1600 
 14 C      -10.6210    -0.5460     0.5880 C.3   1 <1>   0.2000 
 15 C       -9.0230     0.4780    -1.1670 C.3   1 <1>  -0.1600 
 16 C       -9.0080    -1.9490    -0.4410 C.3   1 <1>  -0.1600 
 17 O      -11.1760     0.7320     0.6920 O.3   1 <1>  -0.5600 
 18 C      -11.4020    -1.4330    -0.3870 C.3   1 <1>  -0.1600 
 19 C      -10.3560    -2.3340    -1.0600 C.3   1 <1>  -0.1600 
 20 C      -12.3520     0.8050     1.4330 C.3   1 <1>   0.0400 
 21 H       -1.8120     1.0590    -0.5120 H     1 <1>   0.3700 
 22 H       -3.4760    -2.1940     1.2750 H     1 <1>   0.3700 
 23 H       -8.1770    -0.9540     1.9040 H     1 <1>   0.0800 
 24 H       -8.5600     0.7210     1.7030 H     1 <1>   0.0800 
 25 H       -6.2950     2.1250     0.1620 H     1 <1>   0.0800 
 26 H       -6.1860     0.9950    -1.1640 H     1 <1>   0.0800 
 27 H       -8.6660     2.2880    -0.0600 H     1 <1>   0.0800 
 28 H       -8.0580     2.3330    -1.6810 H     1 <1>   0.0800 
 29 H      -10.6130    -1.0020     1.5650 H     1 <1>   0.0800 
 30 H       -8.5430    -0.0240    -1.9880 H     1 <1>   0.0800 
 31 H       -9.9830     0.8060    -1.5260 H     1 <1>   0.0800 
 32 H       -8.1900    -2.0660    -1.1300 H     1 <1>   0.0800 
 33 H       -8.8200    -2.5900     0.4040 H     1 <1>   0.0800 
 34 H      -12.1330    -2.0210     0.1390 H     1 <1>   0.0800 
 35 H      -11.8890    -0.8280    -1.1320 H     1 <1>   0.0800 
 36 H      -10.5690    -3.3770    -0.9040 H     1 <1>   0.0800 
 37 H      -10.3400    -2.1370    -2.1190 H     1 <1>   0.0800 
 38 H      -12.6650     1.8340     1.4600 H     1 <1>   0.0800 
 39 H      -12.1650     0.4570     2.4330 H     1 <1>   0.0800 
 40 H      -13.1140     0.2110     0.9590 H     1 <1>   0.0800 
@<TRIPOS>BOND
  1   1   2  2   
  2   2   3  am  
  3   2   4  am  
  4   3   5  1   
  5   3  21  1   
  6   4   6  1   
  7   4  22  1   
  8   5   6  2   
  9   6   7  1   
 10   7   8  2   
 11   7   9  am  
 12   9  10  1   
 13   9  11  1   
 14  10  12  1   
 15  10  23  1   
 16  10  24  1   
 17  11  13  1   
 18  11  25  1   
 19  11  26  1   
 20  12  14  1   
 21  12  15  1   
 22  12  16  1   
 23  13  15  1   
 24  13  27  1   
 25  13  28  1   
 26  14  17  1   
 27  14  18  1   
 28  14  29  1   
 29  15  30  1   
 30  15  31  1   
 31  16  19  1   
 32  16  32  1   
 33  16  33  1   
 34  17  20  1   
 35  18  19  1   
 36  18  34  1   
 37  18  35  1   
 38  19  36  1   
 39  19  37  1   
 40  20  38  1   
 41  20  39  1   
 42  20  40  1   
@<TRIPOS>SUBSTRUCTURE
  1 ****   9 GROUP 4 **** **** 0

# MOE 2024.06 (io_trps.svl 2023.06)
