@<TRIPOS>MOLECULE
NONAME
43 46 1 0 0 
SMALL
USER_CHARGES


@<TRIPOS>ATOM
  1 O       -0.3130     0.2240     0.2320 O.2   1 <1>  -0.5700 
  2 C       -1.3600     0.8140     0.4170 C.2   1 <1>   0.5440 
  3 N       -2.5280     0.0860     0.4460 N.am  1 <1>  -0.6600 
  4 C       -1.3560     2.2550     0.5830 C.ar  1 <1>   0.0860 
  5 C       -3.8780     0.6430     0.1710 C.3   1 <1>   0.1400 
  6 C       -2.5380    -1.3920     0.3020 C.3   1 <1>   0.1400 
  7 C       -0.6340     3.0660    -0.2990 C.ar  1 <1>  -0.1500 
  8 C       -2.0620     2.8750     1.6270 C.ar  1 <1>  -0.1500 
  9 C       -4.6690    -0.5240    -0.4160 C.3   1 <1>   0.2000 
 10 C       -4.0110    -1.7770     0.1550 C.3   1 <1>  -0.0800 
 11 C       -0.6560     4.4330    -0.1260 C.ar  1 <1>   0.0830 
 12 C       -2.0750     4.2530     1.7900 C.ar  1 <1>  -0.1500 
 13 O       -6.0040    -0.4730    -0.0510 O.3   1 <1>  -0.6800 
 14 C       -4.2350    -3.0280    -0.7070 C.3   1 <1>   0.0210 
 15 O       -0.0460     5.3730    -0.8560 O.3   1 <1>  -0.3630 
 16 C       -1.3590     5.0140     0.8890 C.ar  1 <1>   0.0830 
 17 C       -3.4860    -4.2170    -0.1400 C.2   1 <1>   0.1080 
 18 C       -0.3720     6.6290    -0.2640 C.3   1 <1>   0.4000 
 19 O       -1.2230     6.3400     0.8430 O.3   1 <1>  -0.3630 
 20 N       -3.7540    -4.7270     1.0220 N.2   1 <1>  -0.7070 
 21 C       -2.4400    -4.8770    -0.7760 C.2   1 <1>  -0.1500 
 22 N       -2.8780    -5.7400     1.1590 N.pl3 1 <1>   0.3000 
 23 C       -2.0700    -5.8500     0.0830 C.2   1 <1>  -0.3320 
 24 C       -0.9760    -6.8920    -0.0590 C.3   1 <1>  -0.0600 
 25 H       -4.3180     0.9720     1.0960 H     1 <1>   0.0800 
 26 H       -3.8220     1.4590    -0.5290 H     1 <1>   0.0800 
 27 H       -1.9770    -1.6630    -0.5760 H     1 <1>   0.0800 
 28 H       -2.0930    -1.8620     1.1640 H     1 <1>   0.0800 
 29 H       -0.0670     2.6270    -1.1000 H     1 <1>   0.1500 
 30 H       -2.6020     2.2570     2.3230 H     1 <1>   0.1500 
 31 H       -4.6070    -0.5000    -1.4900 H     1 <1>   0.0800 
 32 H       -4.3860    -1.9630     1.1460 H     1 <1>   0.0800 
 33 H       -2.6170     4.7270     2.5880 H     1 <1>   0.1500 
 34 H       -6.1020    -0.6700     0.9010 H     1 <1>   0.4000 
 35 H       -3.9080    -2.8480    -1.7150 H     1 <1>   0.0800 
 36 H       -5.2840    -3.2630    -0.7330 H     1 <1>   0.0800 
 37 H        0.5260     7.1070     0.0860 H     1 <1>   0.0800 
 38 H       -0.8980     7.2390    -0.9760 H     1 <1>   0.0800 
 39 H       -2.0330    -4.6420    -1.7420 H     1 <1>   0.1500 
 40 H       -2.8570    -6.3350     1.9950 H     1 <1>   0.2700 
 41 H       -0.4730    -6.7730    -1.0020 H     1 <1>   0.0800 
 42 H       -1.3960    -7.8810    -0.0170 H     1 <1>   0.0800 
 43 H       -0.2530    -6.7830     0.7310 H     1 <1>   0.0800 
@<TRIPOS>BOND
  1   1   2  2   
  2   2   3  am  
  3   2   4  1   
  4   3   5  1   
  5   3   6  1   
  6   4   7  ar  
  7   4   8  ar  
  8   5   9  1   
  9   5  25  1   
 10   5  26  1   
 11   6  10  1   
 12   6  27  1   
 13   6  28  1   
 14   7  11  ar  
 15   7  29  1   
 16   8  12  ar  
 17   8  30  1   
 18   9  10  1   
 19   9  13  1   
 20   9  31  1   
 21  10  14  1   
 22  10  32  1   
 23  11  15  1   
 24  11  16  ar  
 25  12  16  ar  
 26  12  33  1   
 27  13  34  1   
 28  14  17  1   
 29  14  35  1   
 30  14  36  1   
 31  15  18  1   
 32  16  19  1   
 33  17  20  2   
 34  17  21  1   
 35  18  19  1   
 36  18  37  1   
 37  18  38  1   
 38  20  22  1   
 39  21  23  2   
 40  21  39  1   
 41  22  23  1   
 42  22  40  1   
 43  23  24  1   
 44  24  41  1   
 45  24  42  1   
 46  24  43  1   
@<TRIPOS>SUBSTRUCTURE
  1 ****   3 GROUP 4 **** **** 0

# MOE 2024.06 (io_trps.svl 2023.06)
