@<TRIPOS>MOLECULE
NONAME
47 48 1 0 0 
SMALL
USER_CHARGES


@<TRIPOS>ATOM
  1 O       -0.6390     0.8470    -1.2600 O.2   1 <1>  -0.5700 
  2 C       -0.6970     2.0490    -1.1550 C.2   1 <1>   0.5690 
  3 N       -1.4080     2.6930    -0.1710 N.am  1 <1>  -0.6600 
  4 C        0.0690     2.8770    -2.1860 C.3   1 <1>   0.1810 
  5 C       -1.4010     4.1940    -0.0840 C.3   1 <1>   0.3640 
  6 C       -2.0880     2.0060     0.9640 C.3   1 <1>   0.2200 
  7 O        0.5050     4.1010    -1.6570 O.3   1 <1>  -0.5600 
  8 C       -2.8310     4.7340    -0.1280 C.ar  1 <1>  -0.1440 
  9 C       -0.5500     4.9060    -1.1650 C.3   1 <1>   0.2610 
 10 C       -1.0600     1.2930     1.8410 C.3   1 <1>  -0.2400 
 11 C       -3.1780     1.0530     0.4710 C.3   1 <1>  -0.2400 
 12 C       -3.2300     5.7050     0.7790 C.ar  1 <1>  -0.1500 
 13 C       -3.7430     4.2770    -1.0710 C.ar  1 <1>  -0.1500 
 14 C       -0.0400     6.2400    -0.6020 C.2   1 <1>   0.5690 
 15 C       -4.5190     6.2080     0.7480 C.ar  1 <1>  -0.1500 
 16 C       -5.0320     4.7790    -1.1030 C.ar  1 <1>  -0.1500 
 17 O       -0.5780     7.2460    -1.0090 O.2   1 <1>  -0.5700 
 18 N        0.9660     6.3190     0.3410 N.am  1 <1>  -0.6600 
 19 C       -5.4210     5.7450    -0.1930 C.ar  1 <1>  -0.1500 
 20 C        1.4150     7.6540     0.8360 C.3   1 <1>   0.1400 
 21 C        1.8080     5.1740     0.8020 C.3   1 <1>   0.0600 
 22 C        2.4320     8.2640    -0.1320 C.3   1 <1>   0.1200 
 23 O        2.8150     9.5140     0.3330 O.3   1 <1>  -0.6800 
 24 H       -0.5550     3.0690    -3.0390 H     1 <1>   0.0800 
 25 H        0.9380     2.3310    -2.5050 H     1 <1>   0.0800 
 26 H       -0.9860     4.4460     0.8760 H     1 <1>   0.0800 
 27 H       -2.5740     2.7480     1.5770 H     1 <1>   0.0800 
 28 H       -1.1810     5.1360    -2.0060 H     1 <1>   0.0800 
 29 H       -0.5920     0.4870     1.3050 H     1 <1>   0.0800 
 30 H       -1.5440     0.8810     2.7070 H     1 <1>   0.0800 
 31 H       -0.3060     1.9850     2.1690 H     1 <1>   0.0800 
 32 H       -2.7580     0.2260    -0.0710 H     1 <1>   0.0800 
 33 H       -3.8730     1.5760    -0.1590 H     1 <1>   0.0800 
 34 H       -3.7190     0.6580     1.3110 H     1 <1>   0.0800 
 35 H       -2.5410     6.0850     1.5140 H     1 <1>   0.1500 
 36 H       -3.4560     3.5240    -1.7850 H     1 <1>   0.1500 
 37 H       -4.8200     6.9630     1.4540 H     1 <1>   0.1500 
 38 H       -5.7330     4.4180    -1.8360 H     1 <1>   0.1500 
 39 H       -6.4230     6.1360    -0.2170 H     1 <1>   0.1500 
 40 H        0.5630     8.3070     0.9170 H     1 <1>   0.0800 
 41 H        1.8590     7.5520     1.8110 H     1 <1>   0.0800 
 42 H        2.0570     5.2920     1.8420 H     1 <1>   0.0800 
 43 H        2.7170     5.1420     0.2260 H     1 <1>   0.0800 
 44 H        1.2970     4.2360     0.6860 H     1 <1>   0.0800 
 45 H        2.0050     8.3840    -1.1130 H     1 <1>   0.0800 
 46 H        3.3140     7.6500    -0.1890 H     1 <1>   0.0800 
 47 H        2.0870    10.1570     0.2190 H     1 <1>   0.4000 
@<TRIPOS>BOND
  1   1   2  2   
  2   2   3  am  
  3   2   4  1   
  4   3   5  1   
  5   3   6  1   
  6   4   7  1   
  7   4  24  1   
  8   4  25  1   
  9   5   8  1   
 10   5   9  1   
 11   5  26  1   
 12   6  10  1   
 13   6  11  1   
 14   6  27  1   
 15   7   9  1   
 16   8  12  ar  
 17   8  13  ar  
 18   9  14  1   
 19   9  28  1   
 20  10  29  1   
 21  10  30  1   
 22  10  31  1   
 23  11  32  1   
 24  11  33  1   
 25  11  34  1   
 26  12  15  ar  
 27  12  35  1   
 28  13  16  ar  
 29  13  36  1   
 30  14  17  2   
 31  14  18  am  
 32  15  19  ar  
 33  15  37  1   
 34  16  19  ar  
 35  16  38  1   
 36  18  20  1   
 37  18  21  1   
 38  19  39  1   
 39  20  22  1   
 40  20  40  1   
 41  20  41  1   
 42  21  42  1   
 43  21  43  1   
 44  21  44  1   
 45  22  23  1   
 46  22  45  1   
 47  22  46  1   
 48  23  47  1   
@<TRIPOS>SUBSTRUCTURE
  1 ****   5 GROUP 4 **** **** 0

# MOE 2024.06 (io_trps.svl 2023.06)
