@<TRIPOS>MOLECULE
NONAME
47 49 1 0 0 
SMALL
USER_CHARGES


@<TRIPOS>ATOM
  1 O        2.3510    -0.6820     2.6000 O.2   1 <1>  -0.5700 
  2 C        2.2730    -0.9770     1.4190 C.2   1 <1>   0.5440 
  3 N        2.6440    -0.0220     0.4840 N.am  1 <1>  -0.6600 
  4 C        1.8660    -2.3190     1.0560 C.ar  1 <1>   0.0860 
  5 C        2.9650     1.3650     0.9440 C.3   1 <1>   0.1400 
  6 C        2.9760    -0.4030    -0.9240 C.3   1 <1>   0.1400 
  7 C        0.7620    -2.5770     0.2330 C.ar  1 <1>   0.0830 
  8 C        2.5940    -3.4060     1.5350 C.ar  1 <1>  -0.1500 
  9 C        4.4850     1.6590     1.0170 C.3   1 <1>   0.4230 
 10 C        4.3800     0.0330    -1.3960 C.3   1 <1>  -0.0800 
 11 O        0.0470    -1.5190    -0.2240 O.3   1 <1>  -0.3630 
 12 C        0.4260    -3.8890    -0.0960 C.ar  1 <1>  -0.1500 
 13 C        2.2550    -4.7040     1.2070 C.ar  1 <1>  -0.1500 
 14 N        5.0480     2.2010    -0.2750 N.4   1 <1>  -0.9590 
 15 C        5.3540     0.4750     1.5250 C.3   1 <1>   0.1200 
 16 C        5.5650    -0.6220    -0.6510 C.3   1 <1>   0.1200 
 17 C        4.4910     1.5550    -1.5000 C.3   1 <1>   0.3430 
 18 C       -1.2370    -1.6670    -0.7900 C.3   1 <1>   0.0400 
 19 C        1.1690    -4.9530     0.3860 C.ar  1 <1>  -0.1430 
 20 C        4.9070     3.6870    -0.3540 C.3   1 <1>   0.2630 
 21 O        5.3680    -0.6830     0.7260 O.3   1 <1>  -0.5600 
 22 C        0.8060    -6.3840     0.0310 C.3   1 <1>  -0.0970 
 23 H        2.4710     2.0760     0.3080 H     1 <1>   0.0800 
 24 H        2.5570     1.5160     1.9280 H     1 <1>   0.0800 
 25 H        2.9160    -1.4720    -1.0360 H     1 <1>   0.0800 
 26 H        2.2250     0.0180    -1.5700 H     1 <1>   0.0800 
 27 H        3.4380    -3.2190     2.1770 H     1 <1>   0.1500 
 28 H        4.5960     2.4350     1.7560 H     1 <1>   0.0800 
 29 H        4.4490    -0.3150    -2.4110 H     1 <1>   0.0800 
 30 H       -0.4130    -4.0970    -0.7300 H     1 <1>   0.1500 
 31 H        2.8380    -5.5220     1.5950 H     1 <1>   0.1500 
 32 H        6.0500     1.9690    -0.2480 H     1 <1>   0.4500 
 33 H        4.9830     0.1690     2.4880 H     1 <1>   0.0800 
 34 H        6.3720     0.7930     1.6580 H     1 <1>   0.0800 
 35 H        6.4990    -0.1260    -0.8510 H     1 <1>   0.0800 
 36 H        5.6580    -1.6430    -0.9800 H     1 <1>   0.0800 
 37 H        3.5120     1.9560    -1.7120 H     1 <1>   0.0800 
 38 H        5.1270     1.7970    -2.3370 H     1 <1>   0.0800 
 39 H       -1.6480    -0.6860    -0.9480 H     1 <1>   0.0800 
 40 H       -1.8590    -2.2160    -0.1060 H     1 <1>   0.0800 
 41 H       -1.1500    -2.1810    -1.7300 H     1 <1>   0.0800 
 42 H        3.8650     3.9650    -0.3740 H     1 <1>   0.0800 
 43 H        5.3800     4.0620    -1.2470 H     1 <1>   0.0800 
 44 H        5.3710     4.1550     0.5000 H     1 <1>   0.0800 
 45 H        1.6850    -6.9240    -0.2720 H     1 <1>   0.0800 
 46 H        0.0950    -6.4130    -0.7750 H     1 <1>   0.0800 
 47 H        0.3770    -6.8720     0.8870 H     1 <1>   0.0800 
@<TRIPOS>BOND
  1   1   2  2   
  2   2   3  am  
  3   2   4  1   
  4   3   5  1   
  5   3   6  1   
  6   4   7  ar  
  7   4   8  ar  
  8   5   9  1   
  9   5  23  1   
 10   5  24  1   
 11   6  10  1   
 12   6  25  1   
 13   6  26  1   
 14   7  11  1   
 15   7  12  ar  
 16   8  13  ar  
 17   8  27  1   
 18   9  14  1   
 19   9  15  1   
 20   9  28  1   
 21  10  16  1   
 22  10  17  1   
 23  10  29  1   
 24  11  18  1   
 25  12  19  ar  
 26  12  30  1   
 27  13  19  ar  
 28  13  31  1   
 29  14  17  1   
 30  14  20  1   
 31  14  32  1   
 32  15  21  1   
 33  15  33  1   
 34  15  34  1   
 35  16  21  1   
 36  16  35  1   
 37  16  36  1   
 38  17  37  1   
 39  17  38  1   
 40  18  39  1   
 41  18  40  1   
 42  18  41  1   
 43  19  22  1   
 44  20  42  1   
 45  20  43  1   
 46  20  44  1   
 47  22  45  1   
 48  22  46  1   
 49  22  47  1   
@<TRIPOS>SUBSTRUCTURE
  1 ****   3 GROUP 4 **** **** 0

# MOE 2024.06 (io_trps.svl 2023.06)
