@<TRIPOS>MOLECULE
NONAME
41 43 1 0 0 
SMALL
USER_CHARGES


@<TRIPOS>ATOM
  1 CL       0.6230     0.7670    -1.2250 Cl    1 <1>  -0.1770 
  2 C        0.6330     2.1000    -0.0910 C.ar  1 <1>   0.1770 
  3 C        1.8190     2.5850     0.4550 C.ar  1 <1>  -0.1440 
  4 C       -0.5910     2.6530     0.2370 C.ar  1 <1>  -0.1500 
  5 C        1.7410     3.6520     1.3420 C.ar  1 <1>  -0.1500 
  6 C        3.1930     2.0100     0.1210 C.3   1 <1>   0.3640 
  7 C       -0.6500     3.7120     1.1240 C.ar  1 <1>  -0.1500 
  8 C        0.5180     4.2100     1.6740 C.ar  1 <1>  -0.1500 
  9 N        3.2440     0.5760     0.4900 N.am  1 <1>  -0.7300 
 10 C        3.6120     2.2630    -1.3500 C.3   1 <1>   0.2610 
 11 C        3.7820    -0.3760    -0.3060 C.2   1 <1>   0.5690 
 12 O        4.6640     1.3960    -1.7510 O.3   1 <1>  -0.5600 
 13 C        3.9590     3.7470    -1.5330 C.2   1 <1>   0.5690 
 14 O        3.8240    -1.5250     0.0530 O.2   1 <1>  -0.5700 
 15 C        4.3300     0.0250    -1.6800 C.3   1 <1>   0.1810 
 16 O        3.1540     4.4040    -2.1540 O.2   1 <1>  -0.5700 
 17 N        5.0870     4.3400    -0.9960 N.am  1 <1>  -0.6600 
 18 C        5.3220     5.8060    -1.1580 C.3   1 <1>   0.1400 
 19 C        6.2130     3.6220    -0.3260 C.3   1 <1>   0.1400 
 20 C        5.5460     6.4440     0.2130 C.3   1 <1>  -0.1600 
 21 C        6.4610     4.2290     1.0560 C.3   1 <1>  -0.1600 
 22 C        6.6850     5.7370     0.9460 C.3   1 <1>   0.2600 
 23 F        6.7280     6.2220     2.1780 F     1 <1>  -0.3400 
 24 H       -1.4890     2.2560    -0.2020 H     1 <1>   0.1500 
 25 H        2.6330     4.0650     1.7830 H     1 <1>   0.1500 
 26 H        3.9110     2.5080     0.7470 H     1 <1>   0.0800 
 27 H       -1.5990     4.1490     1.3840 H     1 <1>   0.1500 
 28 H        0.4740     5.0370     2.3630 H     1 <1>   0.1500 
 29 H        2.8240     0.2920     1.3760 H     1 <1>   0.3700 
 30 H        2.7810     2.0570    -1.9980 H     1 <1>   0.0800 
 31 H        3.5950    -0.1870    -2.4350 H     1 <1>   0.0800 
 32 H        5.2180    -0.5420    -1.8890 H     1 <1>   0.0800 
 33 H        6.1860     5.9560    -1.7830 H     1 <1>   0.0800 
 34 H        4.4830     6.2830    -1.6370 H     1 <1>   0.0800 
 35 H        6.0110     2.5740    -0.2140 H     1 <1>   0.0800 
 36 H        7.0970     3.7190    -0.9340 H     1 <1>   0.0800 
 37 H        4.6360     6.3670     0.7820 H     1 <1>   0.0800 
 38 H        5.7870     7.4840     0.0860 H     1 <1>   0.0800 
 39 H        7.3280     3.7680     1.4960 H     1 <1>   0.0800 
 40 H        5.6110     4.0330     1.6840 H     1 <1>   0.0800 
 41 H        7.6370     5.9600     0.4960 H     1 <1>   0.0800 
@<TRIPOS>BOND
  1   1   2  1   
  2   2   3  ar  
  3   2   4  ar  
  4   3   5  ar  
  5   3   6  1   
  6   4   7  ar  
  7   4  24  1   
  8   5   8  ar  
  9   5  25  1   
 10   6   9  1   
 11   6  10  1   
 12   6  26  1   
 13   7   8  ar  
 14   7  27  1   
 15   8  28  1   
 16   9  11  am  
 17   9  29  1   
 18  10  12  1   
 19  10  13  1   
 20  10  30  1   
 21  11  14  2   
 22  11  15  1   
 23  12  15  1   
 24  13  16  2   
 25  13  17  am  
 26  15  31  1   
 27  15  32  1   
 28  17  18  1   
 29  17  19  1   
 30  18  20  1   
 31  18  33  1   
 32  18  34  1   
 33  19  21  1   
 34  19  35  1   
 35  19  36  1   
 36  20  22  1   
 37  20  37  1   
 38  20  38  1   
 39  21  22  1   
 40  21  39  1   
 41  21  40  1   
 42  22  23  1   
 43  22  41  1   
@<TRIPOS>SUBSTRUCTURE
  1 ****   6 GROUP 4 **** **** 0

# MOE 2024.06 (io_trps.svl 2023.06)
