@<TRIPOS>MOLECULE
NONAME
53 55 1 0 0 
SMALL
USER_CHARGES


@<TRIPOS>ATOM
  1 O       -1.3610     0.2920    -0.0100 O.2   1 <1>  -0.5700 
  2 C       -2.2110     1.1660     0.0420 C.2   1 <1>   0.7160 
  3 N       -3.4630     0.8080     0.4900 N.am  1 <1>  -0.6600 
  4 C       -1.9130     2.5220    -0.3610 C.2   1 <1>  -0.0860 
  5 C       -3.6610    -0.4410     1.2800 C.3   1 <1>   0.1400 
  6 C       -4.7090     1.3120    -0.1530 C.3   1 <1>   0.1400 
  7 C       -0.9340     2.9550    -1.2650 C.2   1 <1>   0.1080 
  8 C       -2.4900     3.6910     0.0390 C.2   1 <1>  -0.3020 
  9 C       -4.1670    -1.5470     0.3280 C.3   1 <1>   0.4230 
 10 C       -5.3000     0.2100    -1.0500 C.3   1 <1>  -0.1600 
 11 N       -0.9170     4.2410    -1.4130 N.2   1 <1>  -0.7070 
 12 C        0.0280     2.0630    -2.0200 C.3   1 <1>  -0.0590 
 13 N       -1.8810     4.6980    -0.6000 N.pl3 1 <1>   0.3140 
 14 N       -4.2880    -2.9120     0.9440 N.4   1 <1>  -0.9590 
 15 C       -5.5220    -1.1340    -0.2950 C.3   1 <1>  -0.1060 
 16 C       -2.1720     6.1390    -0.4700 C.3   1 <1>   0.0960 
 17 C       -4.6970    -3.9790    -0.0170 C.3   1 <1>   0.3430 
 18 C       -3.1610    -3.3280     1.8210 C.3   1 <1>   0.2630 
 19 C       -6.5350    -0.9670     0.8540 C.2   1 <1>   0.9060 
 20 C       -6.0370    -2.2170    -1.2880 C.3   1 <1>  -0.1600 
 21 C       -1.4360     6.7390     0.7360 C.3   1 <1>  -0.1600 
 22 C       -5.0920    -3.4250    -1.3930 C.3   1 <1>  -0.1600 
 23 O       -6.5260    -1.8040     1.7700 O.co2 1 <1>  -0.9000 
 24 O       -7.3090    -0.0120     0.8600 O.co2 1 <1>  -0.9000 
 25 C       -1.7340     8.2350     0.8850 C.3   1 <1>  -0.2400 
 26 H       -2.7260    -0.7260     1.7270 H     1 <1>   0.0800 
 27 H       -4.3700    -0.2530     2.0690 H     1 <1>   0.0800 
 28 H       -5.4160     1.5940     0.6120 H     1 <1>   0.0800 
 29 H       -4.5080     2.1820    -0.7520 H     1 <1>   0.0800 
 30 H       -3.2890     3.8370     0.7430 H     1 <1>   0.1500 
 31 H       -3.4420    -1.6110    -0.4650 H     1 <1>   0.0800 
 32 H       -6.2410     0.5600    -1.4390 H     1 <1>   0.0800 
 33 H       -4.6410     0.0610    -1.8870 H     1 <1>   0.0800 
 34 H       -0.5140     1.2990    -2.5450 H     1 <1>   0.0800 
 35 H        0.7090     1.6010    -1.3290 H     1 <1>   0.0800 
 36 H        0.5900     2.6430    -2.7280 H     1 <1>   0.0800 
 37 H       -5.1430    -2.7600     1.5460 H     1 <1>   0.4500 
 38 H       -1.8570     6.6260    -1.3750 H     1 <1>   0.0800 
 39 H       -3.2330     6.2640    -0.3630 H     1 <1>   0.0800 
 40 H       -3.8940    -4.6860    -0.1440 H     1 <1>   0.0800 
 41 H       -5.5410    -4.5070     0.4000 H     1 <1>   0.0800 
 42 H       -2.2470    -3.3800     1.2530 H     1 <1>   0.0800 
 43 H       -3.3650    -4.2940     2.2510 H     1 <1>   0.0800 
 44 H       -3.0340    -2.6200     2.6240 H     1 <1>   0.0800 
 45 H       -7.0020    -2.5660    -0.9570 H     1 <1>   0.0800 
 46 H       -6.1870    -1.7980    -2.2690 H     1 <1>   0.0800 
 47 H       -1.7380     6.2270     1.6340 H     1 <1>   0.0800 
 48 H       -0.3760     6.6000     0.6050 H     1 <1>   0.0800 
 49 H       -4.2020    -3.1460    -1.9300 H     1 <1>   0.0800 
 50 H       -5.5710    -4.2050    -1.9600 H     1 <1>   0.0800 
 51 H       -2.7860     8.4000     1.0340 H     1 <1>   0.0800 
 52 H       -1.4180     8.7700     0.0060 H     1 <1>   0.0800 
 53 H       -1.2030     8.6320     1.7330 H     1 <1>   0.0800 
@<TRIPOS>BOND
  1   1   2  2   
  2   2   3  am  
  3   2   4  1   
  4   3   5  1   
  5   3   6  1   
  6   4   7  1   
  7   4   8  2   
  8   5   9  1   
  9   5  26  1   
 10   5  27  1   
 11   6  10  1   
 12   6  28  1   
 13   6  29  1   
 14   7  11  2   
 15   7  12  1   
 16   8  13  1   
 17   8  30  1   
 18   9  14  1   
 19   9  15  1   
 20   9  31  1   
 21  10  15  1   
 22  10  32  1   
 23  10  33  1   
 24  11  13  1   
 25  12  34  1   
 26  12  35  1   
 27  12  36  1   
 28  13  16  1   
 29  14  17  1   
 30  14  18  1   
 31  14  37  1   
 32  15  19  1   
 33  15  20  1   
 34  16  21  1   
 35  16  38  1   
 36  16  39  1   
 37  17  22  1   
 38  17  40  1   
 39  17  41  1   
 40  18  42  1   
 41  18  43  1   
 42  18  44  1   
 43  19  23  ar  
 44  19  24  ar  
 45  20  22  1   
 46  20  45  1   
 47  20  46  1   
 48  21  25  1   
 49  21  47  1   
 50  21  48  1   
 51  22  49  1   
 52  22  50  1   
 53  25  51  1   
 54  25  52  1   
 55  25  53  1   
@<TRIPOS>SUBSTRUCTURE
  1 ****   3 GROUP 4 **** **** 0

# MOE 2024.06 (io_trps.svl 2023.06)
