@<TRIPOS>MOLECULE
NONAME
40 42 1 0 0 
SMALL
USER_CHARGES


@<TRIPOS>ATOM
  1 O        1.7020     0.2370     1.7070 O.3   1 <1>  -0.6800 
  2 C        1.7100    -0.3550     0.4490 C.3   1 <1>   0.2000 
  3 C        2.4970    -1.6630     0.5460 C.3   1 <1>  -0.0800 
  4 C        2.5700     0.5130    -0.4670 C.3   1 <1>   0.3430 
  5 C        3.9570    -1.2570     0.2680 C.3   1 <1>   0.3430 
  6 C        1.9870    -2.7090    -0.4680 C.3   1 <1>  -0.0160 
  7 N        3.9590     0.2040    -0.0390 N.4   1 <1>  -0.9590 
  8 C        2.7320    -4.0320    -0.3570 C.ar  1 <1>   0.1670 
  9 C        5.0420     0.6550    -0.9510 C.3   1 <1>   0.4230 
 10 N        3.9700    -4.0490    -0.8280 N.ar  1 <1>  -0.6200 
 11 C        2.1100    -5.1430     0.2110 C.ar  1 <1>   0.1600 
 12 C        6.4020     0.4090    -0.2980 C.3   1 <1>  -0.1600 
 13 C        5.0230     2.1790    -1.0640 C.3   1 <1>  -0.1600 
 14 C        4.5330    -5.2420    -0.7030 C.ar  1 <1>   0.1600 
 15 N        2.6760    -6.3290     0.3470 N.ar  1 <1>  -0.6200 
 16 C        6.5960     1.5550     0.7030 C.3   1 <1>  -0.1600 
 17 C        5.7010     2.6990     0.2090 C.3   1 <1>  -0.1600 
 18 C        3.9070    -6.3440    -0.1340 C.ar  1 <1>   0.1600 
 19 H        1.0550    -0.1940     2.3050 H     1 <1>   0.4000 
 20 H        0.6940    -0.4590     0.1030 H     1 <1>   0.0800 
 21 H        2.4190    -2.0880     1.5330 H     1 <1>   0.0800 
 22 H        2.3300     1.5560    -0.3490 H     1 <1>   0.0800 
 23 H        2.4260     0.2170    -1.4930 H     1 <1>   0.0800 
 24 H        4.3390    -1.8010    -0.5800 H     1 <1>   0.0800 
 25 H        4.5800    -1.4660     1.1220 H     1 <1>   0.0800 
 26 H        2.0940    -2.3420    -1.4740 H     1 <1>   0.0800 
 27 H        0.9380    -2.8840    -0.3010 H     1 <1>   0.0800 
 28 H        4.0850     0.6970     0.8570 H     1 <1>   0.4500 
 29 H        4.9610     0.1740    -1.9130 H     1 <1>   0.0800 
 30 H        1.1000    -5.0540     0.5710 H     1 <1>   0.1500 
 31 H        6.5090    -0.5590     0.1550 H     1 <1>   0.0800 
 32 H        7.1560     0.4960    -1.0620 H     1 <1>   0.0800 
 33 H        5.6320     2.4570    -1.9080 H     1 <1>   0.0800 
 34 H        4.0470     2.6030    -1.2150 H     1 <1>   0.0800 
 35 H        5.5380    -5.3580    -1.0680 H     1 <1>   0.1500 
 36 H        6.2910     1.2490     1.6890 H     1 <1>   0.0800 
 37 H        7.6300     1.8570     0.7430 H     1 <1>   0.0800 
 38 H        6.2770     3.5860     0.0030 H     1 <1>   0.0800 
 39 H        4.9640     2.9370     0.9580 H     1 <1>   0.0800 
 40 H        4.4460    -7.2740    -0.0740 H     1 <1>   0.1500 
@<TRIPOS>BOND
  1   1   2  1   
  2   1  19  1   
  3   2   3  1   
  4   2   4  1   
  5   2  20  1   
  6   3   5  1   
  7   3   6  1   
  8   3  21  1   
  9   4   7  1   
 10   4  22  1   
 11   4  23  1   
 12   5   7  1   
 13   5  24  1   
 14   5  25  1   
 15   6   8  1   
 16   6  26  1   
 17   6  27  1   
 18   7   9  1   
 19   7  28  1   
 20   8  10  ar  
 21   8  11  ar  
 22   9  12  1   
 23   9  13  1   
 24   9  29  1   
 25  10  14  ar  
 26  11  15  ar  
 27  11  30  1   
 28  12  16  1   
 29  12  31  1   
 30  12  32  1   
 31  13  17  1   
 32  13  33  1   
 33  13  34  1   
 34  14  18  ar  
 35  14  35  1   
 36  15  18  ar  
 37  16  17  1   
 38  16  36  1   
 39  16  37  1   
 40  17  38  1   
 41  17  39  1   
 42  18  40  1   
@<TRIPOS>SUBSTRUCTURE
  1 ****   5 GROUP 4 **** **** 0

# MOE 2024.06 (io_trps.svl 2023.06)
