@<TRIPOS>MOLECULE
NONAME
48 50 1 0 0 
SMALL
USER_CHARGES


@<TRIPOS>ATOM
  1 O       -0.1170     0.9080     1.0580 O.co2 1 <1>  -0.9000 
  2 C       -1.1710     1.5400     0.9640 C.2   1 <1>   0.9060 
  3 O       -2.2880     1.0630     1.1650 O.co2 1 <1>  -0.9000 
  4 C       -1.0980     2.9800     0.5700 C.3   1 <1>  -0.1860 
  5 C       -1.9500     3.2110    -0.6790 C.3   1 <1>   0.2000 
  6 C        0.3470     3.3480     0.3060 C.3   1 <1>   0.3430 
  7 O       -3.2140     3.5090    -0.2310 O.3   1 <1>  -0.6800 
  8 C       -1.4530     4.3730    -1.5450 C.3   1 <1>  -0.1600 
  9 N        0.4590     4.8070    -0.0230 N.4   1 <1>  -0.9590 
 10 C       -0.7510     5.4100    -0.6780 C.3   1 <1>   0.3430 
 11 C        0.8790     5.5690     1.1770 C.3   1 <1>   0.4860 
 12 C        1.1900     7.0020     0.7750 C.ar  1 <1>  -0.1440 
 13 C        2.3160     7.3560    -0.0300 C.ar  1 <1>   0.0000 
 14 C        0.3120     7.9540     1.2260 C.ar  1 <1>  -0.1500 
 15 C        3.3130     6.4500    -0.5200 C.ar  1 <1>   0.0820 
 16 C        2.4600     8.7280    -0.3730 C.ar  1 <1>   0.0000 
 17 C        0.4770     9.2960     0.8990 C.ar  1 <1>  -0.1500 
 18 O        3.2260     5.1360    -0.1830 O.3   1 <1>  -0.3620 
 19 C        4.3460     6.8890    -1.3170 C.ar  1 <1>  -0.1500 
 20 C        1.5290     9.6850     0.1090 C.ar  1 <1>   0.0820 
 21 C        3.5400     9.1230    -1.1930 C.ar  1 <1>  -0.1500 
 22 C        4.3110     4.2380    -0.3230 C.3   1 <1>   0.0400 
 23 C        4.4600     8.2320    -1.6570 C.ar  1 <1>  -0.1500 
 24 O        1.7270    10.9810    -0.2450 O.3   1 <1>  -0.3620 
 25 C        0.9100    12.0330     0.2200 C.3   1 <1>   0.0400 
 26 H       -1.4550     3.5550     1.4030 H     1 <1>   0.0800 
 27 H       -2.0200     2.3130    -1.2740 H     1 <1>   0.0800 
 28 H        0.6990     2.7540    -0.5220 H     1 <1>   0.0800 
 29 H        0.9500     3.0950     1.1630 H     1 <1>   0.0800 
 30 H       -3.5080     2.7360     0.3140 H     1 <1>   0.4000 
 31 H       -0.7610     4.0060    -2.2810 H     1 <1>   0.0800 
 32 H       -2.2800     4.8190    -2.0700 H     1 <1>   0.0800 
 33 H        1.2660     4.9080    -0.6590 H     1 <1>   0.4500 
 34 H       -1.4460     5.7390     0.0780 H     1 <1>   0.0800 
 35 H       -0.4630     6.2640    -1.2690 H     1 <1>   0.0800 
 36 H        0.0910     5.5520     1.9120 H     1 <1>   0.0800 
 37 H        1.7560     5.1210     1.6140 H     1 <1>   0.0800 
 38 H       -0.5320     7.6940     1.8430 H     1 <1>   0.1500 
 39 H       -0.2390     9.9990     1.2810 H     1 <1>   0.1500 
 40 H        5.0970     6.2280    -1.7070 H     1 <1>   0.1500 
 41 H        3.6400    10.1620    -1.4580 H     1 <1>   0.1500 
 42 H        4.0430     3.3070     0.1450 H     1 <1>   0.0800 
 43 H        5.1760     4.6530     0.1640 H     1 <1>   0.0800 
 44 H        4.5020     4.0740    -1.3690 H     1 <1>   0.0800 
 45 H        5.2750     8.5560    -2.2820 H     1 <1>   0.1500 
 46 H        1.2910    12.9540    -0.1840 H     1 <1>   0.0800 
 47 H        0.9540    12.0610     1.2940 H     1 <1>   0.0800 
 48 H       -0.0960    11.8740    -0.1230 H     1 <1>   0.0800 
@<TRIPOS>BOND
  1   1   2  ar  
  2   2   3  ar  
  3   2   4  1   
  4   4   5  1   
  5   4   6  1   
  6   4  26  1   
  7   5   7  1   
  8   5   8  1   
  9   5  27  1   
 10   6   9  1   
 11   6  28  1   
 12   6  29  1   
 13   7  30  1   
 14   8  10  1   
 15   8  31  1   
 16   8  32  1   
 17   9  10  1   
 18   9  11  1   
 19   9  33  1   
 20  10  34  1   
 21  10  35  1   
 22  11  12  1   
 23  11  36  1   
 24  11  37  1   
 25  12  13  ar  
 26  12  14  ar  
 27  13  15  ar  
 28  13  16  ar  
 29  14  17  ar  
 30  14  38  1   
 31  15  18  1   
 32  15  19  ar  
 33  16  20  ar  
 34  16  21  ar  
 35  17  20  ar  
 36  17  39  1   
 37  18  22  1   
 38  19  23  ar  
 39  19  40  1   
 40  20  24  1   
 41  21  23  ar  
 42  21  41  1   
 43  22  42  1   
 44  22  43  1   
 45  22  44  1   
 46  23  45  1   
 47  24  25  1   
 48  25  46  1   
 49  25  47  1   
 50  25  48  1   
@<TRIPOS>SUBSTRUCTURE
  1 ****  11 GROUP 4 **** **** 0

# MOE 2024.06 (io_trps.svl 2023.06)
