@<TRIPOS>MOLECULE
NONAME
44 46 1 0 0 
SMALL
USER_CHARGES


@<TRIPOS>ATOM
  1 O       -4.9890     4.4540    -0.5470 O.co2 1 <1>  -0.9000 
  2 C       -4.0730     3.9440     0.1060 C.2   1 <1>   0.9060 
  3 O       -2.8950     4.2900    -0.0040 O.co2 1 <1>  -0.9000 
  4 C       -4.4200     2.8470     1.0870 C.3   1 <1>  -0.2660 
  5 C       -4.5030     1.4640     0.4140 C.3   1 <1>  -0.1600 
  6 C       -5.1170     0.3970     1.3400 C.3   1 <1>  -0.0990 
  7 C       -6.1350    -0.4820     0.6230 C.2   1 <1>   0.5690 
  8 O       -5.7460    -1.5610     0.2370 O.2   1 <1>  -0.5700 
  9 N       -7.4390    -0.0770     0.4440 N.am  1 <1>  -0.6600 
 10 C       -8.0340     1.1960     0.9780 C.3   1 <1>   0.1400 
 11 C       -8.4330    -0.9760    -0.2070 C.3   1 <1>   0.1400 
 12 C       -8.8270     1.9800    -0.0910 C.3   1 <1>   0.1430 
 13 C       -9.1720    -0.2320    -1.3240 C.3   1 <1>  -0.1600 
 14 C       -9.5620     3.1370     0.5650 C.ar  1 <1>   0.1670 
 15 C       -9.8360     1.0560    -0.8070 C.3   1 <1>  -0.1600 
 16 C       -7.8910     2.6990    -1.0990 C.3   1 <1>  -0.1600 
 17 N      -10.3740     3.0370     1.5940 N.ar  1 <1>  -0.6200 
 18 C       -9.2830     4.3260    -0.0410 C.ar  1 <1>  -0.1440 
 19 C       -8.3380     4.1670    -1.2030 C.3   1 <1>  -0.0170 
 20 C      -10.8780     4.1940     1.9960 C.ar  1 <1>   0.7200 
 21 C       -9.8700     5.4600     0.4640 C.ar  1 <1>   0.1600 
 22 N      -10.6890     5.4050     1.4920 N.ar  1 <1>  -0.6200 
 23 N      -11.7150     4.1280     3.0320 N.pl3 1 <1>  -0.9000 
 24 H       -5.3620     3.1130     1.5250 H     1 <1>   0.0800 
 25 H       -3.6760     2.8400     1.8600 H     1 <1>   0.0800 
 26 H       -3.5160     1.1590     0.1100 H     1 <1>   0.0800 
 27 H       -5.0850     1.5440    -0.4860 H     1 <1>   0.0800 
 28 H       -5.5760     0.8420     2.2010 H     1 <1>   0.0800 
 29 H       -4.3270    -0.2310     1.7090 H     1 <1>   0.0800 
 30 H       -7.2800     1.8430     1.3820 H     1 <1>   0.0800 
 31 H       -8.7000     0.9380     1.7830 H     1 <1>   0.0800 
 32 H       -9.1350    -1.3110     0.5370 H     1 <1>   0.0800 
 33 H       -7.9480    -1.8440    -0.6200 H     1 <1>   0.0800 
 34 H       -9.9240    -0.8800    -1.7370 H     1 <1>   0.0800 
 35 H       -8.4720    -0.0070    -2.1080 H     1 <1>   0.0800 
 36 H      -10.3010     1.5840    -1.6200 H     1 <1>   0.0800 
 37 H      -10.6100     0.7860    -0.1090 H     1 <1>   0.0800 
 38 H       -7.8690     2.2310    -2.0660 H     1 <1>   0.0800 
 39 H       -6.8900     2.7070    -0.7180 H     1 <1>   0.0800 
 40 H       -8.8550     4.3440    -2.1290 H     1 <1>   0.0800 
 41 H       -7.4960     4.8340    -1.1220 H     1 <1>   0.0800 
 42 H       -9.6640     6.4180     0.0190 H     1 <1>   0.1500 
 43 H      -12.3230     4.9350     3.1400 H     1 <1>   0.4000 
 44 H      -12.1260     3.2150     3.1970 H     1 <1>   0.4000 
@<TRIPOS>BOND
  1   1   2  ar  
  2   2   3  ar  
  3   2   4  1   
  4   4   5  1   
  5   4  24  1   
  6   4  25  1   
  7   5   6  1   
  8   5  26  1   
  9   5  27  1   
 10   6   7  1   
 11   6  28  1   
 12   6  29  1   
 13   7   8  2   
 14   7   9  am  
 15   9  10  1   
 16   9  11  1   
 17  10  12  1   
 18  10  30  1   
 19  10  31  1   
 20  11  13  1   
 21  11  32  1   
 22  11  33  1   
 23  12  14  1   
 24  12  15  1   
 25  12  16  1   
 26  13  15  1   
 27  13  34  1   
 28  13  35  1   
 29  14  17  ar  
 30  14  18  ar  
 31  15  36  1   
 32  15  37  1   
 33  16  19  1   
 34  16  38  1   
 35  16  39  1   
 36  17  20  ar  
 37  18  19  1   
 38  18  21  ar  
 39  19  40  1   
 40  19  41  1   
 41  20  22  ar  
 42  20  23  1   
 43  21  22  ar  
 44  21  42  1   
 45  23  43  1   
 46  23  44  1   
@<TRIPOS>SUBSTRUCTURE
  1 ****  12 GROUP 4 **** **** 0

# MOE 2024.06 (io_trps.svl 2023.06)
