@<TRIPOS>MOLECULE
NONAME
47 49 1 0 0 
SMALL
USER_CHARGES


@<TRIPOS>ATOM
  1 F       -4.0620     2.6580    -2.7250 F     1 <1>  -0.3400 
  2 C       -2.9460     3.0640    -2.1380 C.3   1 <1>   0.8800 
  3 F       -2.2210     1.9730    -1.9310 F     1 <1>  -0.3400 
  4 O       -3.2870     3.6250    -0.8940 O.3   1 <1>  -0.3630 
  5 C       -2.4230     4.3810    -0.1730 C.ar  1 <1>   0.0830 
  6 C       -2.9240     5.0310     0.9630 C.ar  1 <1>   0.0860 
  7 C       -1.0810     4.5250    -0.5260 C.ar  1 <1>  -0.1500 
  8 C       -4.3080     4.9160     1.3700 C.2   1 <1>   0.5440 
  9 C       -2.0490     5.8110     1.7160 C.ar  1 <1>  -0.1500 
 10 C       -0.2390     5.3130     0.2360 C.ar  1 <1>  -0.1500 
 11 O       -4.5740     4.2530     2.3560 O.2   1 <1>  -0.5700 
 12 N       -5.3240     5.5680     0.6990 N.am  1 <1>  -0.6600 
 13 C       -0.7230     5.9570     1.3590 C.ar  1 <1>  -0.1500 
 14 C       -6.7660     5.3240     1.0160 C.3   1 <1>   0.1400 
 15 C       -5.1130     6.5260    -0.4180 C.3   1 <1>   0.1400 
 16 C       -7.5120     4.7700    -0.2230 C.3   1 <1>   0.0000 
 17 C       -5.8230     6.0170    -1.6780 C.3   1 <1>  -0.1600 
 18 C       -9.0050     4.5460     0.0730 C.3   1 <1>   0.2000 
 19 C       -7.3120     5.7290    -1.4180 C.3   1 <1>  -0.1600 
 20 C       -7.0410     3.3370    -0.5340 C.3   1 <1>  -0.1600 
 21 O       -9.5410     5.5890     0.8330 O.3   1 <1>  -0.5600 
 22 C       -9.0840     3.2100     0.8180 C.3   1 <1>  -0.1600 
 23 C       -7.8230     2.4310     0.4220 C.3   1 <1>  -0.1600 
 24 C      -10.9310     5.6190     0.8930 C.3   1 <1>   0.0400 
 25 H       -2.4220     3.7480    -2.7820 H     1 <1>   0.0800 
 26 H       -0.6600     4.0260    -1.3790 H     1 <1>   0.1500 
 27 H       -2.4260     6.3030     2.5970 H     1 <1>   0.1500 
 28 H        0.7970     5.4210    -0.0380 H     1 <1>   0.1500 
 29 H       -0.0660     6.5670     1.9570 H     1 <1>   0.1500 
 30 H       -6.8640     4.6410     1.8410 H     1 <1>   0.0800 
 31 H       -7.2070     6.2570     1.3190 H     1 <1>   0.0800 
 32 H       -5.5230     7.4800    -0.1330 H     1 <1>   0.0800 
 33 H       -4.0660     6.6620    -0.6190 H     1 <1>   0.0800 
 34 H       -5.7320     6.7540    -2.4560 H     1 <1>   0.0800 
 35 H       -5.3350     5.1220    -2.0180 H     1 <1>   0.0800 
 36 H       -9.5420     4.4780    -0.8580 H     1 <1>   0.0800 
 37 H       -7.7600     5.3170    -2.3050 H     1 <1>   0.0800 
 38 H       -7.8120     6.6570    -1.2000 H     1 <1>   0.0800 
 39 H       -7.3000     3.0800    -1.5460 H     1 <1>   0.0800 
 40 H       -5.9800     3.2100    -0.4130 H     1 <1>   0.0800 
 41 H       -9.0810     3.3770     1.8820 H     1 <1>   0.0800 
 42 H       -9.9710     2.6710     0.5370 H     1 <1>   0.0800 
 43 H       -7.2280     2.2370     1.3000 H     1 <1>   0.0800 
 44 H       -8.0620     1.4920    -0.0470 H     1 <1>   0.0800 
 45 H      -11.2210     6.4710     1.4810 H     1 <1>   0.0800 
 46 H      -11.2900     4.7190     1.3600 H     1 <1>   0.0800 
 47 H      -11.3280     5.7140    -0.1030 H     1 <1>   0.0800 
@<TRIPOS>BOND
  1   1   2  1   
  2   2   3  1   
  3   2   4  1   
  4   2  25  1   
  5   4   5  1   
  6   5   6  ar  
  7   5   7  ar  
  8   6   8  1   
  9   6   9  ar  
 10   7  10  ar  
 11   7  26  1   
 12   8  11  2   
 13   8  12  am  
 14   9  13  ar  
 15   9  27  1   
 16  10  13  ar  
 17  10  28  1   
 18  12  14  1   
 19  12  15  1   
 20  13  29  1   
 21  14  16  1   
 22  14  30  1   
 23  14  31  1   
 24  15  17  1   
 25  15  32  1   
 26  15  33  1   
 27  16  18  1   
 28  16  19  1   
 29  16  20  1   
 30  17  19  1   
 31  17  34  1   
 32  17  35  1   
 33  18  21  1   
 34  18  22  1   
 35  18  36  1   
 36  19  37  1   
 37  19  38  1   
 38  20  23  1   
 39  20  39  1   
 40  20  40  1   
 41  21  24  1   
 42  22  23  1   
 43  22  41  1   
 44  22  42  1   
 45  23  43  1   
 46  23  44  1   
 47  24  45  1   
 48  24  46  1   
 49  24  47  1   
@<TRIPOS>SUBSTRUCTURE
  1 ****  12 GROUP 4 **** **** 0

# MOE 2024.06 (io_trps.svl 2023.06)
