@<TRIPOS>MOLECULE
NONAME
49 51 1 0 0 
SMALL
USER_CHARGES


@<TRIPOS>ATOM
  1 O       -0.5150    -0.1980    -0.1020 O.co2 1 <1>  -0.9000 
  2 C       -1.2180    -0.4280     0.8850 C.2   1 <1>   0.9060 
  3 O       -0.7720    -0.8060     1.9710 O.co2 1 <1>  -0.9000 
  4 C       -2.7340    -0.4730     0.6890 C.3   1 <1>   0.2370 
  5 N       -3.2370    -1.7960     0.1340 N.4   1 <1>  -0.9590 
  6 C       -2.8370    -2.9430     1.0260 C.3   1 <1>   0.4230 
  7 C       -2.8360    -1.9510    -1.2880 C.3   1 <1>   0.3430 
  8 C       -1.4990    -3.6460     0.6770 C.3   1 <1>   0.1200 
  9 C       -4.0300    -3.9360     1.0280 C.3   1 <1>   0.1100 
 10 C       -3.0410    -3.3730    -1.8330 C.3   1 <1>  -0.0800 
 11 O       -1.6650    -4.6450    -0.2910 O.3   1 <1>  -0.5600 
 12 N       -4.9600    -3.7370    -0.1310 N.3   1 <1>  -0.8100 
 13 C       -1.7710    -4.2110    -1.6030 C.3   1 <1>   0.1200 
 14 C       -4.3450    -4.1170    -1.4320 C.3   1 <1>   0.1100 
 15 C       -6.2680    -4.3960     0.0800 C.3   1 <1>   0.2530 
 16 C       -6.1630    -5.9100     0.1850 C.ar  1 <1>  -0.1430 
 17 C       -5.9530    -6.5430     1.3870 C.ar  1 <1>   0.1600 
 18 C       -6.2880    -6.7210    -0.9180 C.ar  1 <1>   0.1600 
 19 N       -5.8570    -7.8440     1.4910 N.ar  1 <1>  -0.6200 
 20 N       -6.1970    -8.0240    -0.8490 N.ar  1 <1>  -0.6200 
 21 C       -5.9810    -8.5400     0.3610 C.ar  1 <1>   0.7200 
 22 N       -5.8790    -9.9140     0.4510 N.pl3 1 <1>  -0.8380 
 23 C       -6.2810   -10.8130    -0.6650 C.3   1 <1>   0.1290 
 24 C       -5.3460   -10.5910     1.6660 C.3   1 <1>   0.1290 
 25 H       -3.0000     0.3300     0.0270 H     1 <1>   0.0800 
 26 H       -3.1800    -0.2880     1.6490 H     1 <1>   0.0800 
 27 H       -4.2660    -1.8760     0.1280 H     1 <1>   0.4500 
 28 H       -2.7200    -2.5610     2.0270 H     1 <1>   0.0800 
 29 H       -3.4130    -1.2630    -1.8820 H     1 <1>   0.0800 
 30 H       -1.7970    -1.6800    -1.3990 H     1 <1>   0.0800 
 31 H       -1.1390    -4.1400     1.5620 H     1 <1>   0.0800 
 32 H       -0.7380    -2.9530     0.3630 H     1 <1>   0.0800 
 33 H       -4.5730    -3.7710     1.9420 H     1 <1>   0.0800 
 34 H       -3.6740    -4.9530     1.0560 H     1 <1>   0.0800 
 35 H       -3.0830    -3.2610    -2.9010 H     1 <1>   0.0800 
 36 H       -0.8810    -3.6560    -1.8530 H     1 <1>   0.0800 
 37 H       -1.8000    -5.0930    -2.2200 H     1 <1>   0.0800 
 38 H       -4.1420    -5.1760    -1.4350 H     1 <1>   0.0800 
 39 H       -5.0740    -3.9330    -2.2030 H     1 <1>   0.0800 
 40 H       -6.7180    -4.0090     0.9790 H     1 <1>   0.0800 
 41 H       -6.9260    -4.1410    -0.7340 H     1 <1>   0.0800 
 42 H       -5.8610    -5.9680     2.2920 H     1 <1>   0.1500 
 43 H       -6.4660    -6.2890    -1.8880 H     1 <1>   0.1500 
 44 H       -6.6520   -11.7440    -0.2750 H     1 <1>   0.0800 
 45 H       -5.4300   -11.0050    -1.2960 H     1 <1>   0.0800 
 46 H       -7.0590   -10.3600    -1.2550 H     1 <1>   0.0800 
 47 H       -4.8230   -11.4900     1.3900 H     1 <1>   0.0800 
 48 H       -6.1590   -10.8400     2.3240 H     1 <1>   0.0800 
 49 H       -4.6580    -9.9480     2.1870 H     1 <1>   0.0800 
@<TRIPOS>BOND
  1   1   2  ar  
  2   2   3  ar  
  3   2   4  1   
  4   4   5  1   
  5   4  25  1   
  6   4  26  1   
  7   5   6  1   
  8   5   7  1   
  9   5  27  1   
 10   6   8  1   
 11   6   9  1   
 12   6  28  1   
 13   7  10  1   
 14   7  29  1   
 15   7  30  1   
 16   8  11  1   
 17   8  31  1   
 18   8  32  1   
 19   9  12  1   
 20   9  33  1   
 21   9  34  1   
 22  10  13  1   
 23  10  14  1   
 24  10  35  1   
 25  11  13  1   
 26  12  14  1   
 27  12  15  1   
 28  13  36  1   
 29  13  37  1   
 30  14  38  1   
 31  14  39  1   
 32  15  16  1   
 33  15  40  1   
 34  15  41  1   
 35  16  17  ar  
 36  16  18  ar  
 37  17  19  ar  
 38  17  42  1   
 39  18  20  ar  
 40  18  43  1   
 41  19  21  ar  
 42  20  21  ar  
 43  21  22  1   
 44  22  23  1   
 45  22  24  1   
 46  23  44  1   
 47  23  45  1   
 48  23  46  1   
 49  24  47  1   
 50  24  48  1   
 51  24  49  1   
@<TRIPOS>SUBSTRUCTURE
  1 ****   9 GROUP 4 **** **** 0

# MOE 2024.06 (io_trps.svl 2023.06)
