@<TRIPOS>MOLECULE
NONAME
53 56 1 0 0 
SMALL
USER_CHARGES


@<TRIPOS>ATOM
  1 O       -0.8500    -0.5660    -0.7560 O.3   1 <1>  -0.3630 
  2 C       -0.9030    -1.7420    -0.0780 C.ar  1 <1>   0.0830 
  3 C        0.1570    -0.2870    -1.7040 C.3   1 <1>   0.0400 
  4 C       -2.0550    -2.0140     0.6730 C.ar  1 <1>   0.0000 
  5 C        0.1400    -2.6650    -0.1220 C.ar  1 <1>  -0.1500 
  6 C       -3.1630    -1.0880     0.7660 C.ar  1 <1>   0.3100 
  7 C       -2.1190    -3.2320     1.3510 C.ar  1 <1>  -0.1500 
  8 C        0.0510    -3.8600     0.5650 C.ar  1 <1>  -0.1500 
  9 N       -4.3950    -1.5460     0.5060 N.ar  1 <1>  -0.3100 
 10 C       -2.9640     0.2300     1.1460 C.ar  1 <1>  -0.1500 
 11 C       -1.0840    -4.1450     1.3030 C.ar  1 <1>  -0.1500 
 12 N       -5.4360    -0.7550     0.5900 N.ar  1 <1>  -0.3100 
 13 C       -4.0540     1.0570     1.2320 C.ar  1 <1>  -0.1500 
 14 C       -5.3000     0.5340     0.9320 C.ar  1 <1>   0.4100 
 15 N       -6.4430     1.3280     0.9900 N.pl3 1 <1>  -0.8380 
 16 C       -7.7900     0.7370     1.2680 C.3   1 <1>   0.2090 
 17 C       -6.4500     2.7570     0.5780 C.3   1 <1>   0.2090 
 18 C       -8.7770     0.9250     0.0880 C.3   1 <1>   0.0000 
 19 C       -7.4090     2.9660    -0.5970 C.3   1 <1>  -0.1600 
 20 C      -10.1500     0.3610     0.5070 C.3   1 <1>   0.2000 
 21 C       -8.8160     2.4210    -0.3040 C.3   1 <1>  -0.1600 
 22 C       -8.3940     0.0260    -1.1010 C.3   1 <1>  -0.1600 
 23 O      -11.1500     0.8760    -0.3270 O.3   1 <1>  -0.5600 
 24 C      -10.0500    -1.1530     0.2710 C.3   1 <1>  -0.1600 
 25 C       -8.9450    -1.3640    -0.7730 C.3   1 <1>  -0.1600 
 26 C      -12.4330     0.8680     0.2130 C.3   1 <1>   0.0400 
 27 H       -0.0700     0.6580    -2.1630 H     1 <1>   0.0800 
 28 H        0.1600    -1.0630    -2.4480 H     1 <1>   0.0800 
 29 H        1.1060    -0.2290    -1.2000 H     1 <1>   0.0800 
 30 H        1.0320    -2.4710    -0.6860 H     1 <1>   0.1500 
 31 H       -3.0010    -3.4620     1.9250 H     1 <1>   0.1500 
 32 H        0.8590    -4.5700     0.5270 H     1 <1>   0.1500 
 33 H       -1.9740     0.5840     1.3670 H     1 <1>   0.1500 
 34 H       -1.1610    -5.0760     1.8360 H     1 <1>   0.1500 
 35 H       -3.9470     2.0790     1.5340 H     1 <1>   0.1500 
 36 H       -7.6960    -0.3070     1.5100 H     1 <1>   0.0800 
 37 H       -8.1900     1.2270     2.1380 H     1 <1>   0.0800 
 38 H       -6.7620     3.3590     1.4150 H     1 <1>   0.0800 
 39 H       -5.4660     3.0720     0.2810 H     1 <1>   0.0800 
 40 H       -7.4710     4.0160    -0.8190 H     1 <1>   0.0800 
 41 H       -7.0020     2.4760    -1.4640 H     1 <1>   0.0800 
 42 H      -10.3860     0.6080     1.5280 H     1 <1>   0.0800 
 43 H       -9.4370     2.5610    -1.1720 H     1 <1>   0.0800 
 44 H       -9.2530     2.9850     0.5020 H     1 <1>   0.0800 
 45 H       -8.8840     0.3850    -1.9890 H     1 <1>   0.0800 
 46 H       -7.3340     0.0030    -1.2820 H     1 <1>   0.0800 
 47 H       -9.7600    -1.6360     1.1870 H     1 <1>   0.0800 
 48 H      -10.9840    -1.5730    -0.0570 H     1 <1>   0.0800 
 49 H       -8.1620    -1.9790    -0.3610 H     1 <1>   0.0800 
 50 H       -9.3290    -1.8370    -1.6600 H     1 <1>   0.0800 
 51 H      -13.1090     1.2540    -0.5300 H     1 <1>   0.0800 
 52 H      -12.4540     1.5000     1.0840 H     1 <1>   0.0800 
 53 H      -12.7130    -0.1390     0.4670 H     1 <1>   0.0800 
@<TRIPOS>BOND
  1   1   2  1   
  2   1   3  1   
  3   2   4  ar  
  4   2   5  ar  
  5   3  27  1   
  6   3  28  1   
  7   3  29  1   
  8   4   6  1   
  9   4   7  ar  
 10   5   8  ar  
 11   5  30  1   
 12   6   9  ar  
 13   6  10  ar  
 14   7  11  ar  
 15   7  31  1   
 16   8  11  ar  
 17   8  32  1   
 18   9  12  ar  
 19  10  13  ar  
 20  10  33  1   
 21  11  34  1   
 22  12  14  ar  
 23  13  14  ar  
 24  13  35  1   
 25  14  15  1   
 26  15  16  1   
 27  15  17  1   
 28  16  18  1   
 29  16  36  1   
 30  16  37  1   
 31  17  19  1   
 32  17  38  1   
 33  17  39  1   
 34  18  20  1   
 35  18  21  1   
 36  18  22  1   
 37  19  21  1   
 38  19  40  1   
 39  19  41  1   
 40  20  23  1   
 41  20  24  1   
 42  20  42  1   
 43  21  43  1   
 44  21  44  1   
 45  22  25  1   
 46  22  45  1   
 47  22  46  1   
 48  23  26  1   
 49  24  25  1   
 50  24  47  1   
 51  24  48  1   
 52  25  49  1   
 53  25  50  1   
 54  26  51  1   
 55  26  52  1   
 56  26  53  1   
@<TRIPOS>SUBSTRUCTURE
  1 ****  12 GROUP 4 **** **** 0

# MOE 2024.06 (io_trps.svl 2023.06)
