@<TRIPOS>MOLECULE
NONAME
56 58 1 0 0 
SMALL
USER_CHARGES


@<TRIPOS>ATOM
  1 CL       0.0830     0.5980     0.9640 Cl    1 <1>  -0.1770 
  2 C       -1.6580     0.6940     0.9300 C.ar  1 <1>   0.1770 
  3 C       -2.3280     0.5050    -0.2630 C.ar  1 <1>  -0.1500 
  4 C       -2.3470     0.9590     2.0970 C.ar  1 <1>  -0.1500 
  5 C       -3.7090     0.5840    -0.2840 C.ar  1 <1>  -0.1500 
  6 C       -3.7290     1.0340     2.0640 C.ar  1 <1>  -0.1500 
  7 C       -4.4410     0.8450     0.8770 C.ar  1 <1>   0.0530 
  8 C       -5.8800     0.9360     0.8680 C.2   1 <1>   0.0870 
  9 O       -6.4700     1.8170     1.6360 O.3   1 <1>  -0.0190 
 10 C       -6.8650     0.2800     0.1930 C.2   1 <1>  -0.0860 
 11 N       -7.7700     1.8070     1.5220 N.2   1 <1>  -0.4100 
 12 C       -8.0370     0.8910     0.6620 C.2   1 <1>   0.3720 
 13 C       -6.7980    -0.7960    -0.7490 C.2   1 <1>   0.7160 
 14 N       -9.3390     0.5610     0.2690 N.pl3 1 <1>  -0.8520 
 15 O       -5.8310    -1.5290    -0.7950 O.2   1 <1>  -0.5700 
 16 N       -7.8460    -1.0030    -1.5900 N.am  1 <1>  -0.7300 
 17 C      -10.4570     1.3600     0.8520 C.3   1 <1>   0.2090 
 18 C       -8.5130    -2.2760    -1.8970 C.3   1 <1>   0.4010 
 19 C      -11.8060     0.7800     0.4310 C.3   1 <1>   0.1200 
 20 C       -9.6160    -2.4620    -0.8610 C.2   1 <1>  -0.1810 
 21 C       -7.5880    -3.4870    -2.0140 C.3   1 <1>  -0.2400 
 22 O      -12.8230     1.6060     0.9060 O.3   1 <1>  -0.5600 
 23 C      -10.9770    -2.3910    -1.1520 C.2   1 <1>   0.1080 
 24 C       -9.5720    -2.6920     0.4780 C.2   1 <1>  -0.3320 
 25 C      -14.0980     1.1450     0.5930 C.3   1 <1>   0.0400 
 26 N      -11.7140    -2.5590    -0.1030 N.2   1 <1>  -0.7070 
 27 C      -11.5960    -2.1400    -2.5100 C.3   1 <1>  -0.0590 
 28 N      -10.8530    -2.7600     0.9030 N.pl3 1 <1>   0.3140 
 29 C       -8.3940    -2.8640     1.4310 C.3   1 <1>  -0.0600 
 30 C      -11.3330    -3.0020     2.2700 C.3   1 <1>   0.0160 
 31 H       -1.7740     0.2980    -1.1610 H     1 <1>   0.1500 
 32 H       -1.8060     1.1050     3.0150 H     1 <1>   0.1500 
 33 H       -4.2260     0.4400    -1.2160 H     1 <1>   0.1500 
 34 H       -4.2670     1.2410     2.9730 H     1 <1>   0.1500 
 35 H       -9.5310    -0.4510     0.3660 H     1 <1>   0.4000 
 36 H       -8.5540    -0.2670    -1.4950 H     1 <1>   0.3700 
 37 H      -10.3800     2.3760     0.5040 H     1 <1>   0.0800 
 38 H      -10.3880     1.3520     1.9270 H     1 <1>   0.0800 
 39 H       -8.9700    -2.1550    -2.8630 H     1 <1>   0.0800 
 40 H      -11.9390    -0.1950     0.8600 H     1 <1>   0.0800 
 41 H      -11.8750     0.7310    -0.6420 H     1 <1>   0.0800 
 42 H       -7.1360    -3.7360    -1.0750 H     1 <1>   0.0800 
 43 H       -6.8180    -3.2930    -2.7380 H     1 <1>   0.0800 
 44 H       -8.1580    -4.3380    -2.3400 H     1 <1>   0.0800 
 45 H      -14.8140     1.8320     1.0090 H     1 <1>   0.0800 
 46 H      -14.2400     0.1680     1.0220 H     1 <1>   0.0800 
 47 H      -14.2100     1.1070    -0.4770 H     1 <1>   0.0800 
 48 H      -11.2690    -1.1930    -2.8950 H     1 <1>   0.0800 
 49 H      -12.6680    -2.1280    -2.4250 H     1 <1>   0.0800 
 50 H      -11.3150    -2.9230    -3.1900 H     1 <1>   0.0800 
 51 H       -7.4550    -2.8230     0.9170 H     1 <1>   0.0800 
 52 H       -8.4560    -3.8190     1.9230 H     1 <1>   0.0800 
 53 H       -8.4010    -2.0880     2.1760 H     1 <1>   0.0800 
 54 H      -10.9560    -2.2350     2.9190 H     1 <1>   0.0800 
 55 H      -10.9910    -3.9650     2.5980 H     1 <1>   0.0800 
 56 H      -12.4070    -2.9830     2.2740 H     1 <1>   0.0800 
@<TRIPOS>BOND
  1   1   2  1   
  2   2   3  ar  
  3   2   4  ar  
  4   3   5  ar  
  5   3  31  1   
  6   4   6  ar  
  7   4  32  1   
  8   5   7  ar  
  9   5  33  1   
 10   6   7  ar  
 11   6  34  1   
 12   7   8  1   
 13   8   9  1   
 14   8  10  2   
 15   9  11  1   
 16  10  12  1   
 17  10  13  1   
 18  11  12  2   
 19  12  14  1   
 20  13  15  2   
 21  13  16  am  
 22  14  17  1   
 23  14  35  1   
 24  16  18  1   
 25  16  36  1   
 26  17  19  1   
 27  17  37  1   
 28  17  38  1   
 29  18  20  1   
 30  18  21  1   
 31  18  39  1   
 32  19  22  1   
 33  19  40  1   
 34  19  41  1   
 35  20  23  1   
 36  20  24  2   
 37  21  42  1   
 38  21  43  1   
 39  21  44  1   
 40  22  25  1   
 41  23  26  2   
 42  23  27  1   
 43  24  28  1   
 44  24  29  1   
 45  25  45  1   
 46  25  46  1   
 47  25  47  1   
 48  26  28  1   
 49  27  48  1   
 50  27  49  1   
 51  27  50  1   
 52  28  30  1   
 53  29  51  1   
 54  29  52  1   
 55  29  53  1   
 56  30  54  1   
 57  30  55  1   
 58  30  56  1   
@<TRIPOS>SUBSTRUCTURE
  1 ****  10 GROUP 4 **** **** 0

# MOE 2024.06 (io_trps.svl 2023.06)
