@<TRIPOS>MOLECULE
NONAME
43 46 1 0 0 
SMALL
USER_CHARGES


@<TRIPOS>ATOM
  1 O       -0.2140     0.1550     0.5010 O.3   1 <1>  -0.2800 
  2 C       -1.3720     0.7850     0.3400 C.2   1 <1>   0.5620 
  3 C        0.7060     1.0890     0.3650 C.ar  1 <1>   0.1400 
  4 N       -1.2820     2.0490     0.1080 N.2   1 <1>  -0.5650 
  5 N       -2.5370     0.0640     0.4260 N.pl3 1 <1>  -0.8220 
  6 C        0.0550     2.2710     0.1200 C.ar  1 <1>   0.2270 
  7 C        2.0870     1.0010     0.4350 C.ar  1 <1>  -0.1500 
  8 C       -3.8370     0.6310    -0.0070 C.3   1 <1>   0.2090 
  9 C       -2.5530    -1.4150     0.3660 C.3   1 <1>   0.2090 
 10 C        0.7910     3.4360    -0.0670 C.ar  1 <1>  -0.1500 
 11 C        2.8170     2.1610     0.2480 C.ar  1 <1>  -0.1500 
 12 C       -4.6180    -0.5640    -0.5560 C.3   1 <1>   0.2000 
 13 C       -4.0150    -1.7900     0.1270 C.3   1 <1>  -0.0800 
 14 C        2.1740     3.3780    -0.0030 C.ar  1 <1>  -0.1430 
 15 O       -5.9740    -0.4780    -0.2720 O.3   1 <1>  -0.6800 
 16 C       -4.1940    -3.0830    -0.6840 C.3   1 <1>   0.0210 
 17 C        3.0100     4.6300    -0.2020 C.3   1 <1>  -0.0970 
 18 C       -3.4330    -4.2380    -0.0610 C.2   1 <1>   0.1080 
 19 N       -3.5590    -4.5780     1.1840 N.2   1 <1>  -0.7070 
 20 C       -2.5240    -5.0460    -0.7360 C.2   1 <1>  -0.1500 
 21 N       -2.7270    -5.6250     1.3380 N.pl3 1 <1>   0.3000 
 22 C       -2.0860    -5.9260     0.1890 C.2   1 <1>  -0.3320 
 23 C       -1.0820    -7.0540     0.0430 C.3   1 <1>  -0.0600 
 24 H        2.5580     0.0540     0.6300 H     1 <1>   0.1500 
 25 H       -4.3310     1.0600     0.8460 H     1 <1>   0.0800 
 26 H       -3.6960     1.3790    -0.7680 H     1 <1>   0.0800 
 27 H       -1.9320    -1.7450    -0.4500 H     1 <1>   0.0800 
 28 H       -2.1880    -1.8410     1.2860 H     1 <1>   0.0800 
 29 H        0.2640     4.3520    -0.2570 H     1 <1>   0.1500 
 30 H        3.8920     2.1280     0.2960 H     1 <1>   0.1500 
 31 H       -4.4970    -0.6090    -1.6240 H     1 <1>   0.0800 
 32 H       -4.4630    -1.9200     1.0970 H     1 <1>   0.0800 
 33 H       -6.1170    -0.5310     0.6930 H     1 <1>   0.4000 
 34 H       -3.8470    -2.9350    -1.6910 H     1 <1>   0.0800 
 35 H       -5.2380    -3.3380    -0.7240 H     1 <1>   0.0800 
 36 H        3.6670     4.5010    -1.0440 H     1 <1>   0.0800 
 37 H        3.6020     4.8190     0.6760 H     1 <1>   0.0800 
 38 H        2.3840     5.4850    -0.3840 H     1 <1>   0.0800 
 39 H       -2.2480    -4.9650    -1.7720 H     1 <1>   0.1500 
 40 H       -2.6200    -6.1100     2.2370 H     1 <1>   0.2700 
 41 H       -0.7130    -7.0930    -0.9670 H     1 <1>   0.0800 
 42 H       -1.5460    -7.9970     0.2740 H     1 <1>   0.0800 
 43 H       -0.2490    -6.9000     0.7060 H     1 <1>   0.0800 
@<TRIPOS>BOND
  1   1   2  1   
  2   1   3  1   
  3   2   4  2   
  4   2   5  1   
  5   3   6  ar  
  6   3   7  ar  
  7   4   6  1   
  8   5   8  1   
  9   5   9  1   
 10   6  10  ar  
 11   7  11  ar  
 12   7  24  1   
 13   8  12  1   
 14   8  25  1   
 15   8  26  1   
 16   9  13  1   
 17   9  27  1   
 18   9  28  1   
 19  10  14  ar  
 20  10  29  1   
 21  11  14  ar  
 22  11  30  1   
 23  12  13  1   
 24  12  15  1   
 25  12  31  1   
 26  13  16  1   
 27  13  32  1   
 28  14  17  1   
 29  15  33  1   
 30  16  18  1   
 31  16  34  1   
 32  16  35  1   
 33  17  36  1   
 34  17  37  1   
 35  17  38  1   
 36  18  19  2   
 37  18  20  1   
 38  19  21  1   
 39  20  22  2   
 40  20  39  1   
 41  21  22  1   
 42  21  40  1   
 43  22  23  1   
 44  23  41  1   
 45  23  42  1   
 46  23  43  1   
@<TRIPOS>SUBSTRUCTURE
  1 ****   9 GROUP 4 **** **** 0

# MOE 2024.06 (io_trps.svl 2023.06)
