@<TRIPOS>MOLECULE
NONAME
49 52 1 0 0 
SMALL
USER_CHARGES


@<TRIPOS>ATOM
  1 O       -0.4550     0.7850    -0.7480 O.2   1 <1>  -0.5700 
  2 C       -1.5790     1.1190    -0.4510 C.2   1 <1>   0.5690 
  3 N       -2.6740     0.4380    -0.9320 N.am  1 <1>  -0.6600 
  4 C       -1.7500     2.3100     0.4910 C.3   1 <1>  -0.0190 
  5 C       -2.5180    -0.7410    -1.8300 C.3   1 <1>   0.1400 
  6 C       -4.0970     0.7210    -0.6000 C.3   1 <1>   0.1400 
  7 C       -0.4920     3.1460     0.6840 C.3   1 <1>   0.1200 
  8 C       -2.0920     1.9260     1.9290 C.3   1 <1>  -0.1600 
  9 C       -3.0880    -1.9790    -1.1330 C.3   1 <1>  -0.1600 
 10 C       -4.6820    -0.4900     0.1300 C.3   1 <1>  -0.1600 
 11 O       -0.6980     3.8040     1.8910 O.3   1 <1>  -0.5600 
 12 C       -1.3610     2.9640     2.7800 C.3   1 <1>   0.1200 
 13 C       -4.5490    -1.7770    -0.7040 C.3   1 <1>   0.4240 
 14 O       -5.2630    -1.5890    -1.9040 O.3   1 <1>  -0.5600 
 15 C       -5.0550    -3.0060     0.0820 C.ar  1 <1>  -0.1440 
 16 C       -6.6350    -1.8400    -1.8860 C.3   1 <1>   0.1200 
 17 C       -6.1500    -3.7420    -0.3580 C.ar  1 <1>  -0.1440 
 18 C       -4.4230    -3.3990     1.2570 C.ar  1 <1>  -0.1500 
 19 C       -6.8610    -3.3270    -1.6310 C.3   1 <1>  -0.0170 
 20 C       -6.5960    -4.8450     0.3530 C.ar  1 <1>  -0.1500 
 21 C       -4.8670    -4.4970     1.9690 C.ar  1 <1>  -0.1500 
 22 C       -5.9540    -5.2290     1.5250 C.ar  1 <1>   0.0820 
 23 O       -6.3250    -6.2930     2.2800 O.3   1 <1>  -0.3620 
 24 C       -7.4060    -7.1170     1.9050 C.3   1 <1>   0.0400 
 25 H       -2.4990     2.9700     0.0950 H     1 <1>   0.0800 
 26 H       -1.4820    -0.9090    -2.0730 H     1 <1>   0.0800 
 27 H       -3.0470    -0.5590    -2.7500 H     1 <1>   0.0800 
 28 H       -4.6420     0.8960    -1.5130 H     1 <1>   0.0800 
 29 H       -4.1980     1.5950     0.0140 H     1 <1>   0.0800 
 30 H       -0.3480     3.8680    -0.1000 H     1 <1>   0.0800 
 31 H        0.3870     2.5320     0.7890 H     1 <1>   0.0800 
 32 H       -1.7130     0.9460     2.1640 H     1 <1>   0.0800 
 33 H       -3.1500     1.9460     2.1130 H     1 <1>   0.0800 
 34 H       -2.4730    -2.1890    -0.2790 H     1 <1>   0.0800 
 35 H       -3.0280    -2.8270    -1.7890 H     1 <1>   0.0800 
 36 H       -5.7120    -0.3140     0.3730 H     1 <1>   0.0800 
 37 H       -4.1560    -0.6080     1.0590 H     1 <1>   0.0800 
 38 H       -0.6270     2.5030     3.4180 H     1 <1>   0.0800 
 39 H       -2.0390     3.5600     3.3670 H     1 <1>   0.0800 
 40 H       -7.0340    -1.5580    -2.8450 H     1 <1>   0.0800 
 41 H       -7.0960    -1.2410    -1.1220 H     1 <1>   0.0800 
 42 H       -3.5750    -2.8540     1.6320 H     1 <1>   0.1500 
 43 H       -6.4800    -3.8940    -2.4610 H     1 <1>   0.0800 
 44 H       -7.9160    -3.5140    -1.5470 H     1 <1>   0.0800 
 45 H       -7.4400    -5.3940    -0.0150 H     1 <1>   0.1500 
 46 H       -4.3740    -4.7970     2.8760 H     1 <1>   0.1500 
 47 H       -7.5070    -7.8920     2.6430 H     1 <1>   0.0800 
 48 H       -7.1960    -7.5520     0.9440 H     1 <1>   0.0800 
 49 H       -8.3020    -6.5230     1.8730 H     1 <1>   0.0800 
@<TRIPOS>BOND
  1   1   2  2   
  2   2   3  am  
  3   2   4  1   
  4   3   5  1   
  5   3   6  1   
  6   4   7  1   
  7   4   8  1   
  8   4  25  1   
  9   5   9  1   
 10   5  26  1   
 11   5  27  1   
 12   6  10  1   
 13   6  28  1   
 14   6  29  1   
 15   7  11  1   
 16   7  30  1   
 17   7  31  1   
 18   8  12  1   
 19   8  32  1   
 20   8  33  1   
 21   9  13  1   
 22   9  34  1   
 23   9  35  1   
 24  10  13  1   
 25  10  36  1   
 26  10  37  1   
 27  11  12  1   
 28  12  38  1   
 29  12  39  1   
 30  13  14  1   
 31  13  15  1   
 32  14  16  1   
 33  15  17  ar  
 34  15  18  ar  
 35  16  19  1   
 36  16  40  1   
 37  16  41  1   
 38  17  19  1   
 39  17  20  ar  
 40  18  21  ar  
 41  18  42  1   
 42  19  43  1   
 43  19  44  1   
 44  20  22  ar  
 45  20  45  1   
 46  21  22  ar  
 47  21  46  1   
 48  22  23  1   
 49  23  24  1   
 50  24  47  1   
 51  24  48  1   
 52  24  49  1   
@<TRIPOS>SUBSTRUCTURE
  1 ****  10 GROUP 4 **** **** 0

# MOE 2024.06 (io_trps.svl 2023.06)
