@<TRIPOS>MOLECULE
NONAME
39 42 1 0 0 
SMALL
USER_CHARGES


@<TRIPOS>ATOM
  1 S       -1.8690    -0.9910    -3.5740 S.3   1 <1>  -0.4600 
  2 C       -2.1830     0.2020    -2.2330 C.3   1 <1>   0.2510 
  3 C       -2.4580    -2.5020    -2.7520 C.3   1 <1>   0.2510 
  4 C       -2.7800    -0.6560    -1.1430 C.2   1 <1>   0.1080 
  5 C       -2.9190    -2.0030    -1.4020 C.2   1 <1>  -0.1810 
  6 N       -3.2000    -0.3210     0.0340 N.2   1 <1>  -0.7070 
  7 C       -3.4640    -2.5350    -0.2840 C.2   1 <1>  -0.0880 
  8 N       -3.6270    -1.4870     0.5810 N.pl3 1 <1>   0.3140 
  9 N       -3.8010    -3.8960    -0.0950 N.am  1 <1>  -0.4940 
 10 C       -4.2580    -1.4750     1.9070 C.3   1 <1>   0.0160 
 11 C       -3.7470    -4.7240     1.0060 C.2   1 <1>   0.6300 
 12 O       -3.4410    -4.2640     2.0940 O.2   1 <1>  -0.5700 
 13 C       -4.0480    -6.1400     0.8300 C.2   1 <1>   0.4360 
 14 N       -4.3610    -6.5980    -0.3620 N.2   1 <1>  -0.5760 
 15 C       -3.9970    -7.0240     1.9620 C.2   1 <1>  -0.1360 
 16 C       -4.6350    -7.9380    -0.4720 C.2   1 <1>  -0.0260 
 17 C       -4.2680    -8.3500     1.8450 C.2   1 <1>  -0.1690 
 18 N       -4.5980    -8.8220     0.5840 N.pl3 1 <1>   0.6010 
 19 C       -4.9830    -8.6780    -1.5560 C.2   1 <1>  -0.1500 
 20 C       -4.2310    -9.3380     3.0040 C.3   1 <1>  -0.1020 
 21 N       -4.9090   -10.0750     0.1930 N.2   1 <1>  -0.7070 
 22 C       -5.1350    -9.9690    -1.0850 C.2   1 <1>   0.1080 
 23 C       -5.5220   -11.1660    -1.9230 C.3   1 <1>  -0.0590 
 24 H       -2.8740     0.9440    -2.5880 H     1 <1>   0.0800 
 25 H       -1.2470     0.6380    -1.9350 H     1 <1>   0.0800 
 26 H       -1.6330    -3.1860    -2.6760 H     1 <1>   0.0800 
 27 H       -3.2630    -2.9100    -3.3370 H     1 <1>   0.0800 
 28 H       -4.0180    -4.4190    -0.9490 H     1 <1>   0.3700 
 29 H       -4.6290    -0.4880     2.1120 H     1 <1>   0.0800 
 30 H       -3.5250    -1.7430     2.6440 H     1 <1>   0.0800 
 31 H       -5.0690    -2.1770     1.9230 H     1 <1>   0.0800 
 32 H       -3.7340    -6.5940     2.9130 H     1 <1>   0.1500 
 33 H       -5.1120    -8.3320    -2.5650 H     1 <1>   0.1500 
 34 H       -3.5110   -10.1120     2.8020 H     1 <1>   0.0800 
 35 H       -5.1970    -9.7960     3.1260 H     1 <1>   0.0800 
 36 H       -3.9630    -8.8470     3.9220 H     1 <1>   0.0800 
 37 H       -5.6680   -10.8790    -2.9480 H     1 <1>   0.0800 
 38 H       -6.4330   -11.5910    -1.5430 H     1 <1>   0.0800 
 39 H       -4.7450   -11.9060    -1.8720 H     1 <1>   0.0800 
@<TRIPOS>BOND
  1   1   2  1   
  2   1   3  1   
  3   2   4  1   
  4   2  24  1   
  5   2  25  1   
  6   3   5  1   
  7   3  26  1   
  8   3  27  1   
  9   4   5  1   
 10   4   6  2   
 11   5   7  2   
 12   6   8  1   
 13   7   8  1   
 14   7   9  1   
 15   8  10  1   
 16   9  11  am  
 17   9  28  1   
 18  10  29  1   
 19  10  30  1   
 20  10  31  1   
 21  11  12  2   
 22  11  13  1   
 23  13  14  2   
 24  13  15  1   
 25  14  16  1   
 26  15  17  2   
 27  15  32  1   
 28  16  18  1   
 29  16  19  2   
 30  17  18  1   
 31  17  20  1   
 32  18  21  1   
 33  19  22  1   
 34  19  33  1   
 35  20  34  1   
 36  20  35  1   
 37  20  36  1   
 38  21  22  2   
 39  22  23  1   
 40  23  37  1   
 41  23  38  1   
 42  23  39  1   
@<TRIPOS>SUBSTRUCTURE
  1 ****  11 GROUP 4 **** **** 0

# MOE 2024.06 (io_trps.svl 2023.06)
