@<TRIPOS>MOLECULE
NONAME
56 58 1 0 0 
SMALL
USER_CHARGES


@<TRIPOS>ATOM
  1 CL      -2.3240    -2.0070    -2.3380 Cl    1 <1>  -0.1230 
  2 C       -2.9100    -0.6690    -1.3690 C.2   1 <1>   0.3500 
  3 N       -2.0580     0.0970    -0.6730 N.2   1 <1>  -0.5650 
  4 C       -4.1970    -0.3130    -1.1940 C.2   1 <1>  -0.3320 
  5 C       -2.8460     0.9390    -0.0830 C.2   1 <1>   0.0060 
  6 N       -4.1600     0.7400    -0.3560 N.pl3 1 <1>   0.0330 
  7 C       -5.4630    -0.9240    -1.7420 C.3   1 <1>   0.2900 
  8 C       -2.3580     2.0500     0.8310 C.3   1 <1>   0.0200 
  9 N       -6.0880    -1.7070    -0.6680 N.3   1 <1>  -0.8100 
 10 C       -2.5570     3.4280     0.1860 C.3   1 <1>  -0.1600 
 11 C       -5.2550    -2.8590    -0.2880 C.3   1 <1>   0.1100 
 12 C       -7.4490    -2.1350    -1.0300 C.3   1 <1>   0.1100 
 13 C       -2.0400     4.5530     1.0920 C.3   1 <1>  -0.1600 
 14 C       -6.0220    -3.6220     0.8010 C.3   1 <1>   0.4230 
 15 C       -8.0450    -3.0830     0.0400 C.3   1 <1>  -0.1600 
 16 C       -2.2430     5.9220     0.4370 C.3   1 <1>  -0.2400 
 17 N       -5.1820    -4.2480     1.8880 N.4   1 <1>  -0.9590 
 18 C       -7.2150    -4.4700     0.1510 C.3   1 <1>   0.0000 
 19 C       -4.1900    -5.1980     1.3650 C.3   1 <1>   0.3430 
 20 C       -4.5410    -3.2150     2.7570 C.3   1 <1>   0.2630 
 21 C       -6.3840    -5.8600     0.1790 C.3   1 <1>  -0.1600 
 22 C       -8.4770    -5.2670    -0.4390 C.3   1 <1>   0.1200 
 23 C       -4.8360    -5.9510     0.2220 C.3   1 <1>  -0.1600 
 24 O       -9.3980    -5.4220     0.5950 O.3   1 <1>  -0.6800 
 25 H       -4.9560     1.2750     0.0050 H     1 <1>   0.2700 
 26 H       -5.2400    -1.5580    -2.5850 H     1 <1>   0.0800 
 27 H       -6.1280    -0.1430    -2.0690 H     1 <1>   0.0800 
 28 H       -2.8820     1.9990     1.7680 H     1 <1>   0.0800 
 29 H       -1.3110     1.8970     1.0280 H     1 <1>   0.0800 
 30 H       -2.0280     3.4510    -0.7520 H     1 <1>   0.0800 
 31 H       -3.6020     3.5840    -0.0180 H     1 <1>   0.0800 
 32 H       -5.0790    -3.4830    -1.1470 H     1 <1>   0.0800 
 33 H       -4.3150    -2.5130     0.1010 H     1 <1>   0.0800 
 34 H       -8.0770    -1.2630    -1.1230 H     1 <1>   0.0800 
 35 H       -7.4340    -2.6380    -1.9840 H     1 <1>   0.0800 
 36 H       -2.5600     4.5320     2.0350 H     1 <1>   0.0800 
 37 H       -0.9910     4.4080     1.2860 H     1 <1>   0.0800 
 38 H       -6.4520    -2.8140     1.3610 H     1 <1>   0.0800 
 39 H       -8.1440    -2.5650     0.9810 H     1 <1>   0.0800 
 40 H       -9.0900    -3.1230    -0.2240 H     1 <1>   0.0800 
 41 H       -3.2880     6.1020     0.2540 H     1 <1>   0.0800 
 42 H       -1.7130     5.9740    -0.4980 H     1 <1>   0.0800 
 43 H       -1.8710     6.6980     1.0840 H     1 <1>   0.0800 
 44 H       -5.8510    -4.7890     2.4540 H     1 <1>   0.4500 
 45 H       -3.3150    -4.6780     1.0090 H     1 <1>   0.0800 
 46 H       -3.8940    -5.8830     2.1440 H     1 <1>   0.0800 
 47 H       -3.8410    -2.6250     2.1870 H     1 <1>   0.0800 
 48 H       -4.0140    -3.6840     3.5720 H     1 <1>   0.0800 
 49 H       -5.2900    -2.5560     3.1670 H     1 <1>   0.0800 
 50 H       -6.7680    -6.4630     0.9870 H     1 <1>   0.0800 
 51 H       -6.5130    -6.4260    -0.7290 H     1 <1>   0.0800 
 52 H       -8.3690    -6.2640    -0.8270 H     1 <1>   0.0800 
 53 H       -8.9540    -4.7660    -1.2680 H     1 <1>   0.0800 
 54 H       -4.4260    -5.5850    -0.7030 H     1 <1>   0.0800 
 55 H       -4.5390    -6.9840     0.2880 H     1 <1>   0.0800 
 56 H      -10.2090    -5.8730     0.2820 H     1 <1>   0.4000 
@<TRIPOS>BOND
  1   1   2  1   
  2   2   3  1   
  3   2   4  2   
  4   3   5  2   
  5   4   6  1   
  6   4   7  1   
  7   5   6  1   
  8   5   8  1   
  9   6  25  1   
 10   7   9  1   
 11   7  26  1   
 12   7  27  1   
 13   8  10  1   
 14   8  28  1   
 15   8  29  1   
 16   9  11  1   
 17   9  12  1   
 18  10  13  1   
 19  10  30  1   
 20  10  31  1   
 21  11  14  1   
 22  11  32  1   
 23  11  33  1   
 24  12  15  1   
 25  12  34  1   
 26  12  35  1   
 27  13  16  1   
 28  13  36  1   
 29  13  37  1   
 30  14  17  1   
 31  14  18  1   
 32  14  38  1   
 33  15  18  1   
 34  15  39  1   
 35  15  40  1   
 36  16  41  1   
 37  16  42  1   
 38  16  43  1   
 39  17  19  1   
 40  17  20  1   
 41  17  44  1   
 42  18  21  1   
 43  18  22  1   
 44  19  23  1   
 45  19  45  1   
 46  19  46  1   
 47  20  47  1   
 48  20  48  1   
 49  20  49  1   
 50  21  23  1   
 51  21  50  1   
 52  21  51  1   
 53  22  24  1   
 54  22  52  1   
 55  22  53  1   
 56  23  54  1   
 57  23  55  1   
 58  24  56  1   
@<TRIPOS>SUBSTRUCTURE
  1 ****  11 GROUP 4 **** **** 0

# MOE 2024.06 (io_trps.svl 2023.06)
