@<TRIPOS>MOLECULE
NONAME
58 61 1 0 0 
SMALL
USER_CHARGES


@<TRIPOS>ATOM
  1 O       -0.2630    -0.0070     0.4470 O.2   1 <1>  -0.5700 
  2 C       -1.2220     0.6010     0.0120 C.2   1 <1>   0.7160 
  3 N       -2.3990    -0.0620    -0.1490 N.am  1 <1>  -0.7300 
  4 C       -1.1400     1.9920    -0.3270 C.2   1 <1>  -0.0860 
  5 C       -2.8010    -1.4220     0.2610 C.3   1 <1>   0.3000 
  6 C       -2.2190     2.8220    -0.6650 C.2   1 <1>   0.3720 
  7 C       -0.0740     2.8400    -0.3810 C.2   1 <1>   0.0870 
  8 C       -2.6710    -1.4990     1.8020 C.3   1 <1>  -0.1600 
  9 C       -4.2840    -1.5410    -0.1650 C.3   1 <1>  -0.1600 
 10 C       -1.8810    -2.4340    -0.4850 C.3   1 <1>   0.1200 
 11 N       -1.8340     4.0300    -0.8770 N.2   1 <1>  -0.4100 
 12 N       -3.5620     2.4240    -0.7620 N.pl3 1 <1>  -0.8210 
 13 O       -0.5410     4.0210    -0.6990 O.3   1 <1>  -0.0190 
 14 C        1.3440     2.6840    -0.1740 C.ar  1 <1>   0.0530 
 15 C       -3.4610    -2.6410     2.4640 C.3   1 <1>  -0.1600 
 16 C       -5.0680    -2.6780     0.5130 C.3   1 <1>  -0.1600 
 17 O       -2.2290    -3.7670    -0.2880 O.3   1 <1>  -0.6800 
 18 C       -4.4600     3.0960     0.2200 C.3   1 <1>   0.2090 
 19 C       -4.1480     2.5850    -2.1220 C.3   1 <1>   0.2090 
 20 C        2.0730     3.6620     0.5020 C.ar  1 <1>  -0.1500 
 21 C        2.0480     1.5770    -0.6500 C.ar  1 <1>  -0.1500 
 22 C       -4.9320    -2.6180     2.0380 C.3   1 <1>  -0.1600 
 23 C       -5.5330     3.8030    -0.5970 C.3   1 <1>  -0.1600 
 24 C       -5.5870     3.0220    -1.9000 C.3   1 <1>  -0.1600 
 25 C        3.4350     3.5380     0.7020 C.ar  1 <1>  -0.1500 
 26 C        3.4100     1.4420    -0.4520 C.ar  1 <1>  -0.1500 
 27 C        4.1160     2.4280     0.2300 C.ar  1 <1>   0.0830 
 28 O        5.4480     2.3770     0.4680 O.3   1 <1>  -0.3620 
 29 C        6.2270     1.2730     0.0620 C.3   1 <1>   0.0400 
 30 H       -3.1790     0.5510    -0.4230 H     1 <1>   0.3700 
 31 H       -3.0330    -0.5760     2.2200 H     1 <1>   0.0800 
 32 H       -1.6330    -1.5900     2.0720 H     1 <1>   0.0800 
 33 H       -4.3390    -1.6670    -1.2310 H     1 <1>   0.0800 
 34 H       -4.7900    -0.6240     0.0840 H     1 <1>   0.0800 
 35 H       -0.8630    -2.3220    -0.1580 H     1 <1>   0.0800 
 36 H       -1.9250    -2.2490    -1.5440 H     1 <1>   0.0800 
 37 H       -3.4010    -2.5360     3.5340 H     1 <1>   0.0800 
 38 H       -3.0290    -3.5920     2.2140 H     1 <1>   0.0800 
 39 H       -4.7220    -3.6320     0.1560 H     1 <1>   0.0800 
 40 H       -6.1080    -2.6000     0.2460 H     1 <1>   0.0800 
 41 H       -2.2380    -3.9660     0.6670 H     1 <1>   0.4000 
 42 H       -3.9250     3.7960     0.8410 H     1 <1>   0.0800 
 43 H       -4.9090     2.3450     0.8480 H     1 <1>   0.0800 
 44 H       -4.1010     1.6590    -2.6680 H     1 <1>   0.0800 
 45 H       -3.6150     3.3460    -2.6710 H     1 <1>   0.0800 
 46 H        1.5620     4.5320     0.8770 H     1 <1>   0.1500 
 47 H        1.5180     0.8080    -1.1830 H     1 <1>   0.1500 
 48 H       -5.3950    -1.7160     2.4020 H     1 <1>   0.0800 
 49 H       -5.4490    -3.4540     2.4780 H     1 <1>   0.0800 
 50 H       -5.2130     4.8130    -0.7880 H     1 <1>   0.0800 
 51 H       -6.4790     3.8230    -0.0860 H     1 <1>   0.0800 
 52 H       -6.2060     2.1500    -1.7850 H     1 <1>   0.0800 
 53 H       -5.9560     3.6140    -2.7190 H     1 <1>   0.0800 
 54 H        3.9820     4.3000     1.2270 H     1 <1>   0.1500 
 55 H        3.9010     0.5680    -0.8330 H     1 <1>   0.1500 
 56 H        7.2420     1.4490     0.3700 H     1 <1>   0.0800 
 57 H        6.1790     1.1880    -1.0090 H     1 <1>   0.0800 
 58 H        5.8480     0.3860     0.5380 H     1 <1>   0.0800 
@<TRIPOS>BOND
  1   1   2  2   
  2   2   3  am  
  3   2   4  1   
  4   3   5  1   
  5   3  30  1   
  6   4   6  1   
  7   4   7  2   
  8   5   8  1   
  9   5   9  1   
 10   5  10  1   
 11   6  11  2   
 12   6  12  1   
 13   7  13  1   
 14   7  14  1   
 15   8  15  1   
 16   8  31  1   
 17   8  32  1   
 18   9  16  1   
 19   9  33  1   
 20   9  34  1   
 21  10  17  1   
 22  10  35  1   
 23  10  36  1   
 24  11  13  1   
 25  12  18  1   
 26  12  19  1   
 27  14  20  ar  
 28  14  21  ar  
 29  15  22  1   
 30  15  37  1   
 31  15  38  1   
 32  16  22  1   
 33  16  39  1   
 34  16  40  1   
 35  17  41  1   
 36  18  23  1   
 37  18  42  1   
 38  18  43  1   
 39  19  24  1   
 40  19  44  1   
 41  19  45  1   
 42  20  25  ar  
 43  20  46  1   
 44  21  26  ar  
 45  21  47  1   
 46  22  48  1   
 47  22  49  1   
 48  23  24  1   
 49  23  50  1   
 50  23  51  1   
 51  24  52  1   
 52  24  53  1   
 53  25  27  ar  
 54  25  54  1   
 55  26  27  ar  
 56  26  55  1   
 57  27  28  1   
 58  28  29  1   
 59  29  56  1   
 60  29  57  1   
 61  29  58  1   
@<TRIPOS>SUBSTRUCTURE
  1 ****   2 GROUP 4 **** **** 0

# MOE 2024.06 (io_trps.svl 2023.06)
