@<TRIPOS>MOLECULE
NONAME
53 54 1 0 0 
SMALL
USER_CHARGES


@<TRIPOS>ATOM
  1 S        1.5980    -0.5820    -0.7970 S.o2  1 <1>   1.3330 
  2 O        2.1530    -0.7720     0.5260 O.2   1 <1>  -0.6500 
  3 O        2.1600    -1.3030    -1.9160 O.2   1 <1>  -0.6500 
  4 N       -0.0530    -0.9800    -0.7310 N.am  1 <1>  -0.8490 
  5 C        1.5790     1.1740    -1.1860 C.3   1 <1>  -0.0550 
  6 C       -0.3180    -2.1030     0.1750 C.3   1 <1>   0.1160 
  7 C       -0.6400    -1.2600    -2.0470 C.3   1 <1>   0.1160 
  8 C        1.3320     2.1600    -0.0220 C.3   1 <1>  -0.0800 
  9 C        2.4760     2.2000     0.9950 C.3   1 <1>   0.2200 
 10 C        0.0850     1.9280     0.8380 C.3   1 <1>   0.1200 
 11 N        3.1060     3.5370     0.9610 N.am  1 <1>  -0.7300 
 12 C        1.7670     1.9670     2.3280 C.3   1 <1>   0.1200 
 13 O        0.4490     2.3550     2.1090 O.3   1 <1>  -0.5600 
 14 C        4.0530     3.9210     0.0670 C.2   1 <1>   0.7150 
 15 O        4.4560     3.0990    -0.7340 O.2   1 <1>  -0.5700 
 16 C        4.5140     5.2790     0.0770 C.2   1 <1>  -0.2370 
 17 N        5.4470     5.8070    -0.7640 N.pl3 1 <1>   0.3140 
 18 C        4.1380     6.3080     0.8880 C.2   1 <1>  -0.1500 
 19 N        5.6570     7.1130    -0.5130 N.2   1 <1>  -0.7070 
 20 C        6.1800     5.0830    -1.8450 C.3   1 <1>   0.0960 
 21 C        4.8720     7.4050     0.4770 C.2   1 <1>   0.1080 
 22 C        7.2000     5.9490    -2.6030 C.3   1 <1>  -0.2400 
 23 C        4.8000     8.8020     1.0820 C.3   1 <1>   0.1010 
 24 C        5.2080     8.7800     2.5600 C.3   1 <1>  -0.2400 
 25 C        3.3970     9.3970     0.9170 C.3   1 <1>  -0.2400 
 26 H        2.5300     1.4270    -1.6170 H     1 <1>   0.0800 
 27 H        0.8430     1.3490    -1.9450 H     1 <1>   0.0800 
 28 H       -1.3710    -2.3240     0.1990 H     1 <1>   0.0800 
 29 H       -0.0050    -1.8530     1.1750 H     1 <1>   0.0800 
 30 H        0.2220    -2.9790    -0.1470 H     1 <1>   0.0800 
 31 H       -1.7020    -1.4100    -1.9540 H     1 <1>   0.0800 
 32 H       -0.1970    -2.1440    -2.4770 H     1 <1>   0.0800 
 33 H       -0.4720    -0.4320    -2.7140 H     1 <1>   0.0800 
 34 H        1.2200     3.1350    -0.4630 H     1 <1>   0.0800 
 35 H        3.2270     1.4460     0.8300 H     1 <1>   0.0800 
 36 H       -0.1850     0.8920     0.9180 H     1 <1>   0.0800 
 37 H       -0.7620     2.5020     0.5030 H     1 <1>   0.0800 
 38 H        2.6440     4.2500     1.5240 H     1 <1>   0.3700 
 39 H        2.1870     2.5380     3.1370 H     1 <1>   0.0800 
 40 H        1.7670     0.9190     2.5770 H     1 <1>   0.0800 
 41 H        3.4230     6.3050     1.6890 H     1 <1>   0.1500 
 42 H        6.6890     4.2490    -1.3970 H     1 <1>   0.0800 
 43 H        5.4540     4.7010    -2.5380 H     1 <1>   0.0800 
 44 H        7.9450     6.3240    -1.9240 H     1 <1>   0.0800 
 45 H        6.7040     6.7770    -3.0770 H     1 <1>   0.0800 
 46 H        7.6880     5.3620    -3.3590 H     1 <1>   0.0800 
 47 H        5.4970     9.4250     0.5490 H     1 <1>   0.0800 
 48 H        4.5230     8.1840     3.1360 H     1 <1>   0.0800 
 49 H        5.2200     9.7780     2.9580 H     1 <1>   0.0800 
 50 H        6.1940     8.3600     2.6560 H     1 <1>   0.0800 
 51 H        2.6700     8.8130     1.4510 H     1 <1>   0.0800 
 52 H        3.1310     9.4080    -0.1260 H     1 <1>   0.0800 
 53 H        3.3740    10.4060     1.2870 H     1 <1>   0.0800 
@<TRIPOS>BOND
  1   1   2  2   
  2   1   3  2   
  3   1   4  am  
  4   1   5  1   
  5   4   6  1   
  6   4   7  1   
  7   5   8  1   
  8   5  26  1   
  9   5  27  1   
 10   6  28  1   
 11   6  29  1   
 12   6  30  1   
 13   7  31  1   
 14   7  32  1   
 15   7  33  1   
 16   8   9  1   
 17   8  10  1   
 18   8  34  1   
 19   9  11  1   
 20   9  12  1   
 21   9  35  1   
 22  10  13  1   
 23  10  36  1   
 24  10  37  1   
 25  11  14  am  
 26  11  38  1   
 27  12  13  1   
 28  12  39  1   
 29  12  40  1   
 30  14  15  2   
 31  14  16  1   
 32  16  17  1   
 33  16  18  2   
 34  17  19  1   
 35  17  20  1   
 36  18  21  1   
 37  18  41  1   
 38  19  21  2   
 39  20  22  1   
 40  20  42  1   
 41  20  43  1   
 42  21  23  1   
 43  22  44  1   
 44  22  45  1   
 45  22  46  1   
 46  23  24  1   
 47  23  25  1   
 48  23  47  1   
 49  24  48  1   
 50  24  49  1   
 51  24  50  1   
 52  25  51  1   
 53  25  52  1   
 54  25  53  1   
@<TRIPOS>SUBSTRUCTURE
  1 ****  11 GROUP 4 **** **** 0

# MOE 2024.06 (io_trps.svl 2023.06)
