@<TRIPOS>MOLECULE
NONAME
50 52 1 0 0 
SMALL
USER_CHARGES


@<TRIPOS>ATOM
  1 F       -1.0210     0.4810    -1.0380 F     1 <1>  -0.1900 
  2 C       -1.7520     1.4910    -0.6530 C.ar  1 <1>   0.1900 
  3 C       -2.8300     1.8710    -1.4290 C.ar  1 <1>  -0.1500 
  4 C       -1.4250     2.1440     0.5190 C.ar  1 <1>  -0.1500 
  5 C       -3.5960     2.9460    -1.0140 C.ar  1 <1>  -0.1500 
  6 C       -2.2030     3.2170     0.9190 C.ar  1 <1>  -0.1500 
  7 C       -3.2930     3.6440     0.1570 C.ar  1 <1>   0.0540 
  8 C       -4.0970     4.7770     0.5610 C.2   1 <1>   0.2350 
  9 N       -5.4000     4.7280     0.6790 N.2   1 <1>  -0.7070 
 10 C       -3.6170     6.0570     0.8690 C.2   1 <1>  -0.1810 
 11 N       -5.7660     5.9540     1.0840 N.pl3 1 <1>   0.3000 
 12 C       -4.7090     6.7750     1.2040 C.2   1 <1>  -0.3020 
 13 C       -2.1620     6.4980     0.8170 C.3   1 <1>   0.3210 
 14 N       -2.0480     7.9190     0.3750 N.am  1 <1>  -0.6600 
 15 C       -1.5360     8.8650     1.2340 C.2   1 <1>   0.5690 
 16 C       -2.5270     8.1450    -1.0210 C.3   1 <1>   0.0600 
 17 O       -1.1340     8.5520     2.3310 O.2   1 <1>  -0.5700 
 18 C       -1.4310    10.3590     0.8900 C.3   1 <1>  -0.0190 
 19 C       -2.7850    11.0330     0.5800 C.3   1 <1>  -0.1600 
 20 C       -0.3430    10.6660    -0.1700 C.3   1 <1>  -0.1600 
 21 C       -2.6470    12.5620     0.4670 C.3   1 <1>   0.2000 
 22 C       -0.6340    11.9320    -0.9960 C.3   1 <1>  -0.1600 
 23 O       -3.7110    12.9970    -0.3420 O.3   1 <1>  -0.5600 
 24 C       -1.2850    13.0170    -0.1320 C.3   1 <1>   0.2000 
 25 C       -4.4530    14.0540     0.1850 C.3   1 <1>   0.0400 
 26 O       -1.4700    14.1300    -0.9280 O.3   1 <1>  -0.6800 
 27 H       -3.0620     1.3350    -2.3320 H     1 <1>   0.1500 
 28 H       -0.5840     1.8140     1.1020 H     1 <1>   0.1500 
 29 H       -4.4470     3.2590    -1.5940 H     1 <1>   0.1500 
 30 H       -1.9730     3.7270     1.8380 H     1 <1>   0.1500 
 31 H       -6.7460     6.1990     1.2710 H     1 <1>   0.2700 
 32 H       -4.7840     7.8020     1.5130 H     1 <1>   0.1500 
 33 H       -1.6190     5.8810     0.1230 H     1 <1>   0.0800 
 34 H       -1.7230     6.3530     1.7890 H     1 <1>   0.0800 
 35 H       -2.1970     7.3410    -1.6560 H     1 <1>   0.0800 
 36 H       -2.1520     9.0640    -1.4280 H     1 <1>   0.0800 
 37 H       -3.6030     8.1740    -1.0340 H     1 <1>   0.0800 
 38 H       -1.0910    10.8300     1.7970 H     1 <1>   0.0800 
 39 H       -3.4870    10.8020     1.3610 H     1 <1>   0.0800 
 40 H       -3.1800    10.6560    -0.3430 H     1 <1>   0.0800 
 41 H        0.5950    10.7900     0.3450 H     1 <1>   0.0800 
 42 H       -0.2120     9.8360    -0.8410 H     1 <1>   0.0800 
 43 H       -2.7420    12.9900     1.4520 H     1 <1>   0.0800 
 44 H       -1.3040    11.6840    -1.8020 H     1 <1>   0.0800 
 45 H        0.2830    12.3040    -1.4190 H     1 <1>   0.0800 
 46 H       -0.6070    13.2880     0.6590 H     1 <1>   0.0800 
 47 H       -5.2070    14.3270    -0.5320 H     1 <1>   0.0800 
 48 H       -3.8030    14.8930     0.3670 H     1 <1>   0.0800 
 49 H       -4.9220    13.7340     1.1000 H     1 <1>   0.0800 
 50 H       -2.3700    14.0370    -1.3140 H     1 <1>   0.4000 
@<TRIPOS>BOND
  1   1   2  1   
  2   2   3  ar  
  3   2   4  ar  
  4   3   5  ar  
  5   3  27  1   
  6   4   6  ar  
  7   4  28  1   
  8   5   7  ar  
  9   5  29  1   
 10   6   7  ar  
 11   6  30  1   
 12   7   8  1   
 13   8   9  2   
 14   8  10  1   
 15   9  11  1   
 16  10  12  2   
 17  10  13  1   
 18  11  12  1   
 19  11  31  1   
 20  12  32  1   
 21  13  14  1   
 22  13  33  1   
 23  13  34  1   
 24  14  15  am  
 25  14  16  1   
 26  15  17  2   
 27  15  18  1   
 28  16  35  1   
 29  16  36  1   
 30  16  37  1   
 31  18  19  1   
 32  18  20  1   
 33  18  38  1   
 34  19  21  1   
 35  19  39  1   
 36  19  40  1   
 37  20  22  1   
 38  20  41  1   
 39  20  42  1   
 40  21  23  1   
 41  21  24  1   
 42  21  43  1   
 43  22  24  1   
 44  22  44  1   
 45  22  45  1   
 46  23  25  1   
 47  24  26  1   
 48  24  46  1   
 49  25  47  1   
 50  25  48  1   
 51  25  49  1   
 52  26  50  1   
@<TRIPOS>SUBSTRUCTURE
  1 ****  14 GROUP 4 **** **** 0

# MOE 2024.06 (io_trps.svl 2023.06)
