@<TRIPOS>MOLECULE
NONAME
54 56 1 0 0 
SMALL
USER_CHARGES


@<TRIPOS>ATOM
  1 O       -0.1040    -1.1440    -1.9250 O.2   1 <1>  -0.5700 
  2 C        0.5970    -1.8190    -1.2090 C.2   1 <1>   0.5690 
  3 N        0.1100    -2.5840    -0.1840 N.am  1 <1>  -0.6600 
  4 C        2.0960    -1.8260    -1.4380 C.3   1 <1>  -0.0990 
  5 C        1.0340    -3.3880     0.6540 C.3   1 <1>   0.1400 
  6 C       -1.3340    -2.6290     0.1690 C.3   1 <1>   0.0600 
  7 C        2.6510    -3.2620    -1.3800 C.3   1 <1>  -0.0800 
  8 C        2.0530    -4.1180    -0.2410 C.3   1 <1>  -0.0800 
  9 C        4.1720    -3.3160    -1.2000 C.3   1 <1>  -0.1600 
 10 C        3.2500    -4.6680     0.5460 C.3   1 <1>  -0.1600 
 11 C        4.4230    -4.6110    -0.4280 C.3   1 <1>   0.2200 
 12 N        5.7300    -4.6670     0.2840 N.am  1 <1>  -0.6600 
 13 C        6.8180    -3.9900    -0.2150 C.2   1 <1>   0.5440 
 14 C        5.9940    -5.9730     0.9480 C.3   1 <1>   0.0600 
 15 O        7.5460    -4.5860    -0.9870 O.2   1 <1>  -0.5700 
 16 C        7.0990    -2.6150     0.1690 C.ar  1 <1>   0.0860 
 17 C        7.9970    -1.8310    -0.5570 C.ar  1 <1>  -0.1500 
 18 C        6.4900    -2.0180     1.2740 C.ar  1 <1>  -0.1500 
 19 C        8.2730    -0.5160    -0.2200 C.ar  1 <1>  -0.1440 
 20 C        6.7530    -0.7090     1.6290 C.ar  1 <1>  -0.1500 
 21 C        7.6470     0.0560     0.8850 C.ar  1 <1>   0.0820 
 22 C        9.2690     0.2700    -1.0650 C.3   1 <1>   0.1220 
 23 O        7.9410     1.3430     1.1930 O.3   1 <1>  -0.3630 
 24 C       10.6750     0.0920    -0.5200 C.2   1 <1>  -0.2880 
 25 C        7.4200     1.9840     2.3350 C.3   1 <1>   0.0400 
 26 C       11.7070    -0.4310    -1.1890 C.2   1 <1>  -0.3000 
 27 H        2.3170    -1.3830    -2.3920 H     1 <1>   0.0800 
 28 H        2.5410    -1.2160    -0.6740 H     1 <1>   0.0800 
 29 H        1.5420    -2.7230     1.3300 H     1 <1>   0.0800 
 30 H        0.4810    -4.1060     1.2350 H     1 <1>   0.0800 
 31 H       -1.4720    -2.2960     1.1820 H     1 <1>   0.0800 
 32 H       -1.7010    -3.6350     0.0690 H     1 <1>   0.0800 
 33 H       -1.9020    -1.9900    -0.4840 H     1 <1>   0.0800 
 34 H        2.4020    -3.7480    -2.3090 H     1 <1>   0.0800 
 35 H        1.5430    -4.9510    -0.6960 H     1 <1>   0.0800 
 36 H        4.4870    -2.4740    -0.6120 H     1 <1>   0.0800 
 37 H        4.6850    -3.3110    -2.1460 H     1 <1>   0.0800 
 38 H        3.0650    -5.6710     0.8880 H     1 <1>   0.0800 
 39 H        3.4650    -4.0310     1.3860 H     1 <1>   0.0800 
 40 H        4.3590    -5.4390    -1.1150 H     1 <1>   0.0800 
 41 H        5.3590    -6.0860     1.8090 H     1 <1>   0.0800 
 42 H        7.0210    -6.0210     1.2680 H     1 <1>   0.0800 
 43 H        5.8140    -6.7790     0.2580 H     1 <1>   0.0800 
 44 H        8.4900    -2.2750    -1.4040 H     1 <1>   0.1500 
 45 H        5.8000    -2.5930     1.8650 H     1 <1>   0.1500 
 46 H        6.2550    -0.3010     2.4870 H     1 <1>   0.1500 
 47 H        9.2280    -0.0740    -2.0840 H     1 <1>   0.0800 
 48 H        9.0160     1.3150    -1.0730 H     1 <1>   0.0800 
 49 H       10.7580     0.4400     0.4970 H     1 <1>   0.1500 
 50 H        7.8240     2.9790     2.3720 H     1 <1>   0.0800 
 51 H        7.7200     1.4350     3.2100 H     1 <1>   0.0800 
 52 H        6.3480     2.0270     2.2530 H     1 <1>   0.0800 
 53 H       12.6930    -0.5470    -0.7730 H     1 <1>   0.1500 
 54 H       11.6550    -0.7900    -2.2020 H     1 <1>   0.1500 
@<TRIPOS>BOND
  1   1   2  2   
  2   2   3  am  
  3   2   4  1   
  4   3   5  1   
  5   3   6  1   
  6   4   7  1   
  7   4  27  1   
  8   4  28  1   
  9   5   8  1   
 10   5  29  1   
 11   5  30  1   
 12   6  31  1   
 13   6  32  1   
 14   6  33  1   
 15   7   8  1   
 16   7   9  1   
 17   7  34  1   
 18   8  10  1   
 19   8  35  1   
 20   9  11  1   
 21   9  36  1   
 22   9  37  1   
 23  10  11  1   
 24  10  38  1   
 25  10  39  1   
 26  11  12  1   
 27  11  40  1   
 28  12  13  am  
 29  12  14  1   
 30  13  15  2   
 31  13  16  1   
 32  14  41  1   
 33  14  42  1   
 34  14  43  1   
 35  16  17  ar  
 36  16  18  ar  
 37  17  19  ar  
 38  17  44  1   
 39  18  20  ar  
 40  18  45  1   
 41  19  21  ar  
 42  19  22  1   
 43  20  21  ar  
 44  20  46  1   
 45  21  23  1   
 46  22  24  1   
 47  22  47  1   
 48  22  48  1   
 49  23  25  1   
 50  24  26  2   
 51  24  49  1   
 52  25  50  1   
 53  25  51  1   
 54  25  52  1   
 55  26  53  1   
 56  26  54  1   
@<TRIPOS>SUBSTRUCTURE
  1 ****  18 GROUP 4 **** **** 0

# MOE 2024.06 (io_trps.svl 2023.06)
