@<TRIPOS>MOLECULE
NONAME
49 50 1 0 0 
SMALL
USER_CHARGES


@<TRIPOS>ATOM
  1 N       -0.8940    -0.3860     0.1990 N.ar  1 <1>  -0.6200 
  2 C       -1.6070     0.6160    -0.2810 C.ar  1 <1>   0.4100 
  3 C        0.0950    -0.0540     1.0030 C.ar  1 <1>   0.4760 
  4 N       -2.6400     0.2950    -1.1330 N.pl3 1 <1>  -0.8690 
  5 C       -1.3320     1.9360     0.0590 C.ar  1 <1>  -0.1430 
  6 N        0.4500     1.1510     1.3970 N.ar  1 <1>  -0.6200 
  7 C        0.9240    -1.1910     1.5500 C.3   1 <1>  -0.0970 
  8 C       -2.8330    -1.0440    -1.7180 C.3   1 <1>   0.2090 
  9 C       -0.2760     2.1380     0.9140 C.ar  1 <1>   0.1600 
 10 C       -2.1840     3.0780    -0.5070 C.3   1 <1>  -0.0170 
 11 C       -3.6610    -1.8710    -0.7360 C.3   1 <1>  -0.1600 
 12 C       -1.8220     4.4800    -0.0040 C.3   1 <1>  -0.2400 
 13 C       -3.5370    -3.3570    -1.0530 C.3   1 <1>   0.3430 
 14 N       -4.1000    -4.1690     0.0630 N.4   1 <1>  -0.9590 
 15 C       -3.5900    -5.5760    -0.0060 C.3   1 <1>   0.4230 
 16 C       -5.5910    -4.0390     0.1570 C.3   1 <1>   0.2630 
 17 C       -4.2420    -6.4020    -1.1190 C.3   1 <1>  -0.1600 
 18 C       -3.9140    -6.3430     1.2740 C.3   1 <1>  -0.1600 
 19 C       -5.4210    -7.1570    -0.4950 C.3   1 <1>  -0.1600 
 20 C       -5.1980    -7.1450     1.0210 C.3   1 <1>  -0.1600 
 21 H       -3.0610     1.0690    -1.6510 H     1 <1>   0.4000 
 22 H        0.8820    -2.0360     0.8900 H     1 <1>   0.0800 
 23 H        0.5470    -1.4720     2.5150 H     1 <1>   0.0800 
 24 H        1.9480    -0.8810     1.6500 H     1 <1>   0.0800 
 25 H       -1.8680    -1.4970    -1.8830 H     1 <1>   0.0800 
 26 H       -3.3340    -0.9590    -2.6670 H     1 <1>   0.0800 
 27 H        0.0020     3.1270     1.2280 H     1 <1>   0.1500 
 28 H       -3.2150     2.8890    -0.2600 H     1 <1>   0.0800 
 29 H       -2.0960     3.0700    -1.5800 H     1 <1>   0.0800 
 30 H       -4.6840    -1.5480    -0.7900 H     1 <1>   0.0800 
 31 H       -3.2850    -1.6980     0.2570 H     1 <1>   0.0800 
 32 H       -1.9240     4.5360     1.0660 H     1 <1>   0.0800 
 33 H       -2.4820     5.2070    -0.4430 H     1 <1>   0.0800 
 34 H       -0.8130     4.7330    -0.2790 H     1 <1>   0.0800 
 35 H       -2.4910    -3.5930    -1.1710 H     1 <1>   0.0800 
 36 H       -4.0420    -3.5850    -1.9780 H     1 <1>   0.0800 
 37 H       -3.7060    -3.7740     0.9290 H     1 <1>   0.4500 
 38 H       -2.5210    -5.5520    -0.1470 H     1 <1>   0.0800 
 39 H       -6.0570    -4.4170    -0.7380 H     1 <1>   0.0800 
 40 H       -5.8730    -3.0070     0.2840 H     1 <1>   0.0800 
 41 H       -5.9630    -4.5960     1.0000 H     1 <1>   0.0800 
 42 H       -3.5210    -7.1320    -1.4460 H     1 <1>   0.0800 
 43 H       -4.5340    -5.8200    -1.9730 H     1 <1>   0.0800 
 44 H       -3.9900    -5.7090     2.1390 H     1 <1>   0.0800 
 45 H       -3.1160    -7.0450     1.4470 H     1 <1>   0.0800 
 46 H       -5.4670    -8.1670    -0.8690 H     1 <1>   0.0800 
 47 H       -6.3520    -6.6710    -0.7330 H     1 <1>   0.0800 
 48 H       -6.0380    -6.6890     1.5170 H     1 <1>   0.0800 
 49 H       -5.0940    -8.1500     1.3990 H     1 <1>   0.0800 
@<TRIPOS>BOND
  1   1   2  ar  
  2   1   3  ar  
  3   2   4  1   
  4   2   5  ar  
  5   3   6  ar  
  6   3   7  1   
  7   4   8  1   
  8   4  21  1   
  9   5   9  ar  
 10   5  10  1   
 11   6   9  ar  
 12   7  22  1   
 13   7  23  1   
 14   7  24  1   
 15   8  11  1   
 16   8  25  1   
 17   8  26  1   
 18   9  27  1   
 19  10  12  1   
 20  10  28  1   
 21  10  29  1   
 22  11  13  1   
 23  11  30  1   
 24  11  31  1   
 25  12  32  1   
 26  12  33  1   
 27  12  34  1   
 28  13  14  1   
 29  13  35  1   
 30  13  36  1   
 31  14  15  1   
 32  14  16  1   
 33  14  37  1   
 34  15  17  1   
 35  15  18  1   
 36  15  38  1   
 37  16  39  1   
 38  16  40  1   
 39  16  41  1   
 40  17  19  1   
 41  17  42  1   
 42  17  43  1   
 43  18  20  1   
 44  18  44  1   
 45  18  45  1   
 46  19  20  1   
 47  19  46  1   
 48  19  47  1   
 49  20  48  1   
 50  20  49  1   
@<TRIPOS>SUBSTRUCTURE
  1 ****  11 GROUP 4 **** **** 0

# MOE 2024.06 (io_trps.svl 2023.06)
