@<TRIPOS>MOLECULE
NONAME
44 45 1 0 0 
SMALL
USER_CHARGES


@<TRIPOS>ATOM
  1 S        1.1500     0.6590    -1.4160 S.o2  1 <1>   1.3330 
  2 O        0.0610     1.4980    -1.8630 O.2   1 <1>  -0.6500 
  3 O        2.0800     0.1360    -2.3920 O.2   1 <1>  -0.6500 
  4 N        0.4520    -0.6640    -0.6130 N.am  1 <1>  -0.8490 
  5 C        2.1020     1.5470    -0.1780 C.3   1 <1>  -0.0550 
  6 C       -0.0360    -1.6720    -1.5560 C.3   1 <1>   0.1160 
  7 C       -0.6260    -0.2810     0.3060 C.3   1 <1>   0.1160 
  8 C        3.4070     0.8530     0.2860 C.3   1 <1>  -0.0800 
  9 C        4.2840     1.7210     1.1820 C.3   1 <1>   0.2200 
 10 C        3.1300    -0.3000     1.2520 C.3   1 <1>   0.1200 
 11 N        4.4420     3.1380     0.7400 N.am  1 <1>  -0.7300 
 12 C        3.6870     1.4960     2.5770 C.3   1 <1>   0.1200 
 13 O        2.9910     0.2840     2.5090 O.3   1 <1>  -0.5600 
 14 C        3.6400     4.2190     0.9480 C.2   1 <1>   0.5690 
 15 O        2.5670     4.1370     1.4910 O.2   1 <1>  -0.5700 
 16 C        4.0880     5.5880     0.4590 C.3   1 <1>   0.0440 
 17 C        5.5140     5.6100    -0.0920 C.ar  1 <1>  -0.1440 
 18 C        6.5810     5.8920     0.7540 C.ar  1 <1>  -0.1500 
 19 C        5.7470     5.3430    -1.4380 C.ar  1 <1>  -0.1500 
 20 C        7.8640     5.9020     0.2360 C.ar  1 <1>   0.1900 
 21 C        7.0360     5.3530    -1.9530 C.ar  1 <1>  -0.1500 
 22 F        8.8640     6.1650     1.0380 F     1 <1>  -0.1900 
 23 C        8.0890     5.6350    -1.1030 C.ar  1 <1>   0.1900 
 24 F        9.3050     5.6420    -1.5860 F     1 <1>  -0.1900 
 25 H        2.3670     2.4830    -0.6250 H     1 <1>   0.0800 
 26 H        1.4880     1.7720     0.6720 H     1 <1>   0.0800 
 27 H       -0.4470    -2.5130    -1.0250 H     1 <1>   0.0800 
 28 H        0.7770    -2.0260    -2.1690 H     1 <1>   0.0800 
 29 H       -0.7930    -1.2510    -2.1970 H     1 <1>   0.0800 
 30 H       -0.9990    -1.1510     0.8200 H     1 <1>   0.0800 
 31 H       -1.4370     0.1810    -0.2330 H     1 <1>   0.0800 
 32 H       -0.2600     0.4110     1.0440 H     1 <1>   0.0800 
 33 H        3.9630     0.5040    -0.5660 H     1 <1>   0.0800 
 34 H        5.2680     1.2840     1.2030 H     1 <1>   0.0800 
 35 H        3.9740    -0.9680     1.2960 H     1 <1>   0.0800 
 36 H        2.2490    -0.8700     1.0320 H     1 <1>   0.0800 
 37 H        5.3160     3.3170     0.2360 H     1 <1>   0.3700 
 38 H        2.9790     2.2510     2.8590 H     1 <1>   0.0800 
 39 H        4.4540     1.4100     3.3260 H     1 <1>   0.0800 
 40 H        3.4000     5.9120    -0.3010 H     1 <1>   0.0800 
 41 H        4.0050     6.2790     1.2780 H     1 <1>   0.0800 
 42 H        6.4310     6.1030     1.7980 H     1 <1>   0.1500 
 43 H        4.9220     5.1250    -2.0980 H     1 <1>   0.1500 
 44 H        7.2230     5.1480    -2.9930 H     1 <1>   0.1500 
@<TRIPOS>BOND
  1   1   2  2   
  2   1   3  2   
  3   1   4  am  
  4   1   5  1   
  5   4   6  1   
  6   4   7  1   
  7   5   8  1   
  8   5  25  1   
  9   5  26  1   
 10   6  27  1   
 11   6  28  1   
 12   6  29  1   
 13   7  30  1   
 14   7  31  1   
 15   7  32  1   
 16   8   9  1   
 17   8  10  1   
 18   8  33  1   
 19   9  11  1   
 20   9  12  1   
 21   9  34  1   
 22  10  13  1   
 23  10  35  1   
 24  10  36  1   
 25  11  14  am  
 26  11  37  1   
 27  12  13  1   
 28  12  38  1   
 29  12  39  1   
 30  14  15  2   
 31  14  16  1   
 32  16  17  1   
 33  16  40  1   
 34  16  41  1   
 35  17  18  ar  
 36  17  19  ar  
 37  18  20  ar  
 38  18  42  1   
 39  19  21  ar  
 40  19  43  1   
 41  20  22  1   
 42  20  23  ar  
 43  21  23  ar  
 44  21  44  1   
 45  23  24  1   
@<TRIPOS>SUBSTRUCTURE
  1 ****  11 GROUP 4 **** **** 0

# MOE 2024.06 (io_trps.svl 2023.06)
