@<TRIPOS>MOLECULE
NONAME
42 43 1 0 0 
SMALL
USER_CHARGES


@<TRIPOS>ATOM
  1 S        1.1020    -1.0810     1.1420 S.o2  1 <1>   1.4470 
  2 O        2.2700    -1.8090     0.7030 O.2   1 <1>  -0.6500 
  3 O        1.0480    -0.6050     2.5020 O.2   1 <1>  -0.6500 
  4 N       -0.1670    -2.1760     1.0440 N.am  1 <1>  -0.9140 
  5 C        0.6450     0.2450     0.0090 C.ar  1 <1>  -0.0090 
  6 C        0.0100    -3.2680     0.0960 C.3   1 <1>   0.2760 
  7 C       -0.6290     0.7930    -0.0110 C.ar  1 <1>   0.1900 
  8 C        1.5440     0.8110    -0.8800 C.ar  1 <1>   0.1900 
  9 C       -1.3430    -3.9020    -0.1980 C.3   1 <1>  -0.0800 
 10 C        0.7180    -4.4400     0.7710 C.3   1 <1>   0.1200 
 11 F       -1.5430     0.3500     0.8090 F     1 <1>  -0.1900 
 12 C       -1.0070     1.8140    -0.8680 C.ar  1 <1>  -0.1500 
 13 F        2.7760     0.3870    -0.9180 F     1 <1>  -0.1900 
 14 C        1.2110     1.8340    -1.7550 C.ar  1 <1>  -0.1500 
 15 C       -1.5130    -4.9150     0.9430 C.3   1 <1>   0.1200 
 16 C       -2.5140    -2.9060    -0.3330 C.3   1 <1>  -0.0550 
 17 O       -0.2640    -5.0360     1.5600 O.3   1 <1>  -0.5600 
 18 C       -0.0780     2.3380    -1.7500 C.ar  1 <1>  -0.1500 
 19 S       -4.0370    -3.6800    -0.8680 S.o2  1 <1>   1.3330 
 20 O       -4.5390    -4.5300     0.1890 O.2   1 <1>  -0.6500 
 21 O       -3.7980    -4.2360    -2.1800 O.2   1 <1>  -0.6500 
 22 N       -5.1010    -2.3680    -1.0330 N.am  1 <1>  -0.8490 
 23 C       -5.6540    -1.9040     0.2440 C.3   1 <1>   0.1160 
 24 C       -6.1910    -2.6600    -1.9690 C.3   1 <1>   0.1160 
 25 H       -0.1910    -2.6120     1.9690 H     1 <1>   0.4200 
 26 H        0.5060    -2.9370    -0.8030 H     1 <1>   0.0800 
 27 H       -1.2590    -4.4570    -1.1170 H     1 <1>   0.0800 
 28 H        1.5490    -4.1460     1.3880 H     1 <1>   0.0800 
 29 H        1.0440    -5.1620     0.0430 H     1 <1>   0.0800 
 30 H       -2.0140     2.1940    -0.8390 H     1 <1>   0.1500 
 31 H        1.9550     2.2280    -2.4260 H     1 <1>   0.1500 
 32 H       -1.8170    -5.8820     0.5780 H     1 <1>   0.0800 
 33 H       -2.2120    -4.5750     1.6880 H     1 <1>   0.0800 
 34 H       -2.2450    -2.1540    -1.0490 H     1 <1>   0.0800 
 35 H       -2.6800    -2.4150     0.6060 H     1 <1>   0.0800 
 36 H       -0.3540     3.1330    -2.4240 H     1 <1>   0.1500 
 37 H       -6.2600    -1.0280     0.0880 H     1 <1>   0.0800 
 38 H       -4.8590    -1.6460     0.9240 H     1 <1>   0.0800 
 39 H       -6.2590    -2.6730     0.6950 H     1 <1>   0.0800 
 40 H       -6.8380    -1.8050    -2.0690 H     1 <1>   0.0800 
 41 H       -6.7670    -3.5030    -1.6220 H     1 <1>   0.0800 
 42 H       -5.7900    -2.8930    -2.9410 H     1 <1>   0.0800 
@<TRIPOS>BOND
  1   1   2  2   
  2   1   3  2   
  3   1   4  am  
  4   1   5  1   
  5   4   6  1   
  6   4  25  1   
  7   5   7  ar  
  8   5   8  ar  
  9   6   9  1   
 10   6  10  1   
 11   6  26  1   
 12   7  11  1   
 13   7  12  ar  
 14   8  13  1   
 15   8  14  ar  
 16   9  15  1   
 17   9  16  1   
 18   9  27  1   
 19  10  17  1   
 20  10  28  1   
 21  10  29  1   
 22  12  18  ar  
 23  12  30  1   
 24  14  18  ar  
 25  14  31  1   
 26  15  17  1   
 27  15  32  1   
 28  15  33  1   
 29  16  19  1   
 30  16  34  1   
 31  16  35  1   
 32  18  36  1   
 33  19  20  2   
 34  19  21  2   
 35  19  22  am  
 36  22  23  1   
 37  22  24  1   
 38  23  37  1   
 39  23  38  1   
 40  23  39  1   
 41  24  40  1   
 42  24  41  1   
 43  24  42  1   
@<TRIPOS>SUBSTRUCTURE
  1 ****   4 GROUP 4 **** **** 0

# MOE 2024.06 (io_trps.svl 2023.06)
