@<TRIPOS>MOLECULE
NONAME
43 44 1 0 0 
SMALL
USER_CHARGES


@<TRIPOS>ATOM
  1 S        0.3280     0.4060    -1.2610 S.o2  1 <1>   1.3330 
  2 O       -0.6440     1.3050    -1.8400 O.2   1 <1>  -0.6500 
  3 O        0.4810    -0.9250    -1.8050 O.2   1 <1>  -0.6500 
  4 N       -0.0550     0.2500     0.3860 N.am  1 <1>  -0.8490 
  5 C        1.9390     1.1970    -1.2690 C.3   1 <1>  -0.0550 
  6 C       -0.4270     1.5210     1.0220 C.3   1 <1>   0.1160 
  7 C       -1.1100    -0.7420     0.6070 C.3   1 <1>   0.1160 
  8 C        3.0990     0.3040    -0.7740 C.3   1 <1>  -0.0800 
  9 C        4.4710     0.9610    -0.8110 C.3   1 <1>   0.2200 
 10 C        2.9940    -0.1540     0.6850 C.3   1 <1>   0.1200 
 11 N        4.3870     2.3430    -0.2820 N.am  1 <1>  -0.7300 
 12 C        5.2260     0.0940     0.1860 C.3   1 <1>   0.1200 
 13 O        4.3000    -0.2310     1.1790 O.3   1 <1>  -0.5600 
 14 C        4.4310     3.4910    -1.0160 C.2   1 <1>   0.6160 
 15 O        4.7860     3.4070    -2.1760 O.2   1 <1>  -0.5700 
 16 C        4.0840     4.7710    -0.4650 C.2   1 <1>   0.0290 
 17 C        3.1350     4.8760     0.6010 C.2   1 <1>   0.7670 
 18 C        4.6180     5.9350    -0.9390 C.2   1 <1>  -0.0500 
 19 O        2.5640     3.9000     1.0700 O.2   1 <1>  -0.5700 
 20 N        2.8070     6.0940     1.1440 N.2   1 <1>  -0.6610 
 21 N        4.2470     7.1140    -0.3670 N.pl3 1 <1>  -0.5500 
 22 C        3.3530     7.1440     0.6620 C.2   1 <1>   0.4390 
 23 C        3.0160     8.5010     1.2290 C.3   1 <1>  -0.1790 
 24 H        2.1610     1.4960    -2.2750 H     1 <1>   0.0800 
 25 H        1.8830     2.0890    -0.6810 H     1 <1>   0.0800 
 26 H       -0.6060     1.3690     2.0730 H     1 <1>   0.0800 
 27 H       -1.3190     1.9240     0.5700 H     1 <1>   0.0800 
 28 H        0.3660     2.2410     0.9220 H     1 <1>   0.0800 
 29 H       -1.3140    -0.8410     1.6590 H     1 <1>   0.0800 
 30 H       -0.7970    -1.7020     0.2320 H     1 <1>   0.0800 
 31 H       -2.0110    -0.4490     0.0940 H     1 <1>   0.0800 
 32 H        3.1330    -0.5800    -1.3880 H     1 <1>   0.0800 
 33 H        4.9220     0.9470    -1.7890 H     1 <1>   0.0800 
 34 H        2.5240    -1.1180     0.7740 H     1 <1>   0.0800 
 35 H        2.4670     0.5650     1.2890 H     1 <1>   0.0800 
 36 H        3.9960     2.3900     0.6690 H     1 <1>   0.3700 
 37 H        6.0680     0.6000     0.6260 H     1 <1>   0.0800 
 38 H        5.5480    -0.8240    -0.2750 H     1 <1>   0.0800 
 39 H        5.3260     5.9470    -1.7540 H     1 <1>   0.1500 
 40 H        4.6310     8.0060    -0.6970 H     1 <1>   0.4000 
 41 H        2.5830     9.1210     0.4670 H     1 <1>   0.0800 
 42 H        3.9020     8.9690     1.6150 H     1 <1>   0.0800 
 43 H        2.3060     8.3980     2.0310 H     1 <1>   0.0800 
@<TRIPOS>BOND
  1   1   2  2   
  2   1   3  2   
  3   1   4  am  
  4   1   5  1   
  5   4   6  1   
  6   4   7  1   
  7   5   8  1   
  8   5  24  1   
  9   5  25  1   
 10   6  26  1   
 11   6  27  1   
 12   6  28  1   
 13   7  29  1   
 14   7  30  1   
 15   7  31  1   
 16   8   9  1   
 17   8  10  1   
 18   8  32  1   
 19   9  11  1   
 20   9  12  1   
 21   9  33  1   
 22  10  13  1   
 23  10  34  1   
 24  10  35  1   
 25  11  14  am  
 26  11  36  1   
 27  12  13  1   
 28  12  37  1   
 29  12  38  1   
 30  14  15  2   
 31  14  16  1   
 32  16  17  1   
 33  16  18  2   
 34  17  19  2   
 35  17  20  1   
 36  18  21  1   
 37  18  39  1   
 38  20  22  2   
 39  21  22  1   
 40  21  40  1   
 41  22  23  1   
 42  23  41  1   
 43  23  42  1   
 44  23  43  1   
@<TRIPOS>SUBSTRUCTURE
  1 ****  11 GROUP 4 **** **** 0

# MOE 2024.06 (io_trps.svl 2023.06)
