@<TRIPOS>MOLECULE
NONAME
39 41 1 0 0 
SMALL
USER_CHARGES


@<TRIPOS>ATOM
  1 S        0.5720    -0.2860     0.4550 S.o2  1 <1>   1.3330 
  2 O       -0.0480     0.6410    -0.4620 O.2   1 <1>  -0.6500 
  3 O        1.7020    -1.0820     0.0530 O.2   1 <1>  -0.6500 
  4 N       -0.5880    -1.3960     0.9270 N.am  1 <1>  -0.9140 
  5 C        0.9450     0.5570     1.9760 C.3   1 <1>  -0.1350 
  6 C       -1.5400    -1.7350    -0.1240 C.3   1 <1>   0.2760 
  7 C       -2.6390    -2.5970     0.4860 C.3   1 <1>  -0.0800 
  8 C       -0.9180    -2.7080    -1.1240 C.3   1 <1>   0.1200 
  9 C       -2.0660    -4.0180     0.3640 C.3   1 <1>   0.1200 
 10 C       -3.9660    -2.4440    -0.2870 C.3   1 <1>  -0.0160 
 11 O       -0.9640    -3.9480    -0.4910 O.3   1 <1>  -0.5600 
 12 C       -5.1590    -3.2560     0.2370 C.ar  1 <1>  -0.1440 
 13 C       -6.3430    -3.3470    -0.5370 C.ar  1 <1>   0.0000 
 14 C       -5.1540    -3.9070     1.4390 C.ar  1 <1>  -0.1500 
 15 C       -7.4130    -4.1250    -0.0270 C.ar  1 <1>   0.3100 
 16 C       -6.5340    -2.7070    -1.7850 C.ar  1 <1>  -0.1500 
 17 C       -6.2710    -4.6430     1.8540 C.ar  1 <1>   0.1600 
 18 N       -7.3600    -4.7650     1.1670 N.ar  1 <1>  -0.6200 
 19 C       -8.5920    -4.2430    -0.7810 C.ar  1 <1>  -0.1500 
 20 C       -7.6970    -2.8400    -2.4940 C.ar  1 <1>  -0.1500 
 21 C       -8.7410    -3.6200    -1.9890 C.ar  1 <1>  -0.1500 
 22 H       -0.0550    -2.2580     1.0660 H     1 <1>   0.4200 
 23 H        0.0670     1.0410     2.3540 H     1 <1>   0.0800 
 24 H        1.7020     1.2980     1.8090 H     1 <1>   0.0800 
 25 H        1.3010    -0.1400     2.7090 H     1 <1>   0.0800 
 26 H       -1.9350    -0.8480    -0.5930 H     1 <1>   0.0800 
 27 H       -2.8020    -2.3220     1.5140 H     1 <1>   0.0800 
 28 H        0.0980    -2.4720    -1.3870 H     1 <1>   0.0800 
 29 H       -1.5130    -2.7720    -2.0180 H     1 <1>   0.0800 
 30 H       -2.7750    -4.7150    -0.0510 H     1 <1>   0.0800 
 31 H       -1.7180    -4.3820     1.3150 H     1 <1>   0.0800 
 32 H       -3.7900    -2.7280    -1.3100 H     1 <1>   0.0800 
 33 H       -4.2500    -1.4050    -0.2810 H     1 <1>   0.0800 
 34 H       -4.3170    -3.8880     2.1090 H     1 <1>   0.1500 
 35 H       -5.7530    -2.0960    -2.1950 H     1 <1>   0.1500 
 36 H       -6.2200    -5.1410     2.8070 H     1 <1>   0.1500 
 37 H       -9.3810    -4.8450    -0.3700 H     1 <1>   0.1500 
 38 H       -7.8250    -2.3490    -3.4430 H     1 <1>   0.1500 
 39 H       -9.6500    -3.7190    -2.5560 H     1 <1>   0.1500 
@<TRIPOS>BOND
  1   1   2  2   
  2   1   3  2   
  3   1   4  am  
  4   1   5  1   
  5   4   6  1   
  6   4  22  1   
  7   5  23  1   
  8   5  24  1   
  9   5  25  1   
 10   6   7  1   
 11   6   8  1   
 12   6  26  1   
 13   7   9  1   
 14   7  10  1   
 15   7  27  1   
 16   8  11  1   
 17   8  28  1   
 18   8  29  1   
 19   9  11  1   
 20   9  30  1   
 21   9  31  1   
 22  10  12  1   
 23  10  32  1   
 24  10  33  1   
 25  12  13  ar  
 26  12  14  ar  
 27  13  15  ar  
 28  13  16  ar  
 29  14  17  ar  
 30  14  34  1   
 31  15  18  ar  
 32  15  19  ar  
 33  16  20  ar  
 34  16  35  1   
 35  17  18  ar  
 36  17  36  1   
 37  19  21  ar  
 38  19  37  1   
 39  20  21  ar  
 40  20  38  1   
 41  21  39  1   
@<TRIPOS>SUBSTRUCTURE
  1 ****  10 GROUP 4 **** **** 0

# MOE 2024.06 (io_trps.svl 2023.06)
