@<TRIPOS>MOLECULE
NONAME
47 50 1 0 0 
SMALL
USER_CHARGES


@<TRIPOS>ATOM
  1 F       -0.6430    -1.2930    -1.7360 F     1 <1>  -0.1900 
  2 C       -1.6110    -2.1560    -1.5610 C.ar  1 <1>   0.1900 
  3 C       -2.1820    -2.2730    -0.3170 C.ar  1 <1>  -0.1500 
  4 C       -2.0130    -2.9190    -2.6620 C.ar  1 <1>  -0.1500 
  5 C       -3.2080    -3.2020    -0.1660 C.ar  1 <1>   0.2270 
  6 C       -3.0290    -3.8370    -2.5100 C.ar  1 <1>  -0.1500 
  7 N       -3.9320    -3.5180     0.9450 N.2   1 <1>  -0.5650 
  8 C       -3.6190    -3.9650    -1.2480 C.ar  1 <1>  -0.1520 
  9 C       -4.7460    -4.4350     0.5410 C.2   1 <1>   0.0060 
 10 N       -4.6140    -4.7520    -0.7680 N.pl3 1 <1>   0.0330 
 11 C       -5.7820    -5.1570     1.3890 C.3   1 <1>   0.3890 
 12 N       -5.6680    -6.6390     1.2090 N.pl3 1 <1>  -0.8380 
 13 C       -6.4710    -7.3230     0.3150 C.ar  1 <1>   0.4100 
 14 C       -4.4550    -7.2620     1.8100 C.3   1 <1>   0.1290 
 15 N       -6.9070    -6.6630    -0.7450 N.ar  1 <1>  -0.6200 
 16 C       -6.8030    -8.6430     0.5080 C.ar  1 <1>  -0.1500 
 17 C       -7.6680    -7.3580    -1.5690 C.ar  1 <1>   0.4700 
 18 C       -7.6000    -9.2670    -0.4210 C.ar  1 <1>   0.4100 
 19 N       -8.0410    -8.6170    -1.4830 N.ar  1 <1>  -0.6200 
 20 N       -7.9750   -10.5870    -0.2690 N.pl3 1 <1>  -0.8380 
 21 C       -8.2520   -11.4070    -1.4810 C.3   1 <1>   0.2090 
 22 C       -8.7910   -10.9540     0.9160 C.3   1 <1>   0.2090 
 23 C       -8.0060   -12.8820    -1.1630 C.3   1 <1>  -0.1600 
 24 C       -8.5430   -12.4210     1.2660 C.3   1 <1>  -0.1600 
 25 C       -8.8270   -13.3080     0.0540 C.3   1 <1>   0.2000 
 26 O       -8.4930   -14.6050     0.3740 O.3   1 <1>  -0.6800 
 27 H       -1.8640    -1.6830     0.5200 H     1 <1>   0.1500 
 28 H       -1.5210    -2.7760    -3.6080 H     1 <1>   0.1500 
 29 H       -3.3670    -4.4440    -3.3320 H     1 <1>   0.1500 
 30 H       -5.1620    -5.4830    -1.2370 H     1 <1>   0.2700 
 31 H       -6.7660    -4.8270     1.1070 H     1 <1>   0.0800 
 32 H       -5.6330    -4.9070     2.4250 H     1 <1>   0.0800 
 33 H       -3.5960    -6.6330     1.6490 H     1 <1>   0.0800 
 34 H       -4.2600    -8.2210     1.3620 H     1 <1>   0.0800 
 35 H       -4.6000    -7.3900     2.8680 H     1 <1>   0.0800 
 36 H       -6.4530    -9.1800     1.3630 H     1 <1>   0.1500 
 37 H       -8.0350    -6.8250    -2.4310 H     1 <1>   0.1500 
 38 H       -7.6060   -11.0980    -2.2860 H     1 <1>   0.0800 
 39 H       -9.2730   -11.2540    -1.7880 H     1 <1>   0.0800 
 40 H       -9.8330   -10.8000     0.6870 H     1 <1>   0.0800 
 41 H       -8.5360   -10.3300     1.7550 H     1 <1>   0.0800 
 42 H       -6.9560   -13.0170    -0.9740 H     1 <1>   0.0800 
 43 H       -8.2840   -13.4770    -2.0140 H     1 <1>   0.0800 
 44 H       -9.1880   -12.7040     2.0780 H     1 <1>   0.0800 
 45 H       -7.5210   -12.5290     1.5790 H     1 <1>   0.0800 
 46 H       -9.8780   -13.2880    -0.1830 H     1 <1>   0.0800 
 47 H       -7.5410   -14.6570     0.5770 H     1 <1>   0.4000 
@<TRIPOS>BOND
  1   1   2  1   
  2   2   3  ar  
  3   2   4  ar  
  4   3   5  ar  
  5   3  27  1   
  6   4   6  ar  
  7   4  28  1   
  8   5   7  1   
  9   5   8  ar  
 10   6   8  ar  
 11   6  29  1   
 12   7   9  2   
 13   8  10  1   
 14   9  10  1   
 15   9  11  1   
 16  10  30  1   
 17  11  12  1   
 18  11  31  1   
 19  11  32  1   
 20  12  13  1   
 21  12  14  1   
 22  13  15  ar  
 23  13  16  ar  
 24  14  33  1   
 25  14  34  1   
 26  14  35  1   
 27  15  17  ar  
 28  16  18  ar  
 29  16  36  1   
 30  17  19  ar  
 31  17  37  1   
 32  18  19  ar  
 33  18  20  1   
 34  20  21  1   
 35  20  22  1   
 36  21  23  1   
 37  21  38  1   
 38  21  39  1   
 39  22  24  1   
 40  22  40  1   
 41  22  41  1   
 42  23  25  1   
 43  23  42  1   
 44  23  43  1   
 45  24  25  1   
 46  24  44  1   
 47  24  45  1   
 48  25  26  1   
 49  25  46  1   
 50  26  47  1   
@<TRIPOS>SUBSTRUCTURE
  1 ****  13 GROUP 4 **** **** 0

# MOE 2024.06 (io_trps.svl 2023.06)
