@<TRIPOS>MOLECULE
NONAME
45 47 1 0 0 
SMALL
USER_CHARGES


@<TRIPOS>ATOM
  1 F       -0.5650    -0.0720    -0.1650 F     1 <1>  -0.1900 
  2 C       -1.8000     0.3590    -0.1250 C.ar  1 <1>   0.1900 
  3 C       -2.1100     1.7210    -0.0520 C.ar  1 <1>   0.0830 
  4 C       -2.7880    -0.6050    -0.1600 C.ar  1 <1>  -0.1500 
  5 O       -1.2300     2.7620    -0.0120 O.3   1 <1>  -0.3630 
  6 C       -3.4490     2.0730    -0.0170 C.ar  1 <1>  -0.1500 
  7 C       -4.1150    -0.2180    -0.1250 C.ar  1 <1>  -0.1500 
  8 C        0.1700     2.5870     0.0030 C.3   1 <1>   0.0400 
  9 C       -4.4790     1.1290    -0.0510 C.ar  1 <1>   0.0530 
 10 C       -5.8620     1.5490    -0.0150 C.2   1 <1>   0.0870 
 11 O       -6.1880     2.7700    -0.3570 O.3   1 <1>  -0.0190 
 12 C       -7.0210     0.9170     0.3130 C.2   1 <1>  -0.0860 
 13 N       -7.4710     3.0020    -0.2760 N.2   1 <1>  -0.4100 
 14 C       -7.9970     1.9030     0.1370 C.2   1 <1>   0.3720 
 15 C       -7.2530    -0.4200     0.7560 C.2   1 <1>   0.7160 
 16 N       -9.3720     1.7350     0.3740 N.pl3 1 <1>  -0.8210 
 17 O       -6.7840    -0.7750     1.8230 O.2   1 <1>  -0.5700 
 18 N       -7.9580    -1.3370     0.0050 N.am  1 <1>  -0.6600 
 19 C      -10.2630     2.7240    -0.2960 C.3   1 <1>   0.1290 
 20 C       -9.7210     1.5650     1.8120 C.3   1 <1>   0.1290 
 21 C       -8.3580    -2.6730     0.5400 C.3   1 <1>   0.1400 
 22 C       -8.6000    -1.0300    -1.3090 C.3   1 <1>   0.1400 
 23 C       -9.8890    -2.8180     0.5190 C.3   1 <1>   0.1200 
 24 C      -10.1180    -1.2570    -1.2210 C.3   1 <1>   0.1200 
 25 O      -10.3960    -2.5500    -0.7590 O.3   1 <1>  -0.5600 
 26 H       -2.5190    -1.6450    -0.2140 H     1 <1>   0.1500 
 27 H       -3.6930     3.1190     0.0410 H     1 <1>   0.1500 
 28 H       -4.8710    -0.9810    -0.1570 H     1 <1>   0.1500 
 29 H        0.6270     3.5590     0.0590 H     1 <1>   0.0800 
 30 H        0.4710     2.0960    -0.9050 H     1 <1>   0.0800 
 31 H        0.4410     2.0060     0.8660 H     1 <1>   0.0800 
 32 H       -9.9960     2.8110    -1.3360 H     1 <1>   0.0800 
 33 H      -10.1620     3.6890     0.1690 H     1 <1>   0.0800 
 34 H      -11.2880     2.4020    -0.2290 H     1 <1>   0.0800 
 35 H       -9.0880     0.8270     2.2710 H     1 <1>   0.0800 
 36 H      -10.7430     1.2430     1.9050 H     1 <1>   0.0800 
 37 H       -9.5950     2.4990     2.3330 H     1 <1>   0.0800 
 38 H       -8.0040    -2.8060     1.5480 H     1 <1>   0.0800 
 39 H       -7.9200    -3.4450    -0.0680 H     1 <1>   0.0800 
 40 H       -8.1930    -1.6810    -2.0620 H     1 <1>   0.0800 
 41 H       -8.4100    -0.0180    -1.6150 H     1 <1>   0.0800 
 42 H      -10.3420    -2.1370     1.2190 H     1 <1>   0.0800 
 43 H      -10.1710    -3.8220     0.7800 H     1 <1>   0.0800 
 44 H      -10.5670    -1.1510    -2.1920 H     1 <1>   0.0800 
 45 H      -10.5690    -0.5440    -0.5520 H     1 <1>   0.0800 
@<TRIPOS>BOND
  1   1   2  1   
  2   2   3  ar  
  3   2   4  ar  
  4   3   5  1   
  5   3   6  ar  
  6   4   7  ar  
  7   4  26  1   
  8   5   8  1   
  9   6   9  ar  
 10   6  27  1   
 11   7   9  ar  
 12   7  28  1   
 13   8  29  1   
 14   8  30  1   
 15   8  31  1   
 16   9  10  1   
 17  10  11  1   
 18  10  12  2   
 19  11  13  1   
 20  12  14  1   
 21  12  15  1   
 22  13  14  2   
 23  14  16  1   
 24  15  17  2   
 25  15  18  am  
 26  16  19  1   
 27  16  20  1   
 28  18  21  1   
 29  18  22  1   
 30  19  32  1   
 31  19  33  1   
 32  19  34  1   
 33  20  35  1   
 34  20  36  1   
 35  20  37  1   
 36  21  23  1   
 37  21  38  1   
 38  21  39  1   
 39  22  24  1   
 40  22  40  1   
 41  22  41  1   
 42  23  25  1   
 43  23  42  1   
 44  23  43  1   
 45  24  25  1   
 46  24  44  1   
 47  24  45  1   
@<TRIPOS>SUBSTRUCTURE
  1 ****  12 GROUP 4 **** **** 0

# MOE 2024.06 (io_trps.svl 2023.06)
