@<TRIPOS>MOLECULE
NONAME
52 54 1 0 0 
SMALL
USER_CHARGES


@<TRIPOS>ATOM
  1 CL      -2.1200    -1.1220     2.6240 Cl    1 <1>  -0.1770 
  2 C       -2.4680    -2.3990     1.4880 C.ar  1 <1>   0.1770 
  3 C       -3.3100    -2.1500     0.4210 C.ar  1 <1>  -0.1500 
  4 C       -1.8980    -3.6440     1.6680 C.ar  1 <1>  -0.1500 
  5 C       -3.5830    -3.1670    -0.4770 C.ar  1 <1>  -0.1500 
  6 C       -2.1790    -4.6530     0.7630 C.ar  1 <1>  -0.1500 
  7 C       -3.0270    -4.4390    -0.3260 C.ar  1 <1>   0.0530 
  8 C       -3.3230    -5.4950    -1.2670 C.2   1 <1>   0.0870 
  9 O       -3.1660    -6.7660    -0.9200 O.3   1 <1>  -0.2800 
 10 C       -3.7760    -5.4510    -2.5480 C.2   1 <1>  -0.1500 
 11 C       -3.5080    -7.5330    -1.9350 C.2   1 <1>  -0.0400 
 12 C       -3.8950    -6.7730    -2.9820 C.2   1 <1>  -0.1500 
 13 C       -3.4310    -9.0420    -1.7900 C.3   1 <1>   0.5230 
 14 N       -4.4610    -9.4950    -0.8100 N.4   1 <1>  -0.9590 
 15 C       -4.8150   -10.9350    -1.0400 C.3   1 <1>   0.3430 
 16 C       -4.0430    -9.2390     0.5950 C.3   1 <1>   0.3430 
 17 C       -5.7420   -11.5560     0.0360 C.3   1 <1>   0.0000 
 18 C       -5.2160    -9.4730     1.5470 C.3   1 <1>  -0.1600 
 19 C       -6.2610   -10.4560     1.0030 C.3   1 <1>   0.2000 
 20 C       -6.9850   -12.1320    -0.6850 C.3   1 <1>   0.1200 
 21 C       -5.0170   -12.7490     0.7360 C.3   1 <1>  -0.1600 
 22 O       -6.9370   -11.0150     2.0680 O.3   1 <1>  -0.6800 
 23 O       -6.5920   -12.8880    -1.7830 O.3   1 <1>  -0.6800 
 24 C       -3.7110   -12.4520     1.4940 C.3   1 <1>  -0.1600 
 25 C       -3.0990   -13.7470     2.0350 C.3   1 <1>  -0.2400 
 26 H       -3.7420    -1.1730     0.3010 H     1 <1>   0.1500 
 27 H       -1.2430    -3.8130     2.5040 H     1 <1>   0.1500 
 28 H       -4.2410    -2.9680    -1.3040 H     1 <1>   0.1500 
 29 H       -1.7290    -5.6200     0.9010 H     1 <1>   0.1500 
 30 H       -4.0030    -4.5820    -3.1390 H     1 <1>   0.1500 
 31 H       -4.2310    -7.0690    -3.9620 H     1 <1>   0.1500 
 32 H       -2.4450    -9.3320    -1.4670 H     1 <1>   0.0800 
 33 H       -3.6220    -9.4880    -2.7520 H     1 <1>   0.0800 
 34 H       -5.2870    -8.9100    -0.9920 H     1 <1>   0.4500 
 35 H       -5.2890   -11.0240    -2.0040 H     1 <1>   0.0800 
 36 H       -3.9140   -11.5240    -1.0840 H     1 <1>   0.0800 
 37 H       -3.2320    -9.8990     0.8540 H     1 <1>   0.0800 
 38 H       -3.6940    -8.2260     0.7140 H     1 <1>   0.0800 
 39 H       -5.7020    -8.5290     1.7200 H     1 <1>   0.0800 
 40 H       -4.8280    -9.7970     2.4950 H     1 <1>   0.0800 
 41 H       -6.9900    -9.8660     0.4710 H     1 <1>   0.0800 
 42 H       -7.6290   -11.3490    -1.0470 H     1 <1>   0.0800 
 43 H       -7.5530   -12.7630    -0.0210 H     1 <1>   0.0800 
 44 H       -5.7010   -13.2290     1.4160 H     1 <1>   0.0800 
 45 H       -4.7860   -13.4870    -0.0150 H     1 <1>   0.0800 
 46 H       -6.3490   -11.5830     2.6040 H     1 <1>   0.4000 
 47 H       -7.3470   -13.4070    -2.1350 H     1 <1>   0.4000 
 48 H       -2.9900   -11.9890     0.8450 H     1 <1>   0.0800 
 49 H       -3.8970   -11.8050     2.3310 H     1 <1>   0.0800 
 50 H       -2.8660   -14.4240     1.2310 H     1 <1>   0.0800 
 51 H       -3.7800   -14.2370     2.7090 H     1 <1>   0.0800 
 52 H       -2.1900   -13.5330     2.5700 H     1 <1>   0.0800 
@<TRIPOS>BOND
  1   1   2  1   
  2   2   3  ar  
  3   2   4  ar  
  4   3   5  ar  
  5   3  26  1   
  6   4   6  ar  
  7   4  27  1   
  8   5   7  ar  
  9   5  28  1   
 10   6   7  ar  
 11   6  29  1   
 12   7   8  1   
 13   8   9  1   
 14   8  10  2   
 15   9  11  1   
 16  10  12  1   
 17  10  30  1   
 18  11  12  2   
 19  11  13  1   
 20  12  31  1   
 21  13  14  1   
 22  13  32  1   
 23  13  33  1   
 24  14  15  1   
 25  14  16  1   
 26  14  34  1   
 27  15  17  1   
 28  15  35  1   
 29  15  36  1   
 30  16  18  1   
 31  16  37  1   
 32  16  38  1   
 33  17  19  1   
 34  17  20  1   
 35  17  21  1   
 36  18  19  1   
 37  18  39  1   
 38  18  40  1   
 39  19  22  1   
 40  19  41  1   
 41  20  23  1   
 42  20  42  1   
 43  20  43  1   
 44  21  24  1   
 45  21  44  1   
 46  21  45  1   
 47  22  46  1   
 48  23  47  1   
 49  24  25  1   
 50  24  48  1   
 51  24  49  1   
 52  25  50  1   
 53  25  51  1   
 54  25  52  1   
@<TRIPOS>SUBSTRUCTURE
  1 ****  16 GROUP 4 **** **** 0

# MOE 2024.06 (io_trps.svl 2023.06)
