@<TRIPOS>MOLECULE
NONAME
41 43 1 0 0 
SMALL
USER_CHARGES


@<TRIPOS>ATOM
  1 O        0.3030     0.3170     1.5260 O.3   1 <1>  -0.6800 
  2 C        0.8760    -0.2280     0.3850 C.3   1 <1>   0.2000 
  3 C        1.4130    -1.6120     0.7500 C.3   1 <1>  -0.0800 
  4 C        2.1440     0.5790     0.0510 C.3   1 <1>   0.3430 
  5 C        2.6940    -1.2300     1.4950 C.3   1 <1>   0.3430 
  6 C        1.6650    -2.4550    -0.5290 C.3   1 <1>  -0.0170 
  7 N        3.2950    -0.1930     0.6290 N.4   1 <1>  -0.9590 
  8 C        2.9230    -3.3100    -0.4740 C.ar  1 <1>   0.1670 
  9 C        4.3090     0.6460     1.2940 C.3   1 <1>   0.5230 
 10 N        4.0690    -2.6920    -0.7440 N.ar  1 <1>  -0.6200 
 11 C        2.8160    -4.6560    -0.1580 C.ar  1 <1>  -0.1500 
 12 C        4.7910     1.6650     0.2910 C.2   1 <1>  -0.3320 
 13 C        5.1460    -3.4700    -0.7220 C.ar  1 <1>   0.1600 
 14 C        3.9480    -5.4400    -0.1210 C.ar  1 <1>  -0.1500 
 15 N        5.5710     1.3930    -0.7810 N.pl3 1 <1>   0.3140 
 16 C        4.5440     2.9940     0.2690 C.2   1 <1>  -0.1500 
 17 C        5.1410    -4.8200    -0.4170 C.ar  1 <1>  -0.1500 
 18 N        5.8080     2.5010    -1.4940 N.2   1 <1>  -0.7070 
 19 C        6.1420     0.1080    -1.2130 C.3   1 <1>   0.0160 
 20 C        5.2010     3.4570    -0.8620 C.2   1 <1>   0.1390 
 21 H       -0.6090    -0.0160     1.6660 H     1 <1>   0.4000 
 22 H        0.1490    -0.2170    -0.4100 H     1 <1>   0.0800 
 23 H        0.7480    -2.1480     1.4040 H     1 <1>   0.0800 
 24 H        2.0730     1.5650     0.4820 H     1 <1>   0.0800 
 25 H        2.2680     0.6680    -1.0150 H     1 <1>   0.0800 
 26 H        3.3540    -2.0710     1.6340 H     1 <1>   0.0800 
 27 H        2.4370    -0.8070     2.4530 H     1 <1>   0.0800 
 28 H        1.7540    -1.8210    -1.3950 H     1 <1>   0.0800 
 29 H        0.8100    -3.0840    -0.7070 H     1 <1>   0.0800 
 30 H        3.7490    -0.7230    -0.1370 H     1 <1>   0.4500 
 31 H        3.8690     1.1510     2.1390 H     1 <1>   0.0800 
 32 H        5.1330     0.0430     1.6410 H     1 <1>   0.0800 
 33 H        1.8580    -5.0990     0.0540 H     1 <1>   0.1500 
 34 H        6.0920    -3.0150    -0.9600 H     1 <1>   0.1500 
 35 H        3.9020    -6.4890     0.1190 H     1 <1>   0.1500 
 36 H        3.9740     3.6050     0.9480 H     1 <1>   0.1500 
 37 H        6.0590    -5.3800    -0.4170 H     1 <1>   0.1500 
 38 H        6.3900    -0.4890    -0.3580 H     1 <1>   0.0800 
 39 H        7.0340     0.3000    -1.7830 H     1 <1>   0.0800 
 40 H        5.4320    -0.4030    -1.8360 H     1 <1>   0.0800 
 41 H        5.2150     4.4840    -1.1880 H     1 <1>   0.1500 
@<TRIPOS>BOND
  1   1   2  1   
  2   1  21  1   
  3   2   3  1   
  4   2   4  1   
  5   2  22  1   
  6   3   5  1   
  7   3   6  1   
  8   3  23  1   
  9   4   7  1   
 10   4  24  1   
 11   4  25  1   
 12   5   7  1   
 13   5  26  1   
 14   5  27  1   
 15   6   8  1   
 16   6  28  1   
 17   6  29  1   
 18   7   9  1   
 19   7  30  1   
 20   8  10  ar  
 21   8  11  ar  
 22   9  12  1   
 23   9  31  1   
 24   9  32  1   
 25  10  13  ar  
 26  11  14  ar  
 27  11  33  1   
 28  12  15  1   
 29  12  16  2   
 30  13  17  ar  
 31  13  34  1   
 32  14  17  ar  
 33  14  35  1   
 34  15  18  1   
 35  15  19  1   
 36  16  20  1   
 37  16  36  1   
 38  17  37  1   
 39  18  20  2   
 40  19  38  1   
 41  19  39  1   
 42  19  40  1   
 43  20  41  1   
@<TRIPOS>SUBSTRUCTURE
  1 ****   7 GROUP 4 **** **** 0

# MOE 2024.06 (io_trps.svl 2023.06)
