@<TRIPOS>MOLECULE
NONAME
50 52 1 0 0 
SMALL
USER_CHARGES


@<TRIPOS>ATOM
  1 CL      -0.0030    -3.5170     0.2270 Cl    1 <1>  -0.1770 
  2 C       -1.6050    -2.8520     0.4540 C.ar  1 <1>   0.1770 
  3 C       -1.9040    -1.5490     0.0730 C.ar  1 <1>   0.0820 
  4 C       -2.5750    -3.6730     0.9940 C.ar  1 <1>  -0.1500 
  5 O       -0.9770    -0.7240    -0.4590 O.3   1 <1>  -0.3630 
  6 C       -3.2010    -1.0830     0.2190 C.ar  1 <1>  -0.1500 
  7 C       -3.8770    -3.2090     1.1300 C.ar  1 <1>  -0.1430 
  8 C       -0.0340    -0.1600     0.4460 C.3   1 <1>   0.1810 
  9 C       -4.1820    -1.9090     0.7450 C.ar  1 <1>  -0.1500 
 10 C       -4.9460    -4.1380     1.6670 C.3   1 <1>   0.4870 
 11 C        0.8940     0.8290    -0.2510 C.2   1 <1>   0.5690 
 12 N       -5.2130    -5.1420     0.6150 N.4   1 <1>  -0.9590 
 13 O        1.7500     1.3800     0.3910 O.2   1 <1>  -0.5700 
 14 N        0.7640     1.0930    -1.5670 N.am  1 <1>  -0.8000 
 15 C       -5.9650    -4.6540    -0.5770 C.3   1 <1>   0.3430 
 16 C       -5.8340    -6.4160     1.0310 C.3   1 <1>   0.3430 
 17 C       -6.6230    -5.9000    -1.1880 C.3   1 <1>   0.2000 
 18 C       -6.2410    -7.0810    -0.2840 C.3   1 <1>  -0.0800 
 19 O       -8.0050    -5.7470    -1.1730 O.3   1 <1>  -0.6800 
 20 C       -5.1080    -7.9510    -0.8810 C.3   1 <1>   0.0210 
 21 C       -3.7080    -7.3460    -0.8590 C.2   1 <1>   0.1080 
 22 N       -3.4070    -6.1780    -1.3430 N.2   1 <1>  -0.7070 
 23 C       -2.5940    -7.9890    -0.3320 C.2   1 <1>  -0.1500 
 24 N       -2.0670    -6.0720    -1.1890 N.pl3 1 <1>   0.3000 
 25 C       -1.5630    -7.1480    -0.5520 C.2   1 <1>  -0.3320 
 26 C       -0.0930    -7.3180    -0.2100 C.3   1 <1>  -0.0600 
 27 H       -2.3020    -4.6700     1.2930 H     1 <1>   0.1500 
 28 H       -3.4360    -0.0770    -0.0820 H     1 <1>   0.1500 
 29 H       -0.5730     0.3500     1.2240 H     1 <1>   0.0800 
 30 H        0.5530    -0.9490     0.8770 H     1 <1>   0.0800 
 31 H       -5.1840    -1.5240     0.8450 H     1 <1>   0.1500 
 32 H       -5.8430    -3.5920     1.9080 H     1 <1>   0.0800 
 33 H       -4.5810    -4.6210     2.5590 H     1 <1>   0.0800 
 34 H       -4.2950    -5.4100     0.1970 H     1 <1>   0.4500 
 35 H        1.3910     1.7570    -2.0230 H     1 <1>   0.3700 
 36 H        0.0600     0.6330    -2.1460 H     1 <1>   0.3700 
 37 H       -6.7200    -3.9400    -0.2970 H     1 <1>   0.0800 
 38 H       -5.2830    -4.2070    -1.2830 H     1 <1>   0.0800 
 39 H       -5.1450    -7.0310     1.5900 H     1 <1>   0.0800 
 40 H       -6.7100    -6.2200     1.6280 H     1 <1>   0.0800 
 41 H       -6.3180    -6.0380    -2.2130 H     1 <1>   0.0800 
 42 H       -7.0880    -7.7260    -0.1270 H     1 <1>   0.0800 
 43 H       -8.3890    -5.7850    -0.2760 H     1 <1>   0.4000 
 44 H       -5.3500    -8.2000    -1.9000 H     1 <1>   0.0800 
 45 H       -5.0730    -8.8800    -0.3400 H     1 <1>   0.0800 
 46 H       -2.5730    -8.9600     0.1330 H     1 <1>   0.1500 
 47 H       -1.5200    -5.2680    -1.5280 H     1 <1>   0.2700 
 48 H        0.0710    -8.2710     0.2620 H     1 <1>   0.0800 
 49 H        0.2300    -6.5440     0.4630 H     1 <1>   0.0800 
 50 H        0.5050    -7.2750    -1.1030 H     1 <1>   0.0800 
@<TRIPOS>BOND
  1   1   2  1   
  2   2   3  ar  
  3   2   4  ar  
  4   3   5  1   
  5   3   6  ar  
  6   4   7  ar  
  7   4  27  1   
  8   5   8  1   
  9   6   9  ar  
 10   6  28  1   
 11   7   9  ar  
 12   7  10  1   
 13   8  11  1   
 14   8  29  1   
 15   8  30  1   
 16   9  31  1   
 17  10  12  1   
 18  10  32  1   
 19  10  33  1   
 20  11  13  2   
 21  11  14  am  
 22  12  15  1   
 23  12  16  1   
 24  12  34  1   
 25  14  35  1   
 26  14  36  1   
 27  15  17  1   
 28  15  37  1   
 29  15  38  1   
 30  16  18  1   
 31  16  39  1   
 32  16  40  1   
 33  17  18  1   
 34  17  19  1   
 35  17  41  1   
 36  18  20  1   
 37  18  42  1   
 38  19  43  1   
 39  20  21  1   
 40  20  44  1   
 41  20  45  1   
 42  21  22  2   
 43  21  23  1   
 44  22  24  1   
 45  23  25  2   
 46  23  46  1   
 47  24  25  1   
 48  24  47  1   
 49  25  26  1   
 50  26  48  1   
 51  26  49  1   
 52  26  50  1   
@<TRIPOS>SUBSTRUCTURE
  1 ****   4 GROUP 4 **** **** 0

# MOE 2024.06 (io_trps.svl 2023.06)
