@<TRIPOS>MOLECULE
NONAME
59 62 1 0 0 
SMALL
USER_CHARGES


@<TRIPOS>ATOM
  1 O       -0.4380     0.1440    -0.8040 O.2   1 <1>  -0.5700 
  2 C       -1.4040     0.8250    -0.5030 C.2   1 <1>   0.7150 
  3 N       -2.5650     0.1730    -0.1430 N.am  1 <1>  -0.6600 
  4 C       -1.2650     2.2680    -0.5490 C.2   1 <1>   0.0550 
  5 C       -3.9000     0.7960     0.0380 C.3   1 <1>   0.1400 
  6 C       -2.6650    -1.3060    -0.0800 C.3   1 <1>   0.1400 
  7 O       -2.1590     3.1120    -0.0440 O.3   1 <1>  -0.2800 
  8 C       -0.2480     3.0050    -1.0690 C.2   1 <1>  -0.1500 
  9 C       -4.8860    -0.3700    -0.0060 C.3   1 <1>   0.2000 
 10 C       -4.0820    -1.5950     0.4190 C.3   1 <1>  -0.0800 
 11 C       -1.7570     4.3500    -0.2180 C.2   1 <1>  -0.0400 
 12 C       -0.5560     4.3510    -0.8480 C.2   1 <1>  -0.1810 
 13 O       -5.9520    -0.1700     0.8550 O.3   1 <1>  -0.6800 
 14 C       -4.6630    -2.9150    -0.1080 C.3   1 <1>   0.0210 
 15 C       -2.6960     5.4260     0.3130 C.3   1 <1>   0.0200 
 16 C        0.3480     5.4890    -1.2620 C.3   1 <1>   0.5240 
 17 C       -3.7670    -4.0850     0.2470 C.2   1 <1>   0.1080 
 18 C       -2.2570     6.8680     0.0390 C.3   1 <1>  -0.2400 
 19 N        1.2750     5.7630    -0.1350 N.4   1 <1>  -0.9590 
 20 N       -3.4980    -4.4190     1.4700 N.2   1 <1>  -0.7070 
 21 C       -3.1350    -4.9130    -0.6750 C.2   1 <1>  -0.1500 
 22 C        2.0780     6.9940    -0.2970 C.3   1 <1>   0.3430 
 23 C        2.2370     4.6660     0.1310 C.3   1 <1>   0.3430 
 24 N       -2.6780    -5.4820     1.3610 N.pl3 1 <1>   0.3000 
 25 C       -2.4420    -5.7990     0.0700 C.2   1 <1>  -0.3320 
 26 C        3.2230     6.8260     0.6930 C.3   1 <1>  -0.1600 
 27 C        3.3310     5.3210     0.9620 C.3   1 <1>  -0.1600 
 28 C       -1.5560    -6.9460    -0.3770 C.3   1 <1>  -0.0600 
 29 H       -3.9330     1.2890     0.9940 H     1 <1>   0.0800 
 30 H       -4.1050     1.4970    -0.7520 H     1 <1>   0.0800 
 31 H       -2.5120    -1.7100    -1.0670 H     1 <1>   0.0800 
 32 H       -1.9250    -1.7140     0.5880 H     1 <1>   0.0800 
 33 H        0.6250     2.6080    -1.5590 H     1 <1>   0.1500 
 34 H       -5.2730    -0.4790    -1.0060 H     1 <1>   0.0800 
 35 H       -4.0310    -1.6390     1.4940 H     1 <1>   0.0800 
 36 H       -5.6560    -0.2440     1.7830 H     1 <1>   0.4000 
 37 H       -4.7800    -2.8670    -1.1760 H     1 <1>   0.0800 
 38 H       -5.6320    -3.0790     0.3270 H     1 <1>   0.0800 
 39 H       -3.6650     5.2720    -0.1300 H     1 <1>   0.0800 
 40 H       -2.8070     5.2860     1.3750 H     1 <1>   0.0800 
 41 H       -0.2430     6.3630    -1.4750 H     1 <1>   0.0800 
 42 H        0.8980     5.2230    -2.1500 H     1 <1>   0.0800 
 43 H       -2.1930     7.0460    -1.0190 H     1 <1>   0.0800 
 44 H       -1.3150     7.0780     0.5100 H     1 <1>   0.0800 
 45 H       -2.9900     7.5440     0.4440 H     1 <1>   0.0800 
 46 H        0.6960     5.8540     0.7090 H     1 <1>   0.4500 
 47 H       -3.2000    -4.8390    -1.7460 H     1 <1>   0.1500 
 48 H        2.4760     7.0450    -1.2980 H     1 <1>   0.0800 
 49 H        1.5010     7.8820    -0.0920 H     1 <1>   0.0800 
 50 H        1.7710     3.8450     0.6540 H     1 <1>   0.0800 
 51 H        2.6540     4.3090    -0.7970 H     1 <1>   0.0800 
 52 H       -2.2990    -5.9660     2.1830 H     1 <1>   0.2700 
 53 H        4.1350     7.2260     0.2860 H     1 <1>   0.0800 
 54 H        2.9980     7.3540     1.6040 H     1 <1>   0.0800 
 55 H        3.1690     5.1130     2.0060 H     1 <1>   0.0800 
 56 H        4.2960     4.9320     0.6840 H     1 <1>   0.0800 
 57 H       -1.5270    -6.9940    -1.4510 H     1 <1>   0.0800 
 58 H       -1.9380    -7.8800    -0.0030 H     1 <1>   0.0800 
 59 H       -0.5530    -6.8050    -0.0140 H     1 <1>   0.0800 
@<TRIPOS>BOND
  1   1   2  2   
  2   2   3  am  
  3   2   4  1   
  4   3   5  1   
  5   3   6  1   
  6   4   7  1   
  7   4   8  2   
  8   5   9  1   
  9   5  29  1   
 10   5  30  1   
 11   6  10  1   
 12   6  31  1   
 13   6  32  1   
 14   7  11  1   
 15   8  12  1   
 16   8  33  1   
 17   9  10  1   
 18   9  13  1   
 19   9  34  1   
 20  10  14  1   
 21  10  35  1   
 22  11  12  2   
 23  11  15  1   
 24  12  16  1   
 25  13  36  1   
 26  14  17  1   
 27  14  37  1   
 28  14  38  1   
 29  15  18  1   
 30  15  39  1   
 31  15  40  1   
 32  16  19  1   
 33  16  41  1   
 34  16  42  1   
 35  17  20  2   
 36  17  21  1   
 37  18  43  1   
 38  18  44  1   
 39  18  45  1   
 40  19  22  1   
 41  19  23  1   
 42  19  46  1   
 43  20  24  1   
 44  21  25  2   
 45  21  47  1   
 46  22  26  1   
 47  22  48  1   
 48  22  49  1   
 49  23  27  1   
 50  23  50  1   
 51  23  51  1   
 52  24  25  1   
 53  24  52  1   
 54  25  28  1   
 55  26  27  1   
 56  26  53  1   
 57  26  54  1   
 58  27  55  1   
 59  27  56  1   
 60  28  57  1   
 61  28  58  1   
 62  28  59  1   
@<TRIPOS>SUBSTRUCTURE
  1 ****   2 GROUP 4 **** **** 0

# MOE 2024.06 (io_trps.svl 2023.06)
