@<TRIPOS>MOLECULE
NONAME
49 51 1 0 0 
SMALL
USER_CHARGES


@<TRIPOS>ATOM
  1 F       -0.1260    -1.0220     0.3530 F     1 <1>  -0.1900 
  2 C       -0.3220    -2.3120     0.2960 C.ar  1 <1>   0.1900 
  3 C       -0.2420    -2.9450    -0.9290 C.ar  1 <1>  -0.1500 
  4 C       -0.6010    -2.9960     1.4630 C.ar  1 <1>  -0.1500 
  5 C       -0.4510    -4.3130    -0.9820 C.ar  1 <1>  -0.1500 
  6 C       -0.8080    -4.3640     1.3970 C.ar  1 <1>  -0.1500 
  7 C       -0.7330    -5.0250     0.1770 C.ar  1 <1>  -0.1440 
  8 C       -0.9630    -6.5260     0.1030 C.3   1 <1>  -0.0160 
  9 C       -2.4080    -6.8250    -0.2940 C.3   1 <1>   0.1400 
 10 N       -2.6220    -8.2870    -0.3550 N.am  1 <1>  -0.7300 
 11 C       -2.6590    -9.0420    -1.4830 C.2   1 <1>   0.5690 
 12 O       -2.4840    -8.5670    -2.5800 O.2   1 <1>  -0.5700 
 13 C       -2.9240   -10.5450    -1.3470 C.3   1 <1>   0.1710 
 14 N       -3.6780   -10.9350    -0.1170 N.3   1 <1>  -0.8100 
 15 C       -5.0760   -10.4860    -0.1530 C.3   1 <1>   0.1100 
 16 C       -3.7510   -12.3950     0.0380 C.3   1 <1>   0.1100 
 17 C       -5.7600   -11.3380     0.9080 C.3   1 <1>   0.2000 
 18 C       -5.0780   -12.6990     0.7600 C.3   1 <1>  -0.0800 
 19 O       -5.4110   -10.8260     2.1430 O.3   1 <1>  -0.6800 
 20 C       -5.9620   -13.6820    -0.0300 C.3   1 <1>  -0.0170 
 21 C       -5.2890   -15.0350    -0.1990 C.ar  1 <1>   0.1670 
 22 N       -4.6920   -15.2620    -1.3590 N.ar  1 <1>  -0.6200 
 23 C       -5.3200   -15.9590     0.8440 C.ar  1 <1>   0.1600 
 24 C       -4.1360   -16.4610    -1.4050 C.ar  1 <1>   0.1600 
 25 N       -4.7600   -17.1560     0.8010 N.ar  1 <1>  -0.6200 
 26 C       -4.1690   -17.3770    -0.3610 C.ar  1 <1>   0.1600 
 27 H       -0.0220    -2.3790    -1.8160 H     1 <1>   0.1500 
 28 H       -0.6540    -2.4670     2.3980 H     1 <1>   0.1500 
 29 H       -0.3930    -4.8220    -1.9300 H     1 <1>   0.1500 
 30 H       -1.0270    -4.9090     2.2980 H     1 <1>   0.1500 
 31 H       -0.7490    -6.9760     1.0560 H     1 <1>   0.0800 
 32 H       -0.3000    -6.9540    -0.6290 H     1 <1>   0.0800 
 33 H       -2.6130    -6.3900    -1.2590 H     1 <1>   0.0800 
 34 H       -3.0860    -6.3920     0.4210 H     1 <1>   0.0800 
 35 H       -2.8190    -8.7800     0.5210 H     1 <1>   0.3700 
 36 H       -1.9670   -11.0350    -1.3380 H     1 <1>   0.0800 
 37 H       -3.4530   -10.8770    -2.2220 H     1 <1>   0.0800 
 38 H       -5.1700    -9.4330     0.0560 H     1 <1>   0.0800 
 39 H       -5.5090   -10.6980    -1.1170 H     1 <1>   0.0800 
 40 H       -3.7320   -12.8680    -0.9300 H     1 <1>   0.0800 
 41 H       -2.9090   -12.7480     0.6090 H     1 <1>   0.0800 
 42 H       -6.8330   -11.3570     0.8300 H     1 <1>   0.0800 
 43 H       -4.8790   -13.1260     1.7280 H     1 <1>   0.0800 
 44 H       -4.4400   -10.6900     2.1220 H     1 <1>   0.4000 
 45 H       -6.1910   -13.2760    -1.0000 H     1 <1>   0.0800 
 46 H       -6.8930   -13.8210     0.4910 H     1 <1>   0.0800 
 47 H       -5.8270   -15.6940     1.7550 H     1 <1>   0.1500 
 48 H       -3.6290   -16.7340    -2.3140 H     1 <1>   0.1500 
 49 H       -3.6870   -18.3300    -0.4930 H     1 <1>   0.1500 
@<TRIPOS>BOND
  1   1   2  1   
  2   2   3  ar  
  3   2   4  ar  
  4   3   5  ar  
  5   3  27  1   
  6   4   6  ar  
  7   4  28  1   
  8   5   7  ar  
  9   5  29  1   
 10   6   7  ar  
 11   6  30  1   
 12   7   8  1   
 13   8   9  1   
 14   8  31  1   
 15   8  32  1   
 16   9  10  1   
 17   9  33  1   
 18   9  34  1   
 19  10  11  am  
 20  10  35  1   
 21  11  12  2   
 22  11  13  1   
 23  13  14  1   
 24  13  36  1   
 25  13  37  1   
 26  14  15  1   
 27  14  16  1   
 28  15  17  1   
 29  15  38  1   
 30  15  39  1   
 31  16  18  1   
 32  16  40  1   
 33  16  41  1   
 34  17  18  1   
 35  17  19  1   
 36  17  42  1   
 37  18  20  1   
 38  18  43  1   
 39  19  44  1   
 40  20  21  1   
 41  20  45  1   
 42  20  46  1   
 43  21  22  ar  
 44  21  23  ar  
 45  22  24  ar  
 46  23  25  ar  
 47  23  47  1   
 48  24  26  ar  
 49  24  48  1   
 50  25  26  ar  
 51  26  49  1   
@<TRIPOS>SUBSTRUCTURE
  1 ****  14 GROUP 4 **** **** 0

# MOE 2024.06 (io_trps.svl 2023.06)
