@<TRIPOS>MOLECULE
NONAME
45 47 1 0 0 
SMALL
USER_CHARGES


@<TRIPOS>ATOM
  1 O        1.8250    -0.0930    -2.3480 O.2   1 <1>  -0.5700 
  2 C        1.4360    -0.5760    -1.3090 C.2   1 <1>   0.5690 
  3 N        1.7100     0.0270    -0.1190 N.am  1 <1>  -0.7300 
  4 C        0.6100    -1.8920    -1.3250 C.3   1 <1>   0.3410 
  5 C        2.4850     1.2830     0.0680 C.3   1 <1>   0.2200 
  6 O        0.3500    -2.2630     0.0370 O.3   1 <1>  -0.3630 
  7 C       -0.7270    -1.6660    -2.0530 C.3   1 <1>  -0.2400 
  8 C        1.4090    -3.0150    -2.0100 C.3   1 <1>  -0.2400 
  9 C        3.7310     1.0170     0.9000 C.3   1 <1>   0.2000 
 10 C        1.7050     2.2340     0.9810 C.3   1 <1>   0.1200 
 11 C       -0.3760    -3.3590     0.3560 C.ar  1 <1>   0.0820 
 12 O        4.6250     2.0760     0.7680 O.3   1 <1>  -0.6800 
 13 C        3.1640     1.0410     2.3150 C.3   1 <1>   0.1200 
 14 O        2.1230     1.9790     2.2970 O.3   1 <1>  -0.5600 
 15 C        0.2580    -4.5820     0.5350 C.ar  1 <1>  -0.1500 
 16 C       -1.7470    -3.2440     0.5540 C.ar  1 <1>  -0.1500 
 17 C       -0.5020    -5.6840     0.8770 C.ar  1 <1>  -0.1440 
 18 C       -2.4980    -4.3570     0.8980 C.ar  1 <1>  -0.1500 
 19 C       -1.8590    -5.5740     1.0530 C.ar  1 <1>  -0.1440 
 20 C       -0.0320    -7.0990     1.1090 C.3   1 <1>  -0.0170 
 21 C       -2.4740    -6.9010     1.4210 C.3   1 <1>  -0.0170 
 22 C       -1.2550    -7.7810     1.7480 C.3   1 <1>  -0.1600 
 23 H        1.3250    -0.4040     0.7270 H     1 <1>   0.3700 
 24 H        2.7180     1.7240    -0.8870 H     1 <1>   0.0800 
 25 H       -0.5380    -1.3150    -3.0520 H     1 <1>   0.0800 
 26 H       -1.3060    -0.9210    -1.5400 H     1 <1>   0.0800 
 27 H       -1.2880    -2.5800    -2.1250 H     1 <1>   0.0800 
 28 H        1.6770    -2.7120    -3.0060 H     1 <1>   0.0800 
 29 H        0.8270    -3.9150    -2.0850 H     1 <1>   0.0800 
 30 H        2.3150    -3.2090    -1.4650 H     1 <1>   0.0800 
 31 H        4.2360     0.1030     0.6370 H     1 <1>   0.0800 
 32 H        0.6410     2.0930     0.9070 H     1 <1>   0.0800 
 33 H        1.9520     3.2560     0.7550 H     1 <1>   0.0800 
 34 H        4.2610     2.8610     1.2250 H     1 <1>   0.4000 
 35 H        3.8960     1.3200     3.0540 H     1 <1>   0.0800 
 36 H        2.7380     0.0860     2.5680 H     1 <1>   0.0800 
 37 H        1.3210    -4.6650     0.4110 H     1 <1>   0.1500 
 38 H       -2.2220    -2.2870     0.4400 H     1 <1>   0.1500 
 39 H       -3.5600    -4.2760     1.0460 H     1 <1>   0.1500 
 40 H        0.2070    -7.5560     0.1640 H     1 <1>   0.0800 
 41 H        0.8230    -7.1310     1.7590 H     1 <1>   0.0800 
 42 H       -3.1340    -6.8110     2.2660 H     1 <1>   0.0800 
 43 H       -3.0110    -7.2930     0.5760 H     1 <1>   0.0800 
 44 H       -1.3820    -8.7890     1.3940 H     1 <1>   0.0800 
 45 H       -1.1200    -7.8000     2.8160 H     1 <1>   0.0800 
@<TRIPOS>BOND
  1   1   2  2   
  2   2   3  am  
  3   2   4  1   
  4   3   5  1   
  5   3  23  1   
  6   4   6  1   
  7   4   7  1   
  8   4   8  1   
  9   5   9  1   
 10   5  10  1   
 11   5  24  1   
 12   6  11  1   
 13   7  25  1   
 14   7  26  1   
 15   7  27  1   
 16   8  28  1   
 17   8  29  1   
 18   8  30  1   
 19   9  12  1   
 20   9  13  1   
 21   9  31  1   
 22  10  14  1   
 23  10  32  1   
 24  10  33  1   
 25  11  15  ar  
 26  11  16  ar  
 27  12  34  1   
 28  13  14  1   
 29  13  35  1   
 30  13  36  1   
 31  15  17  ar  
 32  15  37  1   
 33  16  18  ar  
 34  16  38  1   
 35  17  19  ar  
 36  17  20  1   
 37  18  19  ar  
 38  18  39  1   
 39  19  21  1   
 40  20  22  1   
 41  20  40  1   
 42  20  41  1   
 43  21  22  1   
 44  21  42  1   
 45  21  43  1   
 46  22  44  1   
 47  22  45  1   
@<TRIPOS>SUBSTRUCTURE
  1 ****   6 GROUP 4 **** **** 0

# MOE 2024.06 (io_trps.svl 2023.06)
