@<TRIPOS>MOLECULE
NONAME
32 32 1 0 0 
SMALL
USER_CHARGES


@<TRIPOS>ATOM
  1 F       -1.0870    -1.4740     2.7250 F     1 <1>  -0.1900 
  2 C       -2.0430    -1.6290     1.8460 C.ar  1 <1>   0.1900 
  3 C       -2.1510    -2.8350     1.1790 C.ar  1 <1>  -0.1500 
  4 C       -2.9100    -0.5780     1.6240 C.ar  1 <1>  -0.1500 
  5 C       -3.1730    -3.0220     0.2540 C.ar  1 <1>  -0.1440 
  6 C       -3.9110    -0.7450     0.6840 C.ar  1 <1>  -0.1500 
  7 C       -4.0280    -1.9460    -0.0050 C.ar  1 <1>   0.0820 
  8 C       -3.3420    -4.3670    -0.4770 C.3   1 <1>   0.2280 
  9 O       -4.9930    -2.0270    -0.9470 O.3   1 <1>  -0.3630 
 10 N       -4.1750    -5.3300     0.3510 N.3   1 <1>  -0.8100 
 11 C       -2.0130    -4.8860    -1.1070 C.2   1 <1>   0.9060 
 12 C       -4.5820    -1.7080    -2.2590 C.3   1 <1>   0.0400 
 13 C       -3.3760    -5.9490     1.4650 C.3   1 <1>   0.1100 
 14 C       -4.7340    -6.3590    -0.5360 C.3   1 <1>   0.0300 
 15 O       -1.8810    -4.8220    -2.3400 O.co2 1 <1>  -0.9000 
 16 O       -1.1160    -5.3750    -0.3970 O.co2 1 <1>  -0.9000 
 17 C       -4.1140    -6.7340     2.5820 C.3   1 <1>   1.0200 
 18 F       -3.2960    -7.0610     3.5770 F     1 <1>  -0.3400 
 19 F       -4.6440    -7.8810     2.1620 F     1 <1>  -0.3400 
 20 F       -5.1100    -6.0540     3.1410 F     1 <1>  -0.3400 
 21 H       -1.4360    -3.6140     1.3810 H     1 <1>   0.1500 
 22 H       -2.7990     0.3410     2.1680 H     1 <1>   0.1500 
 23 H       -4.6030     0.0490     0.4740 H     1 <1>   0.1500 
 24 H       -3.9370    -4.1540    -1.3410 H     1 <1>   0.0800 
 25 H       -5.4020    -1.9000    -2.9250 H     1 <1>   0.0800 
 26 H       -3.7380    -2.3210    -2.5280 H     1 <1>   0.0800 
 27 H       -4.3080    -0.6690    -2.2930 H     1 <1>   0.0800 
 28 H       -2.8480    -5.1690     1.9740 H     1 <1>   0.0800 
 29 H       -2.6370    -6.6090     1.0480 H     1 <1>   0.0800 
 30 H       -5.2760    -5.8930    -1.3410 H     1 <1>   0.0800 
 31 H       -5.4220    -6.9870     0.0020 H     1 <1>   0.0800 
 32 H       -3.9470    -6.9650    -0.9540 H     1 <1>   0.0800 
@<TRIPOS>BOND
  1   1   2  1   
  2   2   3  ar  
  3   2   4  ar  
  4   3   5  ar  
  5   3  21  1   
  6   4   6  ar  
  7   4  22  1   
  8   5   7  ar  
  9   5   8  1   
 10   6   7  ar  
 11   6  23  1   
 12   7   9  1   
 13   8  10  1   
 14   8  11  1   
 15   8  24  1   
 16   9  12  1   
 17  10  13  1   
 18  10  14  1   
 19  11  15  ar  
 20  11  16  ar  
 21  12  25  1   
 22  12  26  1   
 23  12  27  1   
 24  13  17  1   
 25  13  28  1   
 26  13  29  1   
 27  14  30  1   
 28  14  31  1   
 29  14  32  1   
 30  17  18  1   
 31  17  19  1   
 32  17  20  1   
@<TRIPOS>SUBSTRUCTURE
  1 ****   5 GROUP 4 **** **** 0

# MOE 2024.06 (io_trps.svl 2023.06)
