@<TRIPOS>MOLECULE
NONAME
49 51 1 0 0 
SMALL
USER_CHARGES


@<TRIPOS>ATOM
  1 O       -0.1430     0.4340     0.4150 O.co2 1 <1>  -0.9000 
  2 C       -0.8690     1.3980     0.1470 C.2   1 <1>   0.9060 
  3 O       -2.0170     1.2210    -0.2890 O.co2 1 <1>  -0.9000 
  4 C       -0.4220     2.8430     0.4180 C.3   1 <1>  -0.1060 
  5 C       -1.2870     3.4570     1.5610 C.3   1 <1>   0.2000 
  6 C       -0.6610     3.6480    -0.8760 C.3   1 <1>   0.1400 
  7 C        1.0820     2.8760     0.8470 C.3   1 <1>  -0.0650 
  8 O       -2.5280     2.8500     1.6650 O.3   1 <1>  -0.6800 
  9 C       -1.5930     4.9570     1.4090 C.3   1 <1>  -0.1600 
 10 N       -0.3260     5.1090    -0.7320 N.am  1 <1>  -0.6600 
 11 C        2.0920     2.5340    -0.2610 C.3   1 <1>  -0.1950 
 12 C       -0.5430     5.7250     0.6100 C.3   1 <1>   0.1400 
 13 C        0.1780     5.8140    -1.8010 C.2   1 <1>   0.5690 
 14 C        3.5500     2.8010    -0.0640 C.3   1 <1>  -0.2000 
 15 C        2.7660     3.6060    -1.0580 C.3   1 <1>  -0.2000 
 16 O        0.2700     5.3300    -2.9070 O.2   1 <1>  -0.5700 
 17 C        0.6150     7.2700    -1.6560 C.3   1 <1>   0.1810 
 18 O        1.5800     7.4280    -0.6250 O.3   1 <1>  -0.3630 
 19 C        1.9450     8.6560    -0.1860 C.ar  1 <1>   0.0820 
 20 C        2.7170     8.7010     0.9630 C.ar  1 <1>  -0.1500 
 21 C        1.5840     9.8420    -0.8190 C.ar  1 <1>  -0.1500 
 22 C        3.1260     9.9120     1.4950 C.ar  1 <1>  -0.1430 
 23 C        1.9910    11.0540    -0.2900 C.ar  1 <1>  -0.1500 
 24 C        2.7580    11.0890     0.8620 C.ar  1 <1>  -0.1500 
 25 C        3.9720     9.9540     2.7540 C.3   1 <1>  -0.0970 
 26 H       -0.7910     3.2820     2.5000 H     1 <1>   0.0800 
 27 H       -1.6990     3.5670    -1.1540 H     1 <1>   0.0800 
 28 H       -0.0870     3.2150    -1.6770 H     1 <1>   0.0800 
 29 H        1.3400     3.8350     1.2490 H     1 <1>   0.0800 
 30 H        1.2200     2.1670     1.6450 H     1 <1>   0.0800 
 31 H       -2.5850     2.1420     0.9510 H     1 <1>   0.4000 
 32 H       -2.5330     5.0850     0.9000 H     1 <1>   0.0800 
 33 H       -1.6880     5.3940     2.3850 H     1 <1>   0.0800 
 34 H        1.8490     1.6110    -0.7630 H     1 <1>   0.1000 
 35 H        0.3880     5.7480     1.1470 H     1 <1>   0.0800 
 36 H       -0.8780     6.7410     0.4940 H     1 <1>   0.0800 
 37 H        3.8720     3.2750     0.8470 H     1 <1>   0.1000 
 38 H        4.2530     2.0700    -0.4220 H     1 <1>   0.1000 
 39 H        2.8940     3.4350    -2.1130 H     1 <1>   0.1000 
 40 H        2.5600     4.6370    -0.8320 H     1 <1>   0.1000 
 41 H       -0.2420     7.8720    -1.4220 H     1 <1>   0.0800 
 42 H        1.0560     7.6050    -2.5770 H     1 <1>   0.0800 
 43 H        2.9950     7.7750     1.4330 H     1 <1>   0.1500 
 44 H        0.9970     9.8450    -1.7170 H     1 <1>   0.1500 
 45 H        1.7150    11.9740    -0.7750 H     1 <1>   0.1500 
 46 H        3.0710    12.0370     1.2640 H     1 <1>   0.1500 
 47 H        3.6950    10.7960     3.3630 H     1 <1>   0.0800 
 48 H        5.0110    10.0420     2.4900 H     1 <1>   0.0800 
 49 H        3.8360     9.0580     3.3320 H     1 <1>   0.0800 
@<TRIPOS>BOND
  1   1   2  ar  
  2   2   3  ar  
  3   2   4  1   
  4   4   5  1   
  5   4   6  1   
  6   4   7  1   
  7   5   8  1   
  8   5   9  1   
  9   5  26  1   
 10   6  10  1   
 11   6  27  1   
 12   6  28  1   
 13   7  11  1   
 14   7  29  1   
 15   7  30  1   
 16   8  31  1   
 17   9  12  1   
 18   9  32  1   
 19   9  33  1   
 20  10  12  1   
 21  10  13  am  
 22  11  14  1   
 23  11  15  1   
 24  11  34  1   
 25  12  35  1   
 26  12  36  1   
 27  13  16  2   
 28  13  17  1   
 29  14  15  1   
 30  14  37  1   
 31  14  38  1   
 32  15  39  1   
 33  15  40  1   
 34  17  18  1   
 35  17  41  1   
 36  17  42  1   
 37  18  19  1   
 38  19  20  ar  
 39  19  21  ar  
 40  20  22  ar  
 41  20  43  1   
 42  21  23  ar  
 43  21  44  1   
 44  22  24  ar  
 45  22  25  1   
 46  23  24  ar  
 47  23  45  1   
 48  24  46  1   
 49  25  47  1   
 50  25  48  1   
 51  25  49  1   
@<TRIPOS>SUBSTRUCTURE
  1 ****  10 GROUP 4 **** **** 0

# MOE 2024.06 (io_trps.svl 2023.06)
