@<TRIPOS>MOLECULE
NONAME
47 50 1 0 0 
SMALL
USER_CHARGES


@<TRIPOS>ATOM
  1 O       -0.7380     0.7540     1.2770 O.2   1 <1>  -0.5700 
  2 C       -1.7340     1.1990     0.7410 C.2   1 <1>   0.5440 
  3 N       -2.9570     0.6050     0.9800 N.am  1 <1>  -0.6600 
  4 C       -1.5980     2.3370    -0.1450 C.ar  1 <1>   0.0860 
  5 C       -3.1250    -0.4580     2.0120 C.3   1 <1>   0.1400 
  6 C       -4.1580     0.7900     0.1190 C.3   1 <1>   0.1400 
  7 C       -0.7280     2.3290    -1.2230 C.ar  1 <1>  -0.1500 
  8 C       -2.3140     3.5140     0.0230 C.ar  1 <1>  -0.1500 
  9 C       -3.4330    -1.7910     1.3250 C.3   1 <1>  -0.1600 
 10 C       -4.4710    -0.5250    -0.5990 C.3   1 <1>  -0.1600 
 11 C       -0.6340     3.4300    -2.0520 C.ar  1 <1>   0.1600 
 12 C       -2.1490     4.5610    -0.8620 C.ar  1 <1>   0.1600 
 13 C       -4.6510    -1.6950     0.3890 C.3   1 <1>   0.4240 
 14 N       -1.3300     4.5450    -1.9010 N.ar  1 <1>  -0.6200 
 15 O       -5.7110    -1.3350     1.2510 O.3   1 <1>  -0.5600 
 16 C       -4.9290    -3.0470    -0.3300 C.ar  1 <1>  -0.1430 
 17 C       -7.0100    -1.5950     0.8310 C.3   1 <1>   0.1200 
 18 C       -3.9980    -3.6390    -1.1940 C.ar  1 <1>   0.0830 
 19 C       -6.1400    -3.7080    -0.1220 C.ar  1 <1>  -0.1430 
 20 C       -7.1950    -3.1030     0.7800 C.3   1 <1>  -0.0170 
 21 O       -2.8200    -3.0040    -1.4300 O.3   1 <1>  -0.3630 
 22 C       -4.2820    -4.8580    -1.8060 C.ar  1 <1>  -0.1500 
 23 C       -6.4100    -4.9220    -0.7320 C.ar  1 <1>  -0.1500 
 24 C       -1.7240    -3.6400    -2.0500 C.3   1 <1>   0.0400 
 25 C       -5.4820    -5.4980    -1.5730 C.ar  1 <1>  -0.1500 
 26 H       -3.9340    -0.1860     2.6680 H     1 <1>   0.0800 
 27 H       -2.2350    -0.5550     2.6090 H     1 <1>   0.0800 
 28 H       -3.9970     1.5580    -0.6150 H     1 <1>   0.0800 
 29 H       -4.9910     1.0810     0.7350 H     1 <1>   0.0800 
 30 H       -0.1250     1.4570    -1.4060 H     1 <1>   0.1500 
 31 H       -2.9970     3.6050     0.8480 H     1 <1>   0.1500 
 32 H       -3.6190    -2.5480     2.0640 H     1 <1>   0.0800 
 33 H       -2.5550    -2.0830     0.7860 H     1 <1>   0.0800 
 34 H       -3.6590    -0.7280    -1.2690 H     1 <1>   0.0800 
 35 H       -5.3510    -0.4170    -1.2030 H     1 <1>   0.0800 
 36 H        0.0490     3.3940    -2.8840 H     1 <1>   0.1500 
 37 H       -2.7180     5.4630    -0.7100 H     1 <1>   0.1500 
 38 H       -7.1710    -1.1490    -0.1340 H     1 <1>   0.0800 
 39 H       -7.6830    -1.1550     1.5450 H     1 <1>   0.0800 
 40 H       -8.1790    -3.3250     0.4070 H     1 <1>   0.0800 
 41 H       -7.1060    -3.5110     1.7710 H     1 <1>   0.0800 
 42 H       -3.5850    -5.3260    -2.4730 H     1 <1>   0.1500 
 43 H       -7.3450    -5.4230    -0.5550 H     1 <1>   0.1500 
 44 H       -0.8810    -2.9750    -2.0000 H     1 <1>   0.0800 
 45 H       -1.9710    -3.8390    -3.0780 H     1 <1>   0.0800 
 46 H       -1.5030    -4.5500    -1.5210 H     1 <1>   0.0800 
 47 H       -5.6950    -6.4410    -2.0470 H     1 <1>   0.1500 
@<TRIPOS>BOND
  1   1   2  2   
  2   2   3  am  
  3   2   4  1   
  4   3   5  1   
  5   3   6  1   
  6   4   7  ar  
  7   4   8  ar  
  8   5   9  1   
  9   5  26  1   
 10   5  27  1   
 11   6  10  1   
 12   6  28  1   
 13   6  29  1   
 14   7  11  ar  
 15   7  30  1   
 16   8  12  ar  
 17   8  31  1   
 18   9  13  1   
 19   9  32  1   
 20   9  33  1   
 21  10  13  1   
 22  10  34  1   
 23  10  35  1   
 24  11  14  ar  
 25  11  36  1   
 26  12  14  ar  
 27  12  37  1   
 28  13  15  1   
 29  13  16  1   
 30  15  17  1   
 31  16  18  ar  
 32  16  19  ar  
 33  17  20  1   
 34  17  38  1   
 35  17  39  1   
 36  18  21  1   
 37  18  22  ar  
 38  19  20  1   
 39  19  23  ar  
 40  20  40  1   
 41  20  41  1   
 42  21  24  1   
 43  22  25  ar  
 44  22  42  1   
 45  23  25  ar  
 46  23  43  1   
 47  24  44  1   
 48  24  45  1   
 49  24  46  1   
 50  25  47  1   
@<TRIPOS>SUBSTRUCTURE
  1 ****  10 GROUP 4 **** **** 0

# MOE 2024.06 (io_trps.svl 2023.06)
