@<TRIPOS>MOLECULE
NONAME
58 60 1 0 0 
SMALL
USER_CHARGES


@<TRIPOS>ATOM
  1 O        0.9650    -0.4670     2.3250 O.2   1 <1>  -0.5700 
  2 C        1.4310     0.0320     1.3160 C.2   1 <1>   0.7060 
  3 O        0.8420     1.1240     0.8150 O.3   1 <1>  -0.4300 
  4 C        2.5590    -0.5060     0.6230 C.2   1 <1>  -0.1240 
  5 C       -0.3210     1.6630     1.4000 C.3   1 <1>   0.1200 
  6 C        3.5660     0.1770     0.0110 C.2   1 <1>  -0.0380 
  7 C        2.5480    -2.0400     0.5920 C.3   1 <1>   0.3400 
  8 C       -0.7400     2.8790     0.5800 C.3   1 <1>  -0.2400 
  9 N        4.5850    -0.4770    -0.6470 N.pl3 1 <1>  -0.6000 
 10 C        3.7100     1.6900    -0.0200 C.3   1 <1>  -0.1020 
 11 C        3.7800    -2.6510    -0.0780 C.2   1 <1>  -0.1240 
 12 C        1.2550    -2.5360    -0.0770 C.ar  1 <1>  -0.1430 
 13 C        4.6990    -1.8470    -0.6680 C.2   1 <1>  -0.0380 
 14 C        3.8930    -4.0690    -0.0420 C.2   1 <1>   0.4950 
 15 C        0.9770    -2.3140    -1.4240 C.ar  1 <1>   0.0830 
 16 C        0.3190    -3.2180     0.6910 C.ar  1 <1>  -0.1500 
 17 C        5.9120    -2.4130    -1.3940 C.3   1 <1>  -0.0220 
 18 O        3.2120    -4.7990     0.6410 O.2   1 <1>  -0.5700 
 19 C        4.9710    -4.7090    -0.8990 C.3   1 <1>  -0.0990 
 20 O        1.8620    -1.6570    -2.2060 O.3   1 <1>  -0.3630 
 21 C       -0.2050    -2.7730    -1.9880 C.ar  1 <1>  -0.1500 
 22 C       -0.8730    -3.6720     0.1320 C.ar  1 <1>   0.0830 
 23 C        6.2560    -3.8550    -0.9510 C.3   1 <1>   0.0000 
 24 C        1.4570    -0.4000    -2.6970 C.3   1 <1>   0.0400 
 25 C       -1.1270    -3.4460    -1.2090 C.ar  1 <1>  -0.1500 
 26 O       -1.8280    -4.3410     0.8300 O.3   1 <1>  -0.3630 
 27 C        6.9260    -3.8310     0.4360 C.3   1 <1>  -0.2400 
 28 C        7.2440    -4.4800    -1.9490 C.3   1 <1>  -0.2400 
 29 C       -1.6180    -4.6980     2.1780 C.3   1 <1>   0.0400 
 30 H       -0.0980     1.9380     2.4170 H     1 <1>   0.0800 
 31 H       -1.0890     0.9060     1.3880 H     1 <1>   0.0800 
 32 H        2.5650    -2.3780     1.6140 H     1 <1>   0.0800 
 33 H        0.0400     3.6200     0.5910 H     1 <1>   0.0800 
 34 H       -1.6290     3.3110     1.0030 H     1 <1>   0.0800 
 35 H       -0.9480     2.5880    -0.4330 H     1 <1>   0.0800 
 36 H        5.2990     0.0830    -1.1250 H     1 <1>   0.4000 
 37 H        4.7260     1.9660     0.2000 H     1 <1>   0.0800 
 38 H        3.0840     2.1680     0.7080 H     1 <1>   0.0800 
 39 H        3.4520     2.0600    -0.9950 H     1 <1>   0.0800 
 40 H        0.5320    -3.3880     1.7290 H     1 <1>   0.1500 
 41 H        6.7650    -1.7780    -1.2290 H     1 <1>   0.0800 
 42 H        5.6940    -2.3990    -2.4480 H     1 <1>   0.0800 
 43 H        4.5690    -4.8300    -1.8880 H     1 <1>   0.0800 
 44 H        5.1930    -5.6870    -0.5110 H     1 <1>   0.0800 
 45 H       -0.3990    -2.6100    -3.0310 H     1 <1>   0.1500 
 46 H        2.3090     0.0690    -3.1530 H     1 <1>   0.0800 
 47 H        1.1040     0.1980    -1.8750 H     1 <1>   0.0800 
 48 H        0.6770    -0.5400    -3.4240 H     1 <1>   0.0800 
 49 H       -2.0460    -3.8040    -1.6360 H     1 <1>   0.1500 
 50 H        6.2890    -3.3710     1.1710 H     1 <1>   0.0800 
 51 H        7.8470    -3.2750     0.4030 H     1 <1>   0.0800 
 52 H        7.1500    -4.8300     0.7660 H     1 <1>   0.0800 
 53 H        6.8130    -4.5270    -2.9340 H     1 <1>   0.0800 
 54 H        7.5040    -5.4800    -1.6480 H     1 <1>   0.0800 
 55 H        8.1480    -3.8990    -2.0040 H     1 <1>   0.0800 
 56 H       -2.4770    -5.2470     2.5170 H     1 <1>   0.0800 
 57 H       -1.5010    -3.8020     2.7620 H     1 <1>   0.0800 
 58 H       -0.7390    -5.3160     2.2410 H     1 <1>   0.0800 
@<TRIPOS>BOND
  1   1   2  2   
  2   2   3  1   
  3   2   4  1   
  4   3   5  1   
  5   4   6  2   
  6   4   7  1   
  7   5   8  1   
  8   5  30  1   
  9   5  31  1   
 10   6   9  1   
 11   6  10  1   
 12   7  11  1   
 13   7  12  1   
 14   7  32  1   
 15   8  33  1   
 16   8  34  1   
 17   8  35  1   
 18   9  13  1   
 19   9  36  1   
 20  10  37  1   
 21  10  38  1   
 22  10  39  1   
 23  11  13  2   
 24  11  14  1   
 25  12  15  ar  
 26  12  16  ar  
 27  13  17  1   
 28  14  18  2   
 29  14  19  1   
 30  15  20  1   
 31  15  21  ar  
 32  16  22  ar  
 33  16  40  1   
 34  17  23  1   
 35  17  41  1   
 36  17  42  1   
 37  19  23  1   
 38  19  43  1   
 39  19  44  1   
 40  20  24  1   
 41  21  25  ar  
 42  21  45  1   
 43  22  25  ar  
 44  22  26  1   
 45  23  27  1   
 46  23  28  1   
 47  24  46  1   
 48  24  47  1   
 49  24  48  1   
 50  25  49  1   
 51  26  29  1   
 52  27  50  1   
 53  27  51  1   
 54  27  52  1   
 55  28  53  1   
 56  28  54  1   
 57  28  55  1   
 58  29  56  1   
 59  29  57  1   
 60  29  58  1   
@<TRIPOS>SUBSTRUCTURE
  1 ****   7 GROUP 4 **** **** 0

# MOE 2024.06 (io_trps.svl 2023.06)
