@<TRIPOS>MOLECULE
NONAME
49 52 1 0 0 
SMALL
USER_CHARGES


@<TRIPOS>ATOM
  1 O        0.2520     2.1110    -1.9310 O.2   1 <1>  -0.5700 
  2 C       -0.2130     3.1620    -1.5560 C.2   1 <1>   0.5690 
  3 N       -0.8440     3.3280    -0.3500 N.am  1 <1>  -0.5090 
  4 C       -0.0830     4.3700    -2.4750 C.3   1 <1>   0.1810 
  5 C       -1.3930     4.6650     0.0580 C.3   1 <1>   0.3640 
  6 C       -0.7610     2.3040     0.7230 C.3   1 <1>   0.0490 
  7 O        0.1010     5.5460    -1.7330 O.3   1 <1>  -0.5600 
  8 C       -2.9190     4.6060     0.0980 C.ar  1 <1>  -0.1440 
  9 C       -0.9650     5.8570    -0.8490 C.3   1 <1>   0.2610 
 10 C       -1.2340     0.9130     0.4380 C.3   1 <1>  -0.2000 
 11 C       -2.0000     1.7790     1.3840 C.3   1 <1>  -0.2000 
 12 C       -3.6440     3.9680    -0.9010 C.ar  1 <1>   0.1600 
 13 C       -3.6140     5.2030     1.1330 C.ar  1 <1>  -0.1500 
 14 C       -0.6080     7.0740     0.0160 C.2   1 <1>   0.5690 
 15 N       -4.9630     3.8920    -0.9550 N.ar  1 <1>  -0.6200 
 16 C       -4.9900     5.1270     1.0980 C.ar  1 <1>  -0.1500 
 17 O       -1.3280     7.3860     0.9350 O.2   1 <1>  -0.5700 
 18 N        0.5110     7.7870    -0.2630 N.am  1 <1>  -0.7300 
 19 C       -5.6050     4.4710     0.0460 C.ar  1 <1>   0.1600 
 20 C        1.0170     8.9600     0.4820 C.3   1 <1>   0.2840 
 21 C        2.5290     8.8570     0.6480 C.ar  1 <1>   0.1670 
 22 N        3.2510     8.8610    -0.4660 N.ar  1 <1>  -0.6200 
 23 C        3.0730     8.7650     1.9210 C.ar  1 <1>  -0.1500 
 24 C        4.5620     8.7750    -0.3110 C.ar  1 <1>   0.1670 
 25 C        4.4390     8.6760     2.0720 C.ar  1 <1>  -0.1500 
 26 C        5.1940     8.6830     0.9190 C.ar  1 <1>  -0.1500 
 27 C        5.3770     8.7830    -1.5860 C.3   1 <1>  -0.0970 
 28 H       -0.9610     4.4730    -3.0870 H     1 <1>   0.0800 
 29 H        0.7760     4.2450    -3.1100 H     1 <1>   0.0800 
 30 H       -1.0370     4.8580     1.0550 H     1 <1>   0.0800 
 31 H        0.1310     2.4120     1.3190 H     1 <1>   0.1000 
 32 H       -1.7980     6.1470    -1.4630 H     1 <1>   0.0800 
 33 H       -1.6540     0.7010    -0.5300 H     1 <1>   0.1000 
 34 H       -0.6710     0.0870     0.8330 H     1 <1>   0.1000 
 35 H       -1.9660     1.5310     2.4300 H     1 <1>   0.1000 
 36 H       -2.9800     2.0890     1.0710 H     1 <1>   0.1000 
 37 H       -3.1150     3.4870    -1.7060 H     1 <1>   0.1500 
 38 H       -3.1120     5.7160     1.9370 H     1 <1>   0.1500 
 39 H       -5.5820     5.5740     1.8750 H     1 <1>   0.1500 
 40 H        1.1440     7.4630    -1.0040 H     1 <1>   0.3700 
 41 H       -6.6810     4.4200     0.0280 H     1 <1>   0.1500 
 42 H        0.7880     9.8520    -0.0720 H     1 <1>   0.0800 
 43 H        0.5360     9.0210     1.4420 H     1 <1>   0.0800 
 44 H        2.4370     8.7610     2.7870 H     1 <1>   0.1500 
 45 H        4.8970     8.6040     3.0440 H     1 <1>   0.1500 
 46 H        6.2650     8.6170     0.9790 H     1 <1>   0.1500 
 47 H        6.4280     8.7110    -1.3760 H     1 <1>   0.0800 
 48 H        5.1910     9.6940    -2.1240 H     1 <1>   0.0800 
 49 H        5.0870     7.9520    -2.2020 H     1 <1>   0.0800 
@<TRIPOS>BOND
  1   1   2  2   
  2   2   3  am  
  3   2   4  1   
  4   3   5  1   
  5   3   6  1   
  6   4   7  1   
  7   4  28  1   
  8   4  29  1   
  9   5   8  1   
 10   5   9  1   
 11   5  30  1   
 12   6  10  1   
 13   6  11  1   
 14   6  31  1   
 15   7   9  1   
 16   8  12  ar  
 17   8  13  ar  
 18   9  14  1   
 19   9  32  1   
 20  10  11  1   
 21  10  33  1   
 22  10  34  1   
 23  11  35  1   
 24  11  36  1   
 25  12  15  ar  
 26  12  37  1   
 27  13  16  ar  
 28  13  38  1   
 29  14  17  2   
 30  14  18  am  
 31  15  19  ar  
 32  16  19  ar  
 33  16  39  1   
 34  18  20  1   
 35  18  40  1   
 36  19  41  1   
 37  20  21  1   
 38  20  42  1   
 39  20  43  1   
 40  21  22  ar  
 41  21  23  ar  
 42  22  24  ar  
 43  23  25  ar  
 44  23  44  1   
 45  24  26  ar  
 46  24  27  1   
 47  25  26  ar  
 48  25  45  1   
 49  26  46  1   
 50  27  47  1   
 51  27  48  1   
 52  27  49  1   
@<TRIPOS>SUBSTRUCTURE
  1 ****   9 GROUP 4 **** **** 0

# MOE 2024.06 (io_trps.svl 2023.06)
