@<TRIPOS>MOLECULE
NONAME
43 45 1 0 0 
SMALL
USER_CHARGES


@<TRIPOS>ATOM
  1 S        0.6610     0.5010     1.2390 S.o2  1 <1>   1.4470 
  2 O        1.7240    -0.3260     1.7660 O.2   1 <1>  -0.6500 
  3 O        0.0850     1.5340     2.0750 O.2   1 <1>  -0.6500 
  4 N       -0.6060    -0.5160     0.7510 N.am  1 <1>  -0.8490 
  5 C        1.2320     1.2750    -0.3070 C.ar  1 <1>  -0.0090 
  6 C       -0.1780    -1.5560    -0.2050 C.3   1 <1>   0.1960 
  7 C       -1.7990     0.1970     0.2920 C.3   1 <1>   0.1960 
  8 C        2.1270     0.6180    -1.1520 C.ar  1 <1>  -0.1500 
  9 C        0.7680     2.5330    -0.6910 C.ar  1 <1>  -0.1500 
 10 C       -1.2550    -2.6340    -0.4040 C.3   1 <1>  -0.1060 
 11 C       -2.9570    -0.7780     0.0700 C.3   1 <1>  -0.1600 
 12 C        2.5460     1.1880    -2.3430 C.ar  1 <1>  -0.1500 
 13 C        1.1780     3.1220    -1.8760 C.ar  1 <1>  -0.1500 
 14 C       -0.8340    -3.5370    -1.5610 C.2   1 <1>   0.9060 
 15 C       -2.5320    -1.9080    -0.8680 C.3   1 <1>   0.2000 
 16 C       -1.4730    -3.4650     0.8970 C.3   1 <1>  -0.0650 
 17 C        2.0630     2.4350    -2.6830 C.ar  1 <1>   0.1900 
 18 O        0.2560    -3.3580    -2.1180 O.co2 1 <1>  -0.9000 
 19 O       -1.6440    -4.3820    -1.9710 O.co2 1 <1>  -0.9000 
 20 O       -3.5760    -2.8030    -0.9820 O.3   1 <1>  -0.6800 
 21 C       -0.2060    -4.1340     1.4520 C.3   1 <1>  -0.1950 
 22 F        2.4540     2.9830    -3.8010 F     1 <1>  -0.1900 
 23 C        0.3200    -5.4030     0.8630 C.3   1 <1>  -0.2000 
 24 C       -0.3040    -5.4080     2.2300 C.3   1 <1>  -0.2000 
 25 H        0.0300    -1.0970    -1.1580 H     1 <1>   0.0800 
 26 H        0.7350    -2.0210     0.1270 H     1 <1>   0.0800 
 27 H       -2.0980     0.9200     1.0330 H     1 <1>   0.0800 
 28 H       -1.5830     0.7170    -0.6260 H     1 <1>   0.0800 
 29 H        2.4970    -0.3570    -0.8760 H     1 <1>   0.1500 
 30 H        0.0800     3.0600    -0.0500 H     1 <1>   0.1500 
 31 H       -3.7860    -0.2500    -0.3640 H     1 <1>   0.0800 
 32 H       -3.2710    -1.1750     1.0170 H     1 <1>   0.0800 
 33 H        3.2310     0.6740    -2.9940 H     1 <1>   0.1500 
 34 H        0.8230     4.0940    -2.1710 H     1 <1>   0.1500 
 35 H       -2.3610    -1.5030    -1.8520 H     1 <1>   0.0800 
 36 H       -1.8730    -2.8360     1.6700 H     1 <1>   0.0800 
 37 H       -2.2050    -4.2300     0.6990 H     1 <1>   0.0800 
 38 H       -3.1870    -3.6080    -1.4310 H     1 <1>   0.4000 
 39 H        0.5120    -3.4190     1.8180 H     1 <1>   0.1000 
 40 H       -0.2150    -5.8380     0.0340 H     1 <1>   0.1000 
 41 H        1.3860    -5.4980     0.7530 H     1 <1>   0.1000 
 42 H        0.3320    -5.5380     3.0870 H     1 <1>   0.1000 
 43 H       -1.2650    -5.8770     2.3480 H     1 <1>   0.1000 
@<TRIPOS>BOND
  1   1   2  2   
  2   1   3  2   
  3   1   4  am  
  4   1   5  1   
  5   4   6  1   
  6   4   7  1   
  7   5   8  ar  
  8   5   9  ar  
  9   6  10  1   
 10   6  25  1   
 11   6  26  1   
 12   7  11  1   
 13   7  27  1   
 14   7  28  1   
 15   8  12  ar  
 16   8  29  1   
 17   9  13  ar  
 18   9  30  1   
 19  10  14  1   
 20  10  15  1   
 21  10  16  1   
 22  11  15  1   
 23  11  31  1   
 24  11  32  1   
 25  12  17  ar  
 26  12  33  1   
 27  13  17  ar  
 28  13  34  1   
 29  14  18  ar  
 30  14  19  ar  
 31  15  20  1   
 32  15  35  1   
 33  16  21  1   
 34  16  36  1   
 35  16  37  1   
 36  17  22  1   
 37  20  38  1   
 38  21  23  1   
 39  21  24  1   
 40  21  39  1   
 41  23  24  1   
 42  23  40  1   
 43  23  41  1   
 44  24  42  1   
 45  24  43  1   
@<TRIPOS>SUBSTRUCTURE
  1 ****   6 GROUP 4 **** **** 0

# MOE 2024.06 (io_trps.svl 2023.06)
