@<TRIPOS>MOLECULE
NONAME
45 47 1 0 0 
SMALL
USER_CHARGES


@<TRIPOS>ATOM
  1 S        0.9210     0.3320     1.0310 S.o2  1 <1>   1.0900 
  2 O        0.0000    -0.4970     0.2890 O.2   1 <1>  -0.6500 
  3 O        1.3260     0.0080     2.3790 O.2   1 <1>  -0.6500 
  4 C        0.3400     2.0060     0.9700 C.3   1 <1>  -0.0550 
  5 C        2.3530     0.6290     0.0100 C.3   1 <1>  -0.0550 
  6 C        0.8710     2.5980    -0.3370 C.3   1 <1>   0.1900 
  7 C        2.3210     2.0930    -0.4540 C.3   1 <1>  -0.1600 
  8 N        0.8160     4.0770    -0.3250 N.3   1 <1>  -0.8100 
  9 C        1.2980     4.6760    -1.6190 C.3   1 <1>   0.1710 
 10 C       -0.5540     4.5720    -0.0610 C.3   1 <1>   0.0300 
 11 C        1.5920     6.1800    -1.5640 C.2   1 <1>   0.5690 
 12 O        1.5500     6.8310    -2.5800 O.2   1 <1>  -0.5700 
 13 N        1.9070     6.7360    -0.3660 N.am  1 <1>  -0.7300 
 14 C        2.1670     8.1740    -0.1210 C.3   1 <1>   0.1400 
 15 C        3.6660     8.4560    -0.1960 C.3   1 <1>   0.0200 
 16 C        3.9430     9.9070     0.1350 C.2   1 <1>   0.1980 
 17 S        3.6060    11.0970    -1.1200 S.3   1 <1>  -0.0800 
 18 N        4.3900    10.3890     1.2210 N.2   1 <1>  -0.5650 
 19 C        4.1370    12.3640    -0.0350 C.ar  1 <1>   0.0400 
 20 C        4.5130    11.7760     1.1580 C.ar  1 <1>   0.2270 
 21 C        4.1960    13.7270    -0.2660 C.ar  1 <1>  -0.1500 
 22 C        4.9740    12.5960     2.1780 C.ar  1 <1>  -0.1500 
 23 C        4.6580    14.5300     0.7630 C.ar  1 <1>  -0.1500 
 24 C        5.0450    13.9660     1.9780 C.ar  1 <1>  -0.1500 
 25 H        0.7500     2.5560     1.7950 H     1 <1>   0.0800 
 26 H       -0.7310     2.0330     1.0120 H     1 <1>   0.0800 
 27 H        2.3180    -0.0220    -0.8430 H     1 <1>   0.0800 
 28 H        3.2580     0.4290     0.5530 H     1 <1>   0.0800 
 29 H        0.2880     2.2120    -1.1590 H     1 <1>   0.0800 
 30 H        2.6910     2.1600    -1.4610 H     1 <1>   0.0800 
 31 H        2.9500     2.6770     0.1970 H     1 <1>   0.0800 
 32 H        0.5740     4.4980    -2.3940 H     1 <1>   0.0800 
 33 H        2.2170     4.2160    -1.9240 H     1 <1>   0.0800 
 34 H       -0.8660     4.3130     0.9360 H     1 <1>   0.0800 
 35 H       -1.2500     4.1550    -0.7680 H     1 <1>   0.0800 
 36 H       -0.5920     5.6460    -0.1370 H     1 <1>   0.0800 
 37 H        1.8700     6.1110     0.4470 H     1 <1>   0.3700 
 38 H        1.7910     8.4450     0.8510 H     1 <1>   0.0800 
 39 H        1.6510     8.7630    -0.8610 H     1 <1>   0.0800 
 40 H        4.0320     8.2400    -1.1840 H     1 <1>   0.0800 
 41 H        4.1860     7.8380     0.5130 H     1 <1>   0.0800 
 42 H        3.8920    14.1380    -1.2120 H     1 <1>   0.1500 
 43 H        5.2700    12.1510     3.1100 H     1 <1>   0.1500 
 44 H        4.7200    15.5970     0.6270 H     1 <1>   0.1500 
 45 H        5.4020    14.6030     2.7690 H     1 <1>   0.1500 
@<TRIPOS>BOND
  1   1   2  2   
  2   1   3  2   
  3   1   4  1   
  4   1   5  1   
  5   4   6  1   
  6   4  25  1   
  7   4  26  1   
  8   5   7  1   
  9   5  27  1   
 10   5  28  1   
 11   6   7  1   
 12   6   8  1   
 13   6  29  1   
 14   7  30  1   
 15   7  31  1   
 16   8   9  1   
 17   8  10  1   
 18   9  11  1   
 19   9  32  1   
 20   9  33  1   
 21  10  34  1   
 22  10  35  1   
 23  10  36  1   
 24  11  12  2   
 25  11  13  am  
 26  13  14  1   
 27  13  37  1   
 28  14  15  1   
 29  14  38  1   
 30  14  39  1   
 31  15  16  1   
 32  15  40  1   
 33  15  41  1   
 34  16  17  1   
 35  16  18  2   
 36  17  19  1   
 37  18  20  1   
 38  19  20  ar  
 39  19  21  ar  
 40  20  22  ar  
 41  21  23  ar  
 42  21  42  1   
 43  22  24  ar  
 44  22  43  1   
 45  23  24  ar  
 46  23  44  1   
 47  24  45  1   
@<TRIPOS>SUBSTRUCTURE
  1 ****  13 GROUP 4 **** **** 0

# MOE 2024.06 (io_trps.svl 2023.06)
