@<TRIPOS>MOLECULE
NONAME
54 56 1 0 0 
SMALL
USER_CHARGES


@<TRIPOS>ATOM
  1 S       -0.4190     0.2880    -0.1330 S.o2  1 <1>   1.4470 
  2 O       -1.2390     0.8620     0.9090 O.2   1 <1>  -0.6500 
  3 O       -0.6300     0.6510    -1.5160 O.2   1 <1>  -0.6500 
  4 N        1.1450     0.7350     0.2830 N.am  1 <1>  -0.9140 
  5 C       -0.3890    -1.5210     0.0220 C.ar  1 <1>  -0.0090 
  6 C        1.6380     1.9540    -0.3410 C.3   1 <1>   0.1960 
  7 C       -1.3430    -2.2000     0.7710 C.ar  1 <1>  -0.1500 
  8 C        0.5860    -2.2790    -0.6150 C.ar  1 <1>  -0.1500 
  9 C        0.9610     3.1910     0.2590 C.3   1 <1>  -0.1600 
 10 C       -1.3230    -3.5790     0.8780 C.ar  1 <1>  -0.1500 
 11 C        0.6080    -3.6580    -0.5090 C.ar  1 <1>  -0.1500 
 12 C        1.5770     4.4820    -0.2940 C.3   1 <1>  -0.2400 
 13 C       -0.3520    -4.3410     0.2330 C.ar  1 <1>   0.0860 
 14 C       -0.3300    -5.7870     0.3280 C.2   1 <1>   0.5440 
 15 O        0.6310    -6.3440     0.8210 O.2   1 <1>  -0.5700 
 16 N       -1.3720    -6.5540    -0.1330 N.am  1 <1>  -0.6600 
 17 C       -2.5240    -6.0800    -0.9430 C.3   1 <1>   0.1400 
 18 C       -1.3890    -8.0380    -0.0470 C.3   1 <1>   0.1400 
 19 C       -3.5290    -7.2250    -0.8570 C.3   1 <1>   0.2000 
 20 C       -2.6400    -8.4720    -0.8220 C.3   1 <1>  -0.0800 
 21 O       -4.2030    -7.1010     0.3490 O.3   1 <1>  -0.6800 
 22 C       -3.3050    -9.7450    -0.2680 C.3   1 <1>   0.0210 
 23 C       -2.3360   -10.9110    -0.2950 C.2   1 <1>   0.1080 
 24 N       -1.8660   -11.4090    -1.3960 N.2   1 <1>  -0.7070 
 25 C       -1.8400   -11.5600     0.8300 C.2   1 <1>  -0.1500 
 26 N       -1.0480   -12.4020    -0.9980 N.pl3 1 <1>   0.3000 
 27 C       -1.0140   -12.5120     0.3470 C.2   1 <1>  -0.3320 
 28 C       -0.1820   -13.5350     1.0980 C.3   1 <1>  -0.0600 
 29 H        1.0890     0.9070     1.2850 H     1 <1>   0.4200 
 30 H        2.6990     2.0190    -0.1650 H     1 <1>   0.0800 
 31 H        1.4880     1.9200    -1.4080 H     1 <1>   0.0800 
 32 H       -2.1100    -1.6390     1.2810 H     1 <1>   0.1500 
 33 H        1.3400    -1.7780    -1.2000 H     1 <1>   0.1500 
 34 H       -0.0890     3.1880     0.0200 H     1 <1>   0.0800 
 35 H        1.0710     3.1840     1.3290 H     1 <1>   0.0800 
 36 H       -2.0670    -4.0800     1.4730 H     1 <1>   0.1500 
 37 H        1.3790    -4.2250    -1.0030 H     1 <1>   0.1500 
 38 H        1.4620     4.5250    -1.3630 H     1 <1>   0.0800 
 39 H        2.6250     4.5360    -0.0540 H     1 <1>   0.0800 
 40 H        1.0840     5.3360     0.1360 H     1 <1>   0.0800 
 41 H       -2.9410    -5.1600    -0.5730 H     1 <1>   0.0800 
 42 H       -2.2040    -5.9480    -1.9620 H     1 <1>   0.0800 
 43 H       -0.4960    -8.4590    -0.4810 H     1 <1>   0.0800 
 44 H       -1.4490    -8.3310     0.9870 H     1 <1>   0.0800 
 45 H       -4.2470    -7.2280    -1.6580 H     1 <1>   0.0800 
 46 H       -2.3290    -8.6770    -1.8320 H     1 <1>   0.0800 
 47 H       -3.5390    -6.9890     1.0590 H     1 <1>   0.4000 
 48 H       -4.1600    -9.9950    -0.8690 H     1 <1>   0.0800 
 49 H       -3.6410    -9.5910     0.7410 H     1 <1>   0.0800 
 50 H       -2.0780   -11.3310     1.8530 H     1 <1>   0.1500 
 51 H       -0.5300   -12.9830    -1.6670 H     1 <1>   0.2700 
 52 H       -0.3250   -13.4200     2.1580 H     1 <1>   0.0800 
 53 H        0.8620   -13.4000     0.8770 H     1 <1>   0.0800 
 54 H       -0.4760   -14.5310     0.8190 H     1 <1>   0.0800 
@<TRIPOS>BOND
  1   1   2  2   
  2   1   3  2   
  3   1   4  am  
  4   1   5  1   
  5   4   6  1   
  6   4  29  1   
  7   5   7  ar  
  8   5   8  ar  
  9   6   9  1   
 10   6  30  1   
 11   6  31  1   
 12   7  10  ar  
 13   7  32  1   
 14   8  11  ar  
 15   8  33  1   
 16   9  12  1   
 17   9  34  1   
 18   9  35  1   
 19  10  13  ar  
 20  10  36  1   
 21  11  13  ar  
 22  11  37  1   
 23  12  38  1   
 24  12  39  1   
 25  12  40  1   
 26  13  14  1   
 27  14  15  2   
 28  14  16  am  
 29  16  17  1   
 30  16  18  1   
 31  17  19  1   
 32  17  41  1   
 33  17  42  1   
 34  18  20  1   
 35  18  43  1   
 36  18  44  1   
 37  19  20  1   
 38  19  21  1   
 39  19  45  1   
 40  20  22  1   
 41  20  46  1   
 42  21  47  1   
 43  22  23  1   
 44  22  48  1   
 45  22  49  1   
 46  23  24  2   
 47  23  25  1   
 48  24  26  1   
 49  25  27  2   
 50  25  50  1   
 51  26  27  1   
 52  26  51  1   
 53  27  28  1   
 54  28  52  1   
 55  28  53  1   
 56  28  54  1   
@<TRIPOS>SUBSTRUCTURE
  1 ****  14 GROUP 4 **** **** 0

# MOE 2024.06 (io_trps.svl 2023.06)
