@<TRIPOS>MOLECULE
NONAME
25 25 1 0 0 
SMALL
USER_CHARGES


@<TRIPOS>ATOM
  1 O        0.9600    -0.5420    -0.9470 O.co2 1 <1>  -0.9000 
  2 C        1.5770    -0.7880     0.0960 C.2   1 <1>   0.9060 
  3 O        2.2440     0.0650     0.6900 O.co2 1 <1>  -0.9000 
  4 C        1.5450    -2.2060     0.6560 C.3   1 <1>  -0.1860 
  5 C        2.1490    -3.1710    -0.3800 C.3   1 <1>  -0.0170 
  6 C        0.1250    -2.6240     1.0940 C.3   1 <1>  -0.2400 
  7 C        2.2960    -4.6020     0.1470 C.ar  1 <1>  -0.1440 
  8 C        1.5050    -5.6710    -0.2760 C.ar  1 <1>   0.1660 
  9 C        3.2750    -4.8380     1.0910 C.ar  1 <1>  -0.1500 
 10 N        1.6340    -6.9140     0.1680 N.ar  1 <1>  -0.6200 
 11 C        0.4100    -5.4820    -1.3090 C.3   1 <1>  -0.0970 
 12 C        3.4130    -6.1240     1.5610 C.ar  1 <1>  -0.1500 
 13 C        2.5780    -7.1100     1.0710 C.ar  1 <1>   0.1600 
 14 H        2.1740    -2.2040     1.5270 H     1 <1>   0.0800 
 15 H        3.1250    -2.8060    -0.6510 H     1 <1>   0.0800 
 16 H        1.5580    -3.1350    -1.2760 H     1 <1>   0.0800 
 17 H       -0.5400    -2.6040     0.2480 H     1 <1>   0.0800 
 18 H       -0.2430    -1.9270     1.8260 H     1 <1>   0.0800 
 19 H        0.1270    -3.6090     1.5240 H     1 <1>   0.0800 
 20 H        3.9060    -4.0420     1.4480 H     1 <1>   0.1500 
 21 H       -0.2390    -4.6770    -1.0210 H     1 <1>   0.0800 
 22 H       -0.1820    -6.3750    -1.4010 H     1 <1>   0.0800 
 23 H        0.8480    -5.2610    -2.2640 H     1 <1>   0.0800 
 24 H        4.1590    -6.3600     2.2970 H     1 <1>   0.1500 
 25 H        2.6920    -8.1130     1.4420 H     1 <1>   0.1500 
@<TRIPOS>BOND
  1   1   2  ar  
  2   2   3  ar  
  3   2   4  1   
  4   4   5  1   
  5   4   6  1   
  6   4  14  1   
  7   5   7  1   
  8   5  15  1   
  9   5  16  1   
 10   6  17  1   
 11   6  18  1   
 12   6  19  1   
 13   7   8  ar  
 14   7   9  ar  
 15   8  10  ar  
 16   8  11  1   
 17   9  12  ar  
 18   9  20  1   
 19  10  13  ar  
 20  11  21  1   
 21  11  22  1   
 22  11  23  1   
 23  12  13  ar  
 24  12  24  1   
 25  13  25  1   
@<TRIPOS>SUBSTRUCTURE
  1 ****   7 GROUP 4 **** **** 0

# MOE 2024.06 (io_trps.svl 2023.06)
