@<TRIPOS>MOLECULE
NONAME
28 29 1 0 0 
SMALL
USER_CHARGES


@<TRIPOS>ATOM
  1 N       -4.2680     3.0870     0.2510 N.4   1 <1>  -0.9590 
  2 C       -5.4320     2.4770    -0.4440 C.3   1 <1>   0.4230 
  3 C       -2.9580     2.5190    -0.2400 C.3   1 <1>   0.3430 
  4 C       -4.4550     4.5560     0.1020 C.3   1 <1>   0.3430 
  5 C       -5.5380     0.9370    -0.2090 C.3   1 <1>   0.3430 
  6 C       -6.5900     3.3390     0.0330 C.3   1 <1>  -0.1600 
  7 C       -2.9850     0.9570    -0.4220 C.3   1 <1>   0.4230 
  8 C       -5.9710     4.7370     0.1980 C.3   1 <1>  -0.1600 
  9 N       -4.2100     0.2870     0.1500 N.4   1 <1>  -0.9060 
 10 C       -1.7730     0.3040     0.2320 C.3   1 <1>  -0.2400 
 11 H       -4.3680     2.9040     1.2590 H     1 <1>   0.4500 
 12 H       -5.3200     2.6440    -1.5040 H     1 <1>   0.0800 
 13 H       -2.7000     2.9630    -1.1880 H     1 <1>   0.0800 
 14 H       -2.1720     2.7830     0.4500 H     1 <1>   0.0800 
 15 H       -3.9380     5.1090     0.8730 H     1 <1>   0.0800 
 16 H       -4.1100     4.8850    -0.8660 H     1 <1>   0.0800 
 17 H       -5.9350     0.4890    -1.1060 H     1 <1>   0.0800 
 18 H       -6.2520     0.7480     0.5770 H     1 <1>   0.0800 
 19 H       -7.3990     3.3430    -0.6790 H     1 <1>   0.0800 
 20 H       -6.9650     2.9860     0.9790 H     1 <1>   0.0800 
 21 H       -2.9410     0.7530    -1.4810 H     1 <1>   0.0800 
 22 H       -6.2410     5.1670     1.1480 H     1 <1>   0.0800 
 23 H       -6.3040     5.4080    -0.5770 H     1 <1>   0.0800 
 24 H       -4.2180    -0.7010    -0.1510 H     1 <1>   0.4500 
 25 H       -4.1090     0.2400     1.1730 H     1 <1>   0.4500 
 26 H       -1.7510     0.4810     1.2940 H     1 <1>   0.0800 
 27 H       -0.8670     0.7080    -0.1890 H     1 <1>   0.0800 
 28 H       -1.7630    -0.7570     0.0490 H     1 <1>   0.0800 
@<TRIPOS>BOND
  1   1   2  1   
  2   1   3  1   
  3   1   4  1   
  4   1  11  1   
  5   2   5  1   
  6   2   6  1   
  7   2  12  1   
  8   3   7  1   
  9   3  13  1   
 10   3  14  1   
 11   4   8  1   
 12   4  15  1   
 13   4  16  1   
 14   5   9  1   
 15   5  17  1   
 16   5  18  1   
 17   6   8  1   
 18   6  19  1   
 19   6  20  1   
 20   7   9  1   
 21   7  10  1   
 22   7  21  1   
 23   8  22  1   
 24   8  23  1   
 25   9  24  1   
 26   9  25  1   
 27  10  26  1   
 28  10  27  1   
 29  10  28  1   
@<TRIPOS>SUBSTRUCTURE
  1 ****   1 GROUP 4 **** **** 0

# MOE 2024.06 (io_trps.svl 2023.06)
