@<TRIPOS>MOLECULE
NONAME
52 54 1 0 0 
SMALL
USER_CHARGES


@<TRIPOS>ATOM
  1 O       -1.0410     1.5850     2.7250 O.3   1 <1>  -0.5600 
  2 C        0.0950     1.4920     1.9180 C.3   1 <1>   0.1200 
  3 C       -2.1640     1.9370     1.9680 C.3   1 <1>   0.1200 
  4 C       -0.2080     2.3140     0.6690 C.3   1 <1>   0.2890 
  5 C       -1.7020     2.0900     0.5130 C.3   1 <1>  -0.0800 
  6 N        0.0390     3.7510     0.9530 N.pl3 1 <1>  -0.8690 
  7 C       -2.0030     0.8360    -0.3290 C.3   1 <1>  -0.0170 
  8 C        0.4940     4.6880     0.0910 C.ar  1 <1>   0.4100 
  9 C       -3.4990     0.6280    -0.5060 C.ar  1 <1>  -0.1430 
 10 N        0.6980     4.3160    -1.1700 N.ar  1 <1>  -0.6200 
 11 C        0.7270     5.9830     0.5260 C.ar  1 <1>  -0.1500 
 12 C       -4.1870    -0.3610     0.1680 C.ar  1 <1>  -0.1500 
 13 C       -4.2470     1.4190    -1.3550 C.ar  1 <1>  -0.1500 
 14 C        1.1350     5.2320    -1.9880 C.ar  1 <1>   0.7710 
 15 C        1.1880     6.9250    -0.3600 C.ar  1 <1>   0.4610 
 16 C       -5.5500    -0.5030    -0.0290 C.ar  1 <1>   0.1600 
 17 C       -5.6080     1.1930    -1.4810 C.ar  1 <1>   0.1600 
 18 N        1.3820     6.5030    -1.6190 N.ar  1 <1>  -0.1790 
 19 N        1.3340     4.8600    -3.2570 N.pl3 1 <1>  -0.9000 
 20 N        1.4470     8.2370    -0.0720 N.pl3 1 <1>  -0.8380 
 21 N       -6.2770     0.2510    -0.8370 N.ar  1 <1>  -0.6200 
 22 C        2.6880     8.9440    -0.5110 C.3   1 <1>   0.2090 
 23 C        0.6300     9.0040     0.9150 C.3   1 <1>   0.2090 
 24 C        3.8560     8.4750     0.3500 C.3   1 <1>  -0.2400 
 25 C       -0.3020     9.9420     0.1570 C.3   1 <1>  -0.2400 
 26 H        0.9530     1.8550     2.4560 H     1 <1>   0.0800 
 27 H        0.2340     0.4550     1.6680 H     1 <1>   0.0800 
 28 H       -2.9190     1.1820     2.0950 H     1 <1>   0.0800 
 29 H       -2.5310     2.8730     2.3510 H     1 <1>   0.0800 
 30 H        0.3670     1.9840    -0.1800 H     1 <1>   0.0800 
 31 H       -2.1730     2.9390     0.0490 H     1 <1>   0.0800 
 32 H       -0.1880     3.9890     1.9250 H     1 <1>   0.4000 
 33 H       -1.5710    -0.0360     0.1310 H     1 <1>   0.0800 
 34 H       -1.5560     0.9430    -1.3030 H     1 <1>   0.0800 
 35 H        0.5580     6.2270     1.5550 H     1 <1>   0.1500 
 36 H       -3.6780    -1.0220     0.8460 H     1 <1>   0.1500 
 37 H       -3.7870     2.2090    -1.9200 H     1 <1>   0.1500 
 38 H       -6.0700    -1.2790     0.5060 H     1 <1>   0.1500 
 39 H       -6.1750     1.8190    -2.1470 H     1 <1>   0.1500 
 40 H        1.6530     7.1820    -2.3100 H     1 <1>   0.4570 
 41 H        1.6950     5.4160    -4.0330 H     1 <1>   0.4000 
 42 H        1.1340     3.8840    -3.4980 H     1 <1>   0.4000 
 43 H        2.8970     8.7440    -1.5480 H     1 <1>   0.0800 
 44 H        2.5670    10.0100    -0.4030 H     1 <1>   0.0800 
 45 H        0.0380     8.3440     1.5250 H     1 <1>   0.0800 
 46 H        1.2730     9.5690     1.5710 H     1 <1>   0.0800 
 47 H        4.0240     7.4210     0.2290 H     1 <1>   0.0800 
 48 H        3.6670     8.6900     1.3860 H     1 <1>   0.0800 
 49 H        4.7510     8.9950     0.0580 H     1 <1>   0.0800 
 50 H       -0.9580     9.3820    -0.4840 H     1 <1>   0.0800 
 51 H        0.2580    10.6480    -0.4290 H     1 <1>   0.0800 
 52 H       -0.9040    10.4930     0.8580 H     1 <1>   0.0800 
@<TRIPOS>BOND
  1   1   2  1   
  2   1   3  1   
  3   2   4  1   
  4   2  26  1   
  5   2  27  1   
  6   3   5  1   
  7   3  28  1   
  8   3  29  1   
  9   4   5  1   
 10   4   6  1   
 11   4  30  1   
 12   5   7  1   
 13   5  31  1   
 14   6   8  1   
 15   6  32  1   
 16   7   9  1   
 17   7  33  1   
 18   7  34  1   
 19   8  10  ar  
 20   8  11  ar  
 21   9  12  ar  
 22   9  13  ar  
 23  10  14  ar  
 24  11  15  ar  
 25  11  35  1   
 26  12  16  ar  
 27  12  36  1   
 28  13  17  ar  
 29  13  37  1   
 30  14  18  ar  
 31  14  19  1   
 32  15  18  ar  
 33  15  20  1   
 34  16  21  ar  
 35  16  38  1   
 36  17  21  ar  
 37  17  39  1   
 38  18  40  1   
 39  19  41  1   
 40  19  42  1   
 41  20  22  1   
 42  20  23  1   
 43  22  24  1   
 44  22  43  1   
 45  22  44  1   
 46  23  25  1   
 47  23  45  1   
 48  23  46  1   
 49  24  47  1   
 50  24  48  1   
 51  24  49  1   
 52  25  50  1   
 53  25  51  1   
 54  25  52  1   
@<TRIPOS>SUBSTRUCTURE
  1 ****   6 GROUP 4 **** **** 0

# MOE 2024.06 (io_trps.svl 2023.06)
