@<TRIPOS>MOLECULE
NONAME
44 45 1 0 0 
SMALL
USER_CHARGES


@<TRIPOS>ATOM
  1 O       -0.5070     2.7620     0.9270 O.2   1 <1>  -0.5700 
  2 C        0.1040     3.0290    -0.0850 C.2   1 <1>   0.5440 
  3 N       -0.6240     3.0630    -1.2250 N.am  1 <1>  -0.8000 
  4 C        1.5290     3.3160    -0.0680 C.ar  1 <1>   0.0860 
  5 C        2.3310     3.1630    -1.2010 C.ar  1 <1>  -0.1500 
  6 C        2.1540     3.7610     1.0970 C.ar  1 <1>  -0.1500 
  7 C        3.6830     3.4540    -1.1760 C.ar  1 <1>  -0.1500 
  8 C        3.5050     4.0530     1.1290 C.ar  1 <1>  -0.1500 
  9 C        4.2790     3.9030    -0.0090 C.ar  1 <1>  -0.1430 
 10 C        5.7580     4.2410     0.0270 C.3   1 <1>   0.2840 
 11 N        5.8840     5.6890    -0.1980 N.am  1 <1>  -0.7300 
 12 C        6.7990     6.4880     0.3990 C.2   1 <1>   0.5690 
 13 O        7.6580     6.0400     1.1180 O.2   1 <1>  -0.5700 
 14 C        6.7310     7.9960     0.1700 C.3   1 <1>  -0.0190 
 15 C        5.3800     8.5830     0.6240 C.3   1 <1>  -0.1600 
 16 C        7.0460     8.3730    -1.2980 C.3   1 <1>  -0.1600 
 17 C        5.3530    10.1230     0.5370 C.3   1 <1>   0.2000 
 18 C        6.4870     9.7470    -1.7200 C.3   1 <1>  -0.1600 
 19 O        4.0430    10.5130     0.2050 O.3   1 <1>  -0.5600 
 20 C        6.3370    10.6870    -0.5210 C.3   1 <1>   0.2000 
 21 C        3.1510    10.5620     1.2750 C.3   1 <1>   0.0400 
 22 O        5.8610    11.8960    -0.9840 O.3   1 <1>  -0.6800 
 23 H       -1.6270     2.8810    -1.1640 H     1 <1>   0.3700 
 24 H       -0.2730     3.4120    -2.1140 H     1 <1>   0.3700 
 25 H        1.8940     2.8050    -2.1150 H     1 <1>   0.1500 
 26 H        1.5630     3.8780     1.9900 H     1 <1>   0.1500 
 27 H        4.2710     3.3270    -2.0690 H     1 <1>   0.1500 
 28 H        3.9530     4.4010     2.0450 H     1 <1>   0.1500 
 29 H        6.2880     3.7100    -0.7450 H     1 <1>   0.0800 
 30 H        6.1830     3.9740     0.9800 H     1 <1>   0.0800 
 31 H        5.1360     6.0970    -0.7600 H     1 <1>   0.3700 
 32 H        7.4940     8.4350     0.7910 H     1 <1>   0.0800 
 33 H        5.1850     8.2830     1.6390 H     1 <1>   0.0800 
 34 H        4.6020     8.1810    -0.0020 H     1 <1>   0.0800 
 35 H        8.1160     8.3700    -1.4220 H     1 <1>   0.0800 
 36 H        6.6500     7.6310    -1.9700 H     1 <1>   0.0800 
 37 H        5.6150    10.5540     1.4890 H     1 <1>   0.0800 
 38 H        5.5170     9.6090    -2.1660 H     1 <1>   0.0800 
 39 H        7.1360    10.1910    -2.4550 H     1 <1>   0.0800 
 40 H        7.3040    10.8600    -0.0800 H     1 <1>   0.0800 
 41 H        2.1920    10.8710     0.8970 H     1 <1>   0.0800 
 42 H        3.5020    11.2780     1.9980 H     1 <1>   0.0800 
 43 H        3.0640     9.5850     1.7190 H     1 <1>   0.0800 
 44 H        4.8800    11.8340    -0.9290 H     1 <1>   0.4000 
@<TRIPOS>BOND
  1   1   2  2   
  2   2   3  am  
  3   2   4  1   
  4   3  23  1   
  5   3  24  1   
  6   4   5  ar  
  7   4   6  ar  
  8   5   7  ar  
  9   5  25  1   
 10   6   8  ar  
 11   6  26  1   
 12   7   9  ar  
 13   7  27  1   
 14   8   9  ar  
 15   8  28  1   
 16   9  10  1   
 17  10  11  1   
 18  10  29  1   
 19  10  30  1   
 20  11  12  am  
 21  11  31  1   
 22  12  13  2   
 23  12  14  1   
 24  14  15  1   
 25  14  16  1   
 26  14  32  1   
 27  15  17  1   
 28  15  33  1   
 29  15  34  1   
 30  16  18  1   
 31  16  35  1   
 32  16  36  1   
 33  17  19  1   
 34  17  20  1   
 35  17  37  1   
 36  18  20  1   
 37  18  38  1   
 38  18  39  1   
 39  19  21  1   
 40  20  22  1   
 41  20  40  1   
 42  21  41  1   
 43  21  42  1   
 44  21  43  1   
 45  22  44  1   
@<TRIPOS>SUBSTRUCTURE
  1 ****  11 GROUP 4 **** **** 0

# MOE 2024.06 (io_trps.svl 2023.06)
