@<TRIPOS>MOLECULE
NONAME
42 43 1 0 0 
SMALL
USER_CHARGES


@<TRIPOS>ATOM
  1 F       -3.3560    -1.2900     2.0230 F     1 <1>  -0.1900 
  2 C       -3.2680    -0.2300     1.2620 C.ar  1 <1>   0.1900 
  3 C       -3.4750    -0.3660    -0.1000 C.ar  1 <1>  -0.1440 
  4 C       -2.9770     0.9840     1.8550 C.ar  1 <1>  -0.1500 
  5 C       -3.3790     0.7710    -0.8880 C.ar  1 <1>  -0.1500 
  6 C       -3.7960    -1.7180    -0.7020 C.3   1 <1>   0.4870 
  7 C       -2.8900     2.1110     1.0560 C.ar  1 <1>  -0.1500 
  8 C       -3.0920     2.0050    -0.3200 C.ar  1 <1>   0.0830 
  9 N       -5.2050    -2.0790    -0.4050 N.4   1 <1>  -0.9590 
 10 O       -3.0280     3.0550    -1.1740 O.3   1 <1>  -0.3630 
 11 C       -5.5060    -3.4730    -0.8190 C.3   1 <1>   0.5240 
 12 C       -6.2190    -1.0830    -0.8680 C.3   1 <1>   0.3430 
 13 C       -2.7080     4.3530    -0.7230 C.3   1 <1>   0.0400 
 14 C       -5.1110    -4.3540     0.3540 C.2   1 <1>   0.0460 
 15 C       -7.5400    -1.2130    -0.0950 C.3   1 <1>   0.1200 
 16 N       -5.4440    -3.9600     1.6010 N.2   1 <1>  -0.5650 
 17 C       -4.4250    -5.5210     0.3800 C.2   1 <1>  -0.3320 
 18 O       -8.4920    -0.4540    -0.7520 O.3   1 <1>  -0.6800 
 19 C       -4.9650    -4.8930     2.3590 C.2   1 <1>   0.0360 
 20 N       -4.3340    -5.8720     1.6790 N.pl3 1 <1>   0.0330 
 21 C       -3.8310    -6.3690    -0.7330 C.3   1 <1>  -0.0600 
 22 H       -2.8230     1.0440     2.9180 H     1 <1>   0.1500 
 23 H       -3.5210     0.7290    -1.9540 H     1 <1>   0.1500 
 24 H       -3.1340    -2.4570    -0.2780 H     1 <1>   0.0800 
 25 H       -3.6360    -1.6860    -1.7670 H     1 <1>   0.0800 
 26 H       -2.6650     3.0550     1.5170 H     1 <1>   0.1500 
 27 H       -5.2540    -2.1510     0.6310 H     1 <1>   0.4500 
 28 H       -4.9670    -3.7480    -1.7090 H     1 <1>   0.0800 
 29 H       -6.5620    -3.5930    -0.9940 H     1 <1>   0.0800 
 30 H       -6.4100    -1.2190    -1.9190 H     1 <1>   0.0800 
 31 H       -5.8490    -0.0830    -0.7170 H     1 <1>   0.0800 
 32 H       -2.7020     5.0110    -1.5730 H     1 <1>   0.0800 
 33 H       -1.7330     4.3370    -0.2690 H     1 <1>   0.0800 
 34 H       -3.4560     4.6750    -0.0200 H     1 <1>   0.0800 
 35 H       -7.4350    -0.8330     0.9070 H     1 <1>   0.0800 
 36 H       -7.8930    -2.2290    -0.0700 H     1 <1>   0.0800 
 37 H       -9.3430    -0.4420    -0.2640 H     1 <1>   0.4000 
 38 H       -5.0490    -4.9090     3.4330 H     1 <1>   0.1500 
 39 H       -3.8860    -6.7050     2.0770 H     1 <1>   0.2700 
 40 H       -4.0170    -5.9300    -1.6960 H     1 <1>   0.0800 
 41 H       -4.2670    -7.3540    -0.7210 H     1 <1>   0.0800 
 42 H       -2.7670    -6.4650    -0.6010 H     1 <1>   0.0800 
@<TRIPOS>BOND
  1   1   2  1   
  2   2   3  ar  
  3   2   4  ar  
  4   3   5  ar  
  5   3   6  1   
  6   4   7  ar  
  7   4  22  1   
  8   5   8  ar  
  9   5  23  1   
 10   6   9  1   
 11   6  24  1   
 12   6  25  1   
 13   7   8  ar  
 14   7  26  1   
 15   8  10  1   
 16   9  11  1   
 17   9  12  1   
 18   9  27  1   
 19  10  13  1   
 20  11  14  1   
 21  11  28  1   
 22  11  29  1   
 23  12  15  1   
 24  12  30  1   
 25  12  31  1   
 26  13  32  1   
 27  13  33  1   
 28  13  34  1   
 29  14  16  1   
 30  14  17  2   
 31  15  18  1   
 32  15  35  1   
 33  15  36  1   
 34  16  19  2   
 35  17  20  1   
 36  17  21  1   
 37  18  37  1   
 38  19  20  1   
 39  19  38  1   
 40  20  39  1   
 41  21  40  1   
 42  21  41  1   
 43  21  42  1   
@<TRIPOS>SUBSTRUCTURE
  1 ****   6 GROUP 4 **** **** 0

# MOE 2024.06 (io_trps.svl 2023.06)
