@<TRIPOS>MOLECULE
NONAME
47 48 1 0 0 
SMALL
USER_CHARGES


@<TRIPOS>ATOM
  1 O       -0.5150    -1.0650     0.3630 O.3   1 <1>  -0.2800 
  2 C       -1.6560    -1.6780     0.6120 C.2   1 <1>  -0.0400 
  3 C       -0.5160     0.0760     1.0190 C.2   1 <1>  -0.0400 
  4 C       -2.4160    -0.9280     1.4420 C.2   1 <1>  -0.1500 
  5 C       -1.8900    -3.0300    -0.0450 C.3   1 <1>   0.1000 
  6 C       -1.6650     0.2230     1.7090 C.2   1 <1>  -0.1500 
  7 C        0.6920     0.9780     0.9030 C.3   1 <1>  -0.0600 
  8 C       -3.3780    -3.4130     0.0080 C.3   1 <1>  -0.1600 
  9 C       -1.0010    -4.0840     0.6310 C.3   1 <1>  -0.2400 
 10 C       -3.6670    -4.6820    -0.7940 C.3   1 <1>   0.3430 
 11 N       -5.0980    -5.0540    -0.6620 N.4   1 <1>  -0.9590 
 12 C       -5.2940    -6.5060    -0.9180 C.3   1 <1>   0.5240 
 13 C       -6.0410    -4.1820    -1.4280 C.3   1 <1>   0.3430 
 14 C       -4.9840    -7.2100     0.3950 C.2   1 <1>   0.0460 
 15 C       -7.4790    -4.2780    -0.8950 C.3   1 <1>   0.1200 
 16 N       -5.3750    -6.6370     1.5560 N.2   1 <1>  -0.5650 
 17 C       -4.3290    -8.3720     0.6250 C.2   1 <1>  -0.3320 
 18 O       -8.2890    -3.5340    -1.7320 O.3   1 <1>  -0.6800 
 19 C       -4.9620    -7.4630     2.4620 C.2   1 <1>   0.0360 
 20 N       -4.3190    -8.5390     1.9630 N.pl3 1 <1>   0.0330 
 21 C       -3.6960    -9.3780    -0.3230 C.3   1 <1>  -0.0600 
 22 H       -3.3910    -1.1270     1.8460 H     1 <1>   0.1500 
 23 H       -1.5920    -2.9340    -1.0760 H     1 <1>   0.0800 
 24 H       -1.9730     1.0380     2.3400 H     1 <1>   0.1500 
 25 H        1.5660     0.4600     1.2550 H     1 <1>   0.0800 
 26 H        0.5510     1.8670     1.4890 H     1 <1>   0.0800 
 27 H        0.8400     1.2550    -0.1250 H     1 <1>   0.0800 
 28 H       -3.9460    -2.5930    -0.3940 H     1 <1>   0.0800 
 29 H       -3.6620    -3.5630     1.0350 H     1 <1>   0.0800 
 30 H       -1.2870    -4.2130     1.6600 H     1 <1>   0.0800 
 31 H        0.0240    -3.7550     0.6110 H     1 <1>   0.0800 
 32 H       -1.0510    -5.0310     0.1280 H     1 <1>   0.0800 
 33 H       -3.0560    -5.4810    -0.4030 H     1 <1>   0.0800 
 34 H       -3.4120    -4.5340    -1.8310 H     1 <1>   0.0800 
 35 H       -5.3190    -5.0050     0.3530 H     1 <1>   0.4500 
 36 H       -4.6530    -6.8580    -1.7080 H     1 <1>   0.0800 
 37 H       -6.3200    -6.7080    -1.1770 H     1 <1>   0.0800 
 38 H       -6.0310    -4.4610    -2.4690 H     1 <1>   0.0800 
 39 H       -5.7300    -3.1540    -1.3510 H     1 <1>   0.0800 
 40 H       -7.5480    -3.8640     0.0970 H     1 <1>   0.0800 
 41 H       -7.8420    -5.2910    -0.9010 H     1 <1>   0.0800 
 42 H       -9.2190    -3.5210    -1.4190 H     1 <1>   0.4000 
 43 H       -5.1080    -7.3290     3.5220 H     1 <1>   0.1500 
 44 H       -3.9180    -9.3170     2.4980 H     1 <1>   0.2700 
 45 H       -3.8180    -9.0760    -1.3470 H     1 <1>   0.0800 
 46 H       -4.1560   -10.3440    -0.1990 H     1 <1>   0.0800 
 47 H       -2.6440    -9.4720    -0.1180 H     1 <1>   0.0800 
@<TRIPOS>BOND
  1   1   2  1   
  2   1   3  1   
  3   2   4  2   
  4   2   5  1   
  5   3   6  2   
  6   3   7  1   
  7   4   6  1   
  8   4  22  1   
  9   5   8  1   
 10   5   9  1   
 11   5  23  1   
 12   6  24  1   
 13   7  25  1   
 14   7  26  1   
 15   7  27  1   
 16   8  10  1   
 17   8  28  1   
 18   8  29  1   
 19   9  30  1   
 20   9  31  1   
 21   9  32  1   
 22  10  11  1   
 23  10  33  1   
 24  10  34  1   
 25  11  12  1   
 26  11  13  1   
 27  11  35  1   
 28  12  14  1   
 29  12  36  1   
 30  12  37  1   
 31  13  15  1   
 32  13  38  1   
 33  13  39  1   
 34  14  16  1   
 35  14  17  2   
 36  15  18  1   
 37  15  40  1   
 38  15  41  1   
 39  16  19  2   
 40  17  20  1   
 41  17  21  1   
 42  18  42  1   
 43  19  20  1   
 44  19  43  1   
 45  20  44  1   
 46  21  45  1   
 47  21  46  1   
 48  21  47  1   
@<TRIPOS>SUBSTRUCTURE
  1 ****   8 GROUP 4 **** **** 0

# MOE 2024.06 (io_trps.svl 2023.06)
