@<TRIPOS>MOLECULE
NONAME
47 48 1 0 0 
SMALL
USER_CHARGES


@<TRIPOS>ATOM
  1 O       -0.4650    -0.3220    -0.1980 O.2   1 <1>  -0.5700 
  2 C       -1.5440    -0.8680    -0.1160 C.2   1 <1>   0.6900 
  3 N       -2.6320    -0.2790     0.4940 N.am  1 <1>  -0.4200 
  4 N       -1.6850    -2.1150    -0.6530 N.am  1 <1>  -0.5390 
  5 C       -3.8480    -0.9390     0.5280 C.2   1 <1>   0.6160 
  6 C       -2.5040     1.0860     1.0840 C.3   1 <1>   0.0600 
  7 C       -2.8720    -2.8180    -0.6280 C.2   1 <1>  -0.0410 
  8 O       -4.8190    -0.4070     1.0390 O.2   1 <1>  -0.5700 
  9 C       -3.9580    -2.2540    -0.0460 C.2   1 <1>  -0.1240 
 10 C       -5.3360    -2.9140     0.0530 C.3   1 <1>  -0.0220 
 11 C       -5.4130    -4.3260    -0.5350 C.3   1 <1>   0.3430 
 12 N       -6.7550    -4.9490    -0.3040 N.4   1 <1>  -0.9590 
 13 C       -6.6890    -6.4120    -0.5990 C.3   1 <1>   0.3430 
 14 C       -7.8270    -4.2850    -1.1220 C.3   1 <1>   0.2630 
 15 C       -7.8860    -7.1460     0.0040 C.3   1 <1>  -0.1600 
 16 C       -7.8120    -8.6400    -0.3100 C.3   1 <1>   0.3430 
 17 O       -7.6180    -8.7780    -1.6670 O.3   1 <1>  -0.6800 
 18 C       -9.0910    -9.3680     0.0750 C.ar  1 <1>  -0.1440 
 19 C       -9.0990   -10.2020     1.1840 C.ar  1 <1>  -0.1500 
 20 C      -10.2610    -9.2120    -0.6590 C.ar  1 <1>  -0.1500 
 21 C      -10.2540   -10.8660     1.5560 C.ar  1 <1>  -0.1500 
 22 C      -11.4170    -9.8770    -0.2880 C.ar  1 <1>  -0.1500 
 23 C      -11.4140   -10.7040     0.8200 C.ar  1 <1>  -0.1500 
 24 H       -0.8280    -2.4750    -1.0810 H     1 <1>   0.3700 
 25 H       -1.4840     1.2840     1.3620 H     1 <1>   0.0800 
 26 H       -3.1180     1.1700     1.9640 H     1 <1>   0.0800 
 27 H       -2.8210     1.8180     0.3630 H     1 <1>   0.0800 
 28 H       -2.8530    -3.7930    -1.0870 H     1 <1>   0.1500 
 29 H       -6.0390    -2.2740    -0.4510 H     1 <1>   0.0800 
 30 H       -5.6080    -2.9550     1.0940 H     1 <1>   0.0800 
 31 H       -4.6550    -4.9310    -0.0620 H     1 <1>   0.0800 
 32 H       -5.2020    -4.2900    -1.5920 H     1 <1>   0.0800 
 33 H       -6.9920    -4.8440     0.6940 H     1 <1>   0.4500 
 34 H       -5.7850    -6.8290    -0.1850 H     1 <1>   0.0800 
 35 H       -6.6680    -6.5720    -1.6670 H     1 <1>   0.0800 
 36 H       -7.6110    -4.3830    -2.1730 H     1 <1>   0.0800 
 37 H       -7.8950    -3.2380    -0.8790 H     1 <1>   0.0800 
 38 H       -8.7850    -4.7370    -0.9270 H     1 <1>   0.0800 
 39 H       -8.8070    -6.7650    -0.3950 H     1 <1>   0.0800 
 40 H       -7.9000    -7.0250     1.0720 H     1 <1>   0.0800 
 41 H       -6.9670    -9.0920     0.1830 H     1 <1>   0.0800 
 42 H       -7.9010    -9.6810    -1.9250 H     1 <1>   0.4000 
 43 H       -8.2080   -10.3450     1.7710 H     1 <1>   0.1500 
 44 H      -10.2820    -8.5740    -1.5250 H     1 <1>   0.1500 
 45 H      -10.2530   -11.5120     2.4170 H     1 <1>   0.1500 
 46 H      -12.3200    -9.7520    -0.8610 H     1 <1>   0.1500 
 47 H      -12.3130   -11.2210     1.1100 H     1 <1>   0.1500 
@<TRIPOS>BOND
  1   1   2  2   
  2   2   3  am  
  3   2   4  am  
  4   3   5  am  
  5   3   6  1   
  6   4   7  1   
  7   4  24  1   
  8   5   8  2   
  9   5   9  1   
 10   6  25  1   
 11   6  26  1   
 12   6  27  1   
 13   7   9  2   
 14   7  28  1   
 15   9  10  1   
 16  10  11  1   
 17  10  29  1   
 18  10  30  1   
 19  11  12  1   
 20  11  31  1   
 21  11  32  1   
 22  12  13  1   
 23  12  14  1   
 24  12  33  1   
 25  13  15  1   
 26  13  34  1   
 27  13  35  1   
 28  14  36  1   
 29  14  37  1   
 30  14  38  1   
 31  15  16  1   
 32  15  39  1   
 33  15  40  1   
 34  16  17  1   
 35  16  18  1   
 36  16  41  1   
 37  17  42  1   
 38  18  19  ar  
 39  18  20  ar  
 40  19  21  ar  
 41  19  43  1   
 42  20  22  ar  
 43  20  44  1   
 44  21  23  ar  
 45  21  45  1   
 46  22  23  ar  
 47  22  46  1   
 48  23  47  1   
@<TRIPOS>SUBSTRUCTURE
  1 ****  12 GROUP 4 **** **** 0

# MOE 2024.06 (io_trps.svl 2023.06)
