@<TRIPOS>MOLECULE
NONAME
54 56 1 0 0 
SMALL
USER_CHARGES


@<TRIPOS>ATOM
  1 O        2.3770    -0.7820     2.2580 O.co2 1 <1>  -0.9000 
  2 C        2.1650     0.3850     1.8920 C.2   1 <1>   0.9060 
  3 O        1.7940     1.2500     2.6830 O.co2 1 <1>  -0.9000 
  4 C        2.3940     0.7400     0.4110 C.3   1 <1>  -0.1060 
  5 C        3.6740     0.0090    -0.0620 C.3   1 <1>   0.4230 
  6 C        2.6310     2.2700     0.2340 C.3   1 <1>  -0.1600 
  7 C        1.1570     0.2990    -0.4260 C.3   1 <1>  -0.1600 
  8 N        3.4490    -1.4760    -0.0390 N.4   1 <1>  -0.9590 
  9 C        4.8970     0.4980     0.7430 C.3   1 <1>   0.1400 
 10 C        3.8910     2.7640     0.9650 C.3   1 <1>   0.1400 
 11 C        1.4970    -0.7730    -1.4740 C.3   1 <1>  -0.1600 
 12 C        2.3050    -1.9360    -0.8810 C.3   1 <1>   0.3430 
 13 C        4.6640    -2.3180    -0.2040 C.3   1 <1>   0.2630 
 14 N        5.0620     1.9610     0.5020 N.am  1 <1>  -0.6600 
 15 C        6.0970     2.4380    -0.2590 C.2   1 <1>   0.5690 
 16 O        6.8230     1.6780    -0.8600 O.2   1 <1>  -0.5700 
 17 C        6.3250     3.9350    -0.3940 C.3   1 <1>  -0.0990 
 18 C        7.7220     4.3070    -0.9110 C.3   1 <1>  -0.0170 
 19 C        7.8540     5.8220    -1.0350 C.ar  1 <1>  -0.1430 
 20 C        8.1310     6.6180     0.0750 C.ar  1 <1>   0.0820 
 21 C        7.6880     6.4140    -2.2770 C.ar  1 <1>  -0.1500 
 22 O        8.2820     6.0010     1.2780 O.3   1 <1>  -0.3620 
 23 C        8.2390     7.9990    -0.0800 C.ar  1 <1>  -0.1500 
 24 C        7.7960     7.7850    -2.4240 C.ar  1 <1>  -0.1500 
 25 C        8.6230     6.7180     2.4440 C.3   1 <1>   0.0400 
 26 C        8.0720     8.5770    -1.3250 C.ar  1 <1>  -0.1500 
 27 H        3.8590     0.2930    -1.0840 H     1 <1>   0.0800 
 28 H        1.7830     2.8100     0.6200 H     1 <1>   0.0800 
 29 H        2.7210     2.5150    -0.8100 H     1 <1>   0.0800 
 30 H        0.4070    -0.0980     0.2400 H     1 <1>   0.0800 
 31 H        0.7060     1.1440    -0.9190 H     1 <1>   0.0800 
 32 H        3.1010    -1.5850     0.9530 H     1 <1>   0.4500 
 33 H        5.7840    -0.0200     0.4310 H     1 <1>   0.0800 
 34 H        4.7590     0.3260     1.7970 H     1 <1>   0.0800 
 35 H        3.7770     2.6450     2.0300 H     1 <1>   0.0800 
 36 H        4.0270     3.8120     0.7680 H     1 <1>   0.0800 
 37 H        2.0550    -0.3310    -2.2810 H     1 <1>   0.0800 
 38 H        0.5860    -1.1610    -1.8960 H     1 <1>   0.0800 
 39 H        2.6660    -2.5550    -1.6850 H     1 <1>   0.0800 
 40 H        1.6510    -2.5350    -0.2670 H     1 <1>   0.0800 
 41 H        5.1090    -2.1450    -1.1700 H     1 <1>   0.0800 
 42 H        4.4070    -3.3610    -0.1160 H     1 <1>   0.0800 
 43 H        5.3870    -2.0830     0.5610 H     1 <1>   0.0800 
 44 H        5.5850     4.3340    -1.0610 H     1 <1>   0.0800 
 45 H        6.1950     4.3910     0.5700 H     1 <1>   0.0800 
 46 H        7.8880     3.8480    -1.8700 H     1 <1>   0.0800 
 47 H        8.4720     3.9270    -0.2400 H     1 <1>   0.0800 
 48 H        7.4730     5.8080    -3.1400 H     1 <1>   0.1500 
 49 H        8.4520     8.6390     0.7540 H     1 <1>   0.1500 
 50 H        7.6660     8.2340    -3.3930 H     1 <1>   0.1500 
 51 H        8.7120     6.0150     3.2530 H     1 <1>   0.0800 
 52 H        7.8440     7.4260     2.6590 H     1 <1>   0.0800 
 53 H        9.5650     7.2130     2.2850 H     1 <1>   0.0800 
 54 H        8.1560     9.6440    -1.4400 H     1 <1>   0.1500 
@<TRIPOS>BOND
  1   1   2  ar  
  2   2   3  ar  
  3   2   4  1   
  4   4   5  1   
  5   4   6  1   
  6   4   7  1   
  7   5   8  1   
  8   5   9  1   
  9   5  27  1   
 10   6  10  1   
 11   6  28  1   
 12   6  29  1   
 13   7  11  1   
 14   7  30  1   
 15   7  31  1   
 16   8  12  1   
 17   8  13  1   
 18   8  32  1   
 19   9  14  1   
 20   9  33  1   
 21   9  34  1   
 22  10  14  1   
 23  10  35  1   
 24  10  36  1   
 25  11  12  1   
 26  11  37  1   
 27  11  38  1   
 28  12  39  1   
 29  12  40  1   
 30  13  41  1   
 31  13  42  1   
 32  13  43  1   
 33  14  15  am  
 34  15  16  2   
 35  15  17  1   
 36  17  18  1   
 37  17  44  1   
 38  17  45  1   
 39  18  19  1   
 40  18  46  1   
 41  18  47  1   
 42  19  20  ar  
 43  19  21  ar  
 44  20  22  1   
 45  20  23  ar  
 46  21  24  ar  
 47  21  48  1   
 48  22  25  1   
 49  23  26  ar  
 50  23  49  1   
 51  24  26  ar  
 52  24  50  1   
 53  25  51  1   
 54  25  52  1   
 55  25  53  1   
 56  26  54  1   
@<TRIPOS>SUBSTRUCTURE
  1 ****  14 GROUP 4 **** **** 0

# MOE 2024.06 (io_trps.svl 2023.06)
