@<TRIPOS>MOLECULE
NONAME
46 48 1 0 0 
SMALL
USER_CHARGES


@<TRIPOS>ATOM
  1 S        0.1820    -0.0120    -0.1240 S.3   1 <1>  -0.0800 
  2 C       -1.5400     0.1980     0.2230 C.ar  1 <1>   0.0400 
  3 C        0.4950     1.7130     0.0880 C.2   1 <1>  -0.1400 
  4 C       -1.8110     1.5320     0.4860 C.ar  1 <1>   0.0000 
  5 C       -2.5060    -0.7900     0.2410 C.ar  1 <1>  -0.1500 
  6 C       -0.6400     2.3620     0.4050 C.2   1 <1>  -0.1500 
  7 C        1.9340     2.1630    -0.1060 C.3   1 <1>   0.3200 
  8 C       -3.1240     1.8850     0.7820 C.ar  1 <1>  -0.1500 
  9 C       -3.8060    -0.4190     0.5370 C.ar  1 <1>  -0.1500 
 10 N        2.0010     3.6430    -0.2920 N.am  1 <1>  -0.6600 
 11 C       -4.1100     0.9130     0.8060 C.ar  1 <1>  -0.1500 
 12 C        2.4730     4.4370     0.7300 C.2   1 <1>   0.5690 
 13 C        1.5040     4.0960    -1.6260 C.3   1 <1>   0.0600 
 14 O        2.9360     3.9460     1.7320 O.2   1 <1>  -0.5700 
 15 C        2.4380     5.9720     0.6930 C.3   1 <1>  -0.0190 
 16 C        1.0150     6.5550     0.5640 C.3   1 <1>  -0.1600 
 17 C        3.4470     6.5860    -0.3090 C.3   1 <1>  -0.1600 
 18 C        1.0030     8.0840     0.7370 C.3   1 <1>   0.2000 
 19 C        2.9880     7.9380    -0.8860 C.3   1 <1>  -0.1600 
 20 O       -0.1430     8.5470     0.0670 O.3   1 <1>  -0.5600 
 21 C        2.2790     8.7780     0.1800 C.3   1 <1>   0.2000 
 22 C       -0.9500     9.4050     0.8150 C.3   1 <1>   0.0400 
 23 O        1.9410     9.9850    -0.3980 O.3   1 <1>  -0.6800 
 24 H       -2.2450    -1.8120     0.0310 H     1 <1>   0.1500 
 25 H       -0.7160     3.4180     0.5940 H     1 <1>   0.1500 
 26 H        2.3440     1.6830    -0.9770 H     1 <1>   0.0800 
 27 H        2.5180     1.8470     0.7400 H     1 <1>   0.0800 
 28 H       -3.3630     2.9120     0.9910 H     1 <1>   0.1500 
 29 H       -4.5860    -1.1610     0.5600 H     1 <1>   0.1500 
 30 H       -5.1250     1.1870     1.0350 H     1 <1>   0.1500 
 31 H        1.9550     3.5030    -2.4020 H     1 <1>   0.0800 
 32 H        1.7420     5.1240    -1.8150 H     1 <1>   0.0800 
 33 H        0.4360     3.9760    -1.6760 H     1 <1>   0.0800 
 34 H        2.7750     6.2830     1.6680 H     1 <1>   0.0800 
 35 H        0.3790     6.1150     1.3110 H     1 <1>   0.0800 
 36 H        0.6060     6.3160    -0.3990 H     1 <1>   0.0800 
 37 H        4.3840     6.7240     0.2050 H     1 <1>   0.0800 
 38 H        3.6460     5.9100    -1.1210 H     1 <1>   0.0800 
 39 H        0.9260     8.3110     1.7870 H     1 <1>   0.0800 
 40 H        2.3070     7.7640    -1.7010 H     1 <1>   0.0800 
 41 H        3.8410     8.4730    -1.2660 H     1 <1>   0.0800 
 42 H        2.9690     8.9790     0.9820 H     1 <1>   0.0800 
 43 H       -1.7700     9.7210     0.1940 H     1 <1>   0.0800 
 44 H       -0.3740    10.2610     1.1220 H     1 <1>   0.0800 
 45 H       -1.3290     8.8760     1.6720 H     1 <1>   0.0800 
 46 H        1.0310     9.8690    -0.7510 H     1 <1>   0.4000 
@<TRIPOS>BOND
  1   1   2  1   
  2   1   3  1   
  3   2   4  ar  
  4   2   5  ar  
  5   3   6  2   
  6   3   7  1   
  7   4   6  1   
  8   4   8  ar  
  9   5   9  ar  
 10   5  24  1   
 11   6  25  1   
 12   7  10  1   
 13   7  26  1   
 14   7  27  1   
 15   8  11  ar  
 16   8  28  1   
 17   9  11  ar  
 18   9  29  1   
 19  10  12  am  
 20  10  13  1   
 21  11  30  1   
 22  12  14  2   
 23  12  15  1   
 24  13  31  1   
 25  13  32  1   
 26  13  33  1   
 27  15  16  1   
 28  15  17  1   
 29  15  34  1   
 30  16  18  1   
 31  16  35  1   
 32  16  36  1   
 33  17  19  1   
 34  17  37  1   
 35  17  38  1   
 36  18  20  1   
 37  18  21  1   
 38  18  39  1   
 39  19  21  1   
 40  19  40  1   
 41  19  41  1   
 42  20  22  1   
 43  21  23  1   
 44  21  42  1   
 45  22  43  1   
 46  22  44  1   
 47  22  45  1   
 48  23  46  1   
@<TRIPOS>SUBSTRUCTURE
  1 ****  10 GROUP 4 **** **** 0

# MOE 2024.06 (io_trps.svl 2023.06)
