@<TRIPOS>MOLECULE
NONAME
52 55 1 0 0 
SMALL
USER_CHARGES


@<TRIPOS>ATOM
  1 O       -1.2010     0.0400     1.2540 O.2   1 <1>  -0.5700 
  2 C       -2.1170     0.7470     0.9030 C.2   1 <1>   0.5690 
  3 N       -3.4180     0.4410     1.2490 N.am  1 <1>  -0.6600 
  4 C       -1.7200     1.9830     0.0820 C.3   1 <1>  -0.0190 
  5 C       -4.6390     1.2220     0.8950 C.3   1 <1>   0.1400 
  6 C       -3.7130    -0.7700     2.0700 C.3   1 <1>   0.1400 
  7 C       -1.9520     3.3110     0.8370 C.3   1 <1>  -0.1600 
  8 C       -2.2750     1.9780    -1.3660 C.3   1 <1>  -0.1600 
  9 C       -5.6210     0.3300     0.1330 C.3   1 <1>  -0.1600 
 10 C       -4.6800    -1.6850     1.3150 C.3   1 <1>  -0.1600 
 11 C       -1.4000     4.5320     0.0730 C.3   1 <1>   0.2000 
 12 C       -2.4960     3.3890    -1.9390 C.3   1 <1>  -0.1600 
 13 C       -5.9690    -0.9430     0.9260 C.3   1 <1>   0.1000 
 14 O       -2.2010     5.6410     0.4030 O.3   1 <1>  -0.5600 
 15 C       -1.3970     4.3430    -1.4690 C.3   1 <1>   0.2000 
 16 C       -6.9140    -1.8630     0.1580 C.2   1 <1>   0.2980 
 17 C       -1.8740     6.2700     1.6030 C.3   1 <1>   0.0400 
 18 O       -1.6030     5.5630    -2.0780 O.3   1 <1>  -0.6800 
 19 O       -7.4180    -2.9020     0.8080 O.3   1 <1>  -0.2800 
 20 N       -7.2920    -1.7490    -1.0610 N.2   1 <1>  -0.5650 
 21 C       -8.1880    -3.5200    -0.0650 C.ar  1 <1>   0.1400 
 22 C       -8.1210    -2.8140    -1.2400 C.ar  1 <1>   0.2270 
 23 C       -8.9590    -4.6660     0.0710 C.ar  1 <1>  -0.1500 
 24 C       -8.8440    -3.2430    -2.3470 C.ar  1 <1>  -0.1500 
 25 C       -9.6780    -5.0920    -1.0300 C.ar  1 <1>  -0.1500 
 26 C       -9.6200    -4.3830    -2.2340 C.ar  1 <1>  -0.1500 
 27 H       -0.6500     1.9150    -0.0260 H     1 <1>   0.0800 
 28 H       -5.0980     1.5820     1.8000 H     1 <1>   0.0800 
 29 H       -4.4050     2.0720     0.2850 H     1 <1>   0.0800 
 30 H       -2.8130    -1.3170     2.2930 H     1 <1>   0.0800 
 31 H       -4.1490    -0.4620     3.0040 H     1 <1>   0.0800 
 32 H       -1.4710     3.2520     1.7970 H     1 <1>   0.0800 
 33 H       -3.0010     3.4570     1.0050 H     1 <1>   0.0800 
 34 H       -1.5680     1.4560    -1.9880 H     1 <1>   0.0800 
 35 H       -3.1950     1.4280    -1.4330 H     1 <1>   0.0800 
 36 H       -6.5210     0.8820    -0.0700 H     1 <1>   0.0800 
 37 H       -5.1860     0.0580    -0.8130 H     1 <1>   0.0800 
 38 H       -4.1920    -2.0560     0.4300 H     1 <1>   0.0800 
 39 H       -4.9210    -2.5300     1.9350 H     1 <1>   0.0800 
 40 H       -0.3860     4.7310     0.3770 H     1 <1>   0.0800 
 41 H       -3.4480     3.7650    -1.6060 H     1 <1>   0.0800 
 42 H       -2.5050     3.3420    -3.0140 H     1 <1>   0.0800 
 43 H       -6.4770    -0.6480     1.8270 H     1 <1>   0.0800 
 44 H       -0.4410     3.9690    -1.7950 H     1 <1>   0.0800 
 45 H       -2.5490     7.0970     1.7420 H     1 <1>   0.0800 
 46 H       -0.8630     6.6350     1.5500 H     1 <1>   0.0800 
 47 H       -1.9840     5.5750     2.4180 H     1 <1>   0.0800 
 48 H       -2.1080     6.1010    -1.4260 H     1 <1>   0.4000 
 49 H       -8.9840    -5.1910     1.0090 H     1 <1>   0.1500 
 50 H       -8.7850    -2.6820    -3.2610 H     1 <1>   0.1500 
 51 H      -10.2880    -5.9770    -0.9670 H     1 <1>   0.1500 
 52 H      -10.1880    -4.7320    -3.0800 H     1 <1>   0.1500 
@<TRIPOS>BOND
  1   1   2  2   
  2   2   3  am  
  3   2   4  1   
  4   3   5  1   
  5   3   6  1   
  6   4   7  1   
  7   4   8  1   
  8   4  27  1   
  9   5   9  1   
 10   5  28  1   
 11   5  29  1   
 12   6  10  1   
 13   6  30  1   
 14   6  31  1   
 15   7  11  1   
 16   7  32  1   
 17   7  33  1   
 18   8  12  1   
 19   8  34  1   
 20   8  35  1   
 21   9  13  1   
 22   9  36  1   
 23   9  37  1   
 24  10  13  1   
 25  10  38  1   
 26  10  39  1   
 27  11  14  1   
 28  11  15  1   
 29  11  40  1   
 30  12  15  1   
 31  12  41  1   
 32  12  42  1   
 33  13  16  1   
 34  13  43  1   
 35  14  17  1   
 36  15  18  1   
 37  15  44  1   
 38  16  19  1   
 39  16  20  2   
 40  17  45  1   
 41  17  46  1   
 42  17  47  1   
 43  18  48  1   
 44  19  21  1   
 45  20  22  1   
 46  21  22  ar  
 47  21  23  ar  
 48  22  24  ar  
 49  23  25  ar  
 50  23  49  1   
 51  24  26  ar  
 52  24  50  1   
 53  25  26  ar  
 54  25  51  1   
 55  26  52  1   
@<TRIPOS>SUBSTRUCTURE
  1 ****   9 GROUP 4 **** **** 0

# MOE 2024.06 (io_trps.svl 2023.06)
