@<TRIPOS>MOLECULE
NONAME
47 49 1 0 0 
SMALL
USER_CHARGES


@<TRIPOS>ATOM
  1 S        1.2400    -0.3230    -1.0310 S.o2  1 <1>   1.3330 
  2 O        2.3670    -0.9320    -0.3610 O.2   1 <1>  -0.6500 
  3 O        1.0600    -0.5270    -2.4500 O.2   1 <1>  -0.6500 
  4 N       -0.1780    -0.8770    -0.2740 N.am  1 <1>  -0.8490 
  5 C        1.2290     1.4440    -0.6870 C.3   1 <1>  -0.0550 
  6 C       -0.0710    -2.2780     0.1460 C.3   1 <1>   0.1160 
  7 C       -1.3850    -0.6980    -1.0900 C.3   1 <1>   0.1160 
  8 C        1.7090     1.9080     0.7080 C.3   1 <1>  -0.0800 
  9 C        3.2010     1.6620     0.9520 C.3   1 <1>   0.2200 
 10 C        1.0280     1.2780     1.9290 C.3   1 <1>   0.1200 
 11 N        3.8800     2.9600     1.1690 N.am  1 <1>  -0.7300 
 12 C        3.2090     0.8330     2.2340 C.3   1 <1>   0.1200 
 13 O        2.0300     1.1760     2.8870 O.3   1 <1>  -0.5600 
 14 C        4.2450     3.8120     0.1700 C.2   1 <1>   0.5440 
 15 O        4.0310     3.4810    -0.9770 O.2   1 <1>  -0.5700 
 16 C        4.8760     5.0780     0.4750 C.ar  1 <1>   0.0860 
 17 C        6.0370     5.5260    -0.1780 C.ar  1 <1>  -0.0230 
 18 C        4.3100     5.8960     1.4560 C.ar  1 <1>  -0.1500 
 19 N        6.6980     4.7470    -1.1740 N.pl3 1 <1>   0.5930 
 20 C        6.5720     6.7670     0.1630 C.ar  1 <1>  -0.1500 
 21 C        4.8590     7.1190     1.7880 C.ar  1 <1>  -0.1500 
 22 N        7.2560     5.2760    -2.2700 N.2   1 <1>  -0.7070 
 23 C        7.0460     3.4460    -1.1520 C.2   1 <1>   0.0360 
 24 C        5.9950     7.5570     1.1360 C.ar  1 <1>  -0.1500 
 25 C        7.8580     4.2730    -2.8110 C.2   1 <1>   0.3660 
 26 N        7.7710     3.1100    -2.1560 N.2   1 <1>  -0.5650 
 27 H        1.8600     1.9240    -1.4110 H     1 <1>   0.0800 
 28 H        0.2390     1.8200    -0.8490 H     1 <1>   0.0800 
 29 H       -0.9800    -2.5950     0.6280 H     1 <1>   0.0800 
 30 H        0.7370    -2.3930     0.8490 H     1 <1>   0.0800 
 31 H        0.1190    -2.9110    -0.7060 H     1 <1>   0.0800 
 32 H       -2.2580    -0.9760    -0.5240 H     1 <1>   0.0800 
 33 H       -1.3340    -1.3080    -1.9770 H     1 <1>   0.0800 
 34 H       -1.4860     0.3320    -1.3860 H     1 <1>   0.0800 
 35 H        1.5150     2.9650     0.7590 H     1 <1>   0.0800 
 36 H        3.6870     1.1330     0.1480 H     1 <1>   0.0800 
 37 H        0.6670     0.2840     1.7440 H     1 <1>   0.0800 
 38 H        0.2320     1.8880     2.3180 H     1 <1>   0.0800 
 39 H        3.9230     3.2550     2.1470 H     1 <1>   0.3700 
 40 H        4.0530     1.0410     2.8680 H     1 <1>   0.0800 
 41 H        3.1700    -0.2190     2.0090 H     1 <1>   0.0800 
 42 H        3.4160     5.5740     1.9610 H     1 <1>   0.1500 
 43 H        7.4560     7.1210    -0.3440 H     1 <1>   0.1500 
 44 H        4.4030     7.7330     2.5460 H     1 <1>   0.1500 
 45 H        6.7400     2.7840    -0.3640 H     1 <1>   0.1500 
 46 H        6.4260     8.5130     1.3850 H     1 <1>   0.1500 
 47 H        8.4120     4.3400    -3.7350 H     1 <1>   0.1500 
@<TRIPOS>BOND
  1   1   2  2   
  2   1   3  2   
  3   1   4  am  
  4   1   5  1   
  5   4   6  1   
  6   4   7  1   
  7   5   8  1   
  8   5  27  1   
  9   5  28  1   
 10   6  29  1   
 11   6  30  1   
 12   6  31  1   
 13   7  32  1   
 14   7  33  1   
 15   7  34  1   
 16   8   9  1   
 17   8  10  1   
 18   8  35  1   
 19   9  11  1   
 20   9  12  1   
 21   9  36  1   
 22  10  13  1   
 23  10  37  1   
 24  10  38  1   
 25  11  14  am  
 26  11  39  1   
 27  12  13  1   
 28  12  40  1   
 29  12  41  1   
 30  14  15  2   
 31  14  16  1   
 32  16  17  ar  
 33  16  18  ar  
 34  17  19  1   
 35  17  20  ar  
 36  18  21  ar  
 37  18  42  1   
 38  19  22  1   
 39  19  23  1   
 40  20  24  ar  
 41  20  43  1   
 42  21  24  ar  
 43  21  44  1   
 44  22  25  2   
 45  23  26  2   
 46  23  45  1   
 47  24  46  1   
 48  25  26  1   
 49  25  47  1   
@<TRIPOS>SUBSTRUCTURE
  1 ****  14 GROUP 4 **** **** 0

# MOE 2024.06 (io_trps.svl 2023.06)
