@<TRIPOS>MOLECULE
NONAME
46 49 1 0 0 
SMALL
USER_CHARGES


@<TRIPOS>ATOM
  1 S       -0.0060    -0.5190    -0.8970 S.3   1 <1>  -0.0800 
  2 C       -0.5990     1.0100    -1.5030 C.2   1 <1>   0.4620 
  3 C       -1.5280    -0.7770    -0.0660 C.2   1 <1>  -0.0450 
  4 N       -1.7900     1.3000    -1.1300 N.2   1 <1>  -0.5650 
  5 N        0.1990     1.7570    -2.2930 N.pl3 1 <1>  -0.8840 
  6 C       -1.7290    -1.9720     0.7050 C.2   1 <1>   0.7150 
  7 C       -2.2920     0.3090    -0.3280 C.2   1 <1>   0.0770 
  8 O       -0.7750    -2.5290     1.2190 O.2   1 <1>  -0.5700 
  9 N       -2.9890    -2.5040     0.8990 N.am  1 <1>  -0.6600 
 10 C       -4.0990    -2.3850    -0.0890 C.3   1 <1>   0.1400 
 11 C       -3.2700    -3.4560     2.0120 C.3   1 <1>   0.1400 
 12 C       -4.4110    -3.7640    -0.6770 C.3   1 <1>  -0.1600 
 13 C       -3.5790    -4.8430     1.4440 C.3   1 <1>  -0.1600 
 14 C       -4.7210    -4.8060     0.4150 C.3   1 <1>   0.4240 
 15 O       -5.8210    -4.3070     1.1480 O.3   1 <1>  -0.5600 
 16 C       -5.0130    -6.2190    -0.1690 C.ar  1 <1>  -0.1430 
 17 C       -7.0980    -4.5590     0.6590 C.3   1 <1>   0.1200 
 18 C       -4.0520    -6.9440    -0.8870 C.ar  1 <1>   0.0830 
 19 C       -6.2670    -6.8010     0.0170 C.ar  1 <1>  -0.1430 
 20 C       -7.3540    -6.0540     0.7610 C.3   1 <1>  -0.0170 
 21 O       -2.8310    -6.3870    -1.1000 O.3   1 <1>  -0.3630 
 22 C       -4.3510    -8.2130    -1.3790 C.ar  1 <1>  -0.1500 
 23 C       -6.5520    -8.0650    -0.4730 C.ar  1 <1>  -0.1500 
 24 C       -1.7400    -7.1120    -1.6220 C.3   1 <1>   0.0400 
 25 C       -5.5950    -8.7720    -1.1700 C.ar  1 <1>  -0.1500 
 26 H       -0.1250     2.6610    -2.6400 H     1 <1>   0.4000 
 27 H        1.1510     1.4830    -2.5360 H     1 <1>   0.4000 
 28 H       -3.2840     0.4470     0.0660 H     1 <1>   0.1500 
 29 H       -3.8330    -1.7230    -0.8920 H     1 <1>   0.0800 
 30 H       -4.9700    -1.9890     0.4060 H     1 <1>   0.0800 
 31 H       -4.1130    -3.0950     2.5770 H     1 <1>   0.0800 
 32 H       -2.4290    -3.5180     2.6810 H     1 <1>   0.0800 
 33 H       -3.5580    -4.0710    -1.2500 H     1 <1>   0.0800 
 34 H       -5.2340    -3.6950    -1.3620 H     1 <1>   0.0800 
 35 H       -3.8470    -5.5120     2.2410 H     1 <1>   0.0800 
 36 H       -2.6760    -5.2180     1.0060 H     1 <1>   0.0800 
 37 H       -7.1660    -4.2200    -0.3590 H     1 <1>   0.0800 
 38 H       -7.7980    -4.0130     1.2660 H     1 <1>   0.0800 
 39 H       -8.3180    -6.2760     0.3390 H     1 <1>   0.0800 
 40 H       -7.3590    -6.3500     1.7950 H     1 <1>   0.0800 
 41 H       -3.6310    -8.7830    -1.9310 H     1 <1>   0.1500 
 42 H       -7.5210    -8.5040    -0.3150 H     1 <1>   0.1500 
 43 H       -0.8750    -6.4730    -1.5990 H     1 <1>   0.0800 
 44 H       -1.9600    -7.3910    -2.6370 H     1 <1>   0.0800 
 45 H       -1.5710    -7.9790    -1.0090 H     1 <1>   0.0800 
 46 H       -5.8190    -9.7530    -1.5500 H     1 <1>   0.1500 
@<TRIPOS>BOND
  1   1   2  1   
  2   1   3  1   
  3   2   4  2   
  4   2   5  1   
  5   3   6  1   
  6   3   7  2   
  7   4   7  1   
  8   5  26  1   
  9   5  27  1   
 10   6   8  2   
 11   6   9  am  
 12   7  28  1   
 13   9  10  1   
 14   9  11  1   
 15  10  12  1   
 16  10  29  1   
 17  10  30  1   
 18  11  13  1   
 19  11  31  1   
 20  11  32  1   
 21  12  14  1   
 22  12  33  1   
 23  12  34  1   
 24  13  14  1   
 25  13  35  1   
 26  13  36  1   
 27  14  15  1   
 28  14  16  1   
 29  15  17  1   
 30  16  18  ar  
 31  16  19  ar  
 32  17  20  1   
 33  17  37  1   
 34  17  38  1   
 35  18  21  1   
 36  18  22  ar  
 37  19  20  1   
 38  19  23  ar  
 39  20  39  1   
 40  20  40  1   
 41  21  24  1   
 42  22  25  ar  
 43  22  41  1   
 44  23  25  ar  
 45  23  42  1   
 46  24  43  1   
 47  24  44  1   
 48  24  45  1   
 49  25  46  1   
@<TRIPOS>SUBSTRUCTURE
  1 ****  12 GROUP 4 **** **** 0

# MOE 2024.06 (io_trps.svl 2023.06)
