@<TRIPOS>MOLECULE
NONAME
44 45 1 0 0 
SMALL
USER_CHARGES


@<TRIPOS>ATOM
  1 CL       1.8700     0.7480    -1.9590 Cl    1 <1>  -0.1770 
  2 C        0.7990     1.7810    -1.0370 C.ar  1 <1>   0.1770 
  3 C        1.1960     2.3560     0.1670 C.ar  1 <1>  -0.1440 
  4 C       -0.4600     2.0010    -1.5640 C.ar  1 <1>  -0.1500 
  5 C        0.2860     3.1740     0.8280 C.ar  1 <1>  -0.1500 
  6 C        2.5730     2.1330     0.7940 C.3   1 <1>   0.3640 
  7 C       -1.3540     2.8140    -0.8900 C.ar  1 <1>  -0.1500 
  8 C       -0.9760     3.4000     0.3050 C.ar  1 <1>  -0.1500 
  9 N        2.7260     0.6870     1.0870 N.am  1 <1>  -0.7300 
 10 C        3.7370     2.7180    -0.0560 C.3   1 <1>   0.2610 
 11 C        3.7970    -0.0440     0.7110 C.2   1 <1>   0.5690 
 12 O        4.9660     2.0310     0.1770 O.3   1 <1>  -0.5600 
 13 C        3.8970     4.2110     0.2530 C.2   1 <1>   0.5690 
 14 O        3.8690    -1.2170     0.9760 O.2   1 <1>  -0.5700 
 15 C        4.9160     0.6430    -0.0730 C.3   1 <1>   0.1810 
 16 O        2.9470     4.9480     0.1390 O.2   1 <1>  -0.5700 
 17 N        5.1090     4.6720     0.6620 N.am  1 <1>  -0.7300 
 18 C        5.4550     6.0720     0.9730 C.3   1 <1>   0.1400 
 19 C        6.6880     6.4700     0.1630 C.3   1 <1>  -0.1600 
 20 C        7.0940     7.9230     0.4470 C.3   1 <1>  -0.1600 
 21 C        8.3320     8.3200    -0.3670 C.3   1 <1>  -0.1600 
 22 C        8.7300     9.7690    -0.0880 C.3   1 <1>   0.1200 
 23 O        9.8360    10.0740    -0.8570 O.3   1 <1>  -0.6800 
 24 H       -0.7370     1.5410    -2.4950 H     1 <1>   0.1500 
 25 H        0.5550     3.6510     1.7550 H     1 <1>   0.1500 
 26 H        2.5940     2.6420     1.7430 H     1 <1>   0.0800 
 27 H       -2.3360     2.9920    -1.2930 H     1 <1>   0.1500 
 28 H       -1.6660     4.0390     0.8300 H     1 <1>   0.1500 
 29 H        1.9560     0.2130     1.5610 H     1 <1>   0.3700 
 30 H        3.5140     2.6300    -1.1020 H     1 <1>   0.0800 
 31 H        4.7680     0.4870    -1.1260 H     1 <1>   0.0800 
 32 H        5.8620     0.2220     0.2130 H     1 <1>   0.0800 
 33 H        5.8630     3.9800     0.7380 H     1 <1>   0.3700 
 34 H        4.6270     6.7170     0.7270 H     1 <1>   0.0800 
 35 H        5.6560     6.1610     2.0270 H     1 <1>   0.0800 
 36 H        7.5050     5.8160     0.4130 H     1 <1>   0.0800 
 37 H        6.4660     6.3620    -0.8860 H     1 <1>   0.0800 
 38 H        7.3030     8.0380     1.4970 H     1 <1>   0.0800 
 39 H        6.2760     8.5770     0.1940 H     1 <1>   0.0800 
 40 H        8.1170     8.2140    -1.4170 H     1 <1>   0.0800 
 41 H        9.1500     7.6690    -0.1120 H     1 <1>   0.0800 
 42 H        8.9860     9.9150     0.9480 H     1 <1>   0.0800 
 43 H        7.9390    10.4480    -0.3610 H     1 <1>   0.0800 
 44 H       10.5760     9.4730    -0.6480 H     1 <1>   0.4000 
@<TRIPOS>BOND
  1   1   2  1   
  2   2   3  ar  
  3   2   4  ar  
  4   3   5  ar  
  5   3   6  1   
  6   4   7  ar  
  7   4  24  1   
  8   5   8  ar  
  9   5  25  1   
 10   6   9  1   
 11   6  10  1   
 12   6  26  1   
 13   7   8  ar  
 14   7  27  1   
 15   8  28  1   
 16   9  11  am  
 17   9  29  1   
 18  10  12  1   
 19  10  13  1   
 20  10  30  1   
 21  11  14  2   
 22  11  15  1   
 23  12  15  1   
 24  13  16  2   
 25  13  17  am  
 26  15  31  1   
 27  15  32  1   
 28  17  18  1   
 29  17  33  1   
 30  18  19  1   
 31  18  34  1   
 32  18  35  1   
 33  19  20  1   
 34  19  36  1   
 35  19  37  1   
 36  20  21  1   
 37  20  38  1   
 38  20  39  1   
 39  21  22  1   
 40  21  40  1   
 41  21  41  1   
 42  22  23  1   
 43  22  42  1   
 44  22  43  1   
 45  23  44  1   
@<TRIPOS>SUBSTRUCTURE
  1 ****  13 GROUP 4 **** **** 0

# MOE 2024.06 (io_trps.svl 2023.06)
