@<TRIPOS>MOLECULE
NONAME
45 47 1 0 0 
SMALL
USER_CHARGES


@<TRIPOS>ATOM
  1 O        0.3580    -0.1910    -0.5230 O.2   1 <1>  -0.5700 
  2 C        1.3480    -0.7500    -0.0910 C.2   1 <1>   0.5440 
  3 N        2.4950    -0.0070     0.1080 N.am  1 <1>  -0.6600 
  4 C        1.2860    -2.1680     0.1870 C.ar  1 <1>   0.0860 
  5 C        3.8580    -0.6320     0.0940 C.3   1 <1>   0.1400 
  6 C        2.3820     1.4780     0.1910 C.3   1 <1>   0.1400 
  7 C        1.8150    -2.7020     1.3600 C.ar  1 <1>   0.1600 
  8 C        0.6880    -3.0610    -0.6930 C.ar  1 <1>  -0.1500 
  9 C        4.8770     0.1180    -0.7760 C.3   1 <1>   0.1100 
 10 C        3.5050     2.1450     0.9900 C.3   1 <1>  -0.1600 
 11 N        1.8260    -3.9800     1.6970 N.ar  1 <1>  -0.6200 
 12 C        0.6780    -4.3970    -0.3600 C.ar  1 <1>  -0.1500 
 13 N        5.5730     1.1710    -0.0120 N.3   1 <1>  -0.8100 
 14 C        4.7700     2.3900     0.1660 C.3   1 <1>   0.1100 
 15 C        1.2570    -4.8130     0.8380 C.ar  1 <1>   0.3930 
 16 C        6.8950     1.4850    -0.6170 C.3   1 <1>   0.2900 
 17 O        1.2800    -6.1040     1.2190 O.3   1 <1>  -0.3630 
 18 C        7.8250     2.3520     0.2370 C.2   1 <1>   0.2980 
 19 C        0.6660    -7.1410     0.4870 C.3   1 <1>   0.0400 
 20 O        8.7940     2.9820    -0.3490 O.3   1 <1>  -0.2800 
 21 N        7.8100     2.5670     1.5000 N.2   1 <1>  -0.3380 
 22 C        9.3840     3.6070     0.6170 C.2   1 <1>   0.2980 
 23 N        8.8300     3.3910     1.7470 N.2   1 <1>  -0.3380 
 24 C       10.5890     4.4720     0.3340 C.3   1 <1>  -0.0600 
 25 H        3.7800    -1.6300    -0.2980 H     1 <1>   0.0800 
 26 H        4.2360    -0.7040     1.0990 H     1 <1>   0.0800 
 27 H        1.4460     1.7160     0.6700 H     1 <1>   0.0800 
 28 H        2.3430     1.8830    -0.8050 H     1 <1>   0.0800 
 29 H        2.2580    -2.0170     2.0630 H     1 <1>   0.1500 
 30 H        0.2460    -2.7020    -1.6070 H     1 <1>   0.1500 
 31 H        4.4040     0.5200    -1.6560 H     1 <1>   0.0800 
 32 H        5.6020    -0.6100    -1.0930 H     1 <1>   0.0800 
 33 H        3.7290     1.5980     1.8880 H     1 <1>   0.0800 
 34 H        3.1420     3.1100     1.2940 H     1 <1>   0.0800 
 35 H        0.2210    -5.0980    -1.0300 H     1 <1>   0.1500 
 36 H        5.3560     3.1220     0.6960 H     1 <1>   0.0800 
 37 H        4.5140     2.8100    -0.7930 H     1 <1>   0.0800 
 38 H        6.7400     1.9780    -1.5600 H     1 <1>   0.0800 
 39 H        7.4210     0.5670    -0.8090 H     1 <1>   0.0800 
 40 H        0.8110    -8.0590     1.0280 H     1 <1>   0.0800 
 41 H        1.1310    -7.2110    -0.4800 H     1 <1>   0.0800 
 42 H       -0.3850    -6.9320     0.3990 H     1 <1>   0.0800 
 43 H       10.3190     5.2550    -0.3500 H     1 <1>   0.0800 
 44 H       11.3690     3.8740    -0.0980 H     1 <1>   0.0800 
 45 H       10.9450     4.9100     1.2480 H     1 <1>   0.0800 
@<TRIPOS>BOND
  1   1   2  2   
  2   2   3  am  
  3   2   4  1   
  4   3   5  1   
  5   3   6  1   
  6   4   7  ar  
  7   4   8  ar  
  8   5   9  1   
  9   5  25  1   
 10   5  26  1   
 11   6  10  1   
 12   6  27  1   
 13   6  28  1   
 14   7  11  ar  
 15   7  29  1   
 16   8  12  ar  
 17   8  30  1   
 18   9  13  1   
 19   9  31  1   
 20   9  32  1   
 21  10  14  1   
 22  10  33  1   
 23  10  34  1   
 24  11  15  ar  
 25  12  15  ar  
 26  12  35  1   
 27  13  14  1   
 28  13  16  1   
 29  14  36  1   
 30  14  37  1   
 31  15  17  1   
 32  16  18  1   
 33  16  38  1   
 34  16  39  1   
 35  17  19  1   
 36  18  20  1   
 37  18  21  2   
 38  19  40  1   
 39  19  41  1   
 40  19  42  1   
 41  20  22  1   
 42  21  23  1   
 43  22  23  2   
 44  22  24  1   
 45  24  43  1   
 46  24  44  1   
 47  24  45  1   
@<TRIPOS>SUBSTRUCTURE
  1 ****   5 GROUP 4 **** **** 0

# MOE 2024.06 (io_trps.svl 2023.06)
