@<TRIPOS>MOLECULE
NONAME
55 58 1 0 0 
SMALL
USER_CHARGES


@<TRIPOS>ATOM
  1 F       -3.0380     2.0480     0.0630 F     1 <1>  -0.1900 
  2 C       -3.7590     1.3790     0.9270 C.ar  1 <1>   0.1900 
  3 C       -4.3760     0.1710     0.5820 C.ar  1 <1>   0.0830 
  4 C       -3.8960     1.9430     2.1800 C.ar  1 <1>  -0.1500 
  5 O       -4.2820    -0.4490    -0.6340 O.3   1 <1>  -0.3630 
  6 C       -5.1670    -0.4540     1.5450 C.ar  1 <1>  -0.1440 
  7 C       -4.6750     1.3010     3.1250 C.ar  1 <1>  -0.1500 
  8 C       -3.1680    -0.2500    -1.4850 C.3   1 <1>   0.0400 
  9 C       -5.3080     0.1110     2.8070 C.ar  1 <1>  -0.1500 
 10 C       -5.8870    -1.7520     1.2240 C.3   1 <1>   0.4870 
 11 N       -6.7940    -1.5080     0.0770 N.4   1 <1>  -0.9590 
 12 C       -7.8720    -0.5200     0.4150 C.3   1 <1>   0.3430 
 13 C       -7.3470    -2.7590    -0.5040 C.3   1 <1>   0.3430 
 14 C       -8.6750    -0.1170    -0.8320 C.3   1 <1>   0.1430 
 15 C       -8.1220    -2.4270    -1.7840 C.3   1 <1>  -0.1600 
 16 C       -9.8090     0.7730    -0.3900 C.ar  1 <1>   0.1670 
 17 C       -9.2200    -1.3730    -1.5450 C.3   1 <1>  -0.1600 
 18 C       -7.8730     0.8050    -1.7910 C.3   1 <1>  -0.1600 
 19 N      -10.6100     0.5040     0.6070 N.ar  1 <1>  -0.6200 
 20 C       -9.8880     1.9060    -1.1390 C.ar  1 <1>  -0.1430 
 21 C       -8.8240     1.9450    -2.2070 C.3   1 <1>  -0.0170 
 22 C      -11.5410     1.4340     0.8440 C.ar  1 <1>   0.7200 
 23 C      -10.8740     2.8040    -0.8220 C.ar  1 <1>   0.1600 
 24 N      -11.7030     2.5770     0.1700 N.ar  1 <1>  -0.6200 
 25 N      -12.4090     1.1920     1.8880 N.pl3 1 <1>  -0.8380 
 26 C      -12.7250    -0.1830     2.3620 C.3   1 <1>   0.1290 
 27 C      -13.2530     2.2740     2.4680 C.3   1 <1>   0.1290 
 28 H       -3.4020     2.8710     2.4100 H     1 <1>   0.1500 
 29 H       -4.7880     1.7310     4.1080 H     1 <1>   0.1500 
 30 H       -3.1610    -1.0310    -2.2250 H     1 <1>   0.0800 
 31 H       -2.2630    -0.2940    -0.9040 H     1 <1>   0.0800 
 32 H       -3.2610     0.7050    -1.9720 H     1 <1>   0.0800 
 33 H       -5.9120    -0.3660     3.5610 H     1 <1>   0.1500 
 34 H       -6.4470    -2.0940     2.0790 H     1 <1>   0.0800 
 35 H       -5.1570    -2.5020     0.9640 H     1 <1>   0.0800 
 36 H       -6.1780    -1.0640    -0.6260 H     1 <1>   0.4500 
 37 H       -7.4460     0.3680     0.8540 H     1 <1>   0.0800 
 38 H       -8.5500    -0.9520     1.1340 H     1 <1>   0.0800 
 39 H       -8.0100    -3.2290     0.2050 H     1 <1>   0.0800 
 40 H       -6.5490    -3.4470    -0.7350 H     1 <1>   0.0800 
 41 H       -8.5770    -3.3290    -2.1580 H     1 <1>   0.0800 
 42 H       -7.4330    -2.0860    -2.5360 H     1 <1>   0.0800 
 43 H       -9.6800    -1.0970    -2.4790 H     1 <1>   0.0800 
 44 H       -9.9910    -1.8110    -0.9320 H     1 <1>   0.0800 
 45 H       -7.4920     0.2870    -2.6540 H     1 <1>   0.0800 
 46 H       -7.0410     1.2420    -1.2650 H     1 <1>   0.0800 
 47 H       -9.2690     1.7430    -3.1670 H     1 <1>   0.0800 
 48 H       -8.3190     2.8960    -2.2330 H     1 <1>   0.0800 
 49 H      -10.9860     3.7170    -1.3820 H     1 <1>   0.1500 
 50 H      -12.4140    -0.9180     1.6390 H     1 <1>   0.0800 
 51 H      -13.7850    -0.2860     2.5100 H     1 <1>   0.0800 
 52 H      -12.2180    -0.3680     3.2920 H     1 <1>   0.0800 
 53 H      -12.7460     3.2220     2.4040 H     1 <1>   0.0800 
 54 H      -13.4590     2.0690     3.5030 H     1 <1>   0.0800 
 55 H      -14.1800     2.3380     1.9240 H     1 <1>   0.0800 
@<TRIPOS>BOND
  1   1   2  1   
  2   2   3  ar  
  3   2   4  ar  
  4   3   5  1   
  5   3   6  ar  
  6   4   7  ar  
  7   4  28  1   
  8   5   8  1   
  9   6   9  ar  
 10   6  10  1   
 11   7   9  ar  
 12   7  29  1   
 13   8  30  1   
 14   8  31  1   
 15   8  32  1   
 16   9  33  1   
 17  10  11  1   
 18  10  34  1   
 19  10  35  1   
 20  11  12  1   
 21  11  13  1   
 22  11  36  1   
 23  12  14  1   
 24  12  37  1   
 25  12  38  1   
 26  13  15  1   
 27  13  39  1   
 28  13  40  1   
 29  14  16  1   
 30  14  17  1   
 31  14  18  1   
 32  15  17  1   
 33  15  41  1   
 34  15  42  1   
 35  16  19  ar  
 36  16  20  ar  
 37  17  43  1   
 38  17  44  1   
 39  18  21  1   
 40  18  45  1   
 41  18  46  1   
 42  19  22  ar  
 43  20  21  1   
 44  20  23  ar  
 45  21  47  1   
 46  21  48  1   
 47  22  24  ar  
 48  22  25  1   
 49  23  24  ar  
 50  23  49  1   
 51  25  26  1   
 52  25  27  1   
 53  26  50  1   
 54  26  51  1   
 55  26  52  1   
 56  27  53  1   
 57  27  54  1   
 58  27  55  1   
@<TRIPOS>SUBSTRUCTURE
  1 ****  12 GROUP 4 **** **** 0

# MOE 2024.06 (io_trps.svl 2023.06)
