@<TRIPOS>MOLECULE
NONAME
52 55 1 0 0 
SMALL
USER_CHARGES


@<TRIPOS>ATOM
  1 O       -0.8150     3.2890    -2.6790 O.co2 1 <1>  -0.9000 
  2 C       -1.2470     2.7770    -1.6400 C.2   1 <1>   0.9060 
  3 O       -2.4490     2.7170    -1.3870 O.co2 1 <1>  -0.9000 
  4 C       -0.2420     2.3410    -0.5930 C.3   1 <1>  -0.1060 
  5 C       -0.8170     2.4110     0.8390 C.3   1 <1>   0.2000 
  6 C        0.8990     3.3540    -0.6460 C.3   1 <1>   0.3430 
  7 C        0.2090     0.9190    -1.0230 C.3   1 <1>  -0.0170 
  8 O        0.1850     2.0910     1.7460 O.3   1 <1>  -0.6800 
  9 C       -1.3000     3.8130     1.2460 C.3   1 <1>  -0.1600 
 10 N        0.5050     4.7600    -0.2550 N.4   1 <1>  -0.9590 
 11 C        1.3090     0.2850    -0.1800 C.ar  1 <1>  -0.1440 
 12 C       -0.8920     4.9200     0.2740 C.3   1 <1>   0.3430 
 13 C        0.6460     5.6260    -1.4570 C.3   1 <1>   0.4860 
 14 C        2.6410     0.5930    -0.4070 C.ar  1 <1>  -0.1500 
 15 C        0.9810    -0.6180     0.8210 C.ar  1 <1>  -0.1500 
 16 C        0.5500     7.0800    -1.0310 C.ar  1 <1>  -0.1440 
 17 C        3.6330     0.0270     0.3750 C.ar  1 <1>  -0.1500 
 18 C        1.9720    -1.1840     1.6040 C.ar  1 <1>  -0.1500 
 19 C        1.6130     7.6930    -0.3720 C.ar  1 <1>  -0.1500 
 20 C       -0.6120     7.7990    -1.3000 C.ar  1 <1>  -0.1500 
 21 C        3.2980    -0.8590     1.3840 C.ar  1 <1>  -0.1500 
 22 C        1.4850     9.0130     0.0140 C.ar  1 <1>  -0.1440 
 23 C       -0.7290     9.1220    -0.9060 C.ar  1 <1>  -0.1500 
 24 C        0.3350     9.7080    -0.2480 C.ar  1 <1>   0.0820 
 25 C        2.4400     9.9260     0.7260 C.3   1 <1>  -0.0170 
 26 O        0.3740    10.9740     0.1940 O.3   1 <1>  -0.3620 
 27 C        1.6330    11.2350     0.7990 C.3   1 <1>   0.1200 
 28 H       -1.6150     1.6960     0.9590 H     1 <1>   0.0800 
 29 H        1.3050     3.3520    -1.6450 H     1 <1>   0.0800 
 30 H        1.6720     3.0160     0.0230 H     1 <1>   0.0800 
 31 H       -0.6530     0.2740    -1.0190 H     1 <1>   0.0800 
 32 H        0.5470     0.9540    -2.0460 H     1 <1>   0.0800 
 33 H        0.5880     1.2240     1.5060 H     1 <1>   0.4000 
 34 H       -2.3760     3.7980     1.2580 H     1 <1>   0.0800 
 35 H       -0.9810     4.0640     2.2420 H     1 <1>   0.0800 
 36 H        1.1470     5.0910     0.4690 H     1 <1>   0.4500 
 37 H       -1.0010     5.8810     0.7500 H     1 <1>   0.0800 
 38 H       -1.5810     4.8960    -0.5560 H     1 <1>   0.0800 
 39 H        1.5980     5.4530    -1.9300 H     1 <1>   0.0800 
 40 H       -0.1290     5.3940    -2.1720 H     1 <1>   0.0800 
 41 H        2.9180     1.2680    -1.1980 H     1 <1>   0.1500 
 42 H       -0.0470    -0.8880     0.9970 H     1 <1>   0.1500 
 43 H        4.6660     0.2700     0.1970 H     1 <1>   0.1500 
 44 H        1.7120    -1.8800     2.3830 H     1 <1>   0.1500 
 45 H        2.5250     7.1620    -0.1630 H     1 <1>   0.1500 
 46 H       -1.4350     7.3330    -1.8190 H     1 <1>   0.1500 
 47 H        4.0690    -1.2990     1.9930 H     1 <1>   0.1500 
 48 H       -1.6170     9.6950    -1.1030 H     1 <1>   0.1500 
 49 H        3.3460    10.0640     0.1630 H     1 <1>   0.0800 
 50 H        2.6710     9.5630     1.7110 H     1 <1>   0.0800 
 51 H        2.1100    12.0260     0.2470 H     1 <1>   0.0800 
 52 H        1.4600    11.5410     1.8150 H     1 <1>   0.0800 
@<TRIPOS>BOND
  1   1   2  ar  
  2   2   3  ar  
  3   2   4  1   
  4   4   5  1   
  5   4   6  1   
  6   4   7  1   
  7   5   8  1   
  8   5   9  1   
  9   5  28  1   
 10   6  10  1   
 11   6  29  1   
 12   6  30  1   
 13   7  11  1   
 14   7  31  1   
 15   7  32  1   
 16   8  33  1   
 17   9  12  1   
 18   9  34  1   
 19   9  35  1   
 20  10  12  1   
 21  10  13  1   
 22  10  36  1   
 23  11  14  ar  
 24  11  15  ar  
 25  12  37  1   
 26  12  38  1   
 27  13  16  1   
 28  13  39  1   
 29  13  40  1   
 30  14  17  ar  
 31  14  41  1   
 32  15  18  ar  
 33  15  42  1   
 34  16  19  ar  
 35  16  20  ar  
 36  17  21  ar  
 37  17  43  1   
 38  18  21  ar  
 39  18  44  1   
 40  19  22  ar  
 41  19  45  1   
 42  20  23  ar  
 43  20  46  1   
 44  21  47  1   
 45  22  24  ar  
 46  22  25  1   
 47  23  24  ar  
 48  23  48  1   
 49  24  26  1   
 50  25  27  1   
 51  25  49  1   
 52  25  50  1   
 53  26  27  1   
 54  27  51  1   
 55  27  52  1   
@<TRIPOS>SUBSTRUCTURE
  1 ****  10 GROUP 4 **** **** 0

# MOE 2024.06 (io_trps.svl 2023.06)
