@<TRIPOS>MOLECULE
NONAME
52 55 1 0 0 
SMALL
USER_CHARGES


@<TRIPOS>ATOM
  1 O        1.7510    -0.7340     1.7820 O.2   1 <1>  -0.5700 
  2 C        2.4330    -1.3890     1.0320 C.2   1 <1>   0.5690 
  3 N        3.6730    -0.9470     0.6500 N.am  1 <1>  -0.6600 
  4 C        1.8680    -2.6860     0.4850 C.3   1 <1>  -0.0990 
  5 C        4.3780     0.1120     1.4500 C.3   1 <1>   0.1400 
  6 C        4.3960    -1.3930    -0.5800 C.3   1 <1>   0.1400 
  7 C        0.6920    -3.2170     1.3160 C.3   1 <1>   0.0960 
  8 C        4.5910     1.4730     0.7270 C.3   1 <1>   0.4230 
  9 C        4.4640    -0.2610    -1.6300 C.3   1 <1>  -0.0800 
 10 N        0.1800    -4.4570     0.7030 N.pl3 1 <1>   0.0480 
 11 N        3.5790     1.8140    -0.3510 N.4   1 <1>  -0.9590 
 12 C        6.0380     1.6240     0.2090 C.3   1 <1>   0.1200 
 13 C        5.8690     0.3420    -1.7850 C.3   1 <1>   0.1200 
 14 C        3.3610     0.7960    -1.4400 C.3   1 <1>   0.3430 
 15 C       -0.6360    -4.5200    -0.3830 C.ar  1 <1>  -0.1520 
 16 C        0.5460    -5.7460     0.9570 C.2   1 <1>   0.0060 
 17 C        2.2610     2.1450     0.2800 C.3   1 <1>   0.2630 
 18 O        6.4640     0.5320    -0.5450 O.3   1 <1>  -0.5600 
 19 C       -0.7050    -5.8600    -0.7160 C.ar  1 <1>   0.2270 
 20 C       -1.3290    -3.5570    -1.1230 C.ar  1 <1>  -0.1500 
 21 N        0.0450    -6.6040     0.1410 N.2   1 <1>  -0.5650 
 22 C        1.4650    -6.1420     2.0960 C.3   1 <1>  -0.0600 
 23 C       -1.4670    -6.2690    -1.8090 C.ar  1 <1>  -0.1500 
 24 C       -2.0800    -3.9700    -2.2020 C.ar  1 <1>  -0.1500 
 25 C       -2.1490    -5.3260    -2.5460 C.ar  1 <1>  -0.1500 
 26 H        1.5410    -2.5160    -0.5240 H     1 <1>   0.0800 
 27 H        2.6450    -3.4280     0.4820 H     1 <1>   0.0800 
 28 H        3.8280     0.3040     2.3540 H     1 <1>   0.0800 
 29 H        5.3330    -0.2750     1.7650 H     1 <1>   0.0800 
 30 H        5.3860    -1.7280    -0.3130 H     1 <1>   0.0800 
 31 H        3.8930    -2.2360    -1.0200 H     1 <1>   0.0800 
 32 H       -0.1050    -2.4950     1.3470 H     1 <1>   0.0800 
 33 H        1.0040    -3.4170     2.3250 H     1 <1>   0.0800 
 34 H        4.4990     2.2260     1.4910 H     1 <1>   0.0800 
 35 H        4.2530    -0.7270    -2.5760 H     1 <1>   0.0800 
 36 H        3.9250     2.6670    -0.8080 H     1 <1>   0.4500 
 37 H        6.7040     1.6830     1.0520 H     1 <1>   0.0800 
 38 H        6.1620     2.5220    -0.3700 H     1 <1>   0.0800 
 39 H        5.8620     1.2720    -2.3300 H     1 <1>   0.0800 
 40 H        6.4970    -0.3520    -2.3180 H     1 <1>   0.0800 
 41 H        2.4430     0.2660    -1.2400 H     1 <1>   0.0800 
 42 H        3.2230     1.3170    -2.3730 H     1 <1>   0.0800 
 43 H        1.8530     1.2780     0.7720 H     1 <1>   0.0800 
 44 H        1.5580     2.4760    -0.4670 H     1 <1>   0.0800 
 45 H        2.3780     2.9280     1.0110 H     1 <1>   0.0800 
 46 H       -1.2790    -2.5190    -0.8500 H     1 <1>   0.1500 
 47 H        1.5930    -7.2100     2.1020 H     1 <1>   0.0800 
 48 H        1.0380    -5.8450     3.0360 H     1 <1>   0.0800 
 49 H        2.4280    -5.6830     1.9750 H     1 <1>   0.0800 
 50 H       -1.5010    -7.3150    -2.0460 H     1 <1>   0.1500 
 51 H       -2.6260    -3.2530    -2.7900 H     1 <1>   0.1500 
 52 H       -2.7420    -5.6250    -3.3930 H     1 <1>   0.1500 
@<TRIPOS>BOND
  1   1   2  2   
  2   2   3  am  
  3   2   4  1   
  4   3   5  1   
  5   3   6  1   
  6   4   7  1   
  7   4  26  1   
  8   4  27  1   
  9   5   8  1   
 10   5  28  1   
 11   5  29  1   
 12   6   9  1   
 13   6  30  1   
 14   6  31  1   
 15   7  10  1   
 16   7  32  1   
 17   7  33  1   
 18   8  11  1   
 19   8  12  1   
 20   8  34  1   
 21   9  13  1   
 22   9  14  1   
 23   9  35  1   
 24  10  15  1   
 25  10  16  1   
 26  11  14  1   
 27  11  17  1   
 28  11  36  1   
 29  12  18  1   
 30  12  37  1   
 31  12  38  1   
 32  13  18  1   
 33  13  39  1   
 34  13  40  1   
 35  14  41  1   
 36  14  42  1   
 37  15  19  ar  
 38  15  20  ar  
 39  16  21  2   
 40  16  22  1   
 41  17  43  1   
 42  17  44  1   
 43  17  45  1   
 44  19  21  1   
 45  19  23  ar  
 46  20  24  ar  
 47  20  46  1   
 48  22  47  1   
 49  22  48  1   
 50  22  49  1   
 51  23  25  ar  
 52  23  50  1   
 53  24  25  ar  
 54  24  51  1   
 55  25  52  1   
@<TRIPOS>SUBSTRUCTURE
  1 ****   4 GROUP 4 **** **** 0

# MOE 2024.06 (io_trps.svl 2023.06)
