@<TRIPOS>MOLECULE
NONAME
49 52 1 0 0 
SMALL
USER_CHARGES


@<TRIPOS>ATOM
  1 CL       2.1150     0.7400     3.3640 Cl    1 <1>  -0.1770 
  2 C        2.3640     0.4980     1.6490 C.ar  1 <1>   0.1770 
  3 C        2.8640     1.5280     0.8360 C.ar  1 <1>  -0.1520 
  4 C        2.0680    -0.7350     1.1180 C.ar  1 <1>  -0.1500 
  5 N        3.2290     2.8360     1.0830 N.pl3 1 <1>   0.0480 
  6 C        3.0710     1.2680    -0.5140 C.ar  1 <1>   0.0000 
  7 C        2.2700    -0.9790    -0.2450 C.ar  1 <1>  -0.1500 
  8 C        3.6950     3.3900    -0.0970 C.2   1 <1>  -0.2370 
  9 C        3.0040     3.5510     2.3610 C.3   1 <1>   0.0160 
 10 C        2.7690     0.0110    -1.0560 C.ar  1 <1>  -0.1500 
 11 C        3.5920     2.4410    -1.0740 C.2   1 <1>  -0.1500 
 12 C        4.1980     4.7310    -0.2380 C.2   1 <1>   0.7150 
 13 O        4.8060     5.2830     0.6610 O.2   1 <1>  -0.5700 
 14 N        3.9870     5.3730    -1.4300 N.am  1 <1>  -0.4940 
 15 C        4.2840     6.6870    -1.8720 C.2   1 <1>  -0.0880 
 16 N        5.3990     7.4390    -1.6330 N.pl3 1 <1>   0.3140 
 17 C        3.4820     7.4450    -2.6560 C.2   1 <1>  -0.1500 
 18 N        5.3090     8.6520    -2.2340 N.2   1 <1>  -0.7070 
 19 C        6.6240     7.0750    -0.8730 C.3   1 <1>   0.1760 
 20 C        4.1630     8.6400    -2.8390 C.2   1 <1>   0.1390 
 21 C        6.6640     7.8550     0.4500 C.3   1 <1>  -0.1600 
 22 C        7.8980     7.3480    -1.6890 C.3   1 <1>  -0.1600 
 23 C        7.9210     7.5120     1.2360 C.3   1 <1>   0.3430 
 24 C        9.1440     7.0320    -0.8670 C.3   1 <1>   0.3430 
 25 N        9.1220     7.8160     0.4030 N.4   1 <1>  -0.9590 
 26 C       10.3780     7.6040     1.1850 C.3   1 <1>   0.2630 
 27 H        1.6840    -1.5150     1.7500 H     1 <1>   0.1500 
 28 H        2.0330    -1.9500    -0.6460 H     1 <1>   0.1500 
 29 H        2.0210     3.3240     2.7280 H     1 <1>   0.0800 
 30 H        3.0710     4.6130     2.2230 H     1 <1>   0.0800 
 31 H        3.7390     3.2360     3.0780 H     1 <1>   0.0800 
 32 H        2.9350    -0.1610    -2.1050 H     1 <1>   0.1500 
 33 H        3.8660     2.5230    -2.1120 H     1 <1>   0.1500 
 34 H        3.3340     4.8610    -2.0240 H     1 <1>   0.3700 
 35 H        2.5160     7.2070    -3.0620 H     1 <1>   0.1500 
 36 H        6.5940     6.0220    -0.6740 H     1 <1>   0.0800 
 37 H        3.7900     9.4710    -3.4160 H     1 <1>   0.1500 
 38 H        5.8030     7.6060     1.0440 H     1 <1>   0.0800 
 39 H        6.6350     8.9140     0.2590 H     1 <1>   0.0800 
 40 H        7.9350     8.3780    -2.0010 H     1 <1>   0.0800 
 41 H        7.8940     6.7340    -2.5730 H     1 <1>   0.0800 
 42 H        7.9070     6.4650     1.4980 H     1 <1>   0.0800 
 43 H        7.9430     8.0910     2.1450 H     1 <1>   0.0800 
 44 H       10.0230     7.2800    -1.4400 H     1 <1>   0.0800 
 45 H        9.1710     5.9770    -0.6440 H     1 <1>   0.0800 
 46 H        9.0640     8.8130     0.1430 H     1 <1>   0.4500 
 47 H       10.4680     6.5690     1.4750 H     1 <1>   0.0800 
 48 H       10.3720     8.2130     2.0750 H     1 <1>   0.0800 
 49 H       11.2380     7.8730     0.5920 H     1 <1>   0.0800 
@<TRIPOS>BOND
  1   1   2  1   
  2   2   3  ar  
  3   2   4  ar  
  4   3   5  1   
  5   3   6  ar  
  6   4   7  ar  
  7   4  27  1   
  8   5   8  1   
  9   5   9  1   
 10   6  10  ar  
 11   6  11  1   
 12   7  10  ar  
 13   7  28  1   
 14   8  11  2   
 15   8  12  1   
 16   9  29  1   
 17   9  30  1   
 18   9  31  1   
 19  10  32  1   
 20  11  33  1   
 21  12  13  2   
 22  12  14  am  
 23  14  15  1   
 24  14  34  1   
 25  15  16  1   
 26  15  17  2   
 27  16  18  1   
 28  16  19  1   
 29  17  20  1   
 30  17  35  1   
 31  18  20  2   
 32  19  21  1   
 33  19  22  1   
 34  19  36  1   
 35  20  37  1   
 36  21  23  1   
 37  21  38  1   
 38  21  39  1   
 39  22  24  1   
 40  22  40  1   
 41  22  41  1   
 42  23  25  1   
 43  23  42  1   
 44  23  43  1   
 45  24  25  1   
 46  24  44  1   
 47  24  45  1   
 48  25  26  1   
 49  25  46  1   
 50  26  47  1   
 51  26  48  1   
 52  26  49  1   
@<TRIPOS>SUBSTRUCTURE
  1 ****  12 GROUP 4 **** **** 0

# MOE 2024.06 (io_trps.svl 2023.06)
