@<TRIPOS>MOLECULE
NONAME
34 35 1 0 0 
SMALL
USER_CHARGES


@<TRIPOS>ATOM
  1 S       -0.2150     0.8500    -0.2420 S.3   1 <1>  -0.3310 
  2 C        1.5480     0.5100    -0.3370 C.2   1 <1>   0.1150 
  3 C       -0.0630     2.6500    -0.4590 C.3   1 <1>   0.7200 
  4 C        2.1900     1.7800    -0.5400 C.2   1 <1>   0.6160 
  5 C        1.8970    -0.8010    -0.2070 C.2   1 <1>  -0.0500 
  6 N        1.3710     2.8870    -0.5410 N.am  1 <1>  -0.6600 
  7 N       -0.5660     3.2340     0.7680 N.pl3 1 <1>  -0.7790 
  8 O        3.3840     1.9430    -0.7270 O.2   1 <1>  -0.5700 
  9 N        3.1320    -1.4380    -0.2120 N.pl3 1 <1>  -0.8380 
 10 C        1.8480     4.2590    -0.8430 C.3   1 <1>   0.1400 
 11 N       -1.9460     3.5620     0.5590 N.pl3 1 <1>   0.4520 
 12 C        4.4330    -0.7190    -0.2900 C.3   1 <1>   0.1290 
 13 C        3.2270    -2.9190    -0.1220 C.3   1 <1>   0.1290 
 14 C        2.3230     4.9340     0.4410 C.3   1 <1>  -0.2400 
 15 C       -2.4740     4.7760     0.4530 C.2   1 <1>   0.0370 
 16 C       -3.0010     2.7660     0.3960 C.2   1 <1>   0.0370 
 17 N       -3.7480     4.7310     0.2280 N.2   1 <1>  -0.3380 
 18 N       -4.0870     3.4420     0.1930 N.2   1 <1>  -0.3380 
 19 H       -0.5910     2.9550    -1.3490 H     1 <1>   0.0800 
 20 H        1.0740    -1.4850    -0.0770 H     1 <1>   0.1500 
 21 H       -0.5500     2.4680     1.4450 H     1 <1>   0.3600 
 22 H        1.0580     4.8360    -1.2930 H     1 <1>   0.0800 
 23 H        2.6660     4.2080    -1.5430 H     1 <1>   0.0800 
 24 H        4.4780     0.0380     0.4730 H     1 <1>   0.0800 
 25 H        4.5350    -0.2570    -1.2570 H     1 <1>   0.0800 
 26 H        5.2530    -1.4000    -0.1440 H     1 <1>   0.0800 
 27 H        2.2470    -3.3610    -0.0940 H     1 <1>   0.0800 
 28 H        3.7570    -3.1950     0.7740 H     1 <1>   0.0800 
 29 H        3.7550    -3.3010    -0.9780 H     1 <1>   0.0800 
 30 H        1.5180     5.0200     1.1470 H     1 <1>   0.0800 
 31 H        2.6900     5.9200     0.2180 H     1 <1>   0.0800 
 32 H        3.1240     4.3660     0.8800 H     1 <1>   0.0800 
 33 H       -1.8900     5.6720     0.5440 H     1 <1>   0.1500 
 34 H       -2.9440     1.6950     0.4300 H     1 <1>   0.1500 
@<TRIPOS>BOND
  1   1   2  1   
  2   1   3  1   
  3   2   4  1   
  4   2   5  2   
  5   3   6  1   
  6   3   7  1   
  7   3  19  1   
  8   4   6  am  
  9   4   8  2   
 10   5   9  1   
 11   5  20  1   
 12   6  10  1   
 13   7  11  1   
 14   7  21  1   
 15   9  12  1   
 16   9  13  1   
 17  10  14  1   
 18  10  22  1   
 19  10  23  1   
 20  11  15  1   
 21  11  16  1   
 22  12  24  1   
 23  12  25  1   
 24  12  26  1   
 25  13  27  1   
 26  13  28  1   
 27  13  29  1   
 28  14  30  1   
 29  14  31  1   
 30  14  32  1   
 31  15  17  2   
 32  15  33  1   
 33  16  18  2   
 34  16  34  1   
 35  17  18  1   
@<TRIPOS>SUBSTRUCTURE
  1 ****   3 GROUP 4 **** **** 0

# MOE 2024.06 (io_trps.svl 2023.06)
