@<TRIPOS>MOLECULE
NONAME
43 46 1 0 0 
SMALL
USER_CHARGES


@<TRIPOS>ATOM
  1 O       -0.4740     0.2210    -0.2230 O.2   1 <1>  -0.5700 
  2 C       -1.5160     0.8610    -0.2090 C.2   1 <1>   0.7160 
  3 N       -2.6910     0.1390    -0.3450 N.am  1 <1>  -0.6600 
  4 C       -1.4710     2.3180    -0.0540 C.2   1 <1>   0.2030 
  5 C       -4.0620     0.7040    -0.3410 C.3   1 <1>   0.1400 
  6 C       -2.7350    -1.3390    -0.4590 C.3   1 <1>   0.1400 
  7 N       -2.4880     3.1750     0.0220 N.2   1 <1>  -0.7070 
  8 C       -0.2730     3.0420     0.0420 C.2   1 <1>  -0.1810 
  9 C       -4.9930    -0.5010    -0.4910 C.3   1 <1>   0.2000 
 10 C       -4.1670    -1.7170    -0.0780 C.3   1 <1>  -0.0800 
 11 N       -1.9380     4.3970     0.1600 N.pl3 1 <1>   0.3000 
 12 C       -0.5990     4.3190     0.1730 C.2   1 <1>  -0.3320 
 13 C        1.2150     2.8290     0.0450 C.3   1 <1>   0.0210 
 14 O       -6.1080    -0.3910     0.3270 O.3   1 <1>  -0.6800 
 15 C       -4.6670    -3.0200    -0.7250 C.3   1 <1>  -0.0170 
 16 C        0.5730     5.2500     0.2920 C.3   1 <1>   0.0200 
 17 C        1.7690     4.2740     0.1580 C.3   1 <1>  -0.1600 
 18 C       -3.8410    -4.2170    -0.2860 C.ar  1 <1>   0.1670 
 19 N       -2.7410    -4.4600    -0.9810 N.ar  1 <1>  -0.6200 
 20 C       -4.2600    -4.9790     0.7950 C.ar  1 <1>  -0.1500 
 21 C       -2.0280    -5.5020    -0.5820 C.ar  1 <1>   0.1600 
 22 C       -3.5080    -6.0610     1.1990 C.ar  1 <1>  -0.1500 
 23 C       -2.3600    -6.3210     0.4830 C.ar  1 <1>  -0.1500 
 24 H       -4.2330     1.2150     0.5900 H     1 <1>   0.0800 
 25 H       -4.1840     1.3870    -1.1640 H     1 <1>   0.0800 
 26 H       -2.5190    -1.6190    -1.4770 H     1 <1>   0.0800 
 27 H       -2.0160    -1.8040     0.1950 H     1 <1>   0.0800 
 28 H       -5.3250    -0.5790    -1.5120 H     1 <1>   0.0800 
 29 H       -4.1900    -1.8200     0.9920 H     1 <1>   0.0800 
 30 H       -2.4950     5.2560     0.2430 H     1 <1>   0.2700 
 31 H        1.5010     2.2280     0.8900 H     1 <1>   0.0800 
 32 H        1.5300     2.3520    -0.8670 H     1 <1>   0.0800 
 33 H       -5.8310    -0.2480     1.2520 H     1 <1>   0.4000 
 34 H       -4.6240    -2.9390    -1.7970 H     1 <1>   0.0800 
 35 H       -5.6950    -3.1760    -0.4540 H     1 <1>   0.0800 
 36 H        0.5730     5.9780    -0.5000 H     1 <1>   0.0800 
 37 H        0.5750     5.7400     1.2500 H     1 <1>   0.0800 
 38 H        2.3340     4.5120    -0.7260 H     1 <1>   0.0800 
 39 H        2.4160     4.3560     1.0130 H     1 <1>   0.0800 
 40 H       -5.1640    -4.7270     1.3180 H     1 <1>   0.1500 
 41 H       -1.1290    -5.7140    -1.1360 H     1 <1>   0.1500 
 42 H       -3.8040    -6.6740     2.0340 H     1 <1>   0.1500 
 43 H       -1.7270    -7.1490     0.7440 H     1 <1>   0.1500 
@<TRIPOS>BOND
  1   1   2  2   
  2   2   3  am  
  3   2   4  1   
  4   3   5  1   
  5   3   6  1   
  6   4   7  2   
  7   4   8  1   
  8   5   9  1   
  9   5  24  1   
 10   5  25  1   
 11   6  10  1   
 12   6  26  1   
 13   6  27  1   
 14   7  11  1   
 15   8  12  2   
 16   8  13  1   
 17   9  10  1   
 18   9  14  1   
 19   9  28  1   
 20  10  15  1   
 21  10  29  1   
 22  11  12  1   
 23  11  30  1   
 24  12  16  1   
 25  13  17  1   
 26  13  31  1   
 27  13  32  1   
 28  14  33  1   
 29  15  18  1   
 30  15  34  1   
 31  15  35  1   
 32  16  17  1   
 33  16  36  1   
 34  16  37  1   
 35  17  38  1   
 36  17  39  1   
 37  18  19  ar  
 38  18  20  ar  
 39  19  21  ar  
 40  20  22  ar  
 41  20  40  1   
 42  21  23  ar  
 43  21  41  1   
 44  22  23  ar  
 45  22  42  1   
 46  23  43  1   
@<TRIPOS>SUBSTRUCTURE
  1 ****   3 GROUP 4 **** **** 0

# MOE 2024.06 (io_trps.svl 2023.06)
