@<TRIPOS>MOLECULE
NONAME
50 51 1 0 0 
SMALL
USER_CHARGES


@<TRIPOS>ATOM
  1 S        1.4600     0.3130    -0.0560 S.o2  1 <1>   1.3330 
  2 O        2.8370     0.0320    -0.3910 O.2   1 <1>  -0.6500 
  3 O        1.0700     0.4270     1.3320 O.2   1 <1>  -0.6500 
  4 N        0.4830    -0.8730    -0.7760 N.am  1 <1>  -0.8490 
  5 C        0.9890     1.8080    -0.9220 C.3   1 <1>  -0.0550 
  6 C       -0.8770    -0.9190    -0.2280 C.3   1 <1>   0.1160 
  7 C        1.0910    -2.2050    -0.7110 C.3   1 <1>   0.1160 
  8 C        1.8170     3.0390    -0.5020 C.3   1 <1>  -0.0800 
  9 C        1.5480     4.2920    -1.3390 C.3   1 <1>   0.2000 
 10 C        1.5840     3.4930     0.9460 C.3   1 <1>   0.1400 
 11 O        0.1790     4.4430    -1.5040 O.3   1 <1>  -0.6800 
 12 C        2.0500     5.4310    -0.4560 C.3   1 <1>   0.1400 
 13 N        1.7840     4.9650     0.9290 N.am  1 <1>  -0.6600 
 14 C        1.6320     5.7580     2.0490 C.2   1 <1>   0.7150 
 15 O        1.1820     5.2290     3.0510 O.2   1 <1>  -0.5700 
 16 C        1.9640     7.1700     2.0920 C.2   1 <1>   0.0550 
 17 O        2.5970     7.7960     1.1010 O.3   1 <1>  -0.2800 
 18 C        1.7290     8.0780     3.0790 C.2   1 <1>  -0.1500 
 19 C        2.7670     9.0650     1.4150 C.2   1 <1>   0.1600 
 20 C        2.2440     9.2960     2.6410 C.2   1 <1>  -0.1500 
 21 C        3.4200     9.9450     0.5000 C.1   1 <1>  -0.0200 
 22 C        3.9610    10.6870    -0.2600 C.1   1 <1>  -0.2000 
 23 C        4.6350    11.6130    -1.2100 C.3   1 <1>   0.4800 
 24 O        4.5340    12.8780    -0.6960 O.3   1 <1>  -0.6800 
 25 C        6.1190    11.2900    -1.3330 C.3   1 <1>  -0.2400 
 26 C        3.9350    11.6170    -2.5640 C.3   1 <1>  -0.2400 
 27 H        1.1250     1.6490    -1.9740 H     1 <1>   0.0800 
 28 H       -0.0520     2.0010    -0.7560 H     1 <1>   0.0800 
 29 H       -1.4740    -1.6270    -0.7780 H     1 <1>   0.0800 
 30 H       -1.3430     0.0480    -0.3050 H     1 <1>   0.0800 
 31 H       -0.8560    -1.2110     0.8100 H     1 <1>   0.0800 
 32 H        0.4560    -2.9290    -1.1920 H     1 <1>   0.0800 
 33 H        1.2490    -2.4950     0.3140 H     1 <1>   0.0800 
 34 H        2.0410    -2.2020    -1.2200 H     1 <1>   0.0800 
 35 H        2.8620     2.7980    -0.6010 H     1 <1>   0.0800 
 36 H        2.0120     4.2700    -2.3110 H     1 <1>   0.0800 
 37 H        2.2760     3.0230     1.6260 H     1 <1>   0.0800 
 38 H        0.5780     3.2780     1.2660 H     1 <1>   0.0800 
 39 H       -0.2180     4.6740    -0.6390 H     1 <1>   0.4000 
 40 H        1.5420     6.3540    -0.6800 H     1 <1>   0.0800 
 41 H        3.1110     5.5620    -0.5840 H     1 <1>   0.0800 
 42 H        1.2400     7.9010     4.0220 H     1 <1>   0.1500 
 43 H        2.2230    10.2250     3.1810 H     1 <1>   0.1500 
 44 H        4.9710    13.5010    -1.2990 H     1 <1>   0.4000 
 45 H        6.2420    10.2930    -1.7150 H     1 <1>   0.0800 
 46 H        6.5880    11.3390    -0.3660 H     1 <1>   0.0800 
 47 H        6.6060    11.9740    -2.0030 H     1 <1>   0.0800 
 48 H        3.9740    10.6330    -2.9940 H     1 <1>   0.0800 
 49 H        4.4110    12.3030    -3.2400 H     1 <1>   0.0800 
 50 H        2.9020    11.8890    -2.4430 H     1 <1>   0.0800 
@<TRIPOS>BOND
  1   1   2  2   
  2   1   3  2   
  3   1   4  am  
  4   1   5  1   
  5   4   6  1   
  6   4   7  1   
  7   5   8  1   
  8   5  27  1   
  9   5  28  1   
 10   6  29  1   
 11   6  30  1   
 12   6  31  1   
 13   7  32  1   
 14   7  33  1   
 15   7  34  1   
 16   8   9  1   
 17   8  10  1   
 18   8  35  1   
 19   9  11  1   
 20   9  12  1   
 21   9  36  1   
 22  10  13  1   
 23  10  37  1   
 24  10  38  1   
 25  11  39  1   
 26  12  13  1   
 27  12  40  1   
 28  12  41  1   
 29  13  14  am  
 30  14  15  2   
 31  14  16  1   
 32  16  17  1   
 33  16  18  2   
 34  17  19  1   
 35  18  20  1   
 36  18  42  1   
 37  19  20  2   
 38  19  21  1   
 39  20  43  1   
 40  21  22  3   
 41  22  23  1   
 42  23  24  1   
 43  23  25  1   
 44  23  26  1   
 45  24  44  1   
 46  25  45  1   
 47  25  46  1   
 48  25  47  1   
 49  26  48  1   
 50  26  49  1   
 51  26  50  1   
@<TRIPOS>SUBSTRUCTURE
  1 ****  12 GROUP 4 **** **** 0

# MOE 2024.06 (io_trps.svl 2023.06)
