@<TRIPOS>MOLECULE
NONAME
42 44 1 0 0 
SMALL
USER_CHARGES


@<TRIPOS>ATOM
  1 S       -0.5840     0.2930    -0.7630 S.3   1 <1>  -0.0800 
  2 C       -1.9800    -0.4110    -0.0160 C.2   1 <1>   0.4420 
  3 C       -0.8510     1.6890     0.2240 C.2   1 <1>   0.1980 
  4 N       -2.5190     0.3750     0.8420 N.2   1 <1>  -0.3380 
  5 N       -2.3150    -1.6860    -0.4220 N.am  1 <1>  -0.4940 
  6 N       -1.8700     1.5720     0.9750 N.2   1 <1>  -0.3380 
  7 C        0.1120     2.8530     0.1010 C.3   1 <1>   0.1640 
  8 C       -3.3680    -2.4640    -0.0390 C.2   1 <1>   0.5690 
  9 C        1.5410     2.4200     0.3990 C.ar  1 <1>  -0.1440 
 10 O       -4.2270    -2.1080     0.7230 O.2   1 <1>  -0.5700 
 11 C       -3.4520    -3.8660    -0.6000 C.3   1 <1>  -0.0990 
 12 C        2.5070     2.4240    -0.5970 C.ar  1 <1>  -0.1500 
 13 C        1.8850     2.0100     1.6770 C.ar  1 <1>  -0.1500 
 14 C       -3.0720    -4.8990     0.4670 C.3   1 <1>   0.0200 
 15 C        3.8050     2.0210    -0.3240 C.ar  1 <1>  -0.1430 
 16 C        3.1790     1.6090     1.9560 C.ar  1 <1>  -0.1500 
 17 C       -3.1370    -6.3050    -0.1010 C.2   1 <1>  -0.1400 
 18 C        4.1360     1.6140     0.9580 C.ar  1 <1>  -0.1500 
 19 C        4.8600     2.0260    -1.4150 C.3   1 <1>  -0.0970 
 20 S       -1.8680    -6.7850    -1.1950 S.3   1 <1>  -0.0800 
 21 C       -3.9870    -7.3360     0.0470 C.2   1 <1>   0.0460 
 22 C       -2.6260    -8.3530    -1.3410 C.2   1 <1>   0.2280 
 23 N       -3.6900    -8.4890    -0.6580 N.2   1 <1>  -0.5650 
 24 C       -5.2390    -7.3830     0.8970 C.3   1 <1>  -0.0590 
 25 H       -1.6730    -2.0970    -1.0930 H     1 <1>   0.3700 
 26 H       -0.1760     3.6220     0.7950 H     1 <1>   0.0800 
 27 H        0.0410     3.2620    -0.8900 H     1 <1>   0.0800 
 28 H       -2.8090    -3.9630    -1.4550 H     1 <1>   0.0800 
 29 H       -4.4620    -4.0450    -0.9220 H     1 <1>   0.0800 
 30 H        2.2530     2.7400    -1.5930 H     1 <1>   0.1500 
 31 H        1.1460     1.9980     2.4610 H     1 <1>   0.1500 
 32 H       -3.7480    -4.8110     1.3000 H     1 <1>   0.0800 
 33 H       -2.0780    -4.7090     0.8330 H     1 <1>   0.0800 
 34 H        3.4410     1.2910     2.9510 H     1 <1>   0.1500 
 35 H        5.1400     1.3020     1.1840 H     1 <1>   0.1500 
 36 H        4.4030     1.9560    -2.3860 H     1 <1>   0.0800 
 37 H        5.5260     1.1910    -1.2940 H     1 <1>   0.0800 
 38 H        5.4300     2.9370    -1.3650 H     1 <1>   0.0800 
 39 H       -2.1490    -9.0730    -1.9830 H     1 <1>   0.1500 
 40 H       -5.4100    -6.4450     1.3900 H     1 <1>   0.0800 
 41 H       -5.1410    -8.1550     1.6380 H     1 <1>   0.0800 
 42 H       -6.0860    -7.6070     0.2750 H     1 <1>   0.0800 
@<TRIPOS>BOND
  1   1   2  1   
  2   1   3  1   
  3   2   4  2   
  4   2   5  1   
  5   3   6  2   
  6   3   7  1   
  7   4   6  1   
  8   5   8  am  
  9   5  25  1   
 10   7   9  1   
 11   7  26  1   
 12   7  27  1   
 13   8  10  2   
 14   8  11  1   
 15   9  12  ar  
 16   9  13  ar  
 17  11  14  1   
 18  11  28  1   
 19  11  29  1   
 20  12  15  ar  
 21  12  30  1   
 22  13  16  ar  
 23  13  31  1   
 24  14  17  1   
 25  14  32  1   
 26  14  33  1   
 27  15  18  ar  
 28  15  19  1   
 29  16  18  ar  
 30  16  34  1   
 31  17  20  1   
 32  17  21  2   
 33  18  35  1   
 34  19  36  1   
 35  19  37  1   
 36  19  38  1   
 37  20  22  1   
 38  21  23  1   
 39  21  24  1   
 40  22  23  2   
 41  22  39  1   
 42  24  40  1   
 43  24  41  1   
 44  24  42  1   
@<TRIPOS>SUBSTRUCTURE
  1 ****   5 GROUP 4 **** **** 0

# MOE 2024.06 (io_trps.svl 2023.06)
