@<TRIPOS>MOLECULE
NONAME
45 47 1 0 0 
SMALL
USER_CHARGES


@<TRIPOS>ATOM
  1 O       -0.2450     0.6600    -0.2710 O.2   1 <1>  -0.5700 
  2 C       -0.3160     1.8460    -0.4900 C.2   1 <1>   0.5690 
  3 N       -0.8700     2.7240     0.4030 N.am  1 <1>  -0.6600 
  4 C        0.2220     2.3680    -1.8240 C.3   1 <1>   0.1810 
  5 C       -0.9620     4.1890     0.0950 C.3   1 <1>   0.3640 
  6 C       -1.3470     2.3010     1.7520 C.3   1 <1>   0.0600 
  7 O        0.5930     3.7220    -1.7610 O.3   1 <1>  -0.5600 
  8 C       -2.3780     4.7350     0.3360 C.ar  1 <1>  -0.1430 
  9 C       -0.4440     4.5800    -1.3130 C.3   1 <1>   0.2610 
 10 C       -3.5490     4.1740    -0.1850 C.ar  1 <1>  -0.1430 
 11 C       -2.4760     5.8750     1.1260 C.ar  1 <1>  -0.1500 
 12 C       -0.0080     6.0520    -1.3040 C.2   1 <1>   0.5690 
 13 C       -4.7730     4.7590     0.1080 C.ar  1 <1>  -0.1500 
 14 C       -3.5730     2.9300    -1.0670 C.3   1 <1>  -0.0960 
 15 C       -3.7000     6.4490     1.4090 C.ar  1 <1>  -0.1500 
 16 O       -0.7340     6.8360    -1.8720 O.2   1 <1>  -0.5700 
 17 N        1.1320     6.4930    -0.6630 N.am  1 <1>  -0.6600 
 18 C       -4.8530     5.8890     0.8990 C.ar  1 <1>  -0.1500 
 19 C        1.5030     7.9410    -0.6570 C.3   1 <1>   0.1400 
 20 C        2.1930     5.6300    -0.0540 C.3   1 <1>   0.1400 
 21 C        1.9860     8.3760     0.7360 C.3   1 <1>   0.1200 
 22 C        2.6440     6.1940     1.3040 C.3   1 <1>   0.1200 
 23 O        3.0120     7.5380     1.1890 O.3   1 <1>  -0.5600 
 24 H       -0.5240     2.2500    -2.5880 H     1 <1>   0.0800 
 25 H        1.0940     1.8030    -2.1000 H     1 <1>   0.0800 
 26 H       -0.3150     4.6720     0.8040 H     1 <1>   0.0800 
 27 H       -0.8490     2.8750     2.5140 H     1 <1>   0.0800 
 28 H       -1.1420     1.2580     1.9190 H     1 <1>   0.0800 
 29 H       -2.4090     2.4570     1.8330 H     1 <1>   0.0800 
 30 H       -1.2470     4.4970    -2.0200 H     1 <1>   0.0800 
 31 H       -1.5920     6.3370     1.5310 H     1 <1>   0.1500 
 32 H       -5.6830     4.3370    -0.2800 H     1 <1>   0.1500 
 33 H       -4.5330     2.8100    -1.5360 H     1 <1>   0.0800 
 34 H       -3.3830     2.0530    -0.4740 H     1 <1>   0.0800 
 35 H       -2.8400     2.9920    -1.8460 H     1 <1>   0.0800 
 36 H       -3.7560     7.3320     2.0210 H     1 <1>   0.1500 
 37 H       -5.8100     6.3300     1.1150 H     1 <1>   0.1500 
 38 H        2.2880     8.1070    -1.3740 H     1 <1>   0.0800 
 39 H        0.6620     8.5500    -0.9420 H     1 <1>   0.0800 
 40 H        1.8490     4.6240     0.0900 H     1 <1>   0.0800 
 41 H        3.0390     5.5950    -0.7180 H     1 <1>   0.0800 
 42 H        1.1760     8.3460     1.4430 H     1 <1>   0.0800 
 43 H        2.3740     9.3780     0.6960 H     1 <1>   0.0800 
 44 H        3.4990     5.6500     1.6650 H     1 <1>   0.0800 
 45 H        1.8540     6.1150     2.0300 H     1 <1>   0.0800 
@<TRIPOS>BOND
  1   1   2  2   
  2   2   3  am  
  3   2   4  1   
  4   3   5  1   
  5   3   6  1   
  6   4   7  1   
  7   4  24  1   
  8   4  25  1   
  9   5   8  1   
 10   5   9  1   
 11   5  26  1   
 12   6  27  1   
 13   6  28  1   
 14   6  29  1   
 15   7   9  1   
 16   8  10  ar  
 17   8  11  ar  
 18   9  12  1   
 19   9  30  1   
 20  10  13  ar  
 21  10  14  1   
 22  11  15  ar  
 23  11  31  1   
 24  12  16  2   
 25  12  17  am  
 26  13  18  ar  
 27  13  32  1   
 28  14  33  1   
 29  14  34  1   
 30  14  35  1   
 31  15  18  ar  
 32  15  36  1   
 33  17  19  1   
 34  17  20  1   
 35  18  37  1   
 36  19  21  1   
 37  19  38  1   
 38  19  39  1   
 39  20  22  1   
 40  20  40  1   
 41  20  41  1   
 42  21  23  1   
 43  21  42  1   
 44  21  43  1   
 45  22  23  1   
 46  22  44  1   
 47  22  45  1   
@<TRIPOS>SUBSTRUCTURE
  1 ****   5 GROUP 4 **** **** 0

# MOE 2024.06 (io_trps.svl 2023.06)
