@<TRIPOS>MOLECULE
NONAME
43 45 1 0 0 
SMALL
USER_CHARGES


@<TRIPOS>ATOM
  1 CL       3.1800     3.5030     3.1580 Cl    1 <1>  -0.1770 
  2 C        1.6280     3.7840     2.4010 C.ar  1 <1>   0.1770 
  3 C        1.4010     3.3500     1.0960 C.ar  1 <1>   0.0540 
  4 C        0.6570     4.4380     3.1350 C.ar  1 <1>  -0.1500 
  5 C        2.4210     2.6760     0.3300 C.2   1 <1>   0.2350 
  6 C        0.1410     3.5890     0.5520 C.ar  1 <1>  -0.1500 
  7 C       -0.5850     4.6710     2.5700 C.ar  1 <1>  -0.1500 
  8 N        2.4560     1.4000     0.1480 N.2   1 <1>  -0.4100 
  9 C        3.4920     3.2690    -0.3350 C.2   1 <1>  -0.0860 
 10 C       -0.8410     4.2430     1.2780 C.ar  1 <1>  -0.1500 
 11 O        3.5000     1.0750    -0.5720 O.3   1 <1>  -0.0190 
 12 C        4.1250     2.1920    -0.8470 C.2   1 <1>  -0.0400 
 13 C        3.7620     4.6800    -0.4150 C.2   1 <1>   0.7160 
 14 C        5.4110     2.0750    -1.6460 C.3   1 <1>  -0.0600 
 15 O        3.4230     5.4490     0.4620 O.2   1 <1>  -0.5700 
 16 N        4.4050     5.1950    -1.5030 N.am  1 <1>  -0.7300 
 17 C        4.6800     6.6390    -1.7060 C.3   1 <1>   0.1400 
 18 C        5.9040     7.0640    -0.8930 C.3   1 <1>   0.0200 
 19 C        5.9240     8.5730    -0.7540 C.2   1 <1>   0.0070 
 20 N        6.5660     9.3570    -1.5490 N.2   1 <1>  -0.3380 
 21 N        5.2730     9.2570     0.1960 N.pl3 1 <1>   0.0480 
 22 N        6.3480    10.6040    -1.1280 N.2   1 <1>  -0.3380 
 23 C        5.5820    10.5200    -0.0970 C.2   1 <1>   0.0360 
 24 C        4.4090     8.7730     1.2960 C.3   1 <1>   0.0960 
 25 C        5.2390     8.4700     2.5470 C.3   1 <1>  -0.2400 
 26 H        0.8720     4.7580     4.1380 H     1 <1>   0.1500 
 27 H       -0.0680     3.2540    -0.4490 H     1 <1>   0.1500 
 28 H       -1.3500     5.1790     3.1330 H     1 <1>   0.1500 
 29 H       -1.8070     4.4190     0.8370 H     1 <1>   0.1500 
 30 H        5.9410     3.0080    -1.6810 H     1 <1>   0.0800 
 31 H        5.1910     1.7520    -2.6470 H     1 <1>   0.0800 
 32 H        6.0510     1.3440    -1.1840 H     1 <1>   0.0800 
 33 H        4.5900     4.5810    -2.2970 H     1 <1>   0.3700 
 34 H        3.8200     7.2040    -1.3870 H     1 <1>   0.0800 
 35 H        4.8440     6.8450    -2.7500 H     1 <1>   0.0800 
 36 H        6.7990     6.7420    -1.3940 H     1 <1>   0.0800 
 37 H        5.8830     6.6200     0.0850 H     1 <1>   0.0800 
 38 H        5.2260    11.3600     0.4710 H     1 <1>   0.1500 
 39 H        3.8910     7.8870     0.9750 H     1 <1>   0.0800 
 40 H        3.6750     9.5270     1.5170 H     1 <1>   0.0800 
 41 H        5.9660     7.7040     2.3420 H     1 <1>   0.0800 
 42 H        4.5940     8.1190     3.3320 H     1 <1>   0.0800 
 43 H        5.7430     9.3570     2.8890 H     1 <1>   0.0800 
@<TRIPOS>BOND
  1   1   2  1   
  2   2   3  ar  
  3   2   4  ar  
  4   3   5  1   
  5   3   6  ar  
  6   4   7  ar  
  7   4  26  1   
  8   5   8  2   
  9   5   9  1   
 10   6  10  ar  
 11   6  27  1   
 12   7  10  ar  
 13   7  28  1   
 14   8  11  1   
 15   9  12  2   
 16   9  13  1   
 17  10  29  1   
 18  11  12  1   
 19  12  14  1   
 20  13  15  2   
 21  13  16  am  
 22  14  30  1   
 23  14  31  1   
 24  14  32  1   
 25  16  17  1   
 26  16  33  1   
 27  17  18  1   
 28  17  34  1   
 29  17  35  1   
 30  18  19  1   
 31  18  36  1   
 32  18  37  1   
 33  19  20  2   
 34  19  21  1   
 35  20  22  1   
 36  21  23  1   
 37  21  24  1   
 38  22  23  2   
 39  23  38  1   
 40  24  25  1   
 41  24  39  1   
 42  24  40  1   
 43  25  41  1   
 44  25  42  1   
 45  25  43  1   
@<TRIPOS>SUBSTRUCTURE
  1 ****  15 GROUP 4 **** **** 0

# MOE 2024.06 (io_trps.svl 2023.06)
