@<TRIPOS>MOLECULE
NONAME
44 45 1 0 0 
SMALL
USER_CHARGES


@<TRIPOS>ATOM
  1 S        0.4110     0.0810    -1.2970 S.o2  1 <1>   1.3330 
  2 O        1.6560    -0.6270    -1.5020 O.2   1 <1>  -0.6500 
  3 O       -0.4310     0.3810    -2.4320 O.2   1 <1>  -0.6500 
  4 N       -0.5310    -0.8250    -0.2110 N.am  1 <1>  -0.8490 
  5 C        0.7370     1.6040    -0.3950 C.3   1 <1>  -0.0550 
  6 C       -1.9560    -0.4760    -0.2420 C.3   1 <1>   0.1160 
  7 C       -0.3730    -2.2690    -0.4090 C.3   1 <1>   0.1160 
  8 C        1.8610     1.5860     0.6660 C.3   1 <1>  -0.0800 
  9 C        3.2600     1.4020     0.0700 C.3   1 <1>   0.2200 
 10 C        1.7790     0.5060     1.7530 C.3   1 <1>   0.1200 
 11 N        4.0810     2.5890     0.3890 N.am  1 <1>  -0.7300 
 12 C        3.7920     0.1760     0.8080 C.3   1 <1>   0.1200 
 13 O        3.0980     0.1580     2.0130 O.3   1 <1>  -0.5600 
 14 C        4.0720     3.7480    -0.3280 C.2   1 <1>   0.7160 
 15 O        3.3500     3.8180    -1.3040 O.2   1 <1>  -0.5700 
 16 C        4.8760     4.8700     0.0830 C.2   1 <1>  -0.0860 
 17 C        5.8030     4.9050     1.1280 C.2   1 <1>   0.1390 
 18 C        4.9380     6.1340    -0.4180 C.2   1 <1>  -0.3020 
 19 N        6.3720     6.0600     1.2650 N.2   1 <1>  -0.7070 
 20 N        5.8350     6.8250     0.3000 N.pl3 1 <1>   0.3140 
 21 C        6.2270     8.2360     0.1110 C.3   1 <1>   0.0960 
 22 C        7.2710     8.3750    -1.0030 C.3   1 <1>  -0.2400 
 23 H        0.9950     2.3620    -1.1110 H     1 <1>   0.0800 
 24 H       -0.1710     1.9250     0.0750 H     1 <1>   0.0800 
 25 H       -2.4850    -1.0090     0.5300 H     1 <1>   0.0800 
 26 H       -2.3850    -0.7280    -1.1980 H     1 <1>   0.0800 
 27 H       -2.0860     0.5800    -0.0750 H     1 <1>   0.0800 
 28 H       -0.9760    -2.8130     0.2980 H     1 <1>   0.0800 
 29 H        0.6550    -2.5530    -0.2600 H     1 <1>   0.0800 
 30 H       -0.6660    -2.5430    -1.4100 H     1 <1>   0.0800 
 31 H        1.8160     2.5340     1.1720 H     1 <1>   0.0800 
 32 H        3.2580     1.2380    -0.9950 H     1 <1>   0.0800 
 33 H        1.2760    -0.3850     1.4260 H     1 <1>   0.0800 
 34 H        1.3260     0.8670     2.6600 H     1 <1>   0.0800 
 35 H        4.5050     2.5720     1.3170 H     1 <1>   0.3700 
 36 H        4.8500     0.2200     0.9950 H     1 <1>   0.0800 
 37 H        3.5500    -0.7270     0.2730 H     1 <1>   0.0800 
 38 H        6.0350     4.0660     1.7620 H     1 <1>   0.1500 
 39 H        4.3860     6.5490    -1.2420 H     1 <1>   0.1500 
 40 H        5.3470     8.8050    -0.1280 H     1 <1>   0.0800 
 41 H        6.6290     8.6000     1.0400 H     1 <1>   0.0800 
 42 H        6.8720     8.0240    -1.9380 H     1 <1>   0.0800 
 43 H        8.1510     7.8070    -0.7550 H     1 <1>   0.0800 
 44 H        7.5510     9.4070    -1.1150 H     1 <1>   0.0800 
@<TRIPOS>BOND
  1   1   2  2   
  2   1   3  2   
  3   1   4  am  
  4   1   5  1   
  5   4   6  1   
  6   4   7  1   
  7   5   8  1   
  8   5  23  1   
  9   5  24  1   
 10   6  25  1   
 11   6  26  1   
 12   6  27  1   
 13   7  28  1   
 14   7  29  1   
 15   7  30  1   
 16   8   9  1   
 17   8  10  1   
 18   8  31  1   
 19   9  11  1   
 20   9  12  1   
 21   9  32  1   
 22  10  13  1   
 23  10  33  1   
 24  10  34  1   
 25  11  14  am  
 26  11  35  1   
 27  12  13  1   
 28  12  36  1   
 29  12  37  1   
 30  14  15  2   
 31  14  16  1   
 32  16  17  1   
 33  16  18  2   
 34  17  19  2   
 35  17  38  1   
 36  18  20  1   
 37  18  39  1   
 38  19  20  1   
 39  20  21  1   
 40  21  22  1   
 41  21  40  1   
 42  21  41  1   
 43  22  42  1   
 44  22  43  1   
 45  22  44  1   
@<TRIPOS>SUBSTRUCTURE
  1 ****  11 GROUP 4 **** **** 0

# MOE 2024.06 (io_trps.svl 2023.06)
