@<TRIPOS>MOLECULE
NONAME
58 61 1 0 0 
SMALL
USER_CHARGES


@<TRIPOS>ATOM
  1 O       -2.1000     0.8390     1.9690 O.2   1 <1>  -0.5700 
  2 C       -2.4430     1.1800     0.8530 C.2   1 <1>   0.5440 
  3 N       -1.8040     2.2520     0.2650 N.am  1 <1>  -0.6600 
  4 C       -3.5060     0.4570     0.1990 C.ar  1 <1>   0.0860 
  5 C       -0.5640     2.8430     0.8510 C.3   1 <1>   0.1400 
  6 C       -2.3580     3.0660    -0.8590 C.3   1 <1>   0.1400 
  7 C       -4.7060     0.2220     0.8640 C.ar  1 <1>   0.1600 
  8 C       -3.3930    -0.0490    -1.0920 C.ar  1 <1>  -0.1500 
  9 C        0.4400     3.2040    -0.2580 C.3   1 <1>   0.1200 
 10 C       -1.2530     3.4030    -1.8750 C.3   1 <1>   0.1200 
 11 N       -5.7560    -0.4150     0.3730 N.ar  1 <1>  -0.6200 
 12 C       -4.4710    -0.7200    -1.6170 C.ar  1 <1>  -0.1500 
 13 O       -0.1620     4.0060    -1.2370 O.3   1 <1>  -0.5600 
 14 C       -5.6310    -0.8830    -0.8640 C.ar  1 <1>   0.4100 
 15 N       -6.6930    -1.5770    -1.3920 N.pl3 1 <1>  -0.8380 
 16 C       -8.0890    -1.1650    -1.0290 C.3   1 <1>   0.2090 
 17 C       -6.5600    -3.0610    -1.4870 C.3   1 <1>   0.2090 
 18 C       -8.6390    -1.9800     0.1620 C.3   1 <1>   0.2950 
 19 C       -7.1790    -3.7640    -0.2540 C.3   1 <1>   0.2000 
 20 O       -8.5060    -3.3540    -0.0790 O.3   1 <1>  -0.5600 
 21 C      -10.1250    -1.6970     0.4070 C.3   1 <1>  -0.1950 
 22 C       -7.2000    -5.2930    -0.3740 C.3   1 <1>  -0.1600 
 23 C      -10.5590    -0.5350     1.2450 C.3   1 <1>  -0.2000 
 24 C      -10.7490    -1.9400     1.7450 C.3   1 <1>  -0.2000 
 25 C       -5.7920    -5.9120    -0.4110 C.3   1 <1>  -0.1600 
 26 C       -5.8650    -7.4430    -0.4270 C.3   1 <1>  -0.1600 
 27 C       -4.4650    -8.0600    -0.4650 C.3   1 <1>  -0.2400 
 28 H       -0.8200     3.7290     1.4040 H     1 <1>   0.0800 
 29 H       -0.1020     2.1480     1.5310 H     1 <1>   0.0800 
 30 H       -3.1590     2.5520    -1.3560 H     1 <1>   0.0800 
 31 H       -2.7540     3.9850    -0.4630 H     1 <1>   0.0800 
 32 H       -4.7920     0.5920     1.8720 H     1 <1>   0.1500 
 33 H       -2.4830     0.0820    -1.6510 H     1 <1>   0.1500 
 34 H        0.8190     2.3130    -0.7260 H     1 <1>   0.0800 
 35 H        1.2650     3.7550     0.1560 H     1 <1>   0.0800 
 36 H       -1.6230     4.0940    -2.6110 H     1 <1>   0.0800 
 37 H       -0.9110     2.5140    -2.3750 H     1 <1>   0.0800 
 38 H       -4.4440    -1.1270    -2.6090 H     1 <1>   0.1500 
 39 H       -8.1080    -0.1190    -0.7780 H     1 <1>   0.0800 
 40 H       -8.7300    -1.3090    -1.8800 H     1 <1>   0.0800 
 41 H       -7.0540    -3.4050    -2.3790 H     1 <1>   0.0800 
 42 H       -5.5200    -3.3230    -1.5610 H     1 <1>   0.0800 
 43 H       -8.0770    -1.7400     1.0480 H     1 <1>   0.0800 
 44 H       -6.6270    -3.4860     0.6280 H     1 <1>   0.0800 
 45 H      -10.7230    -1.9250    -0.4580 H     1 <1>   0.1000 
 46 H       -7.7280    -5.6860     0.4770 H     1 <1>   0.0800 
 47 H       -7.7410    -5.5720    -1.2620 H     1 <1>   0.0800 
 48 H       -9.8140     0.0800     1.7220 H     1 <1>   0.1000 
 49 H      -11.4260     0.0270     0.9440 H     1 <1>   0.1000 
 50 H      -11.7410    -2.3570     1.7760 H     1 <1>   0.1000 
 51 H      -10.1250    -2.3030     2.5430 H     1 <1>   0.1000 
 52 H       -5.2650    -5.5800    -1.2880 H     1 <1>   0.0800 
 53 H       -5.2390    -5.5920     0.4560 H     1 <1>   0.0800 
 54 H       -6.3810    -7.7900     0.4530 H     1 <1>   0.0800 
 55 H       -6.4210    -7.7700    -1.2890 H     1 <1>   0.0800 
 56 H       -3.8980    -7.7630     0.4000 H     1 <1>   0.0800 
 57 H       -3.9390    -7.7470    -1.3500 H     1 <1>   0.0800 
 58 H       -4.5370    -9.1340    -0.4730 H     1 <1>   0.0800 
@<TRIPOS>BOND
  1   1   2  2   
  2   2   3  am  
  3   2   4  1   
  4   3   5  1   
  5   3   6  1   
  6   4   7  ar  
  7   4   8  ar  
  8   5   9  1   
  9   5  28  1   
 10   5  29  1   
 11   6  10  1   
 12   6  30  1   
 13   6  31  1   
 14   7  11  ar  
 15   7  32  1   
 16   8  12  ar  
 17   8  33  1   
 18   9  13  1   
 19   9  34  1   
 20   9  35  1   
 21  10  13  1   
 22  10  36  1   
 23  10  37  1   
 24  11  14  ar  
 25  12  14  ar  
 26  12  38  1   
 27  14  15  1   
 28  15  16  1   
 29  15  17  1   
 30  16  18  1   
 31  16  39  1   
 32  16  40  1   
 33  17  19  1   
 34  17  41  1   
 35  17  42  1   
 36  18  20  1   
 37  18  21  1   
 38  18  43  1   
 39  19  20  1   
 40  19  22  1   
 41  19  44  1   
 42  21  23  1   
 43  21  24  1   
 44  21  45  1   
 45  22  25  1   
 46  22  46  1   
 47  22  47  1   
 48  23  24  1   
 49  23  48  1   
 50  23  49  1   
 51  24  50  1   
 52  24  51  1   
 53  25  26  1   
 54  25  52  1   
 55  25  53  1   
 56  26  27  1   
 57  26  54  1   
 58  26  55  1   
 59  27  56  1   
 60  27  57  1   
 61  27  58  1   
@<TRIPOS>SUBSTRUCTURE
  1 ****  14 GROUP 4 **** **** 0

# MOE 2024.06 (io_trps.svl 2023.06)
