@<TRIPOS>MOLECULE
NONAME
42 45 1 0 0 
SMALL
USER_CHARGES


@<TRIPOS>ATOM
  1 O        0.4010     0.5550     0.6430 O.3   1 <1>  -0.0190 
  2 N        1.3660    -0.3200     0.6320 N.2   1 <1>  -0.4100 
  3 C        0.8010     1.7300     0.2350 C.2   1 <1>  -0.0400 
  4 C        2.4050     0.3030     0.2080 C.2   1 <1>   0.1080 
  5 C        2.1060     1.6330    -0.0680 C.2   1 <1>  -0.1500 
  6 C       -0.2020     2.8710     0.1840 C.3   1 <1>   0.0200 
  7 C        3.7670    -0.3320     0.0360 C.3   1 <1>  -0.0590 
  8 C        0.4440     4.2190    -0.1800 C.3   1 <1>  -0.0800 
  9 C       -0.5380     5.3670    -0.4200 C.3   1 <1>   0.2000 
 10 C        1.3670     4.7670     0.9040 C.3   1 <1>   0.2090 
 11 O       -1.5760     5.2800     0.5200 O.3   1 <1>  -0.5600 
 12 C        0.3020     6.6330    -0.1770 C.3   1 <1>   0.2090 
 13 N        1.5170     6.2030     0.5660 N.pl3 1 <1>  -0.8380 
 14 C       -2.7290     5.9920     0.1980 C.3   1 <1>   0.0400 
 15 C        2.7340     6.7400     0.1960 C.ar  1 <1>   0.4100 
 16 N        3.6530     5.9410    -0.3000 N.ar  1 <1>  -0.6200 
 17 C        2.9730     8.1160     0.3150 C.ar  1 <1>   0.0000 
 18 C        4.8010     6.5210    -0.6800 C.ar  1 <1>   0.4700 
 19 C        4.1940     8.5790    -0.1230 C.ar  1 <1>   0.1050 
 20 C        2.2720     9.2480     0.7930 C.2   1 <1>  -0.1500 
 21 N        5.1390     7.7860    -0.6330 N.ar  1 <1>  -0.5670 
 22 N        4.2540     9.9260     0.0590 N.pl3 1 <1>   0.0330 
 23 C        3.0720    10.3300     0.6210 C.2   1 <1>  -0.3020 
 24 H        2.7910     2.3740    -0.4380 H     1 <1>   0.1500 
 25 H       -0.9550     2.6280    -0.5440 H     1 <1>   0.0800 
 26 H       -0.6870     2.9460     1.1420 H     1 <1>   0.0800 
 27 H        4.0730    -0.2650    -0.9920 H     1 <1>   0.0800 
 28 H        3.7270    -1.3680     0.3210 H     1 <1>   0.0800 
 29 H        4.4850     0.1730     0.6550 H     1 <1>   0.0800 
 30 H        1.0300     4.0970    -1.0740 H     1 <1>   0.0800 
 31 H       -0.9550     5.3330    -1.4110 H     1 <1>   0.0800 
 32 H        2.3110     4.2520     0.9360 H     1 <1>   0.0800 
 33 H        0.8960     4.6890     1.8700 H     1 <1>   0.0800 
 34 H       -0.2440     7.3630     0.3930 H     1 <1>   0.0800 
 35 H        0.5960     7.0600    -1.1200 H     1 <1>   0.0800 
 36 H       -3.4400     5.8510     0.9940 H     1 <1>   0.0800 
 37 H       -3.1380     5.6090    -0.7210 H     1 <1>   0.0800 
 38 H       -2.4960     7.0380     0.1050 H     1 <1>   0.0800 
 39 H        5.5390     5.8470    -1.0790 H     1 <1>   0.1500 
 40 H        1.2830     9.2030     1.2160 H     1 <1>   0.1500 
 41 H        5.0650    10.5010    -0.1860 H     1 <1>   0.2700 
 42 H        2.8770    11.3590     0.8680 H     1 <1>   0.1500 
@<TRIPOS>BOND
  1   1   2  1   
  2   1   3  1   
  3   2   4  2   
  4   3   5  2   
  5   3   6  1   
  6   4   5  1   
  7   4   7  1   
  8   5  24  1   
  9   6   8  1   
 10   6  25  1   
 11   6  26  1   
 12   7  27  1   
 13   7  28  1   
 14   7  29  1   
 15   8   9  1   
 16   8  10  1   
 17   8  30  1   
 18   9  11  1   
 19   9  12  1   
 20   9  31  1   
 21  10  13  1   
 22  10  32  1   
 23  10  33  1   
 24  11  14  1   
 25  12  13  1   
 26  12  34  1   
 27  12  35  1   
 28  13  15  1   
 29  14  36  1   
 30  14  37  1   
 31  14  38  1   
 32  15  16  ar  
 33  15  17  ar  
 34  16  18  ar  
 35  17  19  ar  
 36  17  20  1   
 37  18  21  ar  
 38  18  39  1   
 39  19  21  ar  
 40  19  22  1   
 41  20  23  2   
 42  20  40  1   
 43  22  23  1   
 44  22  41  1   
 45  23  42  1   
@<TRIPOS>SUBSTRUCTURE
  1 ****  10 GROUP 4 **** **** 0

# MOE 2024.06 (io_trps.svl 2023.06)
