@<TRIPOS>MOLECULE
NONAME
51 54 1 0 0 
SMALL
USER_CHARGES


@<TRIPOS>ATOM
  1 S       -0.1940    -0.4430    -1.4550 S.3   1 <1>  -0.0800 
  2 C        0.9570     0.6450    -0.6710 C.ar  1 <1>   0.0400 
  3 C        0.2960    -1.7960    -0.4280 C.2   1 <1>  -0.1400 
  4 C        1.6590    -0.0370     0.3110 C.ar  1 <1>   0.0000 
  5 C        1.1580     1.9820    -0.9600 C.ar  1 <1>  -0.1500 
  6 C        1.2670    -1.4150     0.4230 C.2   1 <1>  -0.1500 
  7 C       -0.4020    -3.1220    -0.6380 C.3   1 <1>   0.5230 
  8 C        2.6140     0.6680     1.0380 C.ar  1 <1>  -0.1500 
  9 C        2.1110     2.6640    -0.2250 C.ar  1 <1>  -0.1500 
 10 N       -1.7610    -3.0150    -0.0520 N.4   1 <1>  -0.9590 
 11 C        2.8340     2.0080     0.7680 C.ar  1 <1>  -0.1500 
 12 C       -2.1830    -4.3180     0.5750 C.3   1 <1>   0.3430 
 13 C       -2.7500    -2.5540    -1.0740 C.3   1 <1>   0.3430 
 14 C       -3.4260    -4.2010     1.4810 C.3   1 <1>   0.1400 
 15 C       -3.7440    -1.5530    -0.4730 C.3   1 <1>  -0.1600 
 16 N       -4.5560    -3.5100     0.7940 N.am  1 <1>  -0.6600 
 17 C       -4.4720    -2.0280     0.7900 C.3   1 <1>   0.1400 
 18 C       -5.5450    -4.1780     0.0810 C.2   1 <1>   0.7160 
 19 O       -6.5030    -3.5210    -0.2890 O.2   1 <1>  -0.5700 
 20 C       -5.4510    -5.5900    -0.2850 C.2   1 <1>   0.2030 
 21 N       -4.3490    -6.3180    -0.4210 N.2   1 <1>  -0.7070 
 22 C       -6.5740    -6.3720    -0.5760 C.2   1 <1>  -0.1500 
 23 N       -4.7690    -7.5400    -0.7840 N.pl3 1 <1>   0.3140 
 24 C       -6.1120    -7.5970    -0.8850 C.2   1 <1>  -0.3320 
 25 C       -3.8330    -8.6450    -1.0340 C.3   1 <1>   0.0160 
 26 C       -6.9100    -8.8290    -1.2790 C.3   1 <1>  -0.0600 
 27 H        0.5910     2.4700    -1.7320 H     1 <1>   0.1500 
 28 H        1.7550    -2.0380     1.1530 H     1 <1>   0.1500 
 29 H        0.1590    -3.8880    -0.1280 H     1 <1>   0.0800 
 30 H       -0.4470    -3.3690    -1.6860 H     1 <1>   0.0800 
 31 H        3.1780     0.1700     1.8070 H     1 <1>   0.1500 
 32 H        2.2980     3.7070    -0.4210 H     1 <1>   0.1500 
 33 H       -1.7020    -2.2890     0.6710 H     1 <1>   0.4500 
 34 H        3.5730     2.5540     1.3300 H     1 <1>   0.1500 
 35 H       -1.3760    -4.7110     1.1710 H     1 <1>   0.0800 
 36 H       -2.3880    -5.0380    -0.2000 H     1 <1>   0.0800 
 37 H       -3.2890    -3.4020    -1.4650 H     1 <1>   0.0800 
 38 H       -2.2430    -2.0790    -1.8990 H     1 <1>   0.0800 
 39 H       -3.1700    -3.6660     2.3780 H     1 <1>   0.0800 
 40 H       -3.7360    -5.1850     1.7890 H     1 <1>   0.0800 
 41 H       -4.4900    -1.3540    -1.2220 H     1 <1>   0.0800 
 42 H       -3.2540    -0.6170    -0.2760 H     1 <1>   0.0800 
 43 H       -5.4610    -1.5980     0.8280 H     1 <1>   0.0800 
 44 H       -3.9470    -1.6940     1.6690 H     1 <1>   0.0800 
 45 H       -7.5910    -6.0190    -0.5490 H     1 <1>   0.1500 
 46 H       -2.8270    -8.3040    -0.8760 H     1 <1>   0.0800 
 47 H       -3.9450    -8.9800    -2.0480 H     1 <1>   0.0800 
 48 H       -4.0510    -9.4500    -0.3570 H     1 <1>   0.0800 
 49 H       -7.9610    -8.6020    -1.2830 H     1 <1>   0.0800 
 50 H       -6.7370    -9.6270    -0.5780 H     1 <1>   0.0800 
 51 H       -6.6290    -9.1580    -2.2640 H     1 <1>   0.0800 
@<TRIPOS>BOND
  1   1   2  1   
  2   1   3  1   
  3   2   4  ar  
  4   2   5  ar  
  5   3   6  2   
  6   3   7  1   
  7   4   6  1   
  8   4   8  ar  
  9   5   9  ar  
 10   5  27  1   
 11   6  28  1   
 12   7  10  1   
 13   7  29  1   
 14   7  30  1   
 15   8  11  ar  
 16   8  31  1   
 17   9  11  ar  
 18   9  32  1   
 19  10  12  1   
 20  10  13  1   
 21  10  33  1   
 22  11  34  1   
 23  12  14  1   
 24  12  35  1   
 25  12  36  1   
 26  13  15  1   
 27  13  37  1   
 28  13  38  1   
 29  14  16  1   
 30  14  39  1   
 31  14  40  1   
 32  15  17  1   
 33  15  41  1   
 34  15  42  1   
 35  16  17  1   
 36  16  18  am  
 37  17  43  1   
 38  17  44  1   
 39  18  19  2   
 40  18  20  1   
 41  20  21  2   
 42  20  22  1   
 43  21  23  1   
 44  22  24  2   
 45  22  45  1   
 46  23  24  1   
 47  23  25  1   
 48  24  26  1   
 49  25  46  1   
 50  25  47  1   
 51  25  48  1   
 52  26  49  1   
 53  26  50  1   
 54  26  51  1   
@<TRIPOS>SUBSTRUCTURE
  1 ****  10 GROUP 4 **** **** 0

# MOE 2024.06 (io_trps.svl 2023.06)
