@<TRIPOS>MOLECULE
NONAME
51 54 1 0 0 
SMALL
USER_CHARGES


@<TRIPOS>ATOM
  1 O        0.9130     0.2970     2.0670 O.3   1 <1>  -0.6800 
  2 C        1.5850    -0.0770     0.9120 C.3   1 <1>   0.2000 
  3 C        2.2960    -1.4120     1.1170 C.3   1 <1>  -0.0800 
  4 C        2.7060     0.9070     0.5800 C.3   1 <1>   0.2090 
  5 C        3.4650    -1.3620     0.1330 C.3   1 <1>   0.2090 
  6 C        1.3790    -2.6370     0.9510 C.3   1 <1>  -0.0170 
  7 N        3.7990     0.0790    -0.0160 N.pl3 1 <1>  -0.8380 
  8 C        2.1800    -3.9350     1.0240 C.ar  1 <1>  -0.1440 
  9 C        4.9300     0.5970    -0.5340 C.ar  1 <1>   0.4100 
 10 C        2.6000    -4.6680    -0.1150 C.ar  1 <1>   0.0000 
 11 C        2.5250    -4.4260     2.2490 C.ar  1 <1>  -0.1500 
 12 N        5.0550     1.9320    -0.5210 N.ar  1 <1>  -0.6200 
 13 C        5.9500    -0.2000    -1.0680 C.ar  1 <1>  -0.1500 
 14 C        3.3580    -5.8450     0.1070 C.ar  1 <1>   0.3100 
 15 C        2.3200    -4.3130    -1.4570 C.ar  1 <1>  -0.1500 
 16 C        3.2750    -5.6030     2.3570 C.ar  1 <1>   0.1600 
 17 C        6.1410     2.4590    -0.9990 C.ar  1 <1>   0.5280 
 18 C        7.0760     0.3860    -1.5640 C.ar  1 <1>   0.2180 
 19 N        3.6870    -6.2950     1.3440 N.ar  1 <1>  -0.6200 
 20 C        3.7990    -6.5930    -0.9960 C.ar  1 <1>  -0.1500 
 21 C        2.7650    -5.0640    -2.5100 C.ar  1 <1>  -0.1500 
 22 N        7.1510     1.7310    -1.5170 N.ar  1 <1>  -0.1790 
 23 C        6.2790     3.9770    -0.9760 C.3   1 <1>  -0.0170 
 24 C        8.2310    -0.4050    -2.1550 C.3   1 <1>  -0.0970 
 25 C        3.5160    -6.2190    -2.2810 C.ar  1 <1>  -0.1500 
 26 C        7.4710     4.4640    -0.1350 C.3   1 <1>  -0.2400 
 27 H        0.1700    -0.3090     2.2500 H     1 <1>   0.4000 
 28 H        0.8840    -0.1160     0.0960 H     1 <1>   0.0800 
 29 H        2.7250    -1.4250     2.1040 H     1 <1>   0.0800 
 30 H        3.0690     1.3780     1.4780 H     1 <1>   0.0800 
 31 H        2.3690     1.6530    -0.1180 H     1 <1>   0.0800 
 32 H        3.1720    -1.7490    -0.8270 H     1 <1>   0.0800 
 33 H        4.3020    -1.9240     0.5110 H     1 <1>   0.0800 
 34 H        0.8210    -2.5730     0.0370 H     1 <1>   0.0800 
 35 H        0.6570    -2.6350     1.7480 H     1 <1>   0.0800 
 36 H        2.2390    -3.9270     3.1570 H     1 <1>   0.1500 
 37 H        5.8300    -1.2660    -1.0790 H     1 <1>   0.1500 
 38 H        1.7400    -3.4370    -1.6700 H     1 <1>   0.1500 
 39 H        3.5250    -5.9520     3.3440 H     1 <1>   0.1500 
 40 H        4.3720    -7.4800    -0.7940 H     1 <1>   0.1500 
 41 H        2.5420    -4.7820    -3.5250 H     1 <1>   0.1500 
 42 H        7.9730     2.2210    -1.8680 H     1 <1>   0.4570 
 43 H        6.3680     4.3430    -1.9830 H     1 <1>   0.0800 
 44 H        5.3760     4.3990    -0.5650 H     1 <1>   0.0800 
 45 H        8.0190    -1.4600    -2.1240 H     1 <1>   0.0800 
 46 H        9.1330    -0.2290    -1.5960 H     1 <1>   0.0800 
 47 H        8.3920    -0.1270    -3.1820 H     1 <1>   0.0800 
 48 H        3.8600    -6.8030    -3.1170 H     1 <1>   0.1500 
 49 H        8.4100     4.1400    -0.5460 H     1 <1>   0.0800 
 50 H        7.3860     4.1010     0.8760 H     1 <1>   0.0800 
 51 H        7.4740     5.5400    -0.1010 H     1 <1>   0.0800 
@<TRIPOS>BOND
  1   1   2  1   
  2   1  27  1   
  3   2   3  1   
  4   2   4  1   
  5   2  28  1   
  6   3   5  1   
  7   3   6  1   
  8   3  29  1   
  9   4   7  1   
 10   4  30  1   
 11   4  31  1   
 12   5   7  1   
 13   5  32  1   
 14   5  33  1   
 15   6   8  1   
 16   6  34  1   
 17   6  35  1   
 18   7   9  1   
 19   8  10  ar  
 20   8  11  ar  
 21   9  12  ar  
 22   9  13  ar  
 23  10  14  ar  
 24  10  15  ar  
 25  11  16  ar  
 26  11  36  1   
 27  12  17  ar  
 28  13  18  ar  
 29  13  37  1   
 30  14  19  ar  
 31  14  20  ar  
 32  15  21  ar  
 33  15  38  1   
 34  16  19  ar  
 35  16  39  1   
 36  17  22  ar  
 37  17  23  1   
 38  18  22  ar  
 39  18  24  1   
 40  20  25  ar  
 41  20  40  1   
 42  21  25  ar  
 43  21  41  1   
 44  22  42  1   
 45  23  26  1   
 46  23  43  1   
 47  23  44  1   
 48  24  45  1   
 49  24  46  1   
 50  24  47  1   
 51  25  48  1   
 52  26  49  1   
 53  26  50  1   
 54  26  51  1   
@<TRIPOS>SUBSTRUCTURE
  1 ****   5 GROUP 4 **** **** 0

# MOE 2024.06 (io_trps.svl 2023.06)
