@<TRIPOS>MOLECULE
NONAME
45 47 1 0 0 
SMALL
USER_CHARGES


@<TRIPOS>ATOM
  1 O       -0.3300     0.9930     0.8330 O.co2 1 <1>  -0.9000 
  2 C       -0.5510     2.1700     1.1900 C.2   1 <1>   1.0330 
  3 O       -1.3670     2.3560     2.1130 O.co2 1 <1>  -0.9000 
  4 C        0.1460     3.2600     0.5030 C.2   1 <1>  -0.0060 
  5 N        0.0770     4.6170     0.7380 N.2   1 <1>  -0.5650 
  6 C        1.0020     3.0890    -0.5250 C.2   1 <1>  -0.0100 
  7 C        0.8720     5.1270    -0.1290 C.2   1 <1>   0.2980 
  8 O        1.4460     4.2480    -0.9190 O.3   1 <1>  -0.2800 
  9 C        1.1480     6.6170    -0.3410 C.3   1 <1>   0.2900 
 10 N        2.4510     7.1290     0.1730 N.3   1 <1>  -0.8100 
 11 C        2.5340     8.5900    -0.0140 C.3   1 <1>   0.1100 
 12 C        3.6030     6.4320    -0.4240 C.3   1 <1>   0.1100 
 13 C        3.8060     9.1630     0.6280 C.3   1 <1>   0.1000 
 14 C        4.9100     6.9370     0.1950 C.3   1 <1>  -0.1600 
 15 C        3.8410    10.6740     0.4360 C.2   1 <1>   0.2980 
 16 C        5.0520     8.4580     0.0580 C.3   1 <1>  -0.1600 
 17 O        2.9860    11.3970     1.1180 O.3   1 <1>  -0.0190 
 18 N        4.6160    11.3320    -0.3320 N.2   1 <1>  -0.5650 
 19 N        3.2400    12.6160     0.7530 N.2   1 <1>  -0.4100 
 20 C        4.1960    12.5640    -0.0860 C.2   1 <1>   0.3350 
 21 C        4.8160    13.7700    -0.7700 C.3   1 <1>   0.0210 
 22 C        5.8650    14.4840     0.1060 C.3   1 <1>  -0.0800 
 23 C        6.3480    15.7690    -0.5800 C.3   1 <1>  -0.2400 
 24 C        7.0690    13.5820     0.4130 C.3   1 <1>  -0.2400 
 25 H        1.3210     2.1810    -1.0040 H     1 <1>   0.1500 
 26 H        0.3560     7.1500     0.1540 H     1 <1>   0.0800 
 27 H        1.0720     6.8220    -1.3940 H     1 <1>   0.0800 
 28 H        1.6760     9.0550     0.4410 H     1 <1>   0.0800 
 29 H        2.5280     8.8230    -1.0660 H     1 <1>   0.0800 
 30 H        3.6130     6.5850    -1.4910 H     1 <1>   0.0800 
 31 H        3.5300     5.3760    -0.2310 H     1 <1>   0.0800 
 32 H        3.7590     8.9710     1.6850 H     1 <1>   0.0800 
 33 H        5.7410     6.4500    -0.2840 H     1 <1>   0.0800 
 34 H        4.9240     6.6600     1.2350 H     1 <1>   0.0800 
 35 H        5.9310     8.7950     0.5790 H     1 <1>   0.0800 
 36 H        5.1630     8.7110    -0.9830 H     1 <1>   0.0800 
 37 H        4.0240    14.4570    -1.0050 H     1 <1>   0.0800 
 38 H        5.2630    13.4550    -1.6960 H     1 <1>   0.0800 
 39 H        5.3970    14.7550     1.0380 H     1 <1>   0.0800 
 40 H        6.8260    15.5440    -1.5170 H     1 <1>   0.0800 
 41 H        7.0520    16.2850     0.0480 H     1 <1>   0.0800 
 42 H        5.5190    16.4300    -0.7660 H     1 <1>   0.0800 
 43 H        7.5430    13.2580    -0.4970 H     1 <1>   0.0800 
 44 H        6.7600    12.7130     0.9660 H     1 <1>   0.0800 
 45 H        7.7920    14.1130     1.0070 H     1 <1>   0.0800 
@<TRIPOS>BOND
  1   1   2  ar  
  2   2   3  ar  
  3   2   4  1   
  4   4   5  1   
  5   4   6  2   
  6   5   7  2   
  7   6   8  1   
  8   6  25  1   
  9   7   8  1   
 10   7   9  1   
 11   9  10  1   
 12   9  26  1   
 13   9  27  1   
 14  10  11  1   
 15  10  12  1   
 16  11  13  1   
 17  11  28  1   
 18  11  29  1   
 19  12  14  1   
 20  12  30  1   
 21  12  31  1   
 22  13  15  1   
 23  13  16  1   
 24  13  32  1   
 25  14  16  1   
 26  14  33  1   
 27  14  34  1   
 28  15  17  1   
 29  15  18  2   
 30  16  35  1   
 31  16  36  1   
 32  17  19  1   
 33  18  20  1   
 34  19  20  2   
 35  20  21  1   
 36  21  22  1   
 37  21  37  1   
 38  21  38  1   
 39  22  23  1   
 40  22  24  1   
 41  22  39  1   
 42  23  40  1   
 43  23  41  1   
 44  23  42  1   
 45  24  43  1   
 46  24  44  1   
 47  24  45  1   
@<TRIPOS>SUBSTRUCTURE
  1 ****  11 GROUP 4 **** **** 0

# MOE 2024.06 (io_trps.svl 2023.06)
