@<TRIPOS>MOLECULE
NONAME
53 55 1 0 0 
SMALL
USER_CHARGES


@<TRIPOS>ATOM
  1 O       -0.4700    -1.6180    -0.6430 O.2   1 <1>  -0.5700 
  2 C        0.6390    -2.0940    -0.6480 C.2   1 <1>   0.5690 
  3 N        1.3630    -2.3070    -1.7890 N.am  1 <1>  -0.6600 
  4 C        1.2740    -2.4890     0.6700 C.3   1 <1>  -0.0990 
  5 C        2.7220    -2.9020    -1.7160 C.3   1 <1>   0.1400 
  6 C        0.8370    -1.9960    -3.1440 C.3   1 <1>   0.0600 
  7 C        2.7340    -2.0070     0.7320 C.3   1 <1>  -0.0800 
  8 C        3.5250    -2.2480    -0.5760 C.3   1 <1>  -0.0800 
  9 C        3.5420    -2.6660     1.8590 C.3   1 <1>  -0.1600 
 10 C        4.7620    -3.0630    -0.1780 C.3   1 <1>  -0.1600 
 11 C        4.9600    -2.7470     1.3000 C.3   1 <1>   0.2200 
 12 N        5.8500    -3.7370     1.9830 N.am  1 <1>  -0.6600 
 13 C        7.1590    -3.4550     2.3190 C.2   1 <1>   0.5690 
 14 C        5.2910    -5.0950     2.2740 C.3   1 <1>   0.0600 
 15 O        7.8440    -4.2590     2.9100 O.2   1 <1>  -0.5700 
 16 C        7.8080    -2.1050     2.0110 C.3   1 <1>   0.1810 
 17 O        7.7820    -1.8150     0.6210 O.3   1 <1>  -0.3630 
 18 C        7.9740    -0.5510     0.1700 C.ar  1 <1>   0.0820 
 19 C        7.6210    -0.2940    -1.1440 C.ar  1 <1>  -0.1500 
 20 C        8.4870     0.4770     0.9510 C.ar  1 <1>  -0.1500 
 21 C        7.7570     0.9740    -1.6860 C.ar  1 <1>  -0.1440 
 22 C        8.6240     1.7440     0.4150 C.ar  1 <1>  -0.1500 
 23 C        8.2600     2.0040    -0.8980 C.ar  1 <1>  -0.1440 
 24 C        7.3520     1.2050    -3.1350 C.3   1 <1>  -0.0970 
 25 C        8.4270     3.4140    -1.4460 C.3   1 <1>  -0.0970 
 26 H        0.7100    -2.0670     1.4820 H     1 <1>   0.0800 
 27 H        1.2240    -3.5590     0.7450 H     1 <1>   0.0800 
 28 H        2.6170    -3.9590    -1.5380 H     1 <1>   0.0800 
 29 H        3.2400    -2.7650    -2.6490 H     1 <1>   0.0800 
 30 H        1.4670    -1.2670    -3.6210 H     1 <1>   0.0800 
 31 H       -0.1620    -1.5970    -3.0790 H     1 <1>   0.0800 
 32 H        0.8110    -2.8920    -3.7390 H     1 <1>   0.0800 
 33 H        2.7200    -0.9420     0.9030 H     1 <1>   0.0800 
 34 H        3.8650    -1.2880    -0.9300 H     1 <1>   0.0800 
 35 H        3.1480    -3.6470     2.0500 H     1 <1>   0.0800 
 36 H        3.5080    -2.0840     2.7620 H     1 <1>   0.0800 
 37 H        5.6240    -2.7850    -0.7570 H     1 <1>   0.0800 
 38 H        4.5700    -4.1120    -0.3070 H     1 <1>   0.0800 
 39 H        5.3770    -1.7580     1.3710 H     1 <1>   0.0800 
 40 H        4.6550    -5.4250     1.4740 H     1 <1>   0.0800 
 41 H        4.7260    -5.0630     3.1880 H     1 <1>   0.0800 
 42 H        6.0830    -5.8160     2.3880 H     1 <1>   0.0800 
 43 H        8.8350    -2.1160     2.3270 H     1 <1>   0.0800 
 44 H        7.2750    -1.3370     2.5380 H     1 <1>   0.0800 
 45 H        7.2390    -1.1030    -1.7380 H     1 <1>   0.1500 
 46 H        8.7900     0.3130     1.9670 H     1 <1>   0.1500 
 47 H        9.0220     2.5330     1.0300 H     1 <1>   0.1500 
 48 H        6.9990     0.2960    -3.5870 H     1 <1>   0.0800 
 49 H        8.1960     1.5570    -3.7010 H     1 <1>   0.0800 
 50 H        6.5650     1.9350    -3.1860 H     1 <1>   0.0800 
 51 H        8.8130     4.0780    -0.6940 H     1 <1>   0.0800 
 52 H        7.4780     3.7960    -1.7770 H     1 <1>   0.0800 
 53 H        9.1120     3.4090    -2.2750 H     1 <1>   0.0800 
@<TRIPOS>BOND
  1   1   2  2   
  2   2   3  am  
  3   2   4  1   
  4   3   5  1   
  5   3   6  1   
  6   4   7  1   
  7   4  26  1   
  8   4  27  1   
  9   5   8  1   
 10   5  28  1   
 11   5  29  1   
 12   6  30  1   
 13   6  31  1   
 14   6  32  1   
 15   7   8  1   
 16   7   9  1   
 17   7  33  1   
 18   8  10  1   
 19   8  34  1   
 20   9  11  1   
 21   9  35  1   
 22   9  36  1   
 23  10  11  1   
 24  10  37  1   
 25  10  38  1   
 26  11  12  1   
 27  11  39  1   
 28  12  13  am  
 29  12  14  1   
 30  13  15  2   
 31  13  16  1   
 32  14  40  1   
 33  14  41  1   
 34  14  42  1   
 35  16  17  1   
 36  16  43  1   
 37  16  44  1   
 38  17  18  1   
 39  18  19  ar  
 40  18  20  ar  
 41  19  21  ar  
 42  19  45  1   
 43  20  22  ar  
 44  20  46  1   
 45  21  23  ar  
 46  21  24  1   
 47  22  23  ar  
 48  22  47  1   
 49  23  25  1   
 50  24  48  1   
 51  24  49  1   
 52  24  50  1   
 53  25  51  1   
 54  25  52  1   
 55  25  53  1   
@<TRIPOS>SUBSTRUCTURE
  1 ****  10 GROUP 4 **** **** 0

# MOE 2024.06 (io_trps.svl 2023.06)
