@<TRIPOS>MOLECULE
NONAME
46 48 1 0 0 
SMALL
USER_CHARGES


@<TRIPOS>ATOM
  1 O       -2.4130    -4.9470     2.7670 O.2   1 <1>  -0.5700 
  2 C       -3.1700    -4.3860     1.9900 C.2   1 <1>   0.6900 
  3 N       -3.5380    -3.0950     1.9960 N.am  1 <1>  -0.3680 
  4 N       -3.8030    -4.9420     0.9640 N.am  1 <1>  -0.4900 
  5 N       -4.4090    -2.8250     0.9740 N.2   1 <1>  -0.5120 
  6 C       -4.5700    -3.9580     0.3510 C.2   1 <1>   0.5100 
  7 C       -5.4000    -4.2990    -0.8080 C.2   1 <1>   0.6300 
  8 O       -5.3310    -5.4470    -1.2330 O.2   1 <1>  -0.5700 
  9 N       -6.2860    -3.4470    -1.4580 N.am  1 <1>  -0.6600 
 10 C       -7.3680    -4.0260    -2.3100 C.3   1 <1>   0.1400 
 11 C       -6.5080    -2.0150    -1.1110 C.3   1 <1>   0.1400 
 12 C       -8.4310    -4.7350    -1.4520 C.3   1 <1>   0.1400 
 13 C       -7.5500    -1.8480     0.0050 C.3   1 <1>  -0.1600 
 14 N       -8.7240    -4.0300    -0.1590 N.am  1 <1>  -0.6600 
 15 C       -8.8940    -2.5520    -0.2420 C.3   1 <1>   0.1400 
 16 C       -8.7000    -4.6580     1.0750 C.2   1 <1>   0.5440 
 17 O       -8.9410    -4.0000     2.0710 O.2   1 <1>  -0.5700 
 18 C       -8.3200    -6.0390     1.2480 C.ar  1 <1>   0.0860 
 19 C       -9.0880    -7.0990     0.7500 C.ar  1 <1>   0.3930 
 20 C       -7.1590    -6.3570     1.9390 C.ar  1 <1>  -0.1500 
 21 O      -10.2290    -6.7990     0.0980 O.3   1 <1>  -0.3630 
 22 N       -8.7680    -8.3890     0.8680 N.ar  1 <1>  -0.6200 
 23 C       -6.8230    -7.6850     2.0720 C.ar  1 <1>  -0.1500 
 24 C      -11.0910    -7.7970    -0.4020 C.3   1 <1>   0.1200 
 25 C       -7.6500    -8.6480     1.5220 C.ar  1 <1>   0.1600 
 26 C      -12.2660    -7.1050    -1.0870 C.3   1 <1>  -0.2400 
 27 H       -3.2030    -2.4250     2.6930 H     1 <1>   0.3700 
 28 H       -3.7230    -5.9050     0.6520 H     1 <1>   0.3700 
 29 H       -6.9460    -4.7300    -3.0070 H     1 <1>   0.0800 
 30 H       -7.8370    -3.2500    -2.8890 H     1 <1>   0.0800 
 31 H       -6.8450    -1.4930    -1.9900 H     1 <1>   0.0800 
 32 H       -5.5800    -1.5560    -0.8200 H     1 <1>   0.0800 
 33 H       -8.0730    -5.7300    -1.2610 H     1 <1>   0.0800 
 34 H       -9.3420    -4.8300    -2.0160 H     1 <1>   0.0800 
 35 H       -7.7410    -0.7970     0.1200 H     1 <1>   0.0800 
 36 H       -7.1400    -2.1870     0.9400 H     1 <1>   0.0800 
 37 H       -9.2970    -2.2770    -1.2010 H     1 <1>   0.0800 
 38 H       -9.6000    -2.2370     0.5080 H     1 <1>   0.0800 
 39 H       -6.5510    -5.5750     2.3600 H     1 <1>   0.1500 
 40 H       -5.9320    -7.9750     2.5990 H     1 <1>   0.1500 
 41 H      -11.4250    -8.4010     0.4240 H     1 <1>   0.0800 
 42 H      -10.5420    -8.4050    -1.1000 H     1 <1>   0.0800 
 43 H       -7.3780    -9.6840     1.6300 H     1 <1>   0.1500 
 44 H      -12.7950    -6.4920    -0.3790 H     1 <1>   0.0800 
 45 H      -12.9440    -7.8420    -1.4770 H     1 <1>   0.0800 
 46 H      -11.9150    -6.4950    -1.8990 H     1 <1>   0.0800 
@<TRIPOS>BOND
  1   1   2  2   
  2   2   3  am  
  3   2   4  am  
  4   3   5  1   
  5   3  27  1   
  6   4   6  1   
  7   4  28  1   
  8   5   6  2   
  9   6   7  1   
 10   7   8  2   
 11   7   9  am  
 12   9  10  1   
 13   9  11  1   
 14  10  12  1   
 15  10  29  1   
 16  10  30  1   
 17  11  13  1   
 18  11  31  1   
 19  11  32  1   
 20  12  14  1   
 21  12  33  1   
 22  12  34  1   
 23  13  15  1   
 24  13  35  1   
 25  13  36  1   
 26  14  15  1   
 27  14  16  am  
 28  15  37  1   
 29  15  38  1   
 30  16  17  2   
 31  16  18  1   
 32  18  19  ar  
 33  18  20  ar  
 34  19  21  1   
 35  19  22  ar  
 36  20  23  ar  
 37  20  39  1   
 38  21  24  1   
 39  22  25  ar  
 40  23  25  ar  
 41  23  40  1   
 42  24  26  1   
 43  24  41  1   
 44  24  42  1   
 45  25  43  1   
 46  26  44  1   
 47  26  45  1   
 48  26  46  1   
@<TRIPOS>SUBSTRUCTURE
  1 ****  16 GROUP 4 **** **** 0

# MOE 2024.06 (io_trps.svl 2023.06)
