@<TRIPOS>MOLECULE
NONAME
42 43 1 0 0 
SMALL
USER_CHARGES


@<TRIPOS>ATOM
  1 F       -0.5340     0.5900    -1.4640 F     1 <1>  -0.3400 
  2 C        0.7790     0.7670    -1.5400 C.3   1 <1>   1.1640 
  3 F        1.1610     0.2510    -2.7020 F     1 <1>  -0.3400 
  4 F        0.9610     2.0780    -1.6520 F     1 <1>  -0.3400 
  5 C        1.5150     0.1420    -0.3330 C.ar  1 <1>  -0.1440 
  6 C        1.6470    -1.2440    -0.1580 C.ar  1 <1>  -0.1440 
  7 C        2.0760     0.9920     0.6200 C.ar  1 <1>  -0.1500 
  8 C        2.3620    -1.7240     0.9340 C.ar  1 <1>  -0.1500 
  9 C        1.0440    -2.2610    -1.1460 C.3   1 <1>   0.0450 
 10 C        2.7670     0.4960     1.7090 C.ar  1 <1>  -0.1500 
 11 C        2.9140    -0.8660     1.8630 C.ar  1 <1>  -0.1500 
 12 C        0.7800    -3.6550    -0.5830 C.2   1 <1>   0.5690 
 13 O        1.4830    -4.5500    -0.9920 O.2   1 <1>  -0.5700 
 14 N       -0.1960    -3.8860     0.3540 N.am  1 <1>  -0.6600 
 15 C       -0.4830    -5.2830     0.8070 C.3   1 <1>   0.3210 
 16 C       -1.0680    -2.8320     0.9740 C.3   1 <1>   0.1400 
 17 C       -1.8010    -5.7790     0.2220 C.2   1 <1>   0.0460 
 18 C       -2.1450    -2.2360     0.0420 C.3   1 <1>   0.1200 
 19 N       -2.9770    -5.5060     0.8260 N.2   1 <1>  -0.5650 
 20 C       -2.0000    -6.4840    -0.9170 C.2   1 <1>  -0.3320 
 21 O       -2.5380    -3.1300    -0.9410 O.3   1 <1>  -0.6800 
 22 C       -3.8580    -6.0530     0.0530 C.2   1 <1>   0.0360 
 23 N       -3.3280    -6.6640    -1.0250 N.pl3 1 <1>   0.0330 
 24 C       -1.0090    -6.9930    -1.9500 C.3   1 <1>  -0.0600 
 25 H        1.9880     2.0620     0.5290 H     1 <1>   0.1500 
 26 H        2.5050    -2.7820     1.0800 H     1 <1>   0.1500 
 27 H        1.7270    -2.3670    -1.9700 H     1 <1>   0.0800 
 28 H        0.1190    -1.9100    -1.5560 H     1 <1>   0.0800 
 29 H        3.1950     1.1700     2.4320 H     1 <1>   0.1500 
 30 H        3.4590    -1.2590     2.7040 H     1 <1>   0.1500 
 31 H       -0.5370    -5.3130     1.8800 H     1 <1>   0.0800 
 32 H        0.3060    -5.9490     0.5080 H     1 <1>   0.0800 
 33 H       -0.4550    -2.0340     1.3550 H     1 <1>   0.0800 
 34 H       -1.5730    -3.2560     1.8250 H     1 <1>   0.0800 
 35 H       -1.7830    -1.3500    -0.4460 H     1 <1>   0.0800 
 36 H       -3.0150    -1.9690     0.6160 H     1 <1>   0.0800 
 37 H       -2.6030    -4.0330    -0.5390 H     1 <1>   0.4000 
 38 H       -4.9190    -6.0320     0.2340 H     1 <1>   0.1500 
 39 H       -3.8330    -7.1480    -1.7730 H     1 <1>   0.2700 
 40 H       -0.0040    -6.7230    -1.6800 H     1 <1>   0.0800 
 41 H       -1.2240    -6.5600    -2.9110 H     1 <1>   0.0800 
 42 H       -1.0660    -8.0640    -2.0270 H     1 <1>   0.0800 
@<TRIPOS>BOND
  1   1   2  1   
  2   2   3  1   
  3   2   4  1   
  4   2   5  1   
  5   5   6  ar  
  6   5   7  ar  
  7   6   8  ar  
  8   6   9  1   
  9   7  10  ar  
 10   7  25  1   
 11   8  11  ar  
 12   8  26  1   
 13   9  12  1   
 14   9  27  1   
 15   9  28  1   
 16  10  11  ar  
 17  10  29  1   
 18  11  30  1   
 19  12  13  2   
 20  12  14  am  
 21  14  15  1   
 22  14  16  1   
 23  15  17  1   
 24  15  31  1   
 25  15  32  1   
 26  16  18  1   
 27  16  33  1   
 28  16  34  1   
 29  17  19  1   
 30  17  20  2   
 31  18  21  1   
 32  18  35  1   
 33  18  36  1   
 34  19  22  2   
 35  20  23  1   
 36  20  24  1   
 37  21  37  1   
 38  22  23  1   
 39  22  38  1   
 40  23  39  1   
 41  24  40  1   
 42  24  41  1   
 43  24  42  1   
@<TRIPOS>SUBSTRUCTURE
  1 ****  12 GROUP 4 **** **** 0

# MOE 2024.06 (io_trps.svl 2023.06)
