@<TRIPOS>MOLECULE
NONAME
46 49 1 0 0 
SMALL
USER_CHARGES


@<TRIPOS>ATOM
  1 O        0.2020     0.7410     1.1030 O.2   1 <1>  -0.5700 
  2 C        0.1520     1.8020     0.5350 C.2   1 <1>   0.5690 
  3 N       -0.0840     2.9420     1.2250 N.am  1 <1>  -0.7300 
  4 C        0.3260     1.8700    -0.9870 C.3   1 <1>   0.1810 
  5 C       -0.1660     4.2790     0.5900 C.3   1 <1>   0.3640 
  6 O        0.6040     3.1740    -1.4550 O.3   1 <1>  -0.5600 
  7 C       -1.3400     5.0520     1.1800 C.ar  1 <1>  -0.1440 
  8 C       -0.2760     4.1680    -0.9500 C.3   1 <1>   0.2610 
  9 C       -2.5730     4.4500     1.3970 C.ar  1 <1>  -0.1500 
 10 C       -1.1820     6.3940     1.4970 C.ar  1 <1>  -0.1500 
 11 C       -0.0610     5.5410    -1.6040 C.2   1 <1>   0.5690 
 12 C       -3.6260     5.1770     1.9250 C.ar  1 <1>  -0.1500 
 13 C       -2.2340     7.1220     2.0230 C.ar  1 <1>  -0.1500 
 14 O       -0.9980     5.9990    -2.2170 O.2   1 <1>  -0.5700 
 15 N        1.1110     6.2570    -1.4860 N.am  1 <1>  -0.6600 
 16 C       -3.4570     6.5130     2.2390 C.ar  1 <1>  -0.1500 
 17 C        1.1410     7.7110    -1.8710 C.3   1 <1>   0.3210 
 18 C        2.4310     5.7050    -1.0540 C.3   1 <1>   0.0600 
 19 C        1.5620     8.6130    -0.7110 C.2   1 <1>   0.3350 
 20 N        0.7600     9.2020     0.0850 N.2   1 <1>  -0.4100 
 21 N        2.8420     8.8570    -0.4420 N.2   1 <1>  -0.5650 
 22 O        1.4810     9.8720     0.9320 O.3   1 <1>  -0.0190 
 23 C        2.7150     9.6270     0.5630 C.2   1 <1>   0.3930 
 24 C        3.8670    10.2560     1.3360 C.3   1 <1>  -0.0150 
 25 C        3.8010    10.4510     2.8210 C.3   1 <1>  -0.2000 
 26 C        3.7650    11.6390     1.9050 C.3   1 <1>  -0.2000 
 27 H       -0.2290     2.8930     2.2340 H     1 <1>   0.3700 
 28 H       -0.5720     1.5230    -1.4650 H     1 <1>   0.0800 
 29 H        1.1410     1.2350    -1.2810 H     1 <1>   0.0800 
 30 H        0.7380     4.8060     0.8340 H     1 <1>   0.0800 
 31 H       -1.2760     3.8580    -1.1960 H     1 <1>   0.0800 
 32 H       -2.7250     3.4120     1.1550 H     1 <1>   0.1500 
 33 H       -0.2410     6.8910     1.3330 H     1 <1>   0.1500 
 34 H       -4.5780     4.7030     2.0910 H     1 <1>   0.1500 
 35 H       -2.1000     8.1630     2.2590 H     1 <1>   0.1500 
 36 H       -4.2760     7.0800     2.6470 H     1 <1>   0.1500 
 37 H        1.8280     7.8450    -2.6870 H     1 <1>   0.0800 
 38 H        0.1730     8.0360    -2.2060 H     1 <1>   0.0800 
 39 H        3.2070     6.0690    -1.7060 H     1 <1>   0.0800 
 40 H        2.4450     4.6330    -1.0930 H     1 <1>   0.0800 
 41 H        2.6500     6.0240    -0.0500 H     1 <1>   0.0800 
 42 H        4.8180     9.9680     0.9240 H     1 <1>   0.1000 
 43 H        2.9020    10.1780     3.3460 H     1 <1>   0.1000 
 44 H        4.6880    10.2740     3.4040 H     1 <1>   0.1000 
 45 H        4.6270    12.2820     1.8520 H     1 <1>   0.1000 
 46 H        2.8400    12.1810     1.8000 H     1 <1>   0.1000 
@<TRIPOS>BOND
  1   1   2  2   
  2   2   3  am  
  3   2   4  1   
  4   3   5  1   
  5   3  27  1   
  6   4   6  1   
  7   4  28  1   
  8   4  29  1   
  9   5   7  1   
 10   5   8  1   
 11   5  30  1   
 12   6   8  1   
 13   7   9  ar  
 14   7  10  ar  
 15   8  11  1   
 16   8  31  1   
 17   9  12  ar  
 18   9  32  1   
 19  10  13  ar  
 20  10  33  1   
 21  11  14  2   
 22  11  15  am  
 23  12  16  ar  
 24  12  34  1   
 25  13  16  ar  
 26  13  35  1   
 27  15  17  1   
 28  15  18  1   
 29  16  36  1   
 30  17  19  1   
 31  17  37  1   
 32  17  38  1   
 33  18  39  1   
 34  18  40  1   
 35  18  41  1   
 36  19  20  2   
 37  19  21  1   
 38  20  22  1   
 39  21  23  2   
 40  22  23  1   
 41  23  24  1   
 42  24  25  1   
 43  24  26  1   
 44  24  42  1   
 45  25  26  1   
 46  25  43  1   
 47  25  44  1   
 48  26  45  1   
 49  26  46  1   
@<TRIPOS>SUBSTRUCTURE
  1 ****  15 GROUP 4 **** **** 0

# MOE 2024.06 (io_trps.svl 2023.06)
