@<TRIPOS>MOLECULE
NONAME
47 50 1 0 0 
SMALL
USER_CHARGES


@<TRIPOS>ATOM
  1 O       -0.7190     0.1840    -0.2670 O.2   1 <1>  -0.5700 
  2 C       -1.5900     0.8290     0.2880 C.2   1 <1>   0.7150 
  3 N       -2.7110     0.1680     0.7310 N.am  1 <1>  -0.6600 
  4 C       -1.4530     2.2490     0.4520 C.2   1 <1>  -0.2370 
  5 C       -2.7440    -1.3230     0.8710 C.3   1 <1>   0.1400 
  6 C       -4.0780     0.7700     0.6720 C.3   1 <1>   0.1400 
  7 N       -0.7600     3.0630    -0.3870 N.pl3 1 <1>   0.3140 
  8 C       -1.9430     3.0730     1.4200 C.2   1 <1>  -0.1500 
  9 C       -3.6920    -1.9550    -0.1640 C.3   1 <1>   0.3440 
 10 C       -4.9650     0.0190    -0.3430 C.3   1 <1>   0.2950 
 11 N       -0.8140     4.3480    -0.0050 N.2   1 <1>  -0.7070 
 12 C       -0.0120     2.6860    -1.5970 C.3   1 <1>   0.0160 
 13 C       -1.5190     4.3440     1.0810 C.2   1 <1>   0.1080 
 14 O       -4.9590    -1.3540    -0.0820 O.3   1 <1>  -0.5600 
 15 C       -3.8160    -3.4570     0.0700 C.ar  1 <1>  -0.1440 
 16 C       -6.4190     0.4950    -0.2740 C.3   1 <1>  -0.1950 
 17 C       -1.8120     5.6090     1.8520 C.3   1 <1>  -0.0590 
 18 C       -4.7940    -3.9870     0.9020 C.ar  1 <1>  -0.1500 
 19 C       -2.9240    -4.3200    -0.5510 C.ar  1 <1>  -0.1500 
 20 C       -7.3460     0.3180    -1.4340 C.3   1 <1>  -0.2000 
 21 C       -6.8780     1.6930    -1.0460 C.3   1 <1>  -0.2000 
 22 C       -4.8770    -5.3520     1.1110 C.ar  1 <1>  -0.1500 
 23 C       -3.0050    -5.6860    -0.3440 C.ar  1 <1>  -0.1500 
 24 C       -3.9820    -6.2040     0.4870 C.ar  1 <1>  -0.1500 
 25 H       -1.7590    -1.7400     0.7510 H     1 <1>   0.0800 
 26 H       -3.0850    -1.5790     1.8590 H     1 <1>   0.0800 
 27 H       -4.5290     0.7200     1.6460 H     1 <1>   0.0800 
 28 H       -4.0290     1.8030     0.3790 H     1 <1>   0.0800 
 29 H       -2.5320     2.8090     2.2790 H     1 <1>   0.1500 
 30 H       -3.3080    -1.7840    -1.1550 H     1 <1>   0.0800 
 31 H       -4.5860     0.1720    -1.3390 H     1 <1>   0.0800 
 32 H       -0.6500     2.1190    -2.2480 H     1 <1>   0.0800 
 33 H        0.8380     2.0930    -1.3130 H     1 <1>   0.0800 
 34 H        0.3210     3.5750    -2.1000 H     1 <1>   0.0800 
 35 H       -6.8390     0.3570     0.7070 H     1 <1>   0.1000 
 36 H       -2.4070     5.3940     2.7190 H     1 <1>   0.0800 
 37 H       -2.3410     6.2990     1.2200 H     1 <1>   0.0800 
 38 H       -0.8870     6.0610     2.1610 H     1 <1>   0.0800 
 39 H       -5.4980    -3.3340     1.3890 H     1 <1>   0.1500 
 40 H       -2.1570    -3.9330    -1.2000 H     1 <1>   0.1500 
 41 H       -6.9650    -0.1330    -2.3350 H     1 <1>   0.1000 
 42 H       -8.3650     0.0350    -1.2340 H     1 <1>   0.1000 
 43 H       -7.5850     2.3650    -0.5910 H     1 <1>   0.1000 
 44 H       -6.1930     2.2000    -1.7040 H     1 <1>   0.1000 
 45 H       -5.6400    -5.7510     1.7560 H     1 <1>   0.1500 
 46 H       -2.3090    -6.3470    -0.8300 H     1 <1>   0.1500 
 47 H       -4.0470    -7.2660     0.6490 H     1 <1>   0.1500 
@<TRIPOS>BOND
  1   1   2  2   
  2   2   3  am  
  3   2   4  1   
  4   3   5  1   
  5   3   6  1   
  6   4   7  1   
  7   4   8  2   
  8   5   9  1   
  9   5  25  1   
 10   5  26  1   
 11   6  10  1   
 12   6  27  1   
 13   6  28  1   
 14   7  11  1   
 15   7  12  1   
 16   8  13  1   
 17   8  29  1   
 18   9  14  1   
 19   9  15  1   
 20   9  30  1   
 21  10  14  1   
 22  10  16  1   
 23  10  31  1   
 24  11  13  2   
 25  12  32  1   
 26  12  33  1   
 27  12  34  1   
 28  13  17  1   
 29  15  18  ar  
 30  15  19  ar  
 31  16  20  1   
 32  16  21  1   
 33  16  35  1   
 34  17  36  1   
 35  17  37  1   
 36  17  38  1   
 37  18  22  ar  
 38  18  39  1   
 39  19  23  ar  
 40  19  40  1   
 41  20  21  1   
 42  20  41  1   
 43  20  42  1   
 44  21  43  1   
 45  21  44  1   
 46  22  24  ar  
 47  22  45  1   
 48  23  24  ar  
 49  23  46  1   
 50  24  47  1   
@<TRIPOS>SUBSTRUCTURE
  1 ****   3 GROUP 4 **** **** 0

# MOE 2024.06 (io_trps.svl 2023.06)
