@<TRIPOS>MOLECULE
NONAME
61 64 1 0 0 
SMALL
USER_CHARGES


@<TRIPOS>ATOM
  1 O       -0.1660     0.0930    -0.1000 O.2   1 <1>  -0.5700 
  2 C       -1.1640     0.7800    -0.2360 C.2   1 <1>   0.7150 
  3 N       -2.3900     0.1750    -0.0520 N.am  1 <1>  -0.6600 
  4 C       -0.9880     2.1780    -0.5820 C.2   1 <1>   0.0550 
  5 C       -3.7280     0.8040    -0.1820 C.3   1 <1>   0.1400 
  6 C       -2.5390    -1.2480     0.3260 C.3   1 <1>   0.1400 
  7 O       -1.9890     3.0430    -0.7190 O.3   1 <1>  -0.2800 
  8 C        0.1710     2.8490    -0.8140 C.2   1 <1>  -0.1500 
  9 C       -4.7400    -0.2750     0.2270 C.3   1 <1>   0.2000 
 10 C       -3.9910    -1.5900    -0.0110 C.3   1 <1>  -0.0800 
 11 C       -1.5180     4.2310    -1.0210 C.2   1 <1>  -0.0400 
 12 C       -0.1650     4.1780    -1.0850 C.2   1 <1>  -0.1810 
 13 O       -5.0280    -0.1630     1.5920 O.3   1 <1>  -0.5600 
 14 C       -4.5390    -2.7920     0.7790 C.3   1 <1>   0.0200 
 15 C       -2.5640     5.3240    -1.2090 C.3   1 <1>   0.0200 
 16 C        0.8610     5.2530    -1.3650 C.3   1 <1>   0.5240 
 17 C       -6.0410     0.7370     1.9150 C.3   1 <1>   0.0400 
 18 C       -3.8900    -4.1110     0.3900 C.2   1 <1>  -0.0400 
 19 C       -2.0110     6.6900    -1.6270 C.3   1 <1>  -0.2400 
 20 N        1.2430     5.8610    -0.0660 N.4   1 <1>  -0.9590 
 21 O       -4.2130    -5.1880     1.0550 O.3   1 <1>  -0.0190 
 22 C       -2.9970    -4.4640    -0.5490 C.2   1 <1>  -0.1500 
 23 C        2.0770     7.0760    -0.1870 C.3   1 <1>   0.3430 
 24 C        1.9740     4.9380     0.8360 C.3   1 <1>   0.3430 
 25 N       -3.5850    -6.2400     0.6140 N.2   1 <1>  -0.4100 
 26 C       -2.8440    -5.8330    -0.3520 C.2   1 <1>   0.1080 
 27 C        2.7000     7.2400     1.1930 C.3   1 <1>  -0.1600 
 28 C        2.6470     5.8550     1.8470 C.3   1 <1>  -0.1600 
 29 C       -1.9320    -6.7290    -1.1590 C.3   1 <1>  -0.0590 
 30 H       -3.8080     1.6740     0.4450 H     1 <1>   0.0800 
 31 H       -3.8820     1.0810    -1.2110 H     1 <1>   0.0800 
 32 H       -1.8410    -1.8660    -0.2110 H     1 <1>   0.0800 
 33 H       -2.3630    -1.3450     1.3850 H     1 <1>   0.0800 
 34 H        1.1580     2.4190    -0.7910 H     1 <1>   0.1500 
 35 H       -5.6570    -0.2250    -0.3370 H     1 <1>   0.0800 
 36 H       -4.0440    -1.8120    -1.0620 H     1 <1>   0.0800 
 37 H       -5.5980    -2.8750     0.6120 H     1 <1>   0.0800 
 38 H       -4.3880    -2.6350     1.8340 H     1 <1>   0.0800 
 39 H       -3.2620     4.9920    -1.9580 H     1 <1>   0.0800 
 40 H       -3.1120     5.4320    -0.2890 H     1 <1>   0.0800 
 41 H        0.4350     6.0000    -2.0130 H     1 <1>   0.0800 
 42 H        1.7210     4.8260    -1.8530 H     1 <1>   0.0800 
 43 H       -6.1580     0.7360     2.9840 H     1 <1>   0.0800 
 44 H       -6.9600     0.4190     1.4520 H     1 <1>   0.0800 
 45 H       -5.7700     1.7240     1.5840 H     1 <1>   0.0800 
 46 H       -1.5070     6.6170    -2.5740 H     1 <1>   0.0800 
 47 H       -1.3450     7.0800    -0.8800 H     1 <1>   0.0800 
 48 H       -2.8270     7.3830    -1.7400 H     1 <1>   0.0800 
 49 H        0.3690     6.1050     0.4150 H     1 <1>   0.4500 
 50 H       -2.4960    -3.8750    -1.2930 H     1 <1>   0.1500 
 51 H        2.8570     6.9160    -0.9150 H     1 <1>   0.0800 
 52 H        1.4940     7.9390    -0.4670 H     1 <1>   0.0800 
 53 H        1.3080     4.2340     1.3120 H     1 <1>   0.0800 
 54 H        2.7250     4.3990     0.2810 H     1 <1>   0.0800 
 55 H        3.7100     7.6050     1.1100 H     1 <1>   0.0800 
 56 H        2.1290     7.9480     1.7690 H     1 <1>   0.0800 
 57 H        2.0650     5.8880     2.7530 H     1 <1>   0.0800 
 58 H        3.6300     5.4880     2.0890 H     1 <1>   0.0800 
 59 H       -2.2110    -6.6950    -2.1960 H     1 <1>   0.0800 
 60 H       -2.0100    -7.7430    -0.8100 H     1 <1>   0.0800 
 61 H       -0.9140    -6.4020    -1.0540 H     1 <1>   0.0800 
@<TRIPOS>BOND
  1   1   2  2   
  2   2   3  am  
  3   2   4  1   
  4   3   5  1   
  5   3   6  1   
  6   4   7  1   
  7   4   8  2   
  8   5   9  1   
  9   5  30  1   
 10   5  31  1   
 11   6  10  1   
 12   6  32  1   
 13   6  33  1   
 14   7  11  1   
 15   8  12  1   
 16   8  34  1   
 17   9  10  1   
 18   9  13  1   
 19   9  35  1   
 20  10  14  1   
 21  10  36  1   
 22  11  12  2   
 23  11  15  1   
 24  12  16  1   
 25  13  17  1   
 26  14  18  1   
 27  14  37  1   
 28  14  38  1   
 29  15  19  1   
 30  15  39  1   
 31  15  40  1   
 32  16  20  1   
 33  16  41  1   
 34  16  42  1   
 35  17  43  1   
 36  17  44  1   
 37  17  45  1   
 38  18  21  1   
 39  18  22  2   
 40  19  46  1   
 41  19  47  1   
 42  19  48  1   
 43  20  23  1   
 44  20  24  1   
 45  20  49  1   
 46  21  25  1   
 47  22  26  1   
 48  22  50  1   
 49  23  27  1   
 50  23  51  1   
 51  23  52  1   
 52  24  28  1   
 53  24  53  1   
 54  24  54  1   
 55  25  26  2   
 56  26  29  1   
 57  27  28  1   
 58  27  55  1   
 59  27  56  1   
 60  28  57  1   
 61  28  58  1   
 62  29  59  1   
 63  29  60  1   
 64  29  61  1   
@<TRIPOS>SUBSTRUCTURE
  1 ****   2 GROUP 4 **** **** 0

# MOE 2024.06 (io_trps.svl 2023.06)
