@<TRIPOS>MOLECULE
NONAME
53 55 1 0 0 
SMALL
USER_CHARGES


@<TRIPOS>ATOM
  1 O       -0.9960    -0.6080    -0.7410 O.co2 1 <1>  -0.9000 
  2 C       -1.0850    -1.8340    -0.8510 C.2   1 <1>   1.0330 
  3 O       -2.2240    -2.3470    -0.7640 O.co2 1 <1>  -0.9000 
  4 C        0.0680    -2.6800    -0.9820 C.2   1 <1>  -0.2330 
  5 C        0.0040    -3.9950    -1.4370 C.2   1 <1>   0.3720 
  6 C        1.3920    -2.5140    -0.7120 C.2   1 <1>   0.0870 
  7 N        1.1490    -4.5700    -1.4230 N.2   1 <1>  -0.4100 
  8 N       -1.1740    -4.6050    -1.8340 N.pl3 1 <1>  -0.8520 
  9 O        1.9780    -3.6580    -0.9920 O.3   1 <1>  -0.0190 
 10 C        2.2020    -1.4330    -0.1980 C.ar  1 <1>   0.0530 
 11 C       -1.4040    -6.0530    -1.5590 C.3   1 <1>   0.2090 
 12 C        3.5440    -1.3170    -0.5670 C.ar  1 <1>  -0.1500 
 13 C        1.7060    -0.4820     0.6940 C.ar  1 <1>  -0.1500 
 14 C       -1.8250    -6.4640    -0.0980 C.3   1 <1>   0.5030 
 15 C        4.3500    -0.3080    -0.0720 C.ar  1 <1>  -0.1500 
 16 C        2.5040     0.5320     1.1920 C.ar  1 <1>  -0.1500 
 17 N       -2.8110    -5.5180     0.5650 N.4   1 <1>  -0.9590 
 18 C       -2.5560    -7.8270    -0.1610 C.3   1 <1>  -0.1600 
 19 C       -0.5830    -6.6370     0.8190 C.3   1 <1>  -0.1600 
 20 C        3.8300     0.6210     0.8120 C.ar  1 <1>  -0.1500 
 21 C       -3.8730    -5.0130    -0.3520 C.3   1 <1>   0.3430 
 22 C       -2.1700    -4.3390     1.2440 C.3   1 <1>   0.2630 
 23 C       -1.6550    -8.9990    -0.5870 C.3   1 <1>  -0.1600 
 24 C        0.3320    -7.8170     0.4420 C.3   1 <1>  -0.1600 
 25 C       -5.1430    -4.7560     0.4490 C.3   1 <1>  -0.2400 
 26 C       -0.4510    -9.1300     0.3500 C.3   1 <1>  -0.1600 
 27 H       -1.9500    -3.9610    -1.5790 H     1 <1>   0.4000 
 28 H       -0.5220    -6.5940    -1.8470 H     1 <1>   0.0800 
 29 H       -2.1720    -6.3780    -2.2380 H     1 <1>   0.0800 
 30 H        3.9600    -2.0290    -1.2560 H     1 <1>   0.1500 
 31 H        0.6770    -0.5310     1.0020 H     1 <1>   0.1500 
 32 H        5.3800    -0.2430    -0.3750 H     1 <1>   0.1500 
 33 H        2.0850     1.2520     1.8720 H     1 <1>   0.1500 
 34 H       -3.2840    -6.0590     1.2920 H     1 <1>   0.4500 
 35 H       -3.3850    -7.7750    -0.8450 H     1 <1>   0.0800 
 36 H       -2.9500    -8.0630     0.8120 H     1 <1>   0.0800 
 37 H       -0.9100    -6.7970     1.8310 H     1 <1>   0.0800 
 38 H        0.0190    -5.7470     0.7990 H     1 <1>   0.0800 
 39 H        4.4510     1.4100     1.1980 H     1 <1>   0.1500 
 40 H       -4.0840    -5.7410    -1.1180 H     1 <1>   0.0800 
 41 H       -3.5550    -4.1020    -0.8350 H     1 <1>   0.0800 
 42 H       -1.4040    -3.9230     0.6170 H     1 <1>   0.0800 
 43 H       -1.7160    -4.6360     2.1740 H     1 <1>   0.0800 
 44 H       -2.8940    -3.5650     1.4380 H     1 <1>   0.0800 
 45 H       -1.3090    -8.8620    -1.5980 H     1 <1>   0.0800 
 46 H       -2.2200    -9.9160    -0.5640 H     1 <1>   0.0800 
 47 H        1.1050    -7.9170     1.1850 H     1 <1>   0.0800 
 48 H        0.8260    -7.6220    -0.4940 H     1 <1>   0.0800 
 49 H       -5.4860    -5.6550     0.9290 H     1 <1>   0.0800 
 50 H       -5.9130    -4.4180    -0.2210 H     1 <1>   0.0800 
 51 H       -4.9870    -3.9830     1.1800 H     1 <1>   0.0800 
 52 H        0.2000    -9.9130    -0.0040 H     1 <1>   0.0800 
 53 H       -0.7910    -9.4130     1.3330 H     1 <1>   0.0800 
@<TRIPOS>BOND
  1   1   2  ar  
  2   2   3  ar  
  3   2   4  1   
  4   4   5  1   
  5   4   6  2   
  6   5   7  2   
  7   5   8  1   
  8   6   9  1   
  9   6  10  1   
 10   7   9  1   
 11   8  11  1   
 12   8  27  1   
 13  10  12  ar  
 14  10  13  ar  
 15  11  14  1   
 16  11  28  1   
 17  11  29  1   
 18  12  15  ar  
 19  12  30  1   
 20  13  16  ar  
 21  13  31  1   
 22  14  17  1   
 23  14  18  1   
 24  14  19  1   
 25  15  20  ar  
 26  15  32  1   
 27  16  20  ar  
 28  16  33  1   
 29  17  21  1   
 30  17  22  1   
 31  17  34  1   
 32  18  23  1   
 33  18  35  1   
 34  18  36  1   
 35  19  24  1   
 36  19  37  1   
 37  19  38  1   
 38  20  39  1   
 39  21  25  1   
 40  21  40  1   
 41  21  41  1   
 42  22  42  1   
 43  22  43  1   
 44  22  44  1   
 45  23  26  1   
 46  23  45  1   
 47  23  46  1   
 48  24  26  1   
 49  24  47  1   
 50  24  48  1   
 51  25  49  1   
 52  25  50  1   
 53  25  51  1   
 54  26  52  1   
 55  26  53  1   
@<TRIPOS>SUBSTRUCTURE
  1 ****   5 GROUP 4 **** **** 0

# MOE 2024.06 (io_trps.svl 2023.06)
