@<TRIPOS>MOLECULE
NONAME
53 56 1 0 0 
SMALL
USER_CHARGES


@<TRIPOS>ATOM
  1 O       -2.0180     0.6670     2.8670 O.2   1 <1>  -0.5700 
  2 C       -2.0810     1.1500     1.7520 C.2   1 <1>   0.5440 
  3 N       -2.5480     0.3650     0.7250 N.am  1 <1>  -0.6600 
  4 C       -1.7080     2.5290     1.5340 C.ar  1 <1>   0.0860 
  5 C       -3.0400     0.8710    -0.5820 C.3   1 <1>   0.1400 
  6 C       -2.8910    -1.0680     0.8930 C.3   1 <1>   0.1400 
  7 C       -0.6680     2.9040     0.6460 C.ar  1 <1>   0.0000 
  8 C       -2.3750     3.5410     2.1710 C.ar  1 <1>  -0.1500 
  9 C       -4.0350    -0.1940    -1.0460 C.3   1 <1>   0.2000 
 10 C       -3.5030    -1.5000    -0.4480 C.3   1 <1>  -0.0800 
 11 C       -0.4480     4.2790     0.4070 C.ar  1 <1>   0.3100 
 12 C        0.1650     1.9710    -0.0010 C.ar  1 <1>  -0.1500 
 13 C       -2.0720     4.8740     1.8990 C.ar  1 <1>   0.1660 
 14 O       -5.2620     0.0720    -0.4620 O.3   1 <1>  -0.6800 
 15 C       -2.4440    -2.1330    -1.3720 C.3   1 <1>   0.0200 
 16 N       -1.1680     5.2390     1.0480 N.ar  1 <1>  -0.6200 
 17 C        0.5560     4.6700    -0.5170 C.ar  1 <1>  -0.1430 
 18 C        1.1330     2.3690    -0.8770 C.ar  1 <1>  -0.1500 
 19 C       -2.8290     5.9760     2.6100 C.3   1 <1>  -0.0970 
 20 C       -1.9360    -3.4740    -0.8720 C.2   1 <1>  -0.0400 
 21 C        1.3350     3.7250    -1.1520 C.ar  1 <1>  -0.1430 
 22 C        0.7390     6.1700    -0.7700 C.3   1 <1>  -0.0970 
 23 O       -0.9380    -4.0380    -1.4980 O.3   1 <1>  -0.0190 
 24 C       -2.2940    -4.2840     0.1370 C.2   1 <1>  -0.1500 
 25 C        2.4310     4.0790    -2.1490 C.3   1 <1>  -0.0970 
 26 N       -0.6070    -5.1770    -0.9630 N.2   1 <1>  -0.4100 
 27 C       -1.4080    -5.3520     0.0250 C.2   1 <1>   0.1080 
 28 C       -1.3820    -6.5580     0.9380 C.3   1 <1>  -0.0590 
 29 H       -3.5050     1.8390    -0.4940 H     1 <1>   0.0800 
 30 H       -2.2160     0.9300    -1.2700 H     1 <1>   0.0800 
 31 H       -2.0120    -1.6340     1.1510 H     1 <1>   0.0800 
 32 H       -3.6140    -1.1640     1.6850 H     1 <1>   0.0800 
 33 H       -3.1450     3.3060     2.8820 H     1 <1>   0.1500 
 34 H       -4.1670    -0.2190    -2.1140 H     1 <1>   0.0800 
 35 H       -4.3010    -2.2080    -0.3060 H     1 <1>   0.0800 
 36 H        0.0420     0.9210     0.2020 H     1 <1>   0.1500 
 37 H       -5.1300     0.2320     0.4950 H     1 <1>   0.4000 
 38 H       -1.6030    -1.4690    -1.4750 H     1 <1>   0.0800 
 39 H       -2.8650    -2.2830    -2.3510 H     1 <1>   0.0800 
 40 H        1.7510     1.6320    -1.3590 H     1 <1>   0.1500 
 41 H       -3.5220     5.5750     3.3270 H     1 <1>   0.0800 
 42 H       -3.3700     6.5620     1.8900 H     1 <1>   0.0800 
 43 H       -2.1330     6.6150     3.1210 H     1 <1>   0.0800 
 44 H        1.4910     6.3910    -1.5010 H     1 <1>   0.0800 
 45 H        1.0140     6.6580     0.1480 H     1 <1>   0.0800 
 46 H       -0.1880     6.5940    -1.1120 H     1 <1>   0.0800 
 47 H       -3.0680    -4.1800     0.8740 H     1 <1>   0.1500 
 48 H        2.9260     3.1990    -2.5180 H     1 <1>   0.0800 
 49 H        3.1690     4.7040    -1.6780 H     1 <1>   0.0800 
 50 H        2.0100     4.6020    -2.9890 H     1 <1>   0.0800 
 51 H       -2.3150    -7.0870     0.8690 H     1 <1>   0.0800 
 52 H       -1.2240    -6.2440     1.9530 H     1 <1>   0.0800 
 53 H       -0.5850    -7.2190     0.6490 H     1 <1>   0.0800 
@<TRIPOS>BOND
  1   1   2  2   
  2   2   3  am  
  3   2   4  1   
  4   3   5  1   
  5   3   6  1   
  6   4   7  ar  
  7   4   8  ar  
  8   5   9  1   
  9   5  29  1   
 10   5  30  1   
 11   6  10  1   
 12   6  31  1   
 13   6  32  1   
 14   7  11  ar  
 15   7  12  ar  
 16   8  13  ar  
 17   8  33  1   
 18   9  10  1   
 19   9  14  1   
 20   9  34  1   
 21  10  15  1   
 22  10  35  1   
 23  11  16  ar  
 24  11  17  ar  
 25  12  18  ar  
 26  12  36  1   
 27  13  16  ar  
 28  13  19  1   
 29  14  37  1   
 30  15  20  1   
 31  15  38  1   
 32  15  39  1   
 33  17  21  ar  
 34  17  22  1   
 35  18  21  ar  
 36  18  40  1   
 37  19  41  1   
 38  19  42  1   
 39  19  43  1   
 40  20  23  1   
 41  20  24  2   
 42  21  25  1   
 43  22  44  1   
 44  22  45  1   
 45  22  46  1   
 46  23  26  1   
 47  24  27  1   
 48  24  47  1   
 49  25  48  1   
 50  25  49  1   
 51  25  50  1   
 52  26  27  2   
 53  27  28  1   
 54  28  51  1   
 55  28  52  1   
 56  28  53  1   
@<TRIPOS>SUBSTRUCTURE
  1 ****   3 GROUP 4 **** **** 0

# MOE 2024.06 (io_trps.svl 2023.06)
