@<TRIPOS>MOLECULE
NONAME
50 53 1 0 0 
SMALL
USER_CHARGES


@<TRIPOS>ATOM
  1 O       -0.9370     0.4700    -1.4370 O.2   1 <1>  -0.5700 
  2 C       -1.7890     0.8210    -0.6410 C.2   1 <1>   0.5440 
  3 N       -1.7830     2.1270    -0.2040 N.am  1 <1>  -0.6600 
  4 C       -2.7770    -0.1330    -0.1960 C.ar  1 <1>   0.0860 
  5 C       -2.9510     2.8350     0.3690 C.3   1 <1>   0.1400 
  6 C       -0.7500     3.0930    -0.6440 C.3   1 <1>   0.1400 
  7 C       -3.3860    -0.9890    -1.1100 C.ar  1 <1>   0.1600 
  8 C       -3.1670    -0.2610     1.1340 C.ar  1 <1>  -0.1500 
  9 C       -2.7440     4.2960    -0.0100 C.3   1 <1>  -0.1600 
 10 C       -1.2310     4.4470    -0.1340 C.3   1 <1>  -0.1600 
 11 N       -4.3140    -1.8900    -0.8360 N.ar  1 <1>  -0.6200 
 12 C       -4.1270    -1.1940     1.4390 C.ar  1 <1>  -0.1500 
 13 C       -4.6790    -1.9860     0.4360 C.ar  1 <1>   0.4100 
 14 N       -5.6330    -2.9140     0.7610 N.pl3 1 <1>  -0.8690 
 15 C       -6.1030    -3.9800    -0.1610 C.3   1 <1>   0.2890 
 16 C       -7.5880    -4.2040     0.0600 C.3   1 <1>  -0.0800 
 17 C       -5.5140    -5.3230     0.2630 C.3   1 <1>   0.1200 
 18 C       -7.5890    -5.1580     1.2570 C.3   1 <1>   0.1200 
 19 C       -8.2570    -4.8250    -1.1810 C.3   1 <1>  -0.0170 
 20 O       -6.3880    -5.8700     1.2110 O.3   1 <1>  -0.5600 
 21 C       -9.7480    -5.0320    -0.9670 C.ar  1 <1>  -0.1430 
 22 C      -10.6380    -3.9770    -0.9930 C.ar  1 <1>  -0.1500 
 23 C      -10.2910    -6.2800    -0.7370 C.ar  1 <1>  -0.1500 
 24 C      -11.9870    -4.2130    -0.7890 C.ar  1 <1>   0.1600 
 25 C      -11.6560    -6.4080    -0.5450 C.ar  1 <1>   0.1600 
 26 N      -12.5180    -5.4040    -0.5640 N.ar  1 <1>  -0.6200 
 27 H       -3.8770     2.4530    -0.0270 H     1 <1>   0.0800 
 28 H       -2.9380     2.7270     1.4400 H     1 <1>   0.0800 
 29 H        0.2120     2.8300    -0.2390 H     1 <1>   0.0800 
 30 H       -0.7000     3.0900    -1.7200 H     1 <1>   0.0800 
 31 H       -3.0750    -0.9120    -2.1390 H     1 <1>   0.1500 
 32 H       -2.7180     0.3540     1.8940 H     1 <1>   0.1500 
 33 H       -3.2090     4.4780    -0.9640 H     1 <1>   0.0800 
 34 H       -3.1660     4.9640     0.7190 H     1 <1>   0.0800 
 35 H       -0.7990     4.6280     0.8340 H     1 <1>   0.0800 
 36 H       -0.9500     5.2460    -0.7980 H     1 <1>   0.0800 
 37 H       -4.4610    -1.3250     2.4510 H     1 <1>   0.1500 
 38 H       -5.6930    -3.1930     1.7410 H     1 <1>   0.4000 
 39 H       -5.8700    -3.7440    -1.1850 H     1 <1>   0.0800 
 40 H       -8.0860    -3.2800     0.2990 H     1 <1>   0.0800 
 41 H       -4.5320    -5.2210     0.6900 H     1 <1>   0.0800 
 42 H       -5.4770    -5.9980    -0.5730 H     1 <1>   0.0800 
 43 H       -8.4110    -5.8520     1.2490 H     1 <1>   0.0800 
 44 H       -7.6020    -4.6050     2.1800 H     1 <1>   0.0800 
 45 H       -7.7940    -5.7660    -1.4220 H     1 <1>   0.0800 
 46 H       -8.1190    -4.1710    -2.0250 H     1 <1>   0.0800 
 47 H      -10.2950    -2.9740    -1.1700 H     1 <1>   0.1500 
 48 H       -9.6660    -7.1540    -0.7030 H     1 <1>   0.1500 
 49 H      -12.6650    -3.3770    -0.8130 H     1 <1>   0.1500 
 50 H      -12.0620    -7.3890    -0.3660 H     1 <1>   0.1500 
@<TRIPOS>BOND
  1   1   2  2   
  2   2   3  am  
  3   2   4  1   
  4   3   5  1   
  5   3   6  1   
  6   4   7  ar  
  7   4   8  ar  
  8   5   9  1   
  9   5  27  1   
 10   5  28  1   
 11   6  10  1   
 12   6  29  1   
 13   6  30  1   
 14   7  11  ar  
 15   7  31  1   
 16   8  12  ar  
 17   8  32  1   
 18   9  10  1   
 19   9  33  1   
 20   9  34  1   
 21  10  35  1   
 22  10  36  1   
 23  11  13  ar  
 24  12  13  ar  
 25  12  37  1   
 26  13  14  1   
 27  14  15  1   
 28  14  38  1   
 29  15  16  1   
 30  15  17  1   
 31  15  39  1   
 32  16  18  1   
 33  16  19  1   
 34  16  40  1   
 35  17  20  1   
 36  17  41  1   
 37  17  42  1   
 38  18  20  1   
 39  18  43  1   
 40  18  44  1   
 41  19  21  1   
 42  19  45  1   
 43  19  46  1   
 44  21  22  ar  
 45  21  23  ar  
 46  22  24  ar  
 47  22  47  1   
 48  23  25  ar  
 49  23  48  1   
 50  24  26  ar  
 51  24  49  1   
 52  25  26  ar  
 53  25  50  1   
@<TRIPOS>SUBSTRUCTURE
  1 ****  13 GROUP 4 **** **** 0

# MOE 2024.06 (io_trps.svl 2023.06)
