@<TRIPOS>MOLECULE
NONAME
47 49 1 0 0 
SMALL
USER_CHARGES


@<TRIPOS>ATOM
  1 S        0.8250     0.3390    -1.6690 S.o2  1 <1>   1.3330 
  2 O        0.1380     1.0820    -2.7000 O.2   1 <1>  -0.6500 
  3 O        1.0420    -1.0810    -1.8320 O.2   1 <1>  -0.6500 
  4 N       -0.0410     0.5700    -0.2250 N.am  1 <1>  -0.8490 
  5 C        2.4130     1.1090    -1.3430 C.3   1 <1>  -0.0550 
  6 C       -0.6090     1.9170    -0.0970 C.3   1 <1>   0.1160 
  7 C       -1.0990    -0.4300    -0.0540 C.3   1 <1>   0.1160 
  8 C        3.2900     0.3530    -0.3200 C.3   1 <1>  -0.0800 
  9 C        4.6870     0.9250    -0.1300 C.3   1 <1>   0.2200 
 10 C        2.7430     0.3220     1.1120 C.3   1 <1>   0.1200 
 11 N        4.6410     2.4020    -0.0560 N.am  1 <1>  -0.7300 
 12 C        5.0360     0.3670     1.2430 C.3   1 <1>   0.1200 
 13 O        3.8450     0.4030     1.9690 O.3   1 <1>  -0.5600 
 14 C        4.9520     3.2790    -1.0520 C.2   1 <1>   0.7160 
 15 O        5.3500     2.8260    -2.1090 O.2   1 <1>  -0.5700 
 16 C        4.7590     4.6990    -0.8300 C.2   1 <1>   0.1410 
 17 N        4.1830     5.2100     0.2960 N.2   1 <1>  -0.5650 
 18 C        5.0780     5.7420    -1.6450 C.2   1 <1>  -0.0150 
 19 C        4.1820     6.5130     0.1130 C.2   1 <1>   0.1420 
 20 F        5.6460     5.7020    -2.8240 F     1 <1>  -0.1370 
 21 N        4.7300     6.9030    -1.0890 N.pl3 1 <1>   0.3340 
 22 C        3.6940     7.5220     0.9860 C.2   1 <1>  -0.1050 
 23 C        4.8060     8.2420    -1.4540 C.2   1 <1>  -0.1810 
 24 C        3.7660     8.8380     0.6370 C.2   1 <1>  -0.1380 
 25 C        4.3360     9.2010    -0.6150 C.2   1 <1>  -0.1500 
 26 C        3.2560     9.9440     1.5430 C.3   1 <1>  -0.1020 
 27 H        2.9560     1.1610    -2.2670 H     1 <1>   0.0800 
 28 H        2.2520     2.1150    -1.0130 H     1 <1>   0.0800 
 29 H       -1.0740     2.0320     0.8670 H     1 <1>   0.0800 
 30 H       -1.3470     2.0910    -0.8640 H     1 <1>   0.0800 
 31 H        0.1650     2.6600    -0.1900 H     1 <1>   0.0800 
 32 H       -1.6200    -0.2680     0.8740 H     1 <1>   0.0800 
 33 H       -0.6720    -1.4190    -0.0310 H     1 <1>   0.0800 
 34 H       -1.8010    -0.3760    -0.8700 H     1 <1>   0.0800 
 35 H        3.3930    -0.6670    -0.6490 H     1 <1>   0.0800 
 36 H        5.3790     0.6020    -0.8900 H     1 <1>   0.0800 
 37 H        2.2030    -0.5870     1.3160 H     1 <1>   0.0800 
 38 H        2.1140     1.1710     1.3160 H     1 <1>   0.0800 
 39 H        4.2880     2.7960     0.8230 H     1 <1>   0.3700 
 40 H        5.7890     0.9440     1.7500 H     1 <1>   0.0800 
 41 H        5.3450    -0.6610     1.1700 H     1 <1>   0.0800 
 42 H        3.2740     7.1950     1.9200 H     1 <1>   0.1500 
 43 H        5.2480     8.4510    -2.4120 H     1 <1>   0.1500 
 44 H        4.3830    10.2460    -0.8730 H     1 <1>   0.1500 
 45 H        2.4820    10.5000     1.0450 H     1 <1>   0.0800 
 46 H        4.0600    10.6140     1.7930 H     1 <1>   0.0800 
 47 H        2.8540     9.5380     2.4550 H     1 <1>   0.0800 
@<TRIPOS>BOND
  1   1   2  2   
  2   1   3  2   
  3   1   4  am  
  4   1   5  1   
  5   4   6  1   
  6   4   7  1   
  7   5   8  1   
  8   5  27  1   
  9   5  28  1   
 10   6  29  1   
 11   6  30  1   
 12   6  31  1   
 13   7  32  1   
 14   7  33  1   
 15   7  34  1   
 16   8   9  1   
 17   8  10  1   
 18   8  35  1   
 19   9  11  1   
 20   9  12  1   
 21   9  36  1   
 22  10  13  1   
 23  10  37  1   
 24  10  38  1   
 25  11  14  am  
 26  11  39  1   
 27  12  13  1   
 28  12  40  1   
 29  12  41  1   
 30  14  15  2   
 31  14  16  1   
 32  16  17  1   
 33  16  18  2   
 34  17  19  2   
 35  18  20  1   
 36  18  21  1   
 37  19  21  1   
 38  19  22  1   
 39  21  23  1   
 40  22  24  2   
 41  22  42  1   
 42  23  25  2   
 43  23  43  1   
 44  24  25  1   
 45  24  26  1   
 46  25  44  1   
 47  26  45  1   
 48  26  46  1   
 49  26  47  1   
@<TRIPOS>SUBSTRUCTURE
  1 ****  14 GROUP 4 **** **** 0

# MOE 2024.06 (io_trps.svl 2023.06)
