@<TRIPOS>MOLECULE
NONAME
35 37 1 0 0 
SMALL
USER_CHARGES


@<TRIPOS>ATOM
  1 F       -0.1400    -2.0470    -0.5390 F     1 <1>  -0.3400 
  2 C       -1.1980    -1.5730     0.1070 C.3   1 <1>   1.3000 
  3 F       -1.1980    -0.2550    -0.0290 F     1 <1>  -0.3400 
  4 F       -1.0560    -1.8460     1.3990 F     1 <1>  -0.3400 
  5 O       -2.4000    -2.1120    -0.4050 O.3   1 <1>  -0.3630 
  6 C       -2.5720    -3.4440    -0.3330 C.ar  1 <1>   0.0830 
  7 C       -3.2020    -4.0040     0.7670 C.ar  1 <1>  -0.1500 
  8 C       -2.1360    -4.2580    -1.3680 C.ar  1 <1>  -0.1500 
  9 C       -3.3790    -5.3740     0.8340 C.ar  1 <1>  -0.1500 
 10 C       -2.3200    -5.6260    -1.2890 C.ar  1 <1>  -0.1500 
 11 C       -2.9470    -6.2180    -0.1920 C.ar  1 <1>   0.0860 
 12 C       -3.1200    -7.6580    -0.1300 C.2   1 <1>   0.5440 
 13 O       -2.1740    -8.3780    -0.3980 O.2   1 <1>  -0.5700 
 14 N       -4.3180    -8.2250     0.2230 N.am  1 <1>  -0.6600 
 15 C       -5.6310    -7.5190     0.2360 C.3   1 <1>   0.2350 
 16 C       -4.5340    -9.6960     0.3450 C.3   1 <1>   0.2350 
 17 C       -6.6700    -8.5730    -0.0960 C.3   1 <1>  -0.2420 
 18 C       -5.9950    -9.9220    -0.0120 C.3   1 <1>  -0.2420 
 19 C       -8.0660    -8.0960     0.3180 C.2   1 <1>   0.9470 
 20 C       -6.5330    -9.4290    -1.3300 C.3   1 <1>  -0.2000 
 21 C       -6.4910   -11.2570     0.5470 C.2   1 <1>   0.9470 
 22 O       -8.2080    -7.5600     1.4260 O.co2 1 <1>  -0.9000 
 23 O       -8.9850    -8.0880    -0.5130 O.co2 1 <1>  -0.9000 
 24 O       -6.8830   -12.1370    -0.2330 O.co2 1 <1>  -0.9000 
 25 O       -6.3450   -11.4930     1.7550 O.co2 1 <1>  -0.9000 
 26 H       -3.5520    -3.3740     1.5660 H     1 <1>   0.1500 
 27 H       -1.6560    -3.8240    -2.2270 H     1 <1>   0.1500 
 28 H       -3.8590    -5.8090     1.6950 H     1 <1>   0.1500 
 29 H       -1.9760    -6.2630    -2.0860 H     1 <1>   0.1500 
 30 H       -5.8100    -7.1260     1.2210 H     1 <1>   0.0800 
 31 H       -5.6610    -6.7240    -0.4870 H     1 <1>   0.0800 
 32 H       -3.8910   -10.2460    -0.3190 H     1 <1>   0.0800 
 33 H       -4.3490    -9.9980     1.3620 H     1 <1>   0.0800 
 34 H       -5.8490    -9.1400    -2.1050 H     1 <1>   0.1000 
 35 H       -7.4200    -9.9050    -1.7160 H     1 <1>   0.1000 
@<TRIPOS>BOND
  1   1   2  1   
  2   2   3  1   
  3   2   4  1   
  4   2   5  1   
  5   5   6  1   
  6   6   7  ar  
  7   6   8  ar  
  8   7   9  ar  
  9   7  26  1   
 10   8  10  ar  
 11   8  27  1   
 12   9  11  ar  
 13   9  28  1   
 14  10  11  ar  
 15  10  29  1   
 16  11  12  1   
 17  12  13  2   
 18  12  14  am  
 19  14  15  1   
 20  14  16  1   
 21  15  17  1   
 22  15  30  1   
 23  15  31  1   
 24  16  18  1   
 25  16  32  1   
 26  16  33  1   
 27  17  18  1   
 28  17  19  1   
 29  17  20  1   
 30  18  20  1   
 31  18  21  1   
 32  19  22  ar  
 33  19  23  ar  
 34  20  34  1   
 35  20  35  1   
 36  21  24  ar  
 37  21  25  ar  
@<TRIPOS>SUBSTRUCTURE
  1 ****  11 GROUP 4 **** **** 0

# MOE 2024.06 (io_trps.svl 2023.06)
