@<TRIPOS>MOLECULE
NONAME
56 59 1 0 0 
SMALL
USER_CHARGES


@<TRIPOS>ATOM
  1 O       -3.7340     1.9470    -2.2630 O.2   1 <1>  -0.5700 
  2 C       -3.8610     0.9220    -1.6380 C.2   1 <1>   0.5690 
  3 N       -3.4860     0.7190    -0.3560 N.am  1 <1>  -0.6600 
  4 C       -4.4640    -0.3180    -2.2310 C.3   1 <1>  -0.0990 
  5 C       -2.8420     1.7580     0.4910 C.3   1 <1>   0.2200 
  6 C       -3.7900    -0.6470     0.1090 C.3   1 <1>   0.1400 
  7 C       -4.6270    -1.2610    -1.0240 C.3   1 <1>  -0.0800 
  8 C       -1.4990     1.2810     1.0370 C.3   1 <1>  -0.1600 
  9 C       -3.6770     2.0560     1.7350 C.3   1 <1>  -0.1600 
 10 C       -4.2210    -2.7110    -1.3210 C.3   1 <1>   0.2090 
 11 C       -1.7830     0.6230     2.3910 C.3   1 <1>  -0.1600 
 12 C       -3.1270     1.1820     2.8710 C.3   1 <1>  -0.1600 
 13 N       -5.0260    -3.2560    -2.4530 N.pl3 1 <1>  -0.8380 
 14 C       -6.3960    -3.4240    -2.3090 C.ar  1 <1>   0.4100 
 15 C       -4.2910    -4.1800    -3.3570 C.3   1 <1>   0.1290 
 16 N       -6.8300    -3.7730    -1.1100 N.ar  1 <1>  -0.6200 
 17 C       -7.2610    -3.2260    -3.3960 C.ar  1 <1>   0.1600 
 18 C       -8.1640    -3.9130    -1.0300 C.ar  1 <1>   0.3960 
 19 N       -8.5700    -3.3600    -3.3570 N.ar  1 <1>  -0.6200 
 20 C       -8.8150    -4.2880     0.2270 C.2   1 <1>   0.5440 
 21 C       -8.9830    -3.7000    -2.1440 C.ar  1 <1>   0.1600 
 22 O       -9.9370    -3.8640     0.4570 O.2   1 <1>  -0.5700 
 23 N       -8.2530    -5.1270     1.1750 N.am  1 <1>  -0.6600 
 24 C       -8.9780    -5.5630     2.3890 C.3   1 <1>   0.1400 
 25 C       -6.9740    -5.8620     1.0350 C.3   1 <1>   0.1400 
 26 C       -8.2920    -6.8580     2.8040 C.3   1 <1>  -0.1600 
 27 C       -6.8610    -6.7120     2.2970 C.3   1 <1>  -0.1600 
 28 H       -3.7850    -0.7150    -2.9630 H     1 <1>   0.0800 
 29 H       -5.4090    -0.0990    -2.6910 H     1 <1>   0.0800 
 30 H       -2.7100     2.6540    -0.0950 H     1 <1>   0.0800 
 31 H       -4.3520    -0.6240     1.0270 H     1 <1>   0.0800 
 32 H       -2.8700    -1.1860     0.2540 H     1 <1>   0.0800 
 33 H       -5.6540    -1.2430    -0.7040 H     1 <1>   0.0800 
 34 H       -0.8810     2.1460     1.2020 H     1 <1>   0.0800 
 35 H       -0.9900     0.6270     0.3510 H     1 <1>   0.0800 
 36 H       -4.7270     1.8990     1.5620 H     1 <1>   0.0800 
 37 H       -3.5270     3.0890     1.9970 H     1 <1>   0.0800 
 38 H       -4.3670    -3.3220    -0.4460 H     1 <1>   0.0800 
 39 H       -3.1760    -2.7400    -1.5780 H     1 <1>   0.0800 
 40 H       -0.9960     0.8350     3.0950 H     1 <1>   0.0800 
 41 H       -1.8560    -0.4440     2.2730 H     1 <1>   0.0800 
 42 H       -3.8070     0.3770     3.0880 H     1 <1>   0.0800 
 43 H       -2.9990     1.7700     3.7640 H     1 <1>   0.0800 
 44 H       -3.5850    -3.6230    -3.9490 H     1 <1>   0.0800 
 45 H       -4.9730    -4.6870    -4.0180 H     1 <1>   0.0800 
 46 H       -3.7630    -4.9180    -2.7780 H     1 <1>   0.0800 
 47 H       -6.8170    -2.9360    -4.3300 H     1 <1>   0.1500 
 48 H      -10.0450    -3.8210    -2.0160 H     1 <1>   0.1500 
 49 H      -10.0250    -5.7160     2.1860 H     1 <1>   0.0800 
 50 H       -8.8640    -4.8100     3.1510 H     1 <1>   0.0800 
 51 H       -6.1450    -5.1790     0.9580 H     1 <1>   0.0800 
 52 H       -7.0150    -6.4850     0.1590 H     1 <1>   0.0800 
 53 H       -8.7750    -7.6810     2.3080 H     1 <1>   0.0800 
 54 H       -8.3390    -7.0120     3.8680 H     1 <1>   0.0800 
 55 H       -6.2700    -6.1800     3.0230 H     1 <1>   0.0800 
 56 H       -6.3970    -7.6620     2.0980 H     1 <1>   0.0800 
@<TRIPOS>BOND
  1   1   2  2   
  2   2   3  am  
  3   2   4  1   
  4   3   5  1   
  5   3   6  1   
  6   4   7  1   
  7   4  28  1   
  8   4  29  1   
  9   5   8  1   
 10   5   9  1   
 11   5  30  1   
 12   6   7  1   
 13   6  31  1   
 14   6  32  1   
 15   7  10  1   
 16   7  33  1   
 17   8  11  1   
 18   8  34  1   
 19   8  35  1   
 20   9  12  1   
 21   9  36  1   
 22   9  37  1   
 23  10  13  1   
 24  10  38  1   
 25  10  39  1   
 26  11  12  1   
 27  11  40  1   
 28  11  41  1   
 29  12  42  1   
 30  12  43  1   
 31  13  14  1   
 32  13  15  1   
 33  14  16  ar  
 34  14  17  ar  
 35  15  44  1   
 36  15  45  1   
 37  15  46  1   
 38  16  18  ar  
 39  17  19  ar  
 40  17  47  1   
 41  18  20  1   
 42  18  21  ar  
 43  19  21  ar  
 44  20  22  2   
 45  20  23  am  
 46  21  48  1   
 47  23  24  1   
 48  23  25  1   
 49  24  26  1   
 50  24  49  1   
 51  24  50  1   
 52  25  27  1   
 53  25  51  1   
 54  25  52  1   
 55  26  27  1   
 56  26  53  1   
 57  26  54  1   
 58  27  55  1   
 59  27  56  1   
@<TRIPOS>SUBSTRUCTURE
  1 ****   7 GROUP 4 **** **** 0

# MOE 2024.06 (io_trps.svl 2023.06)
