@<TRIPOS>MOLECULE
NONAME
54 56 1 0 0 
SMALL
USER_CHARGES


@<TRIPOS>ATOM
  1 O        0.0020     1.0880    -0.8490 O.2   1 <1>  -0.5700 
  2 C       -0.1590     2.2690    -0.6480 C.2   1 <1>   0.5690 
  3 N       -1.1140     2.7450     0.2100 N.am  1 <1>  -0.6600 
  4 C        0.7290     3.2570    -1.4040 C.3   1 <1>   0.1810 
  5 C       -1.3210     4.2190     0.4050 C.3   1 <1>   0.3640 
  6 C       -1.9610     1.8440     1.0440 C.3   1 <1>   0.0600 
  7 O        0.8460     4.4900    -0.7380 O.3   1 <1>  -0.5600 
  8 C       -2.8000     4.5990     0.2220 C.ar  1 <1>  -0.1430 
  9 C       -0.3960     5.1180    -0.4570 C.3   1 <1>   0.2610 
 10 C       -3.5820     4.2540    -0.8850 C.ar  1 <1>  -0.1430 
 11 C       -3.3800     5.3430     1.2440 C.ar  1 <1>  -0.1500 
 12 C       -0.1530     6.4420     0.2730 C.2   1 <1>   0.5690 
 13 C       -4.9110     4.6510    -0.9320 C.ar  1 <1>  -0.1500 
 14 C       -3.0650     3.4430    -2.0690 C.3   1 <1>  -0.0960 
 15 C       -4.7040     5.7350     1.1850 C.ar  1 <1>  -0.1500 
 16 O       -0.9920     7.3100     0.2460 O.2   1 <1>  -0.5700 
 17 N        1.0230     6.6210     0.9340 N.am  1 <1>  -0.7300 
 18 C       -5.4730     5.3860     0.0940 C.ar  1 <1>  -0.1500 
 19 C        1.4320     7.8420     1.6680 C.3   1 <1>   0.1400 
 20 C        2.3870     8.7000     0.8230 C.3   1 <1>   0.0000 
 21 C        3.1060     9.7860     1.6760 C.3   1 <1>   0.0000 
 22 C        3.7730     8.0270     0.5940 C.3   1 <1>   0.0000 
 23 C        1.6950     9.2320    -0.4530 C.3   1 <1>   0.1200 
 24 C        4.4530     9.3460     1.0450 C.3   1 <1>   0.0000 
 25 O        2.5340    10.0730    -1.1830 O.3   1 <1>  -0.5600 
 26 C        1.9480    10.5900    -2.3320 C.3   1 <1>   0.0400 
 27 H        0.3280     3.4310    -2.3850 H     1 <1>   0.0800 
 28 H        1.7160     2.8430    -1.5000 H     1 <1>   0.0800 
 29 H       -1.0590     4.4150     1.4300 H     1 <1>   0.0800 
 30 H       -1.8680     2.1090     2.0820 H     1 <1>   0.0800 
 31 H       -1.6590     0.8170     0.9230 H     1 <1>   0.0800 
 32 H       -2.9930     1.9330     0.7500 H     1 <1>   0.0800 
 33 H       -0.8710     5.3440    -1.3930 H     1 <1>   0.0800 
 34 H       -2.8010     5.6360     2.1020 H     1 <1>   0.1500 
 35 H       -5.5270     4.3890    -1.7740 H     1 <1>   0.1500 
 36 H       -3.7510     3.4900    -2.8960 H     1 <1>   0.0800 
 37 H       -2.9560     2.4110    -1.7890 H     1 <1>   0.0800 
 38 H       -2.1220     3.8170    -2.4130 H     1 <1>   0.0800 
 39 H       -5.1320     6.3130     1.9850 H     1 <1>   0.1500 
 40 H        1.7480     5.9090     0.7870 H     1 <1>   0.3700 
 41 H       -6.5040     5.6880     0.0420 H     1 <1>   0.1500 
 42 H        0.5590     8.4220     1.9200 H     1 <1>   0.0800 
 43 H        1.9100     7.5490     2.5870 H     1 <1>   0.0800 
 44 H        2.8280    10.7970     1.4360 H     1 <1>   0.0000 
 45 H        3.0780     9.5850     2.7340 H     1 <1>   0.0000 
 46 H        3.9710     7.2210     1.2800 H     1 <1>   0.0000 
 47 H        3.9740     7.7670    -0.4300 H     1 <1>   0.0000 
 48 H        0.8120     9.7860    -0.1820 H     1 <1>   0.0800 
 49 H        1.4120     8.4100    -1.0870 H     1 <1>   0.0800 
 50 H        5.2360     9.1990     1.7670 H     1 <1>   0.0000 
 51 H        4.7510     9.9670     0.2180 H     1 <1>   0.0000 
 52 H        2.6700    11.2220    -2.8200 H     1 <1>   0.0800 
 53 H        1.0830    11.1700    -2.0590 H     1 <1>   0.0800 
 54 H        1.6720     9.7800    -2.9850 H     1 <1>   0.0800 
@<TRIPOS>BOND
  1   1   2  2   
  2   2   3  am  
  3   2   4  1   
  4   3   5  1   
  5   3   6  1   
  6   4   7  1   
  7   4  27  1   
  8   4  28  1   
  9   5   8  1   
 10   5   9  1   
 11   5  29  1   
 12   6  30  1   
 13   6  31  1   
 14   6  32  1   
 15   7   9  1   
 16   8  10  ar  
 17   8  11  ar  
 18   9  12  1   
 19   9  33  1   
 20  10  13  ar  
 21  10  14  1   
 22  11  15  ar  
 23  11  34  1   
 24  12  16  2   
 25  12  17  am  
 26  13  18  ar  
 27  13  35  1   
 28  14  36  1   
 29  14  37  1   
 30  14  38  1   
 31  15  18  ar  
 32  15  39  1   
 33  17  19  1   
 34  17  40  1   
 35  18  41  1   
 36  19  20  1   
 37  19  42  1   
 38  19  43  1   
 39  20  21  1   
 40  20  22  1   
 41  20  23  1   
 42  21  24  1   
 43  21  44  1   
 44  21  45  1   
 45  22  24  1   
 46  22  46  1   
 47  22  47  1   
 48  23  25  1   
 49  23  48  1   
 50  23  49  1   
 51  24  50  1   
 52  24  51  1   
 53  25  26  1   
 54  26  52  1   
 55  26  53  1   
 56  26  54  1   
@<TRIPOS>SUBSTRUCTURE
  1 ****  12 GROUP 4 **** **** 0

# MOE 2024.06 (io_trps.svl 2023.06)
