@<TRIPOS>MOLECULE
NONAME
43 45 1 0 0 
SMALL
USER_CHARGES


@<TRIPOS>ATOM
  1 CL      -3.6560    -1.2820    -2.5310 Cl    1 <1>  -0.1770 
  2 C       -3.4400    -0.0150    -1.3410 C.ar  1 <1>   0.1770 
  3 C       -3.4140    -0.3260     0.0140 C.ar  1 <1>   0.0830 
  4 C       -3.3100     1.2880    -1.7840 C.ar  1 <1>  -0.1500 
  5 O       -3.5480    -1.6270     0.3810 O.3   1 <1>  -0.3630 
  6 C       -3.2510     0.7080     0.9340 C.ar  1 <1>  -0.1500 
  7 C       -3.1510     2.3080    -0.8610 C.ar  1 <1>  -0.1500 
  8 C       -3.9690    -1.9800     1.6910 C.3   1 <1>   0.1810 
  9 C       -3.1230     2.0160     0.4930 C.ar  1 <1>  -0.1500 
 10 C       -4.2540    -3.4760     1.8140 C.2   1 <1>   0.5690 
 11 O       -3.7720    -4.0610     2.7550 O.2   1 <1>  -0.5700 
 12 N       -5.0540    -4.1340     0.9150 N.am  1 <1>  -0.6600 
 13 C       -5.6490    -3.5680    -0.3240 C.3   1 <1>   0.1400 
 14 C       -5.2770    -5.6000     0.9680 C.3   1 <1>   0.1400 
 15 C       -6.6120    -4.6490    -0.8110 C.3   1 <1>   0.2000 
 16 C       -5.9350    -5.9530    -0.3720 C.3   1 <1>  -0.0800 
 17 O       -7.8110    -4.4980    -0.1300 O.3   1 <1>  -0.6800 
 18 C       -6.8660    -7.1780    -0.3080 C.3   1 <1>   0.0200 
 19 C       -6.1280    -8.4730    -0.0100 C.2   1 <1>  -0.0400 
 20 O       -6.8260    -9.5560     0.2070 O.3   1 <1>  -0.0190 
 21 C       -4.8290    -8.7990     0.0890 C.2   1 <1>  -0.1500 
 22 N       -6.0670   -10.5850     0.4490 N.2   1 <1>  -0.4100 
 23 C       -4.8580   -10.1590     0.3850 C.2   1 <1>   0.1080 
 24 C       -3.6380   -11.0260     0.6040 C.3   1 <1>  -0.0590 
 25 H       -3.3340     1.4990    -2.8390 H     1 <1>   0.1500 
 26 H       -3.2140     0.5160     1.9900 H     1 <1>   0.1500 
 27 H       -3.0490     3.3270    -1.1960 H     1 <1>   0.1500 
 28 H       -3.1850    -1.7160     2.3770 H     1 <1>   0.0800 
 29 H       -4.8600    -1.4280     1.9240 H     1 <1>   0.0800 
 30 H       -2.9960     2.8120     1.2070 H     1 <1>   0.1500 
 31 H       -6.1500    -2.6330    -0.1450 H     1 <1>   0.0800 
 32 H       -4.8680    -3.4250    -1.0520 H     1 <1>   0.0800 
 33 H       -4.3440    -6.1190     1.1060 H     1 <1>   0.0800 
 34 H       -5.9320    -5.8240     1.7930 H     1 <1>   0.0800 
 35 H       -6.8070    -4.5980    -1.8690 H     1 <1>   0.0800 
 36 H       -5.1500    -6.1590    -1.0780 H     1 <1>   0.0800 
 37 H       -7.6190    -4.3860     0.8230 H     1 <1>   0.4000 
 38 H       -7.3770    -7.2880    -1.2490 H     1 <1>   0.0800 
 39 H       -7.6140    -7.0330     0.4510 H     1 <1>   0.0800 
 40 H       -3.9460    -8.1990    -0.0240 H     1 <1>   0.1500 
 41 H       -3.0270   -11.0260    -0.2790 H     1 <1>   0.0800 
 42 H       -3.9390   -12.0350     0.8200 H     1 <1>   0.0800 
 43 H       -3.0670   -10.6480     1.4320 H     1 <1>   0.0800 
@<TRIPOS>BOND
  1   1   2  1   
  2   2   3  ar  
  3   2   4  ar  
  4   3   5  1   
  5   3   6  ar  
  6   4   7  ar  
  7   4  25  1   
  8   5   8  1   
  9   6   9  ar  
 10   6  26  1   
 11   7   9  ar  
 12   7  27  1   
 13   8  10  1   
 14   8  28  1   
 15   8  29  1   
 16   9  30  1   
 17  10  11  2   
 18  10  12  am  
 19  12  13  1   
 20  12  14  1   
 21  13  15  1   
 22  13  31  1   
 23  13  32  1   
 24  14  16  1   
 25  14  33  1   
 26  14  34  1   
 27  15  16  1   
 28  15  17  1   
 29  15  35  1   
 30  16  18  1   
 31  16  36  1   
 32  17  37  1   
 33  18  19  1   
 34  18  38  1   
 35  18  39  1   
 36  19  20  1   
 37  19  21  2   
 38  20  22  1   
 39  21  23  1   
 40  21  40  1   
 41  22  23  2   
 42  23  24  1   
 43  24  41  1   
 44  24  42  1   
 45  24  43  1   
@<TRIPOS>SUBSTRUCTURE
  1 ****  12 GROUP 4 **** **** 0

# MOE 2024.06 (io_trps.svl 2023.06)
