@<TRIPOS>MOLECULE
NONAME
44 46 1 0 0 
SMALL
USER_CHARGES


@<TRIPOS>ATOM
  1 F       -1.7270    -0.4160    -1.8130 F     1 <1>  -0.1900 
  2 C       -2.3290     0.4360    -1.0220 C.ar  1 <1>   0.1900 
  3 C       -3.0490    -0.0500     0.0560 C.ar  1 <1>  -0.1440 
  4 C       -2.2310     1.7840    -1.3070 C.ar  1 <1>  -0.1500 
  5 C       -3.6920     0.8660     0.8740 C.ar  1 <1>  -0.1500 
  6 C       -3.1290    -1.5370     0.3290 C.3   1 <1>   0.4870 
  7 C       -2.8820     2.6870    -0.4840 C.ar  1 <1>  -0.1500 
  8 C       -3.6170     2.2260     0.6090 C.ar  1 <1>   0.0820 
  9 N       -3.9050    -2.1900    -0.7610 N.4   1 <1>  -0.9590 
 10 O       -4.2880     3.0370     1.4620 O.3   1 <1>  -0.3630 
 11 C       -5.3170    -1.6860    -0.8550 C.3   1 <1>   0.3430 
 12 C       -3.9640    -3.6710    -0.5970 C.3   1 <1>   0.3430 
 13 C       -4.2420     4.4420     1.3320 C.3   1 <1>   0.0400 
 14 C       -6.2280    -2.8990    -0.6300 C.3   1 <1>   0.2000 
 15 C       -5.3420    -3.9730    -0.0100 C.3   1 <1>  -0.0800 
 16 O       -7.2840    -2.6050     0.2170 O.3   1 <1>  -0.6800 
 17 C       -5.8410    -5.4020    -0.2990 C.3   1 <1>  -0.0170 
 18 C       -4.9730    -6.4620     0.3680 C.ar  1 <1>   0.1670 
 19 N       -3.7070    -6.5160    -0.0180 N.ar  1 <1>  -0.6200 
 20 C       -5.5230    -7.3130     1.3260 C.ar  1 <1>   0.1600 
 21 C       -3.0400    -7.4800     0.6000 C.ar  1 <1>   0.1600 
 22 N       -4.8520    -8.2610     1.9550 N.ar  1 <1>  -0.6200 
 23 C       -3.5940    -8.3230     1.5560 C.ar  1 <1>   0.1600 
 24 H       -1.6580     2.1210    -2.1540 H     1 <1>   0.1500 
 25 H       -4.2620     0.5530     1.7320 H     1 <1>   0.1500 
 26 H       -3.6040    -1.7100     1.2810 H     1 <1>   0.0800 
 27 H       -2.1310    -1.9440     0.3660 H     1 <1>   0.0800 
 28 H       -2.8080     3.7360    -0.7050 H     1 <1>   0.1500 
 29 H       -3.4040    -1.9620    -1.6350 H     1 <1>   0.4500 
 30 H       -5.5070    -0.9400    -0.1020 H     1 <1>   0.0800 
 31 H       -5.5030    -1.2620    -1.8280 H     1 <1>   0.0800 
 32 H       -3.8800    -4.1470    -1.5610 H     1 <1>   0.0800 
 33 H       -3.1750    -4.0440     0.0370 H     1 <1>   0.0800 
 34 H       -4.8260     4.8700     2.1270 H     1 <1>   0.0800 
 35 H       -4.6610     4.7210     0.3820 H     1 <1>   0.0800 
 36 H       -3.2200     4.7690     1.4150 H     1 <1>   0.0800 
 37 H       -6.6390    -3.2180    -1.5740 H     1 <1>   0.0800 
 38 H       -5.2800    -3.8300     1.0550 H     1 <1>   0.0800 
 39 H       -7.0090    -2.4710     1.1460 H     1 <1>   0.4000 
 40 H       -5.8480    -5.5860    -1.3600 H     1 <1>   0.0800 
 41 H       -6.8560    -5.4970     0.0480 H     1 <1>   0.0800 
 42 H       -6.5620    -7.2090     1.5870 H     1 <1>   0.1500 
 43 H       -2.0040    -7.6140     0.3410 H     1 <1>   0.1500 
 44 H       -2.9720    -9.0770     2.0060 H     1 <1>   0.1500 
@<TRIPOS>BOND
  1   1   2  1   
  2   2   3  ar  
  3   2   4  ar  
  4   3   5  ar  
  5   3   6  1   
  6   4   7  ar  
  7   4  24  1   
  8   5   8  ar  
  9   5  25  1   
 10   6   9  1   
 11   6  26  1   
 12   6  27  1   
 13   7   8  ar  
 14   7  28  1   
 15   8  10  1   
 16   9  11  1   
 17   9  12  1   
 18   9  29  1   
 19  10  13  1   
 20  11  14  1   
 21  11  30  1   
 22  11  31  1   
 23  12  15  1   
 24  12  32  1   
 25  12  33  1   
 26  13  34  1   
 27  13  35  1   
 28  13  36  1   
 29  14  15  1   
 30  14  16  1   
 31  14  37  1   
 32  15  17  1   
 33  15  38  1   
 34  16  39  1   
 35  17  18  1   
 36  17  40  1   
 37  17  41  1   
 38  18  19  ar  
 39  18  20  ar  
 40  19  21  ar  
 41  20  22  ar  
 42  20  42  1   
 43  21  23  ar  
 44  21  43  1   
 45  22  23  ar  
 46  23  44  1   
@<TRIPOS>SUBSTRUCTURE
  1 ****   9 GROUP 4 **** **** 0

# MOE 2024.06 (io_trps.svl 2023.06)
