@<TRIPOS>MOLECULE
NONAME
44 46 1 0 0 
SMALL
USER_CHARGES


@<TRIPOS>ATOM
  1 F       -0.3090    -1.8000    -0.4700 F     1 <1>  -0.3400 
  2 C       -1.4590    -2.2220     0.0320 C.3   1 <1>   1.1640 
  3 F       -1.8870    -3.1950    -0.7690 F     1 <1>  -0.3400 
  4 F       -1.1790    -2.8080     1.1880 F     1 <1>  -0.3400 
  5 C       -2.5370    -1.1320     0.1880 C.ar  1 <1>  -0.1440 
  6 C       -3.7710    -1.3900     0.8010 C.ar  1 <1>  -0.1440 
  7 C       -2.2890     0.1520    -0.2930 C.ar  1 <1>  -0.1500 
  8 C       -4.7030    -0.3700     0.9300 C.ar  1 <1>  -0.1500 
  9 C       -4.1620    -2.7570     1.3590 C.3   1 <1>   0.4870 
 10 C       -3.2290     1.1560    -0.1660 C.ar  1 <1>  -0.1500 
 11 C       -4.4370     0.8970     0.4480 C.ar  1 <1>  -0.1500 
 12 N       -4.5100    -3.6870     0.2450 N.4   1 <1>  -0.9590 
 13 C       -5.7100    -3.2000    -0.5120 C.3   1 <1>   0.3430 
 14 C       -4.8640    -5.0360     0.7940 C.3   1 <1>   0.3430 
 15 C       -6.8970    -3.9930     0.0410 C.3   1 <1>   0.2000 
 16 C       -6.2880    -5.3630     0.3230 C.3   1 <1>  -0.0800 
 17 O       -7.2750    -3.4280     1.2550 O.3   1 <1>  -0.6800 
 18 C       -6.2840    -6.2620    -0.9300 C.3   1 <1>  -0.0170 
 19 C       -5.4840    -7.5300    -0.6820 C.ar  1 <1>  -0.1430 
 20 C       -5.9230    -8.5100     0.1870 C.ar  1 <1>  -0.1500 
 21 C       -4.2770    -7.7680    -1.3100 C.ar  1 <1>  -0.1500 
 22 C       -5.1460    -9.6370     0.3980 C.ar  1 <1>   0.1600 
 23 C       -3.5780    -8.9310    -1.0300 C.ar  1 <1>   0.1600 
 24 N       -3.9800    -9.8630    -0.1840 N.ar  1 <1>  -0.6200 
 25 H       -1.3540     0.3950    -0.7740 H     1 <1>   0.1500 
 26 H       -5.6530    -0.5450     1.4110 H     1 <1>   0.1500 
 27 H       -5.0130    -2.6440     2.0120 H     1 <1>   0.0800 
 28 H       -3.3510    -3.1610     1.9420 H     1 <1>   0.0800 
 29 H       -3.0190     2.1440    -0.5430 H     1 <1>   0.1500 
 30 H       -5.1670     1.6830     0.5510 H     1 <1>   0.1500 
 31 H       -3.7030    -3.7590    -0.3910 H     1 <1>   0.4500 
 32 H       -5.8690    -2.1400    -0.4060 H     1 <1>   0.0800 
 33 H       -5.5900    -3.4310    -1.5570 H     1 <1>   0.0800 
 34 H       -4.1610    -5.7870     0.4690 H     1 <1>   0.0800 
 35 H       -4.8540    -5.0060     1.8720 H     1 <1>   0.0800 
 36 H       -7.7450    -4.0040    -0.6240 H     1 <1>   0.0800 
 37 H       -6.8260    -5.8740     1.1030 H     1 <1>   0.0800 
 38 H       -8.1450    -3.7730     1.5510 H     1 <1>   0.4000 
 39 H       -5.8690    -5.7410    -1.7750 H     1 <1>   0.0800 
 40 H       -7.2950    -6.5330    -1.1850 H     1 <1>   0.0800 
 41 H       -6.8610    -8.4170     0.7040 H     1 <1>   0.1500 
 42 H       -3.8660    -7.0720    -2.0190 H     1 <1>   0.1500 
 43 H       -5.5000   -10.3920     1.0790 H     1 <1>   0.1500 
 44 H       -2.6380    -9.1060    -1.5280 H     1 <1>   0.1500 
@<TRIPOS>BOND
  1   1   2  1   
  2   2   3  1   
  3   2   4  1   
  4   2   5  1   
  5   5   6  ar  
  6   5   7  ar  
  7   6   8  ar  
  8   6   9  1   
  9   7  10  ar  
 10   7  25  1   
 11   8  11  ar  
 12   8  26  1   
 13   9  12  1   
 14   9  27  1   
 15   9  28  1   
 16  10  11  ar  
 17  10  29  1   
 18  11  30  1   
 19  12  13  1   
 20  12  14  1   
 21  12  31  1   
 22  13  15  1   
 23  13  32  1   
 24  13  33  1   
 25  14  16  1   
 26  14  34  1   
 27  14  35  1   
 28  15  16  1   
 29  15  17  1   
 30  15  36  1   
 31  16  18  1   
 32  16  37  1   
 33  17  38  1   
 34  18  19  1   
 35  18  39  1   
 36  18  40  1   
 37  19  20  ar  
 38  19  21  ar  
 39  20  22  ar  
 40  20  41  1   
 41  21  23  ar  
 42  21  42  1   
 43  22  24  ar  
 44  22  43  1   
 45  23  24  ar  
 46  23  44  1   
@<TRIPOS>SUBSTRUCTURE
  1 ****  12 GROUP 4 **** **** 0

# MOE 2024.06 (io_trps.svl 2023.06)
