@<TRIPOS>MOLECULE
NONAME
49 51 1 0 0 
SMALL
USER_CHARGES


@<TRIPOS>ATOM
  1 F       -1.5870     3.4650     1.9970 F     1 <1>  -0.1900 
  2 C       -1.0820     3.1870     0.8230 C.ar  1 <1>   0.1900 
  3 C       -1.7440     2.2990    -0.0140 C.ar  1 <1>  -0.1440 
  4 C        0.1010     3.8060     0.4660 C.ar  1 <1>  -0.1500 
  5 C       -1.1790     2.0380    -1.2540 C.ar  1 <1>  -0.1500 
  6 C       -3.0490     1.6260     0.3920 C.3   1 <1>  -0.0160 
  7 C        0.6490     3.5320    -0.7750 C.ar  1 <1>  -0.1500 
  8 C        0.0080     2.6500    -1.6300 C.ar  1 <1>  -0.1500 
  9 C       -4.2390     2.5650     0.1440 C.3   1 <1>  -0.0990 
 10 C       -5.5820     1.9610     0.5290 C.2   1 <1>   0.5690 
 11 O       -5.6680     0.7570     0.6070 O.2   1 <1>  -0.5700 
 12 N       -6.6580     2.7790     0.7620 N.am  1 <1>  -0.6600 
 13 C       -7.9770     2.2130     1.1700 C.3   1 <1>   0.1400 
 14 C       -6.6530     4.2570     0.5340 C.3   1 <1>   0.1400 
 15 C       -9.0320     2.4460     0.0670 C.3   1 <1>   0.0000 
 16 C       -8.0710     4.8150     0.3210 C.3   1 <1>  -0.1600 
 17 C      -10.4360     2.1550     0.6280 C.3   1 <1>   0.2000 
 18 C       -8.9120     3.8740    -0.5540 C.3   1 <1>  -0.1600 
 19 C       -8.9380     1.3900    -1.0470 C.3   1 <1>  -0.1600 
 20 O      -10.9400     3.2450     1.3430 O.3   1 <1>  -0.5600 
 21 C      -11.3060     1.8170    -0.5880 C.3   1 <1>  -0.1600 
 22 C      -10.3340     1.3450    -1.6790 C.3   1 <1>  -0.1600 
 23 C      -12.0620     2.9710     2.1200 C.3   1 <1>   0.0400 
 24 H        0.5790     4.4870     1.1470 H     1 <1>   0.1500 
 25 H       -1.6600     1.3560    -1.9340 H     1 <1>   0.1500 
 26 H       -3.1800     0.7190    -0.1730 H     1 <1>   0.0800 
 27 H       -3.0140     1.3540     1.4330 H     1 <1>   0.0800 
 28 H        1.5700     4.0020    -1.0750 H     1 <1>   0.1500 
 29 H        0.4350     2.4360    -2.5950 H     1 <1>   0.1500 
 30 H       -4.2730     2.8250    -0.8970 H     1 <1>   0.0800 
 31 H       -4.0820     3.4610     0.7140 H     1 <1>   0.0800 
 32 H       -7.8940     1.1640     1.3940 H     1 <1>   0.0800 
 33 H       -8.2910     2.7060     2.0740 H     1 <1>   0.0800 
 34 H       -6.1950     4.7470     1.3760 H     1 <1>   0.0800 
 35 H       -6.0700     4.4720    -0.3440 H     1 <1>   0.0800 
 36 H       -8.5550     4.9450     1.2740 H     1 <1>   0.0800 
 37 H       -8.0060     5.7850    -0.1390 H     1 <1>   0.0800 
 38 H      -10.3840     1.3020     1.2850 H     1 <1>   0.0800 
 39 H       -8.4340     3.8180    -1.5160 H     1 <1>   0.0800 
 40 H       -9.8840     4.3060    -0.7150 H     1 <1>   0.0800 
 41 H       -8.1660     1.6060    -1.7650 H     1 <1>   0.0800 
 42 H       -8.7240     0.4270    -0.6140 H     1 <1>   0.0800 
 43 H      -12.0100     1.0430    -0.3420 H     1 <1>   0.0800 
 44 H      -11.8310     2.6930    -0.9270 H     1 <1>   0.0800 
 45 H      -10.5710     0.3530    -2.0230 H     1 <1>   0.0800 
 46 H      -10.3760     2.0230    -2.5150 H     1 <1>   0.0800 
 47 H      -12.3400     3.8740     2.6350 H     1 <1>   0.0800 
 48 H      -11.8200     2.2050     2.8370 H     1 <1>   0.0800 
 49 H      -12.8710     2.6550     1.4850 H     1 <1>   0.0800 
@<TRIPOS>BOND
  1   1   2  1   
  2   2   3  ar  
  3   2   4  ar  
  4   3   5  ar  
  5   3   6  1   
  6   4   7  ar  
  7   4  24  1   
  8   5   8  ar  
  9   5  25  1   
 10   6   9  1   
 11   6  26  1   
 12   6  27  1   
 13   7   8  ar  
 14   7  28  1   
 15   8  29  1   
 16   9  10  1   
 17   9  30  1   
 18   9  31  1   
 19  10  11  2   
 20  10  12  am  
 21  12  13  1   
 22  12  14  1   
 23  13  15  1   
 24  13  32  1   
 25  13  33  1   
 26  14  16  1   
 27  14  34  1   
 28  14  35  1   
 29  15  17  1   
 30  15  18  1   
 31  15  19  1   
 32  16  18  1   
 33  16  36  1   
 34  16  37  1   
 35  17  20  1   
 36  17  21  1   
 37  17  38  1   
 38  18  39  1   
 39  18  40  1   
 40  19  22  1   
 41  19  41  1   
 42  19  42  1   
 43  20  23  1   
 44  21  22  1   
 45  21  43  1   
 46  21  44  1   
 47  22  45  1   
 48  22  46  1   
 49  23  47  1   
 50  23  48  1   
 51  23  49  1   
@<TRIPOS>SUBSTRUCTURE
  1 ****  10 GROUP 4 **** **** 0

# MOE 2024.06 (io_trps.svl 2023.06)
