@<TRIPOS>MOLECULE
NONAME
60 63 1 0 0 
SMALL
USER_CHARGES


@<TRIPOS>ATOM
  1 O       -3.4500     1.6500    -2.3320 O.2   1 <1>  -0.5700 
  2 C       -2.9990     1.2130    -1.2990 C.2   1 <1>   0.5690 
  3 N       -3.4090    -0.0080    -0.8150 N.am  1 <1>  -0.6600 
  4 C       -2.0110     2.1340    -0.5710 C.3   1 <1>  -0.0190 
  5 C       -2.7900    -0.7580     0.3440 C.3   1 <1>   0.3640 
  6 C       -4.7510    -0.5040    -1.2840 C.3   1 <1>   0.1400 
  7 C       -2.6370     3.5160    -0.2980 C.3   1 <1>  -0.1600 
  8 C       -0.7200     2.3150    -1.3920 C.3   1 <1>  -0.1600 
  9 C       -1.2620    -0.7840     0.2450 C.ar  1 <1>  -0.1440 
 10 C       -3.2660    -2.2300     0.4740 C.3   1 <1>   0.2000 
 11 C       -4.9800    -2.0040    -1.0740 C.3   1 <1>   0.1200 
 12 C       -1.6380     4.4790     0.3390 C.3   1 <1>   0.3430 
 13 C        0.2460     3.2840    -0.7220 C.3   1 <1>   0.3430 
 14 C       -0.4820    -0.4200     1.3350 C.ar  1 <1>  -0.1500 
 15 C       -0.6370    -1.1930    -0.9260 C.ar  1 <1>  -0.1500 
 16 O       -4.6420    -2.3560     0.2290 O.3   1 <1>  -0.5600 
 17 C       -2.9630    -2.8080     1.8660 C.3   1 <1>   0.1200 
 18 N       -0.4280     4.6000    -0.5280 N.4   1 <1>  -0.9590 
 19 C        0.8990    -0.4540     1.2510 C.ar  1 <1>  -0.1500 
 20 C        0.7440    -1.2300    -1.0090 C.ar  1 <1>  -0.1500 
 21 O       -3.5860    -4.0380     1.9990 O.3   1 <1>  -0.6800 
 22 C        0.5580     5.6410    -0.1030 C.3   1 <1>   0.4230 
 23 C        1.5130    -0.8580     0.0790 C.ar  1 <1>  -0.1500 
 24 C        0.9920     5.5010     1.3590 C.3   1 <1>  -0.1600 
 25 C       -0.0490     7.0400    -0.1850 C.3   1 <1>  -0.1600 
 26 C        0.0830     6.4120     2.1930 C.3   1 <1>  -0.1600 
 27 C       -0.5420     7.4160     1.2190 C.3   1 <1>  -0.1600 
 28 H       -1.7620     1.7210     0.3840 H     1 <1>   0.0800 
 29 H       -3.0760    -0.2450     1.2450 H     1 <1>   0.0800 
 30 H       -5.5190     0.0340    -0.7560 H     1 <1>   0.0800 
 31 H       -4.8750    -0.2920    -2.3320 H     1 <1>   0.0800 
 32 H       -3.4820     3.3990     0.3580 H     1 <1>   0.0800 
 33 H       -3.0040     3.9470    -1.2140 H     1 <1>   0.0800 
 34 H       -0.9570     2.6710    -2.3810 H     1 <1>   0.0800 
 35 H       -0.2280     1.3690    -1.5090 H     1 <1>   0.0800 
 36 H       -2.7490    -2.8350    -0.2500 H     1 <1>   0.0800 
 37 H       -4.3910    -2.5850    -1.7640 H     1 <1>   0.0800 
 38 H       -6.0180    -2.2440    -1.2230 H     1 <1>   0.0800 
 39 H       -1.3540     4.1150     1.3130 H     1 <1>   0.0800 
 40 H       -2.1040     5.4420     0.4590 H     1 <1>   0.0800 
 41 H        1.1190     3.4020    -1.3430 H     1 <1>   0.0800 
 42 H        0.5560     2.8830     0.2290 H     1 <1>   0.0800 
 43 H       -0.9400    -0.1170     2.2610 H     1 <1>   0.1500 
 44 H       -1.2250    -1.4840    -1.7810 H     1 <1>   0.1500 
 45 H       -3.3430    -2.1600     2.6360 H     1 <1>   0.0800 
 46 H       -1.9060    -2.9490     2.0090 H     1 <1>   0.0800 
 47 H       -0.7690     4.8870    -1.4540 H     1 <1>   0.4500 
 48 H        1.5000    -0.1790     2.1020 H     1 <1>   0.1500 
 49 H        1.2200    -1.5530    -1.9190 H     1 <1>   0.1500 
 50 H       -4.4750    -3.9690     1.5850 H     1 <1>   0.4000 
 51 H        1.4210     5.5870    -0.7480 H     1 <1>   0.0800 
 52 H        2.5870    -0.8940     0.0160 H     1 <1>   0.1500 
 53 H        0.9930     4.4860     1.7140 H     1 <1>   0.0800 
 54 H        1.9970     5.8790     1.4370 H     1 <1>   0.0800 
 55 H        0.7380     7.7230    -0.4530 H     1 <1>   0.0800 
 56 H       -0.8240     7.1210    -0.9270 H     1 <1>   0.0800 
 57 H       -0.6890     5.8390     2.6760 H     1 <1>   0.0800 
 58 H        0.6500     6.9180     2.9570 H     1 <1>   0.0800 
 59 H       -0.2400     8.4220     1.4640 H     1 <1>   0.0800 
 60 H       -1.6160     7.3690     1.2740 H     1 <1>   0.0800 
@<TRIPOS>BOND
  1   1   2  2   
  2   2   3  am  
  3   2   4  1   
  4   3   5  1   
  5   3   6  1   
  6   4   7  1   
  7   4   8  1   
  8   4  28  1   
  9   5   9  1   
 10   5  10  1   
 11   5  29  1   
 12   6  11  1   
 13   6  30  1   
 14   6  31  1   
 15   7  12  1   
 16   7  32  1   
 17   7  33  1   
 18   8  13  1   
 19   8  34  1   
 20   8  35  1   
 21   9  14  ar  
 22   9  15  ar  
 23  10  16  1   
 24  10  17  1   
 25  10  36  1   
 26  11  16  1   
 27  11  37  1   
 28  11  38  1   
 29  12  18  1   
 30  12  39  1   
 31  12  40  1   
 32  13  18  1   
 33  13  41  1   
 34  13  42  1   
 35  14  19  ar  
 36  14  43  1   
 37  15  20  ar  
 38  15  44  1   
 39  17  21  1   
 40  17  45  1   
 41  17  46  1   
 42  18  22  1   
 43  18  47  1   
 44  19  23  ar  
 45  19  48  1   
 46  20  23  ar  
 47  20  49  1   
 48  21  50  1   
 49  22  24  1   
 50  22  25  1   
 51  22  51  1   
 52  23  52  1   
 53  24  26  1   
 54  24  53  1   
 55  24  54  1   
 56  25  27  1   
 57  25  55  1   
 58  25  56  1   
 59  26  27  1   
 60  26  57  1   
 61  26  58  1   
 62  27  59  1   
 63  27  60  1   
@<TRIPOS>SUBSTRUCTURE
  1 ****   4 GROUP 4 **** **** 0

# MOE 2024.06 (io_trps.svl 2023.06)
