@<TRIPOS>MOLECULE
NONAME
53 54 1 0 0 
SMALL
USER_CHARGES


@<TRIPOS>ATOM
  1 O        3.6250    -0.8900    -1.8010 O.2   1 <1>  -0.5700 
  2 C        2.6620    -1.3070    -1.1790 C.2   1 <1>   0.5440 
  3 N        2.0680    -0.4130    -0.3220 N.am  1 <1>  -0.6600 
  4 C        2.2220    -2.6900    -1.2820 C.ar  1 <1>   0.0860 
  5 C        1.7940     0.9740    -0.8390 C.3   1 <1>   0.1400 
  6 C        2.5650    -0.4120     1.0870 C.3   1 <1>   0.1400 
  7 C        1.0500    -3.1370    -0.6710 C.ar  1 <1>  -0.1500 
  8 C        2.9640    -3.6310    -1.9980 C.ar  1 <1>  -0.1500 
  9 C        2.8960     1.9990    -0.4350 C.3   1 <1>   0.4230 
 10 C        3.8920     0.3830     1.2050 C.3   1 <1>   0.3430 
 11 C        0.6380    -4.4540    -0.7550 C.ar  1 <1>   0.0820 
 12 C        2.5640    -4.9510    -2.0930 C.ar  1 <1>  -0.1500 
 13 N        4.1300     1.2610     0.0060 N.4   1 <1>  -0.9590 
 14 C        2.4220     3.0080     0.6370 C.3   1 <1>  -0.1600 
 15 O       -0.5150    -4.7720    -0.1170 O.3   1 <1>  -0.3620 
 16 C        1.4020    -5.3690    -1.4720 C.ar  1 <1>  -0.1500 
 17 C        5.3370     2.1310     0.1140 C.3   1 <1>   0.2630 
 18 C        2.5090     4.4510     0.1330 C.3   1 <1>   0.1200 
 19 C       -1.0540    -6.0770    -0.1880 C.3   1 <1>   0.1200 
 20 O        3.7970     4.6820    -0.3140 O.3   1 <1>  -0.6800 
 21 C       -2.3620    -6.1060     0.5940 C.3   1 <1>   0.1200 
 22 O       -2.8820    -7.3960     0.5210 O.3   1 <1>  -0.5600 
 23 C       -4.0830    -7.5570     1.1970 C.3   1 <1>   0.1200 
 24 C       -4.5160    -9.0070     1.0220 C.3   1 <1>  -0.2400 
 25 H        0.8230     1.2940    -0.5070 H     1 <1>   0.0800 
 26 H        1.7510     0.9400    -1.9150 H     1 <1>   0.0800 
 27 H        2.7180    -1.4220     1.4270 H     1 <1>   0.0800 
 28 H        1.8200     0.0340     1.7230 H     1 <1>   0.0800 
 29 H        0.4350    -2.4510    -0.1180 H     1 <1>   0.1500 
 30 H        3.8710    -3.3220    -2.4910 H     1 <1>   0.1500 
 31 H        3.1370     2.5640    -1.3210 H     1 <1>   0.0800 
 32 H        4.7060    -0.3170     1.2950 H     1 <1>   0.0800 
 33 H        3.8710     0.9740     2.1050 H     1 <1>   0.0800 
 34 H        3.1570    -5.6550    -2.6520 H     1 <1>   0.1500 
 35 H        4.2730     0.5810    -0.7750 H     1 <1>   0.4500 
 36 H        2.9990     2.9330     1.5390 H     1 <1>   0.0800 
 37 H        1.3990     2.8230     0.9060 H     1 <1>   0.0800 
 38 H        1.1120    -6.4000    -1.5590 H     1 <1>   0.1500 
 39 H        5.2100     2.8510     0.9060 H     1 <1>   0.0800 
 40 H        5.4890     2.6690    -0.8070 H     1 <1>   0.0800 
 41 H        6.2130     1.5360     0.3160 H     1 <1>   0.0800 
 42 H        2.2920     5.1480     0.9260 H     1 <1>   0.0800 
 43 H        1.8310     4.6210    -0.6870 H     1 <1>   0.0800 
 44 H       -0.3470    -6.7610     0.2460 H     1 <1>   0.0800 
 45 H       -1.2350    -6.3160    -1.2210 H     1 <1>   0.0800 
 46 H        3.9080     5.6240    -0.5690 H     1 <1>   0.4000 
 47 H       -3.0710    -5.4230     0.1600 H     1 <1>   0.0800 
 48 H       -2.1840    -5.8640     1.6270 H     1 <1>   0.0800 
 49 H       -4.8150    -6.8890     0.7740 H     1 <1>   0.0800 
 50 H       -3.9310    -7.3290     2.2380 H     1 <1>   0.0800 
 51 H       -4.6510    -9.2280    -0.0210 H     1 <1>   0.0800 
 52 H       -5.4460    -9.1750     1.5330 H     1 <1>   0.0800 
 53 H       -3.7730    -9.6660     1.4350 H     1 <1>   0.0800 
@<TRIPOS>BOND
  1   1   2  2   
  2   2   3  am  
  3   2   4  1   
  4   3   5  1   
  5   3   6  1   
  6   4   7  ar  
  7   4   8  ar  
  8   5   9  1   
  9   5  25  1   
 10   5  26  1   
 11   6  10  1   
 12   6  27  1   
 13   6  28  1   
 14   7  11  ar  
 15   7  29  1   
 16   8  12  ar  
 17   8  30  1   
 18   9  13  1   
 19   9  14  1   
 20   9  31  1   
 21  10  13  1   
 22  10  32  1   
 23  10  33  1   
 24  11  15  1   
 25  11  16  ar  
 26  12  16  ar  
 27  12  34  1   
 28  13  17  1   
 29  13  35  1   
 30  14  18  1   
 31  14  36  1   
 32  14  37  1   
 33  15  19  1   
 34  16  38  1   
 35  17  39  1   
 36  17  40  1   
 37  17  41  1   
 38  18  20  1   
 39  18  42  1   
 40  18  43  1   
 41  19  21  1   
 42  19  44  1   
 43  19  45  1   
 44  20  46  1   
 45  21  22  1   
 46  21  47  1   
 47  21  48  1   
 48  22  23  1   
 49  23  24  1   
 50  23  49  1   
 51  23  50  1   
 52  24  51  1   
 53  24  52  1   
 54  24  53  1   
@<TRIPOS>SUBSTRUCTURE
  1 ****   7 GROUP 4 **** **** 0

# MOE 2024.06 (io_trps.svl 2023.06)
