@<TRIPOS>MOLECULE
NONAME
39 41 1 0 0 
SMALL
USER_CHARGES


@<TRIPOS>ATOM
  1 S       -2.0590     0.7610    -0.7700 S.3   1 <1>  -0.0800 
  2 C       -1.8560    -0.7590     0.1090 C.2   1 <1>  -0.0450 
  3 C       -1.4420     1.7070     0.5670 C.2   1 <1>  -0.1400 
  4 C       -2.2300    -1.9930    -0.5350 C.2   1 <1>   0.7150 
  5 C       -1.3440    -0.4800     1.3370 C.2   1 <1>  -0.1500 
  6 C       -1.1120     0.9030     1.5940 C.2   1 <1>  -0.1500 
  7 C       -1.3730     3.2080     0.3830 C.3   1 <1>  -0.0600 
  8 O       -2.6310    -2.0350    -1.6830 O.2   1 <1>  -0.5700 
  9 N       -2.1500    -3.1640     0.1570 N.am  1 <1>  -0.7300 
 10 C       -2.5310    -4.4930    -0.3700 C.3   1 <1>   0.2200 
 11 C       -3.9570    -4.8050     0.0500 C.3   1 <1>  -0.0800 
 12 C       -1.7490    -5.5760     0.3620 C.3   1 <1>   0.1200 
 13 C       -3.7660    -5.3910     1.4550 C.3   1 <1>   0.1200 
 14 C       -4.6240    -5.8030    -0.9160 C.3   1 <1>  -0.0160 
 15 O       -2.4290    -5.7900     1.5610 O.3   1 <1>  -0.5600 
 16 C       -6.0630    -6.0860    -0.5160 C.ar  1 <1>  -0.1430 
 17 C       -6.4450    -7.2760     0.0710 C.ar  1 <1>  -0.1500 
 18 C       -7.0660    -5.1600    -0.7220 C.ar  1 <1>  -0.1500 
 19 C       -7.7710    -7.4740     0.4170 C.ar  1 <1>   0.1600 
 20 C       -8.3630    -5.4580    -0.3390 C.ar  1 <1>   0.1600 
 21 N       -8.7390    -6.5930     0.2280 N.ar  1 <1>  -0.6200 
 22 H       -1.1130    -1.2120     2.0900 H     1 <1>   0.1500 
 23 H       -0.7090     1.2330     2.5350 H     1 <1>   0.1500 
 24 H       -0.9790     3.6740     1.2670 H     1 <1>   0.0800 
 25 H       -2.3560     3.5990     0.1910 H     1 <1>   0.0800 
 26 H       -0.7350     3.4450    -0.4500 H     1 <1>   0.0800 
 27 H       -1.9160    -3.1490     1.1500 H     1 <1>   0.3700 
 28 H       -2.3810    -4.5290    -1.4370 H     1 <1>   0.0800 
 29 H       -4.5550    -3.9120     0.0850 H     1 <1>   0.0800 
 30 H       -0.7320    -5.2910     0.5660 H     1 <1>   0.0800 
 31 H       -1.7640    -6.4980    -0.1920 H     1 <1>   0.0800 
 32 H       -4.3980    -6.2410     1.6470 H     1 <1>   0.0800 
 33 H       -3.9410    -4.6420     2.2070 H     1 <1>   0.0800 
 34 H       -4.0680    -6.7240    -0.9450 H     1 <1>   0.0800 
 35 H       -4.6200    -5.3900    -1.9100 H     1 <1>   0.0800 
 36 H       -5.7260    -8.0510     0.2630 H     1 <1>   0.1500 
 37 H       -6.8510    -4.2100    -1.1780 H     1 <1>   0.1500 
 38 H       -8.0500    -8.4080     0.8740 H     1 <1>   0.1500 
 39 H       -9.1320    -4.7230    -0.5080 H     1 <1>   0.1500 
@<TRIPOS>BOND
  1   1   2  1   
  2   1   3  1   
  3   2   4  1   
  4   2   5  2   
  5   3   6  2   
  6   3   7  1   
  7   4   8  2   
  8   4   9  am  
  9   5   6  1   
 10   5  22  1   
 11   6  23  1   
 12   7  24  1   
 13   7  25  1   
 14   7  26  1   
 15   9  10  1   
 16   9  27  1   
 17  10  11  1   
 18  10  12  1   
 19  10  28  1   
 20  11  13  1   
 21  11  14  1   
 22  11  29  1   
 23  12  15  1   
 24  12  30  1   
 25  12  31  1   
 26  13  15  1   
 27  13  32  1   
 28  13  33  1   
 29  14  16  1   
 30  14  34  1   
 31  14  35  1   
 32  16  17  ar  
 33  16  18  ar  
 34  17  19  ar  
 35  17  36  1   
 36  18  20  ar  
 37  18  37  1   
 38  19  21  ar  
 39  19  38  1   
 40  20  21  ar  
 41  20  39  1   
@<TRIPOS>SUBSTRUCTURE
  1 ****  11 GROUP 4 **** **** 0

# MOE 2024.06 (io_trps.svl 2023.06)
