@<TRIPOS>MOLECULE
NONAME
55 59 1 0 0 
SMALL
USER_CHARGES


@<TRIPOS>ATOM
  1 O       -0.6520     1.2860    -1.8360 O.2   1 <1>  -0.5700 
  2 C        0.4450     1.2660    -1.3300 C.2   1 <1>   0.5690 
  3 N        0.7540     1.9270    -0.1570 N.am  1 <1>  -0.6600 
  4 C        1.4850     0.4590    -2.0870 C.3   1 <1>   0.1570 
  5 C       -0.1800     2.7980     0.6510 C.3   1 <1>   0.2200 
  6 C        2.0750     1.7900     0.5430 C.3   1 <1>   0.1400 
  7 N        1.8020    -0.7940    -1.3750 N.pl3 1 <1>   0.0480 
  8 C        0.3770     4.2460     0.8280 C.3   1 <1>   0.1380 
  9 C       -1.6780     2.8020     0.3130 C.3   1 <1>  -0.1600 
 10 C        2.6770     3.1630     0.8710 C.3   1 <1>  -0.1600 
 11 C        3.0390    -1.2980    -1.1220 C.ar  1 <1>  -0.1520 
 12 C        0.9350    -1.6300    -0.7440 C.2   1 <1>   0.0360 
 13 C        0.6630     5.0340    -0.4830 C.2   1 <1>  -0.2760 
 14 C       -0.6550     5.0730     1.6410 C.3   1 <1>   0.1200 
 15 C        1.6890     4.0700     1.6300 C.3   1 <1>  -0.1600 
 16 C       -2.4680     3.6050     1.3620 C.3   1 <1>   0.1200 
 17 C        2.8270    -2.4200    -0.3410 C.ar  1 <1>   0.2270 
 18 C        4.3330    -0.9050    -1.4790 C.ar  1 <1>  -0.1500 
 19 N        1.4970    -2.6050    -0.1200 N.2   1 <1>  -0.5650 
 20 C        0.3300     4.6670    -1.7280 C.2   1 <1>  -0.2880 
 21 C        1.3960     6.3700    -0.3170 C.3   1 <1>  -0.0220 
 22 O       -1.6100     4.2560     2.2570 O.3   1 <1>  -0.5600 
 23 C        3.9090    -3.1770     0.1040 C.ar  1 <1>  -0.1500 
 24 C        5.3970    -1.6580    -1.0330 C.ar  1 <1>  -0.1500 
 25 C        0.6550     5.4670    -2.9820 C.3   1 <1>   0.2580 
 26 C        1.2850     7.2350    -1.5800 C.3   1 <1>   0.1200 
 27 C        5.1860    -2.7940    -0.2420 C.ar  1 <1>  -0.1500 
 28 O        1.5920     6.4630    -2.6990 O.3   1 <1>  -0.5600 
 29 H        2.3730     1.0470    -2.2090 H     1 <1>   0.0800 
 30 H        1.1040     0.2110    -3.0590 H     1 <1>   0.0800 
 31 H       -0.1620     2.3590     1.6350 H     1 <1>   0.0800 
 32 H        1.9210     1.2400     1.4560 H     1 <1>   0.0800 
 33 H        2.7870     1.2420    -0.0430 H     1 <1>   0.0800 
 34 H       -2.0530     1.7950     0.2970 H     1 <1>   0.0800 
 35 H       -1.8580     3.2390    -0.6500 H     1 <1>   0.0800 
 36 H        3.5620     3.0230     1.4660 H     1 <1>   0.0800 
 37 H        2.9790     3.6370    -0.0470 H     1 <1>   0.0800 
 38 H       -0.1290    -1.4630    -0.7750 H     1 <1>   0.1500 
 39 H       -1.1820     5.7560     0.9960 H     1 <1>   0.0800 
 40 H       -0.1670     5.6440     2.4100 H     1 <1>   0.0800 
 41 H        2.1500     5.0170     1.8400 H     1 <1>   0.0800 
 42 H        1.4640     3.6190     2.5820 H     1 <1>   0.0800 
 43 H       -3.0910     2.9470     1.9420 H     1 <1>   0.0800 
 44 H       -3.0930     4.3440     0.8900 H     1 <1>   0.0800 
 45 H        4.4940    -0.0350    -2.0900 H     1 <1>   0.1500 
 46 H       -0.2030     3.7720    -1.9750 H     1 <1>   0.1500 
 47 H        2.4390     6.1930    -0.1230 H     1 <1>   0.0800 
 48 H        0.9950     6.9320     0.5060 H     1 <1>   0.0800 
 49 H        3.7160    -4.0430     0.7090 H     1 <1>   0.1500 
 50 H        6.4050    -1.3820    -1.2920 H     1 <1>   0.1500 
 51 H       -0.2300     5.9310    -3.3820 H     1 <1>   0.0800 
 52 H        1.0870     4.8280    -3.7320 H     1 <1>   0.0800 
 53 H        1.9810     8.0550    -1.5400 H     1 <1>   0.0800 
 54 H        0.2880     7.6230    -1.6950 H     1 <1>   0.0800 
 55 H        6.0330    -3.3670     0.0940 H     1 <1>   0.1500 
@<TRIPOS>BOND
  1   1   2  2   
  2   2   3  am  
  3   2   4  1   
  4   3   5  1   
  5   3   6  1   
  6   4   7  1   
  7   4  29  1   
  8   4  30  1   
  9   5   8  1   
 10   5   9  1   
 11   5  31  1   
 12   6  10  1   
 13   6  32  1   
 14   6  33  1   
 15   7  11  1   
 16   7  12  1   
 17   8  13  1   
 18   8  14  1   
 19   8  15  1   
 20   9  16  1   
 21   9  34  1   
 22   9  35  1   
 23  10  15  1   
 24  10  36  1   
 25  10  37  1   
 26  11  17  ar  
 27  11  18  ar  
 28  12  19  2   
 29  12  38  1   
 30  13  20  2   
 31  13  21  1   
 32  14  22  1   
 33  14  39  1   
 34  14  40  1   
 35  15  41  1   
 36  15  42  1   
 37  16  22  1   
 38  16  43  1   
 39  16  44  1   
 40  17  19  1   
 41  17  23  ar  
 42  18  24  ar  
 43  18  45  1   
 44  20  25  1   
 45  20  46  1   
 46  21  26  1   
 47  21  47  1   
 48  21  48  1   
 49  23  27  ar  
 50  23  49  1   
 51  24  27  ar  
 52  24  50  1   
 53  25  28  1   
 54  25  51  1   
 55  25  52  1   
 56  26  28  1   
 57  26  53  1   
 58  26  54  1   
 59  27  55  1   
@<TRIPOS>SUBSTRUCTURE
  1 ****   3 GROUP 4 **** **** 0

# MOE 2024.06 (io_trps.svl 2023.06)
