@<TRIPOS>MOLECULE
NONAME
41 42 1 0 0 
SMALL
USER_CHARGES


@<TRIPOS>ATOM
  1 S        0.8810     0.5870    -0.7230 S.o2  1 <1>   1.3330 
  2 O        0.9660     1.1470    -2.0530 O.2   1 <1>  -0.6500 
  3 O        0.5670    -0.8160    -0.5680 O.2   1 <1>  -0.6500 
  4 N       -0.2890     1.4660     0.1360 N.am  1 <1>  -0.8490 
  5 C        2.4010     0.9920     0.1360 C.3   1 <1>  -0.0550 
  6 C       -1.5020     1.6790    -0.6550 C.3   1 <1>   0.1160 
  7 C       -0.6320     0.8630     1.4290 C.3   1 <1>   0.1160 
  8 C        3.6840     0.5220    -0.5860 C.3   1 <1>  -0.0800 
  9 C        4.9720     0.9640     0.0970 C.3   1 <1>   0.2200 
 10 C        3.8450    -0.9970    -0.5100 C.3   1 <1>   0.1200 
 11 N        4.9610     2.3750     0.5830 N.am  1 <1>  -0.7300 
 12 C        5.2020    -0.1300     1.1430 C.3   1 <1>   0.1200 
 13 O        4.5230    -1.2610     0.6790 O.3   1 <1>  -0.5600 
 14 C        4.4690     2.9120     1.7350 C.2   1 <1>   0.5690 
 15 O        3.9320     2.2480     2.5870 O.2   1 <1>  -0.5700 
 16 C        4.5770     4.4120     1.9570 C.3   1 <1>   0.0810 
 17 C        4.7820     5.1970     0.6680 C.2   1 <1>  -0.1400 
 18 S        3.4660     5.1910    -0.4980 S.3   1 <1>  -0.0800 
 19 C        5.8130     5.9310     0.2100 C.2   1 <1>  -0.1500 
 20 C        4.3800     6.2030    -1.6010 C.2   1 <1>  -0.1100 
 21 C        5.5850     6.5030    -1.0830 C.2   1 <1>  -0.1500 
 22 H        2.4300     2.0590     0.2240 H     1 <1>   0.0800 
 23 H        2.3790     0.5850     1.1280 H     1 <1>   0.0800 
 24 H       -2.2160     2.2590    -0.0950 H     1 <1>   0.0800 
 25 H       -1.9440     0.7340    -0.9250 H     1 <1>   0.0800 
 26 H       -1.2630     2.2200    -1.5560 H     1 <1>   0.0800 
 27 H       -1.3250     1.4950     1.9580 H     1 <1>   0.0800 
 28 H        0.2510     0.7530     2.0340 H     1 <1>   0.0800 
 29 H       -1.0790    -0.1070     1.2870 H     1 <1>   0.0800 
 30 H        3.6640     0.8470    -1.6110 H     1 <1>   0.0800 
 31 H        5.7750     0.8760    -0.6160 H     1 <1>   0.0800 
 32 H        4.4600    -1.3540    -1.3180 H     1 <1>   0.0800 
 33 H        2.9170    -1.5400    -0.5090 H     1 <1>   0.0800 
 34 H        5.2810     3.0520    -0.1170 H     1 <1>   0.3700 
 35 H        4.7870     0.1120     2.1030 H     1 <1>   0.0800 
 36 H        6.2450    -0.3710     1.2440 H     1 <1>   0.0800 
 37 H        5.4000     4.5930     2.6220 H     1 <1>   0.0800 
 38 H        3.6810     4.7550     2.4400 H     1 <1>   0.0800 
 39 H        6.7420     6.1030     0.7270 H     1 <1>   0.1500 
 40 H        3.9100     6.4700    -2.5310 H     1 <1>   0.1500 
 41 H        6.3340     7.1120    -1.5580 H     1 <1>   0.1500 
@<TRIPOS>BOND
  1   1   2  2   
  2   1   3  2   
  3   1   4  am  
  4   1   5  1   
  5   4   6  1   
  6   4   7  1   
  7   5   8  1   
  8   5  22  1   
  9   5  23  1   
 10   6  24  1   
 11   6  25  1   
 12   6  26  1   
 13   7  27  1   
 14   7  28  1   
 15   7  29  1   
 16   8   9  1   
 17   8  10  1   
 18   8  30  1   
 19   9  11  1   
 20   9  12  1   
 21   9  31  1   
 22  10  13  1   
 23  10  32  1   
 24  10  33  1   
 25  11  14  am  
 26  11  34  1   
 27  12  13  1   
 28  12  35  1   
 29  12  36  1   
 30  14  15  2   
 31  14  16  1   
 32  16  17  1   
 33  16  37  1   
 34  16  38  1   
 35  17  18  1   
 36  17  19  2   
 37  18  20  1   
 38  19  21  1   
 39  19  39  1   
 40  20  21  2   
 41  20  40  1   
 42  21  41  1   
@<TRIPOS>SUBSTRUCTURE
  1 ****   5 GROUP 4 **** **** 0

# MOE 2024.06 (io_trps.svl 2023.06)
