@<TRIPOS>MOLECULE
NONAME
52 53 1 0 0 
SMALL
USER_CHARGES


@<TRIPOS>ATOM
  1 O        0.3700     0.5880    -0.2560 O.2   1 <1>  -0.5700 
  2 C       -0.1190     1.6710    -0.4530 C.2   1 <1>   0.5690 
  3 N       -1.0250     1.9860    -1.4070 N.am  1 <1>  -0.6600 
  4 C        0.2330     2.8770     0.3670 C.3   1 <1>  -0.0990 
  5 C       -1.4020     3.4080    -1.3850 C.3   1 <1>   0.1400 
  6 C       -1.5550     1.0660    -2.4410 C.3   1 <1>   0.0600 
  7 C       -0.8310     3.9110    -0.0480 C.3   1 <1>  -0.0190 
  8 C       -0.2880     5.3280    -0.1280 C.2   1 <1>   0.5690 
  9 O        0.4120     5.6600    -1.0560 O.2   1 <1>  -0.5700 
 10 N       -0.4960     6.1960     0.9040 N.am  1 <1>  -0.6600 
 11 C        0.2270     5.9840     2.1970 C.3   1 <1>   0.1400 
 12 C       -0.9090     7.6060     0.6430 C.3   1 <1>   0.1400 
 13 C        1.7550     6.1610     2.0270 C.3   1 <1>   0.3430 
 14 C        0.2510     8.4990     0.1670 C.3   1 <1>  -0.1600 
 15 N        2.1010     7.0350     0.8580 N.4   1 <1>  -0.9590 
 16 C        1.5410     8.4070     0.9850 C.3   1 <1>   0.3430 
 17 C        3.5570     7.0060     0.5400 C.3   1 <1>   0.3430 
 18 C        3.8190     7.4370    -0.9040 C.3   1 <1>  -0.0220 
 19 C        5.3100     7.3590    -1.1810 C.2   1 <1>  -0.2880 
 20 C        6.1930     8.3610    -1.2550 C.2   1 <1>  -0.2760 
 21 C        7.6600     8.1010    -1.5600 C.3   1 <1>  -0.1020 
 22 C        5.9100     9.8470    -1.0640 C.3   1 <1>  -0.1020 
 23 H        0.1880     2.6440     1.4140 H     1 <1>   0.0800 
 24 H        1.2230     3.1900     0.0920 H     1 <1>   0.0800 
 25 H       -0.9500     3.9040    -2.2280 H     1 <1>   0.0800 
 26 H       -2.4720     3.5210    -1.4240 H     1 <1>   0.0800 
 27 H       -2.6260     1.0060    -2.3620 H     1 <1>   0.0800 
 28 H       -1.1390     0.0810    -2.3040 H     1 <1>   0.0800 
 29 H       -1.2870     1.4230    -3.4200 H     1 <1>   0.0800 
 30 H       -1.6320     3.8880     0.6690 H     1 <1>   0.0800 
 31 H       -0.1340     6.6840     2.9300 H     1 <1>   0.0800 
 32 H        0.0210     4.9970     2.5750 H     1 <1>   0.0800 
 33 H       -1.6800     7.6080    -0.1110 H     1 <1>   0.0800 
 34 H       -1.3420     8.0180     1.5400 H     1 <1>   0.0800 
 35 H        2.1880     5.1860     1.8720 H     1 <1>   0.0800 
 36 H        2.1770     6.5610     2.9350 H     1 <1>   0.0800 
 37 H       -0.0900     9.5190     0.1960 H     1 <1>   0.0800 
 38 H        0.4670     8.2860    -0.8650 H     1 <1>   0.0800 
 39 H        1.5940     6.6110     0.0480 H     1 <1>   0.4500 
 40 H        1.3480     8.6420     2.0190 H     1 <1>   0.0800 
 41 H        2.2460     9.1270     0.6030 H     1 <1>   0.0800 
 42 H        4.0990     7.6520     1.2120 H     1 <1>   0.0800 
 43 H        3.9350     6.0040     0.6630 H     1 <1>   0.0800 
 44 H        3.3060     6.7800    -1.5850 H     1 <1>   0.0800 
 45 H        3.4600     8.4330    -1.0710 H     1 <1>   0.0800 
 46 H        5.6260     6.3380    -1.3290 H     1 <1>   0.1500 
 47 H        7.9490     8.6140    -2.4600 H     1 <1>   0.0800 
 48 H        7.8460     7.0500    -1.6990 H     1 <1>   0.0800 
 49 H        8.2780     8.4480    -0.7510 H     1 <1>   0.0800 
 50 H        6.5360    10.2420    -0.2840 H     1 <1>   0.0800 
 51 H        4.8900    10.0420    -0.7990 H     1 <1>   0.0800 
 52 H        6.1270    10.3780    -1.9750 H     1 <1>   0.0800 
@<TRIPOS>BOND
  1   1   2  2   
  2   2   3  am  
  3   2   4  1   
  4   3   5  1   
  5   3   6  1   
  6   4   7  1   
  7   4  23  1   
  8   4  24  1   
  9   5   7  1   
 10   5  25  1   
 11   5  26  1   
 12   6  27  1   
 13   6  28  1   
 14   6  29  1   
 15   7   8  1   
 16   7  30  1   
 17   8   9  2   
 18   8  10  am  
 19  10  11  1   
 20  10  12  1   
 21  11  13  1   
 22  11  31  1   
 23  11  32  1   
 24  12  14  1   
 25  12  33  1   
 26  12  34  1   
 27  13  15  1   
 28  13  35  1   
 29  13  36  1   
 30  14  16  1   
 31  14  37  1   
 32  14  38  1   
 33  15  16  1   
 34  15  17  1   
 35  15  39  1   
 36  16  40  1   
 37  16  41  1   
 38  17  18  1   
 39  17  42  1   
 40  17  43  1   
 41  18  19  1   
 42  18  44  1   
 43  18  45  1   
 44  19  20  2   
 45  19  46  1   
 46  20  21  1   
 47  20  22  1   
 48  21  47  1   
 49  21  48  1   
 50  21  49  1   
 51  22  50  1   
 52  22  51  1   
 53  22  52  1   
@<TRIPOS>SUBSTRUCTURE
  1 ****   9 GROUP 4 **** **** 0

# MOE 2024.06 (io_trps.svl 2023.06)
