@<TRIPOS>MOLECULE
NONAME
64 68 1 0 0 
SMALL
USER_CHARGES


@<TRIPOS>ATOM
  1 O       -1.0340     0.3010     0.8530 O.2   1 <1>  -0.5700 
  2 C       -1.8360     0.9110     0.1750 C.2   1 <1>   0.5690 
  3 N       -2.7850     0.1930    -0.5250 N.am  1 <1>  -0.6600 
  4 C       -1.6990     2.4860     0.1960 C.3   1 <1>   0.5640 
  5 C       -4.0310     0.6680    -1.1930 C.3   1 <1>   0.1400 
  6 C       -2.7840    -1.3020    -0.5130 C.3   1 <1>   0.1400 
  7 N       -0.3090     2.8620     0.7040 N.4   1 <1>  -0.9590 
  8 C       -1.9040     3.1290    -1.2130 C.3   1 <1>  -0.1600 
  9 C       -2.7390     3.0090     1.2250 C.3   1 <1>  -0.1600 
 10 C       -4.9820    -0.5240    -1.1390 C.3   1 <1>   0.2000 
 11 C       -4.0520    -1.7340    -1.2630 C.3   1 <1>  -0.0800 
 12 C        0.0000     4.2810     1.0030 C.3   1 <1>   0.3430 
 13 C        0.8230     2.3500    -0.1150 C.3   1 <1>   0.3430 
 14 C       -3.1010     4.0920    -1.3340 C.3   1 <1>  -0.1600 
 15 C       -3.1120     4.5080     1.1850 C.3   1 <1>  -0.1600 
 16 O       -5.5990    -0.5250     0.1040 O.3   1 <1>  -0.6800 
 17 C       -4.6630    -3.0630    -0.7680 C.3   1 <1>  -0.0170 
 18 C        1.5210     4.3550     1.0680 C.3   1 <1>  -0.1600 
 19 C        2.0420     3.0500     0.4620 C.3   1 <1>  -0.1600 
 20 C       -3.0780     5.1360    -0.2170 C.3   1 <1>  -0.1600 
 21 C       -3.8460    -4.3380    -1.0150 C.ar  1 <1>  -0.1440 
 22 C       -4.2500    -5.5550    -0.4100 C.ar  1 <1>   0.0000 
 23 C       -2.7350    -4.3840    -1.8100 C.ar  1 <1>  -0.1500 
 24 C       -3.4650    -6.7110    -0.6480 C.ar  1 <1>   0.3100 
 25 C       -5.3950    -5.6990     0.4110 C.ar  1 <1>  -0.1500 
 26 C       -2.0340    -5.5830    -1.9850 C.ar  1 <1>   0.1600 
 27 N       -2.3620    -6.7070    -1.4360 N.ar  1 <1>  -0.6200 
 28 C       -3.8380    -7.9260    -0.0520 C.ar  1 <1>  -0.1500 
 29 C       -5.7320    -6.8990     0.9760 C.ar  1 <1>  -0.1500 
 30 C       -4.9450    -8.0290     0.7450 C.ar  1 <1>  -0.1500 
 31 H       -4.4730     1.5160    -0.7060 H     1 <1>   0.0800 
 32 H       -3.8170     0.9050    -2.2210 H     1 <1>   0.0800 
 33 H       -1.8940    -1.6820    -0.9850 H     1 <1>   0.0800 
 34 H       -2.8090    -1.6480     0.5070 H     1 <1>   0.0800 
 35 H       -0.2280     2.3310     1.5830 H     1 <1>   0.4500 
 36 H       -1.0370     3.6940    -1.4980 H     1 <1>   0.0800 
 37 H       -2.0050     2.3620    -1.9570 H     1 <1>   0.0800 
 38 H       -3.6570     2.4770     1.0540 H     1 <1>   0.0800 
 39 H       -2.4370     2.7360     2.2210 H     1 <1>   0.0800 
 40 H       -5.7460    -0.4890    -1.8980 H     1 <1>   0.0800 
 41 H       -3.8110    -1.8320    -2.3070 H     1 <1>   0.0800 
 42 H       -0.3530     4.9110     0.2030 H     1 <1>   0.0800 
 43 H       -0.4450     4.5950     1.9320 H     1 <1>   0.0800 
 44 H        0.9150     1.2770    -0.0470 H     1 <1>   0.0800 
 45 H        0.7000     2.6340    -1.1470 H     1 <1>   0.0800 
 46 H       -3.0620     4.5920    -2.2880 H     1 <1>   0.0800 
 47 H       -4.0330     3.5580    -1.2970 H     1 <1>   0.0800 
 48 H       -4.1120     4.6080     1.5780 H     1 <1>   0.0800 
 49 H       -2.4810     5.0770     1.8440 H     1 <1>   0.0800 
 50 H       -4.9210    -0.5610     0.8070 H     1 <1>   0.4000 
 51 H       -5.6230    -3.1910    -1.2380 H     1 <1>   0.0800 
 52 H       -4.8340    -2.9780     0.2900 H     1 <1>   0.0800 
 53 H        1.8680     5.2110     0.5150 H     1 <1>   0.0800 
 54 H        1.8460     4.4560     2.0890 H     1 <1>   0.0800 
 55 H        2.4780     2.4310     1.2280 H     1 <1>   0.0800 
 56 H        2.7830     3.2230    -0.2990 H     1 <1>   0.0800 
 57 H       -3.9230     5.7960    -0.3300 H     1 <1>   0.0800 
 58 H       -2.1970     5.7450    -0.3230 H     1 <1>   0.0800 
 59 H       -2.3540    -3.5280    -2.3310 H     1 <1>   0.1500 
 60 H       -6.0240    -4.8510     0.6010 H     1 <1>   0.1500 
 61 H       -1.1640    -5.5700    -2.6190 H     1 <1>   0.1500 
 62 H       -3.2180    -8.7810    -0.2470 H     1 <1>   0.1500 
 63 H       -6.6050    -6.9890     1.6000 H     1 <1>   0.1500 
 64 H       -5.2190    -8.9670     1.1960 H     1 <1>   0.1500 
@<TRIPOS>BOND
  1   1   2  2   
  2   2   3  am  
  3   2   4  1   
  4   3   5  1   
  5   3   6  1   
  6   4   7  1   
  7   4   8  1   
  8   4   9  1   
  9   5  10  1   
 10   5  31  1   
 11   5  32  1   
 12   6  11  1   
 13   6  33  1   
 14   6  34  1   
 15   7  12  1   
 16   7  13  1   
 17   7  35  1   
 18   8  14  1   
 19   8  36  1   
 20   8  37  1   
 21   9  15  1   
 22   9  38  1   
 23   9  39  1   
 24  10  11  1   
 25  10  16  1   
 26  10  40  1   
 27  11  17  1   
 28  11  41  1   
 29  12  18  1   
 30  12  42  1   
 31  12  43  1   
 32  13  19  1   
 33  13  44  1   
 34  13  45  1   
 35  14  20  1   
 36  14  46  1   
 37  14  47  1   
 38  15  20  1   
 39  15  48  1   
 40  15  49  1   
 41  16  50  1   
 42  17  21  1   
 43  17  51  1   
 44  17  52  1   
 45  18  19  1   
 46  18  53  1   
 47  18  54  1   
 48  19  55  1   
 49  19  56  1   
 50  20  57  1   
 51  20  58  1   
 52  21  22  ar  
 53  21  23  ar  
 54  22  24  ar  
 55  22  25  ar  
 56  23  26  ar  
 57  23  59  1   
 58  24  27  ar  
 59  24  28  ar  
 60  25  29  ar  
 61  25  60  1   
 62  26  27  ar  
 63  26  61  1   
 64  28  30  ar  
 65  28  62  1   
 66  29  30  ar  
 67  29  63  1   
 68  30  64  1   
@<TRIPOS>SUBSTRUCTURE
  1 ****   6 GROUP 4 **** **** 0

# MOE 2024.06 (io_trps.svl 2023.06)
