@<TRIPOS>MOLECULE
NONAME
55 58 1 0 0 
SMALL
USER_CHARGES


@<TRIPOS>ATOM
  1 S       -0.4710     1.0910    -2.9810 S.3   1 <1>  -0.0800 
  2 C       -1.9590     0.4540    -3.6410 C.2   1 <1>   0.2280 
  3 C       -0.6510     0.0140    -1.6280 C.2   1 <1>  -0.1100 
  4 N       -2.5110    -0.4470    -2.9320 N.2   1 <1>  -0.5650 
  5 C       -1.7800    -0.6980    -1.7780 C.2   1 <1>   0.0460 
  6 C       -2.2920    -1.7660    -0.8210 C.3   1 <1>   0.0210 
  7 C       -3.3610    -1.3730     0.2390 C.3   1 <1>   0.0610 
  8 C       -3.7270    -2.6890     0.9400 C.2   1 <1>   0.5690 
  9 C       -2.8150    -0.3290     1.2500 C.3   1 <1>   0.2200 
 10 C       -4.5830    -0.5980    -0.3540 C.3   1 <1>  -0.1600 
 11 O       -3.0270    -3.0880     1.8400 O.2   1 <1>  -0.5700 
 12 N       -4.7890    -3.4220     0.5000 N.am  1 <1>  -0.7300 
 13 N       -3.0700     0.9070     0.5290 N.am  1 <1>  -0.6600 
 14 C       -3.7800    -0.1000     2.4310 C.3   1 <1>  -0.1600 
 15 C       -4.5020     0.7800     0.3200 C.3   1 <1>   0.2200 
 16 C       -5.2280    -4.7230     1.0650 C.3   1 <1>   0.0600 
 17 C       -2.2100     1.9420     0.3220 C.2   1 <1>   0.5690 
 18 C       -4.9620     0.6400     1.7750 C.3   1 <1>  -0.1600 
 19 O       -1.0900     1.9410     0.7760 O.2   1 <1>  -0.5700 
 20 C       -2.6550     3.1330    -0.4920 C.3   1 <1>  -0.0990 
 21 C       -3.3590     4.1630     0.3950 C.3   1 <1>   0.0210 
 22 C       -3.9620     5.2600    -0.4550 C.2   1 <1>   0.1080 
 23 N       -5.1420     5.1440    -0.9790 N.2   1 <1>  -0.7070 
 24 C       -3.3550     6.4730    -0.7790 C.2   1 <1>  -0.1810 
 25 N       -5.3250     6.2920    -1.6540 N.pl3 1 <1>   0.3000 
 26 C       -4.2600     7.1150    -1.5510 C.2   1 <1>  -0.3320 
 27 C       -1.9730     6.9230    -0.3370 C.3   1 <1>  -0.0590 
 28 C       -4.2100     8.4780    -2.2200 C.3   1 <1>  -0.0600 
 29 H       -2.2900     0.8620    -4.5800 H     1 <1>   0.1500 
 30 H        0.1010     0.0370    -0.8590 H     1 <1>   0.1500 
 31 H       -2.6780    -2.5700    -1.4220 H     1 <1>   0.0800 
 32 H       -1.4410    -2.1610    -0.2950 H     1 <1>   0.0800 
 33 H       -1.7860    -0.4670     1.5370 H     1 <1>   0.0800 
 34 H       -5.5310    -1.0500    -0.1320 H     1 <1>   0.0800 
 35 H       -4.5210    -0.4830    -1.4170 H     1 <1>   0.0800 
 36 H       -5.3200    -3.0870    -0.3080 H     1 <1>   0.3700 
 37 H       -4.0820    -1.0070     2.9230 H     1 <1>   0.0800 
 38 H       -3.3000     0.5330     3.1570 H     1 <1>   0.0800 
 39 H       -4.9620     1.5860    -0.2280 H     1 <1>   0.0800 
 40 H       -4.6160    -4.9930     1.9090 H     1 <1>   0.0800 
 41 H       -5.1440    -5.4920     0.3160 H     1 <1>   0.0800 
 42 H       -6.2520    -4.6530     1.3890 H     1 <1>   0.0800 
 43 H       -5.0900     1.6140     2.2150 H     1 <1>   0.0800 
 44 H       -5.8860     0.0950     1.8570 H     1 <1>   0.0800 
 45 H       -1.7960     3.5820    -0.9550 H     1 <1>   0.0800 
 46 H       -3.3140     2.8070    -1.2750 H     1 <1>   0.0800 
 47 H       -2.6610     4.5760     1.1010 H     1 <1>   0.0800 
 48 H       -4.1490     3.6910     0.9500 H     1 <1>   0.0800 
 49 H       -6.1880     6.4850    -2.1750 H     1 <1>   0.2700 
 50 H       -1.2420     6.1860    -0.6170 H     1 <1>   0.0800 
 51 H       -1.9550     7.0450     0.7310 H     1 <1>   0.0800 
 52 H       -1.7080     7.8570    -0.7940 H     1 <1>   0.0800 
 53 H       -3.2880     8.9820    -1.9960 H     1 <1>   0.0800 
 54 H       -5.0230     9.0900    -1.8730 H     1 <1>   0.0800 
 55 H       -4.2860     8.3680    -3.2870 H     1 <1>   0.0800 
@<TRIPOS>BOND
  1   1   2  1   
  2   1   3  1   
  3   2   4  2   
  4   2  29  1   
  5   3   5  2   
  6   3  30  1   
  7   4   5  1   
  8   5   6  1   
  9   6   7  1   
 10   6  31  1   
 11   6  32  1   
 12   7   8  1   
 13   7   9  1   
 14   7  10  1   
 15   8  11  2   
 16   8  12  am  
 17   9  13  1   
 18   9  14  1   
 19   9  33  1   
 20  10  15  1   
 21  10  34  1   
 22  10  35  1   
 23  12  16  1   
 24  12  36  1   
 25  13  15  1   
 26  13  17  am  
 27  14  18  1   
 28  14  37  1   
 29  14  38  1   
 30  15  18  1   
 31  15  39  1   
 32  16  40  1   
 33  16  41  1   
 34  16  42  1   
 35  17  19  2   
 36  17  20  1   
 37  18  43  1   
 38  18  44  1   
 39  20  21  1   
 40  20  45  1   
 41  20  46  1   
 42  21  22  1   
 43  21  47  1   
 44  21  48  1   
 45  22  23  2   
 46  22  24  1   
 47  23  25  1   
 48  24  26  2   
 49  24  27  1   
 50  25  26  1   
 51  25  49  1   
 52  26  28  1   
 53  27  50  1   
 54  27  51  1   
 55  27  52  1   
 56  28  53  1   
 57  28  54  1   
 58  28  55  1   
@<TRIPOS>SUBSTRUCTURE
  1 ****  13 GROUP 4 **** **** 0

# MOE 2024.06 (io_trps.svl 2023.06)
