@<TRIPOS>MOLECULE
NONAME
48 50 1 0 0 
SMALL
USER_CHARGES


@<TRIPOS>ATOM
  1 F       -0.6740    -2.7800     0.1850 F     1 <1>  -0.1900 
  2 C       -1.9290    -3.1040     0.0200 C.ar  1 <1>   0.1900 
  3 C       -2.5920    -3.7450     1.0480 C.ar  1 <1>  -0.1500 
  4 C       -2.5450    -2.7950    -1.1770 C.ar  1 <1>  -0.1500 
  5 C       -3.9220    -4.0860     0.8660 C.ar  1 <1>  -0.1500 
  6 C       -3.8760    -3.1410    -1.3450 C.ar  1 <1>  -0.1500 
  7 C       -4.5680    -3.7850    -0.3270 C.ar  1 <1>  -0.1430 
  8 C       -6.0300    -4.1570    -0.5250 C.3   1 <1>  -0.0160 
  9 C       -6.9570    -2.9610    -0.2430 C.3   1 <1>  -0.0800 
 10 C       -8.4390    -3.2010    -0.5460 C.3   1 <1>   0.2200 
 11 C       -6.9340    -2.4650     1.2100 C.3   1 <1>  -0.1600 
 12 N       -8.9010    -4.4720     0.0480 N.am  1 <1>  -0.7300 
 13 C       -9.1300    -2.0550     0.1850 C.3   1 <1>  -0.1600 
 14 C       -8.2930    -1.7900     1.4440 C.3   1 <1>  -0.1600 
 15 C       -9.1480    -5.6060    -0.6490 C.2   1 <1>   0.5690 
 16 O       -8.9900    -5.6780    -1.8420 O.2   1 <1>  -0.5700 
 17 C       -9.6100    -6.8340     0.0950 C.3   1 <1>  -0.0990 
 18 C       -8.6480    -7.9950    -0.1670 C.3   1 <1>   0.0960 
 19 N       -9.0790    -9.1910     0.5820 N.pl3 1 <1>   0.0480 
 20 C       -9.9070   -10.1900     0.1900 C.2   1 <1>   0.0070 
 21 C       -8.7370    -9.5060     1.8450 C.2   1 <1>  -0.3020 
 22 N      -10.1030   -11.0880     1.0990 N.2   1 <1>  -0.5650 
 23 C      -10.5490   -10.2600    -1.1820 C.3   1 <1>  -0.0600 
 24 C       -9.3680   -10.6610     2.1410 C.2   1 <1>   0.0770 
 25 H       -2.0780    -3.9700     1.9640 H     1 <1>   0.1500 
 26 H       -1.9960    -2.2960    -1.9540 H     1 <1>   0.1500 
 27 H       -4.4530    -4.5850     1.6580 H     1 <1>   0.1500 
 28 H       -4.3710    -2.9070    -2.2720 H     1 <1>   0.1500 
 29 H       -6.1780    -4.4880    -1.5390 H     1 <1>   0.0800 
 30 H       -6.2790    -4.9820     0.1180 H     1 <1>   0.0800 
 31 H       -6.6420    -2.1430    -0.8690 H     1 <1>   0.0800 
 32 H       -8.6410    -3.1850    -1.6050 H     1 <1>   0.0800 
 33 H       -6.8280    -3.2970     1.8840 H     1 <1>   0.0800 
 34 H       -6.1170    -1.7830     1.3720 H     1 <1>   0.0800 
 35 H       -9.0210    -4.4390     1.0600 H     1 <1>   0.3700 
 36 H       -9.0930    -1.1820    -0.4440 H     1 <1>   0.0800 
 37 H      -10.1610    -2.2700     0.4050 H     1 <1>   0.0800 
 38 H       -8.1760    -0.7310     1.6010 H     1 <1>   0.0800 
 39 H       -8.7700    -2.2170     2.3100 H     1 <1>   0.0800 
 40 H       -9.6560    -6.6280     1.1490 H     1 <1>   0.0800 
 41 H      -10.5940    -7.0890    -0.2530 H     1 <1>   0.0800 
 42 H       -7.6530    -7.7320     0.1460 H     1 <1>   0.0800 
 43 H       -8.6210    -8.2280    -1.2170 H     1 <1>   0.0800 
 44 H       -8.0800    -8.9110     2.4520 H     1 <1>   0.1500 
 45 H      -11.1760   -11.1310    -1.2440 H     1 <1>   0.0800 
 46 H       -9.7920   -10.3290    -1.9410 H     1 <1>   0.0800 
 47 H      -11.1530    -9.3890    -1.3550 H     1 <1>   0.0800 
 48 H       -9.3330   -11.2190     3.0620 H     1 <1>   0.1500 
@<TRIPOS>BOND
  1   1   2  1   
  2   2   3  ar  
  3   2   4  ar  
  4   3   5  ar  
  5   3  25  1   
  6   4   6  ar  
  7   4  26  1   
  8   5   7  ar  
  9   5  27  1   
 10   6   7  ar  
 11   6  28  1   
 12   7   8  1   
 13   8   9  1   
 14   8  29  1   
 15   8  30  1   
 16   9  10  1   
 17   9  11  1   
 18   9  31  1   
 19  10  12  1   
 20  10  13  1   
 21  10  32  1   
 22  11  14  1   
 23  11  33  1   
 24  11  34  1   
 25  12  15  am  
 26  12  35  1   
 27  13  14  1   
 28  13  36  1   
 29  13  37  1   
 30  14  38  1   
 31  14  39  1   
 32  15  16  2   
 33  15  17  1   
 34  17  18  1   
 35  17  40  1   
 36  17  41  1   
 37  18  19  1   
 38  18  42  1   
 39  18  43  1   
 40  19  20  1   
 41  19  21  1   
 42  20  22  2   
 43  20  23  1   
 44  21  24  2   
 45  21  44  1   
 46  22  24  1   
 47  23  45  1   
 48  23  46  1   
 49  23  47  1   
 50  24  48  1   
@<TRIPOS>SUBSTRUCTURE
  1 ****   8 GROUP 4 **** **** 0

# MOE 2024.06 (io_trps.svl 2023.06)
