@<TRIPOS>MOLECULE
NONAME
49 50 1 0 0 
SMALL
USER_CHARGES


@<TRIPOS>ATOM
  1 F       -2.3220    -0.0290    -2.3760 F     1 <1>  -0.3400 
  2 C       -1.8670     0.3350    -1.1860 C.3   1 <1>   1.1640 
  3 F       -0.6090     0.7200    -1.3700 F     1 <1>  -0.3400 
  4 F       -1.8180    -0.7640    -0.4430 F     1 <1>  -0.3400 
  5 C       -2.7120     1.4640    -0.5700 C.ar  1 <1>  -0.1440 
  6 C       -2.6970     2.7340    -1.1370 C.ar  1 <1>  -0.1500 
  7 C       -3.5070     1.2550     0.5490 C.ar  1 <1>  -0.1500 
  8 C       -3.4440     3.7770    -0.6040 C.ar  1 <1>  -0.1440 
  9 C       -4.2640     2.2830     1.0770 C.ar  1 <1>  -0.1500 
 10 C       -4.2490     3.5460     0.5080 C.ar  1 <1>  -0.1430 
 11 C       -3.3520     5.1460    -1.2540 C.3   1 <1>   0.4870 
 12 C       -5.1400     4.6130     1.1350 C.3   1 <1>  -0.0970 
 13 N       -2.5250     6.0220    -0.3660 N.4   1 <1>  -0.9590 
 14 C       -2.7490     7.4810    -0.6850 C.3   1 <1>   0.3430 
 15 C       -1.0970     5.5860    -0.4030 C.3   1 <1>   0.3430 
 16 C       -2.1030     8.4820     0.3190 C.3   1 <1>   0.3430 
 17 C       -0.5830     5.4840     1.0260 C.3   1 <1>  -0.2400 
 18 N       -2.4160     9.9310     0.0440 N.4   1 <1>  -0.9590 
 19 C       -1.8650    10.4830    -1.2280 C.3   1 <1>   0.3430 
 20 C       -1.8820    10.8300     1.1090 C.3   1 <1>   0.3430 
 21 C       -1.8920    11.9910    -1.0320 C.3   1 <1>  -0.1600 
 22 C       -1.8990    12.2170     0.4810 C.3   1 <1>  -0.1600 
 23 H       -2.0880     2.8960    -2.0130 H     1 <1>   0.1500 
 24 H       -3.5490     0.2850     1.0210 H     1 <1>   0.1500 
 25 H       -4.8760     2.0820     1.9420 H     1 <1>   0.1500 
 26 H       -4.3460     5.5470    -1.3640 H     1 <1>   0.0800 
 27 H       -2.9070     5.0660    -2.2330 H     1 <1>   0.0800 
 28 H       -5.6090     5.2230     0.3840 H     1 <1>   0.0800 
 29 H       -4.5750     5.2310     1.8070 H     1 <1>   0.0800 
 30 H       -5.9300     4.1500     1.7010 H     1 <1>   0.0800 
 31 H       -2.8710     5.7790     0.5750 H     1 <1>   0.4500 
 32 H       -3.8110     7.6670    -0.7010 H     1 <1>   0.0800 
 33 H       -2.3630     7.6830    -1.6700 H     1 <1>   0.0800 
 34 H       -0.4970     6.2760    -0.9750 H     1 <1>   0.0800 
 35 H       -1.0120     4.6140    -0.8630 H     1 <1>   0.0800 
 36 H       -1.0330     8.3500     0.3020 H     1 <1>   0.0800 
 37 H       -2.4520     8.2390     1.3090 H     1 <1>   0.0800 
 38 H       -0.6060     6.4280     1.5370 H     1 <1>   0.0800 
 39 H        0.4400     5.1480     1.0060 H     1 <1>   0.0800 
 40 H       -1.1490     4.7550     1.5800 H     1 <1>   0.0800 
 41 H       -3.4340    10.1030     0.0340 H     1 <1>   0.4500 
 42 H       -2.4480    10.1900    -2.0870 H     1 <1>   0.0800 
 43 H       -0.8430    10.1620    -1.3580 H     1 <1>   0.0800 
 44 H       -0.8650    10.5600     1.3460 H     1 <1>   0.0800 
 45 H       -2.4810    10.7960     2.0060 H     1 <1>   0.0800 
 46 H       -2.7810    12.4060    -1.4770 H     1 <1>   0.0800 
 47 H       -1.0360    12.4480    -1.4990 H     1 <1>   0.0800 
 48 H       -1.0430    12.7860     0.8050 H     1 <1>   0.0800 
 49 H       -2.7880    12.7460     0.7800 H     1 <1>   0.0800 
@<TRIPOS>BOND
  1   1   2  1   
  2   2   3  1   
  3   2   4  1   
  4   2   5  1   
  5   5   6  ar  
  6   5   7  ar  
  7   6   8  ar  
  8   6  23  1   
  9   7   9  ar  
 10   7  24  1   
 11   8  10  ar  
 12   8  11  1   
 13   9  10  ar  
 14   9  25  1   
 15  10  12  1   
 16  11  13  1   
 17  11  26  1   
 18  11  27  1   
 19  12  28  1   
 20  12  29  1   
 21  12  30  1   
 22  13  14  1   
 23  13  15  1   
 24  13  31  1   
 25  14  16  1   
 26  14  32  1   
 27  14  33  1   
 28  15  17  1   
 29  15  34  1   
 30  15  35  1   
 31  16  18  1   
 32  16  36  1   
 33  16  37  1   
 34  17  38  1   
 35  17  39  1   
 36  17  40  1   
 37  18  19  1   
 38  18  20  1   
 39  18  41  1   
 40  19  21  1   
 41  19  42  1   
 42  19  43  1   
 43  20  22  1   
 44  20  44  1   
 45  20  45  1   
 46  21  22  1   
 47  21  46  1   
 48  21  47  1   
 49  22  48  1   
 50  22  49  1   
@<TRIPOS>SUBSTRUCTURE
  1 ****  13 GROUP 4 **** **** 0

# MOE 2024.06 (io_trps.svl 2023.06)
