@<TRIPOS>MOLECULE
NONAME
50 51 1 0 0 
SMALL
USER_CHARGES


@<TRIPOS>ATOM
  1 F       -0.3030     1.5390    -1.0940 F     1 <1>  -0.1900 
  2 C       -1.5950     1.5180    -0.8830 C.ar  1 <1>   0.1900 
  3 C       -2.1890     2.2460     0.1540 C.ar  1 <1>   0.0830 
  4 C       -2.3450     0.7400    -1.7430 C.ar  1 <1>  -0.1500 
  5 O       -1.5600     3.0470     1.0620 O.3   1 <1>  -0.3630 
  6 C       -3.5650     2.1590     0.2930 C.ar  1 <1>  -0.1500 
  7 C       -3.7160     0.6760    -1.5760 C.ar  1 <1>  -0.1500 
  8 C       -0.1620     3.2270     1.0900 C.3   1 <1>   0.0400 
  9 C       -4.3550     1.3780    -0.5520 C.ar  1 <1>   0.0530 
 10 C       -5.7830     1.3270    -0.3690 C.2   1 <1>   0.0870 
 11 O       -6.4430     2.4440    -0.1960 O.3   1 <1>  -0.0190 
 12 C       -6.6930     0.3160    -0.3120 C.2   1 <1>  -0.0860 
 13 N       -7.7260     2.2620    -0.0410 N.2   1 <1>  -0.4100 
 14 C       -7.9070     0.9910    -0.1120 C.2   1 <1>   0.3720 
 15 C       -6.5370    -1.1060    -0.3930 C.2   1 <1>   0.7160 
 16 N       -9.1760     0.3870    -0.0150 N.pl3 1 <1>  -0.8210 
 17 O       -5.5510    -1.6240    -0.8790 O.2   1 <1>  -0.5700 
 18 N       -7.5280    -1.9110     0.0640 N.am  1 <1>  -0.7300 
 19 C       -9.7780     0.0700    -1.3420 C.3   1 <1>   0.1290 
 20 C      -10.1430     1.1100     0.8610 C.3   1 <1>   0.1290 
 21 C       -7.7710    -3.3020    -0.3900 C.3   1 <1>   0.2810 
 22 C       -9.2690    -3.5290    -0.6740 C.2   1 <1>   0.5690 
 23 C       -7.2290    -4.2510     0.6820 C.3   1 <1>  -0.2400 
 24 O       -9.6150    -3.8990    -1.7700 O.2   1 <1>  -0.5700 
 25 N      -10.1750    -3.2730     0.3130 N.am  1 <1>  -0.7300 
 26 C      -11.6330    -3.4640     0.2060 C.3   1 <1>   0.1400 
 27 C      -12.1130    -4.2190     1.4390 C.3   1 <1>  -0.2400 
 28 H       -1.8610     0.1910    -2.5310 H     1 <1>   0.1500 
 29 H       -4.0360     2.7140     1.0840 H     1 <1>   0.1500 
 30 H       -4.3010     0.0740    -2.2490 H     1 <1>   0.1500 
 31 H        0.0740     3.8870     1.9050 H     1 <1>   0.0800 
 32 H        0.1530     3.6700     0.1610 H     1 <1>   0.0800 
 33 H        0.3120     2.2740     1.2430 H     1 <1>   0.0800 
 34 H       -8.3850    -1.3870     0.3020 H     1 <1>   0.3700 
 35 H       -9.0510    -0.4050    -1.9790 H     1 <1>   0.0800 
 36 H      -10.1180     0.9730    -1.8210 H     1 <1>   0.0800 
 37 H      -10.6110    -0.6010    -1.2180 H     1 <1>   0.0800 
 38 H       -9.6720     1.3570     1.7980 H     1 <1>   0.0800 
 39 H      -10.9990     0.4890     1.0570 H     1 <1>   0.0800 
 40 H      -10.4660     2.0220     0.3870 H     1 <1>   0.0800 
 41 H       -7.2340    -3.4730    -1.3080 H     1 <1>   0.0800 
 42 H       -7.7250    -4.0920     1.6220 H     1 <1>   0.0800 
 43 H       -6.1720    -4.0940     0.8060 H     1 <1>   0.0800 
 44 H       -7.3870    -5.2690     0.3760 H     1 <1>   0.0800 
 45 H       -9.8370    -2.9570     1.2240 H     1 <1>   0.3700 
 46 H      -11.8680    -4.0240    -0.6850 H     1 <1>   0.0800 
 47 H      -12.1160    -2.5040     0.1450 H     1 <1>   0.0800 
 48 H      -11.6300    -5.1790     1.4970 H     1 <1>   0.0800 
 49 H      -13.1740    -4.3780     1.3720 H     1 <1>   0.0800 
 50 H      -11.9080    -3.6570     2.3320 H     1 <1>   0.0800 
@<TRIPOS>BOND
  1   1   2  1   
  2   2   3  ar  
  3   2   4  ar  
  4   3   5  1   
  5   3   6  ar  
  6   4   7  ar  
  7   4  28  1   
  8   5   8  1   
  9   6   9  ar  
 10   6  29  1   
 11   7   9  ar  
 12   7  30  1   
 13   8  31  1   
 14   8  32  1   
 15   8  33  1   
 16   9  10  1   
 17  10  11  1   
 18  10  12  2   
 19  11  13  1   
 20  12  14  1   
 21  12  15  1   
 22  13  14  2   
 23  14  16  1   
 24  15  17  2   
 25  15  18  am  
 26  16  19  1   
 27  16  20  1   
 28  18  21  1   
 29  18  34  1   
 30  19  35  1   
 31  19  36  1   
 32  19  37  1   
 33  20  38  1   
 34  20  39  1   
 35  20  40  1   
 36  21  22  1   
 37  21  23  1   
 38  21  41  1   
 39  22  24  2   
 40  22  25  am  
 41  23  42  1   
 42  23  43  1   
 43  23  44  1   
 44  25  26  1   
 45  25  45  1   
 46  26  27  1   
 47  26  46  1   
 48  26  47  1   
 49  27  48  1   
 50  27  49  1   
 51  27  50  1   
@<TRIPOS>SUBSTRUCTURE
  1 ****  12 GROUP 4 **** **** 0

# MOE 2024.06 (io_trps.svl 2023.06)
