@<TRIPOS>MOLECULE
NONAME
46 48 1 0 0 
SMALL
USER_CHARGES


@<TRIPOS>ATOM
  1 S        0.5200     0.3550    -1.1170 S.3   1 <1>  -0.3320 
  2 C        0.5930    -1.4110    -0.8920 C.ar  1 <1>   0.7220 
  3 C        1.1240     1.0390     0.5010 C.3   1 <1>   0.1310 
  4 N        1.0370    -1.8220     0.2860 N.ar  1 <1>  -0.6200 
  5 N        0.2000    -2.1190    -1.9360 N.ar  1 <1>  -0.6200 
  6 C        1.2940     2.5490     0.4230 C.2   1 <1>   0.5690 
  7 C        1.0810    -3.1270     0.4290 C.ar  1 <1>   0.1660 
  8 C        0.2570    -3.4190    -1.7590 C.ar  1 <1>   0.1600 
  9 O        0.5870     3.2210     1.1400 O.2   1 <1>  -0.5700 
 10 N        2.2350     3.1300    -0.3960 N.am  1 <1>  -0.6600 
 11 C        0.6950    -3.9790    -0.5810 C.ar  1 <1>  -0.1500 
 12 C        1.5750    -3.6550     1.7590 C.3   1 <1>  -0.0970 
 13 C        2.3310     4.6120    -0.5250 C.3   1 <1>   0.1400 
 14 C        3.2560     2.3960    -1.1970 C.3   1 <1>   0.1400 
 15 C        3.7060     5.0850    -0.0330 C.3   1 <1>   0.0580 
 16 C        4.6580     2.8520    -0.7730 C.3   1 <1>  -0.1600 
 17 C        3.7820     6.6110    -0.0750 C.2   1 <1>  -0.0380 
 18 C        4.8150     4.3820    -0.8410 C.3   1 <1>  -0.1600 
 19 N        2.9780     7.3010     0.7960 N.pl3 1 <1>  -0.5500 
 20 C        4.5650     7.3630    -0.8850 C.2   1 <1>  -0.1360 
 21 C        2.9660     8.6640     0.8360 C.2   1 <1>   0.4390 
 22 C        4.5220     8.7800    -0.8070 C.2   1 <1>   0.7670 
 23 N        3.6910     9.4040     0.0830 N.2   1 <1>  -0.6610 
 24 C        2.0330     9.3000     1.8360 C.3   1 <1>  -0.1790 
 25 O        5.2240     9.4620    -1.5360 O.2   1 <1>  -0.5700 
 26 H        2.0570     0.5640     0.7350 H     1 <1>   0.0800 
 27 H        0.3900     0.7810     1.2420 H     1 <1>   0.0800 
 28 H       -0.0530    -4.0520    -2.5740 H     1 <1>   0.1500 
 29 H        0.7320    -5.0450    -0.4620 H     1 <1>   0.1500 
 30 H        2.5780    -3.3090     1.9350 H     1 <1>   0.0800 
 31 H        1.5710    -4.7290     1.7750 H     1 <1>   0.0800 
 32 H        0.9420    -3.2940     2.5480 H     1 <1>   0.0800 
 33 H        1.5530     5.0920     0.0430 H     1 <1>   0.0800 
 34 H        2.1970     4.8860    -1.5570 H     1 <1>   0.0800 
 35 H        3.0990     2.6110    -2.2410 H     1 <1>   0.0800 
 36 H        3.1720     1.3330    -1.0630 H     1 <1>   0.0800 
 37 H        3.8070     4.7870     0.9970 H     1 <1>   0.0800 
 38 H        5.3880     2.3870    -1.4110 H     1 <1>   0.0800 
 39 H        4.8430     2.5140     0.2320 H     1 <1>   0.0800 
 40 H        5.7800     4.6620    -0.4560 H     1 <1>   0.0800 
 41 H        4.7600     4.6870    -1.8720 H     1 <1>   0.0800 
 42 H        2.3650     6.7990     1.4460 H     1 <1>   0.4000 
 43 H        5.2420     6.9600    -1.6100 H     1 <1>   0.1500 
 44 H        1.0210     9.0080     1.6300 H     1 <1>   0.0800 
 45 H        2.1020    10.3720     1.7720 H     1 <1>   0.0800 
 46 H        2.3010     8.9980     2.8310 H     1 <1>   0.0800 
@<TRIPOS>BOND
  1   1   2  1   
  2   1   3  1   
  3   2   4  ar  
  4   2   5  ar  
  5   3   6  1   
  6   3  26  1   
  7   3  27  1   
  8   4   7  ar  
  9   5   8  ar  
 10   6   9  2   
 11   6  10  am  
 12   7  11  ar  
 13   7  12  1   
 14   8  11  ar  
 15   8  28  1   
 16  10  13  1   
 17  10  14  1   
 18  11  29  1   
 19  12  30  1   
 20  12  31  1   
 21  12  32  1   
 22  13  15  1   
 23  13  33  1   
 24  13  34  1   
 25  14  16  1   
 26  14  35  1   
 27  14  36  1   
 28  15  17  1   
 29  15  18  1   
 30  15  37  1   
 31  16  18  1   
 32  16  38  1   
 33  16  39  1   
 34  17  19  1   
 35  17  20  2   
 36  18  40  1   
 37  18  41  1   
 38  19  21  1   
 39  19  42  1   
 40  20  22  1   
 41  20  43  1   
 42  21  23  2   
 43  21  24  1   
 44  22  23  1   
 45  22  25  2   
 46  24  44  1   
 47  24  45  1   
 48  24  46  1   
@<TRIPOS>SUBSTRUCTURE
  1 ****  10 GROUP 4 **** **** 0

# MOE 2024.06 (io_trps.svl 2023.06)
