@<TRIPOS>MOLECULE
NONAME
54 55 1 0 0 
SMALL
USER_CHARGES


@<TRIPOS>ATOM
  1 S        0.3010     1.7090    -0.7020 S.o2  1 <1>   1.3330 
  2 O       -0.5510     2.7040    -1.3100 O.2   1 <1>  -0.6500 
  3 O        1.7250     1.8000    -0.9490 O.2   1 <1>  -0.6500 
  4 N       -0.2500     0.1600    -1.0980 N.am  1 <1>  -0.8490 
  5 C        0.0800     1.8110     1.0790 C.3   1 <1>  -0.0550 
  6 C       -1.7070     0.0780    -1.2650 C.3   1 <1>   0.1160 
  7 C        0.4140    -0.3940    -2.2840 C.3   1 <1>   0.1160 
  8 C        0.5920     3.1050     1.7700 C.3   1 <1>  -0.0800 
  9 C       -0.0310     4.3920     1.2200 C.3   1 <1>   0.2000 
 10 C        2.0950     3.3400     1.5920 C.3   1 <1>   0.3430 
 11 O       -0.1010     5.3140     2.2580 O.3   1 <1>  -0.6800 
 12 C        0.9470     4.9090     0.1530 C.3   1 <1>   0.3430 
 13 N        2.2410     4.1730     0.3670 N.4   1 <1>  -0.9590 
 14 C        3.4380     5.0700     0.4020 C.3   1 <1>   0.3430 
 15 C        3.7060     5.7420    -0.9460 C.3   1 <1>   0.1200 
 16 O        4.6550     6.7590    -0.7280 O.3   1 <1>  -0.3630 
 17 C        4.2860     8.0520    -0.9290 C.ar  1 <1>   0.0820 
 18 C        3.1530     8.6420    -0.3500 C.ar  1 <1>   0.0820 
 19 C        5.1110     8.7980    -1.7530 C.ar  1 <1>  -0.1500 
 20 O        2.3720     7.9090     0.5040 O.3   1 <1>  -0.3630 
 21 C        2.8640     9.9720    -0.6520 C.ar  1 <1>  -0.1500 
 22 C        4.8140    10.1190    -2.0340 C.ar  1 <1>  -0.1500 
 23 C        1.3990     8.5450     1.3120 C.3   1 <1>   0.0400 
 24 C        3.6860    10.7090    -1.4900 C.ar  1 <1>  -0.1430 
 25 C        3.3580    12.1580    -1.8030 C.3   1 <1>  -0.0970 
 26 H       -0.9650     1.7070     1.2980 H     1 <1>   0.0800 
 27 H        0.5740     0.9700     1.5270 H     1 <1>   0.0800 
 28 H       -2.0040    -0.9440    -1.4320 H     1 <1>   0.0800 
 29 H       -2.0260     0.6750    -2.1050 H     1 <1>   0.0800 
 30 H       -2.2070     0.4330    -0.3800 H     1 <1>   0.0800 
 31 H        0.0580    -1.3920    -2.4790 H     1 <1>   0.0800 
 32 H        1.4780    -0.4450    -2.1240 H     1 <1>   0.0800 
 33 H        0.2220     0.2240    -3.1460 H     1 <1>   0.0800 
 34 H        0.3690     3.0020     2.8180 H     1 <1>   0.0800 
 35 H       -1.0280     4.2620     0.8300 H     1 <1>   0.0800 
 36 H        2.6380     2.4120     1.5010 H     1 <1>   0.0800 
 37 H        2.4700     3.8850     2.4430 H     1 <1>   0.0800 
 38 H        0.7640     5.4790     2.6790 H     1 <1>   0.4000 
 39 H        1.0710     5.9740     0.2500 H     1 <1>   0.0800 
 40 H        0.5650     4.6920    -0.8310 H     1 <1>   0.0800 
 41 H        2.3510     3.4970    -0.4210 H     1 <1>   0.4500 
 42 H        3.2860     5.8370     1.1430 H     1 <1>   0.0800 
 43 H        4.3110     4.5000     0.6770 H     1 <1>   0.0800 
 44 H        2.8190     6.1770    -1.3710 H     1 <1>   0.0800 
 45 H        4.1340     5.0430    -1.6430 H     1 <1>   0.0800 
 46 H        5.9870     8.3420    -2.1770 H     1 <1>   0.1500 
 47 H        2.0000    10.4600    -0.2440 H     1 <1>   0.1500 
 48 H        5.4660    10.6840    -2.6770 H     1 <1>   0.1500 
 49 H        0.9890     7.8210     1.9910 H     1 <1>   0.0800 
 50 H        0.6170     8.9320     0.6820 H     1 <1>   0.0800 
 51 H        1.8690     9.3380     1.8680 H     1 <1>   0.0800 
 52 H        3.7720    12.4430    -2.7530 H     1 <1>   0.0800 
 53 H        3.7680    12.7970    -1.0410 H     1 <1>   0.0800 
 54 H        2.2930    12.3030    -1.8420 H     1 <1>   0.0800 
@<TRIPOS>BOND
  1   1   2  2   
  2   1   3  2   
  3   1   4  am  
  4   1   5  1   
  5   4   6  1   
  6   4   7  1   
  7   5   8  1   
  8   5  26  1   
  9   5  27  1   
 10   6  28  1   
 11   6  29  1   
 12   6  30  1   
 13   7  31  1   
 14   7  32  1   
 15   7  33  1   
 16   8   9  1   
 17   8  10  1   
 18   8  34  1   
 19   9  11  1   
 20   9  12  1   
 21   9  35  1   
 22  10  13  1   
 23  10  36  1   
 24  10  37  1   
 25  11  38  1   
 26  12  13  1   
 27  12  39  1   
 28  12  40  1   
 29  13  14  1   
 30  13  41  1   
 31  14  15  1   
 32  14  42  1   
 33  14  43  1   
 34  15  16  1   
 35  15  44  1   
 36  15  45  1   
 37  16  17  1   
 38  17  18  ar  
 39  17  19  ar  
 40  18  20  1   
 41  18  21  ar  
 42  19  22  ar  
 43  19  46  1   
 44  20  23  1   
 45  21  24  ar  
 46  21  47  1   
 47  22  24  ar  
 48  22  48  1   
 49  23  49  1   
 50  23  50  1   
 51  23  51  1   
 52  24  25  1   
 53  25  52  1   
 54  25  53  1   
 55  25  54  1   
@<TRIPOS>SUBSTRUCTURE
  1 ****  12 GROUP 4 **** **** 0

# MOE 2024.06 (io_trps.svl 2023.06)
