@<TRIPOS>MOLECULE
NONAME
44 45 1 0 0 
SMALL
USER_CHARGES


@<TRIPOS>ATOM
  1 CL       0.0390    -2.5800     1.1760 Cl    1 <1>  -0.1770 
  2 C       -1.2970    -2.9630     0.1160 C.ar  1 <1>   0.1770 
  3 C       -1.0890    -3.2200    -1.2280 C.ar  1 <1>   0.1900 
  4 C       -2.5750    -3.0150     0.6380 C.ar  1 <1>  -0.1500 
  5 F        0.1170    -3.1820    -1.7250 F     1 <1>  -0.1900 
  6 C       -2.1450    -3.5250    -2.0670 C.ar  1 <1>  -0.1500 
  7 C       -3.6630    -3.3370    -0.1770 C.ar  1 <1>   0.0860 
  8 C       -3.4220    -3.5790    -1.5340 C.ar  1 <1>  -0.1500 
  9 C       -5.0090    -3.4080     0.3590 C.2   1 <1>   0.5440 
 10 O       -5.8660    -2.6620    -0.0790 O.2   1 <1>  -0.5700 
 11 N       -5.3790    -4.3140     1.3270 N.am  1 <1>  -0.6600 
 12 C       -4.5370    -5.5020     1.6880 C.3   1 <1>   0.3210 
 13 C       -6.6690    -4.1850     2.0830 C.3   1 <1>   0.1400 
 14 C       -4.7790    -6.6750     0.7420 C.2   1 <1>   0.0460 
 15 C       -7.8700    -4.8600     1.3870 C.3   1 <1>   0.3430 
 16 N       -5.9610    -7.3310     0.7340 N.2   1 <1>  -0.5650 
 17 C       -3.9150    -7.2350    -0.1400 C.2   1 <1>  -0.3320 
 18 N       -8.0670    -4.3500    -0.0050 N.4   1 <1>  -0.9590 
 19 C       -5.7850    -8.2790    -0.1290 C.2   1 <1>   0.0360 
 20 N       -4.5640    -8.2720    -0.7000 N.pl3 1 <1>   0.0330 
 21 C       -2.4770    -6.8970    -0.5030 C.3   1 <1>  -0.0600 
 22 C       -9.4390    -3.8250    -0.2460 C.3   1 <1>   0.2630 
 23 C       -7.6740    -5.3830    -1.0030 C.3   1 <1>   0.2630 
 24 H       -2.7270    -2.8000     1.6810 H     1 <1>   0.1500 
 25 H       -1.9640    -3.7120    -3.1120 H     1 <1>   0.1500 
 26 H       -4.2550    -3.8090    -2.1770 H     1 <1>   0.1500 
 27 H       -4.7620    -5.8210     2.6900 H     1 <1>   0.0800 
 28 H       -3.4970    -5.2400     1.6720 H     1 <1>   0.0800 
 29 H       -6.8930    -3.1410     2.2200 H     1 <1>   0.0800 
 30 H       -6.5550    -4.6110     3.0650 H     1 <1>   0.0800 
 31 H       -8.7540    -4.6660     1.9720 H     1 <1>   0.0800 
 32 H       -7.7220    -5.9270     1.3750 H     1 <1>   0.0800 
 33 H       -7.3790    -3.5680    -0.1110 H     1 <1>   0.4500 
 34 H       -6.5240    -9.0210    -0.3800 H     1 <1>   0.1500 
 35 H       -4.2030    -8.9360    -1.3930 H     1 <1>   0.2700 
 36 H       -2.1170    -6.0620     0.0670 H     1 <1>   0.0800 
 37 H       -2.4050    -6.6520    -1.5480 H     1 <1>   0.0800 
 38 H       -1.8380    -7.7400    -0.3030 H     1 <1>   0.0800 
 39 H      -10.1660    -4.6130    -0.1380 H     1 <1>   0.0800 
 40 H       -9.5110    -3.4190    -1.2420 H     1 <1>   0.0800 
 41 H       -9.6660    -3.0410     0.4580 H     1 <1>   0.0800 
 42 H       -8.2680    -6.2730    -0.8770 H     1 <1>   0.0800 
 43 H       -6.6360    -5.6420    -0.8720 H     1 <1>   0.0800 
 44 H       -7.8080    -5.0070    -2.0040 H     1 <1>   0.0800 
@<TRIPOS>BOND
  1   1   2  1   
  2   2   3  ar  
  3   2   4  ar  
  4   3   5  1   
  5   3   6  ar  
  6   4   7  ar  
  7   4  24  1   
  8   6   8  ar  
  9   6  25  1   
 10   7   8  ar  
 11   7   9  1   
 12   8  26  1   
 13   9  10  2   
 14   9  11  am  
 15  11  12  1   
 16  11  13  1   
 17  12  14  1   
 18  12  27  1   
 19  12  28  1   
 20  13  15  1   
 21  13  29  1   
 22  13  30  1   
 23  14  16  1   
 24  14  17  2   
 25  15  18  1   
 26  15  31  1   
 27  15  32  1   
 28  16  19  2   
 29  17  20  1   
 30  17  21  1   
 31  18  22  1   
 32  18  23  1   
 33  18  33  1   
 34  19  20  1   
 35  19  34  1   
 36  20  35  1   
 37  21  36  1   
 38  21  37  1   
 39  21  38  1   
 40  22  39  1   
 41  22  40  1   
 42  22  41  1   
 43  23  42  1   
 44  23  43  1   
 45  23  44  1   
@<TRIPOS>SUBSTRUCTURE
  1 ****   9 GROUP 4 **** **** 0

# MOE 2024.06 (io_trps.svl 2023.06)
