@<TRIPOS>MOLECULE
NONAME
47 49 1 0 0 
SMALL
USER_CHARGES


@<TRIPOS>ATOM
  1 CL      -0.5410    -0.3420    -1.8050 Cl    1 <1>  -0.1770 
  2 C       -1.7280    -0.9510    -0.6670 C.ar  1 <1>   0.1770 
  3 C       -2.5700    -0.1330     0.1020 C.ar  1 <1>   0.0830 
  4 C       -1.8010    -2.3270    -0.5720 C.ar  1 <1>  -0.1500 
  5 O       -2.6200     1.2230     0.1260 O.3   1 <1>  -0.3630 
  6 C       -3.4710    -0.7550     0.9530 C.ar  1 <1>  -0.1500 
  7 C       -2.7130    -2.9530     0.2750 C.ar  1 <1>   0.0860 
  8 C       -1.6860     2.0740    -0.4930 C.3   1 <1>   0.1200 
  9 C       -3.5390    -2.1330     1.0420 C.ar  1 <1>  -0.1500 
 10 C       -2.7800    -4.3970     0.3500 C.2   1 <1>   0.5440 
 11 C       -1.9990     3.5050    -0.0660 C.3   1 <1>  -0.2400 
 12 O       -1.7770    -5.0300     0.6200 O.2   1 <1>  -0.5700 
 13 N       -3.9480    -5.0840     0.1110 N.am  1 <1>  -0.6600 
 14 C       -5.1780    -4.5220    -0.5050 C.3   1 <1>   0.1400 
 15 C       -4.0140    -6.5710     0.1070 C.3   1 <1>   0.1400 
 16 C       -6.1990    -5.6530    -0.4030 C.3   1 <1>   0.2000 
 17 C       -5.3480    -6.9140    -0.5670 C.3   1 <1>  -0.0800 
 18 O       -6.7400    -5.6220     0.8750 O.3   1 <1>  -0.6800 
 19 C       -5.9860    -8.2190    -0.0570 C.3   1 <1>   0.0210 
 20 C       -5.0550    -9.3940    -0.2800 C.2   1 <1>   0.1080 
 21 N       -4.6980    -9.7950    -1.4610 N.2   1 <1>  -0.7070 
 22 C       -4.4760   -10.1550     0.7310 C.2   1 <1>  -0.1500 
 23 N       -3.8740   -10.8350    -1.2320 N.pl3 1 <1>   0.3000 
 24 C       -3.7230   -11.0720     0.0880 C.2   1 <1>  -0.3320 
 25 C       -2.8530   -12.1750     0.6620 C.3   1 <1>  -0.0600 
 26 H       -1.1400    -2.9350    -1.1640 H     1 <1>   0.1500 
 27 H       -4.1210    -0.1420     1.5540 H     1 <1>   0.1500 
 28 H       -0.6980     1.7920    -0.1710 H     1 <1>   0.0800 
 29 H       -1.7830     1.9710    -1.5600 H     1 <1>   0.0800 
 30 H       -4.2390    -2.5880     1.7220 H     1 <1>   0.1500 
 31 H       -1.9170     3.5980     1.0020 H     1 <1>   0.0800 
 32 H       -2.9920     3.7740    -0.3770 H     1 <1>   0.0800 
 33 H       -1.3010     4.1810    -0.5250 H     1 <1>   0.0800 
 34 H       -5.5240    -3.6360    -0.0030 H     1 <1>   0.0800 
 35 H       -4.9810    -4.2990    -1.5390 H     1 <1>   0.0800 
 36 H       -3.1840    -6.9930    -0.4350 H     1 <1>   0.0800 
 37 H       -3.9890    -6.9260     1.1230 H     1 <1>   0.0800 
 38 H       -6.9980    -5.5750    -1.1200 H     1 <1>   0.0800 
 39 H       -5.1470    -7.0360    -1.6180 H     1 <1>   0.0800 
 40 H       -6.0040    -5.5780     1.5180 H     1 <1>   0.4000 
 41 H       -6.9030    -8.4020    -0.5880 H     1 <1>   0.0800 
 42 H       -6.2160    -8.1470     0.9900 H     1 <1>   0.0800 
 43 H       -4.6160   -10.0190     1.7880 H     1 <1>   0.1500 
 44 H       -3.4320   -11.3600    -1.9960 H     1 <1>   0.2700 
 45 H       -2.8970   -12.1580     1.7370 H     1 <1>   0.0800 
 46 H       -1.8300   -12.0380     0.3600 H     1 <1>   0.0800 
 47 H       -3.1960   -13.1350     0.3200 H     1 <1>   0.0800 
@<TRIPOS>BOND
  1   1   2  1   
  2   2   3  ar  
  3   2   4  ar  
  4   3   5  1   
  5   3   6  ar  
  6   4   7  ar  
  7   4  26  1   
  8   5   8  1   
  9   6   9  ar  
 10   6  27  1   
 11   7   9  ar  
 12   7  10  1   
 13   8  11  1   
 14   8  28  1   
 15   8  29  1   
 16   9  30  1   
 17  10  12  2   
 18  10  13  am  
 19  11  31  1   
 20  11  32  1   
 21  11  33  1   
 22  13  14  1   
 23  13  15  1   
 24  14  16  1   
 25  14  34  1   
 26  14  35  1   
 27  15  17  1   
 28  15  36  1   
 29  15  37  1   
 30  16  17  1   
 31  16  18  1   
 32  16  38  1   
 33  17  19  1   
 34  17  39  1   
 35  18  40  1   
 36  19  20  1   
 37  19  41  1   
 38  19  42  1   
 39  20  21  2   
 40  20  22  1   
 41  21  23  1   
 42  22  24  2   
 43  22  43  1   
 44  23  24  1   
 45  23  44  1   
 46  24  25  1   
 47  25  45  1   
 48  25  46  1   
 49  25  47  1   
@<TRIPOS>SUBSTRUCTURE
  1 ****  13 GROUP 4 **** **** 0

# MOE 2024.06 (io_trps.svl 2023.06)
