@<TRIPOS>MOLECULE
NONAME
48 49 1 0 0 
SMALL
USER_CHARGES


@<TRIPOS>ATOM
  1 O       -2.2150     0.7940     2.1360 O.2   1 <1>  -0.5700 
  2 C       -2.2030     0.8940     0.9290 C.2   1 <1>   0.5690 
  3 N       -2.0930    -0.2290     0.1410 N.am  1 <1>  -0.6600 
  4 C       -2.3370     2.2910     0.2910 C.3   1 <1>   0.1250 
  5 C       -2.4270    -1.5480     0.7380 C.3   1 <1>   0.3200 
  6 C       -1.4460    -0.2470    -1.2110 C.3   1 <1>   0.1400 
  7 C       -0.9880     2.8520    -0.1830 C.ar  1 <1>  -0.1440 
  8 C       -3.1440     3.3070     1.1530 C.3   1 <1>  -0.0800 
  9 C       -3.9330    -1.6770     0.8280 C.2   1 <1>  -0.3320 
 10 C       -2.4530    -0.2990    -2.3720 C.3   1 <1>   0.1200 
 11 C        0.1600     2.6970     0.5830 C.ar  1 <1>  -0.1500 
 12 C       -0.8970     3.5060    -1.4040 C.ar  1 <1>  -0.1500 
 13 C       -3.7260     4.4420     0.2930 C.3   1 <1>  -0.2400 
 14 C       -2.3440     3.9350     2.3100 C.3   1 <1>  -0.2400 
 15 N       -4.7320    -1.7620    -0.2480 N.pl3 1 <1>   0.0330 
 16 C       -4.7460    -1.7210     1.9050 C.2   1 <1>   0.0770 
 17 O       -3.0090    -1.5690    -2.5050 O.3   1 <1>  -0.6800 
 18 C        1.3750     3.1840     0.1360 C.ar  1 <1>  -0.1500 
 19 C        0.3170     3.9940    -1.8530 C.ar  1 <1>  -0.1500 
 20 C       -5.9850    -1.8630     0.2420 C.2   1 <1>   0.0060 
 21 N       -6.0360    -1.8460     1.5340 N.2   1 <1>  -0.5650 
 22 C        1.4550     3.8320    -1.0840 C.ar  1 <1>  -0.1500 
 23 C       -7.2020    -1.9830    -0.6480 C.3   1 <1>  -0.0600 
 24 H       -2.9330     2.1210    -0.5850 H     1 <1>   0.0800 
 25 H       -1.9960    -1.6220     1.7220 H     1 <1>   0.0800 
 26 H       -2.0270    -2.3470     0.1380 H     1 <1>   0.0800 
 27 H       -0.7690    -1.0800    -1.2790 H     1 <1>   0.0800 
 28 H       -0.8450     0.6350    -1.3270 H     1 <1>   0.0800 
 29 H       -3.9760     2.7730     1.5820 H     1 <1>   0.0800 
 30 H       -1.9620    -0.0590    -3.3000 H     1 <1>   0.0800 
 31 H       -3.2500     0.4060    -2.2100 H     1 <1>   0.0800 
 32 H        0.1120     2.1980     1.5370 H     1 <1>   0.1500 
 33 H       -1.7740     3.6450    -2.0130 H     1 <1>   0.1500 
 34 H       -2.9400     5.0410    -0.1310 H     1 <1>   0.0800 
 35 H       -4.3480     5.0800     0.8960 H     1 <1>   0.0800 
 36 H       -4.3300     4.0450    -0.5030 H     1 <1>   0.0800 
 37 H       -1.5410     4.5450     1.9370 H     1 <1>   0.0800 
 38 H       -1.9300     3.1750     2.9470 H     1 <1>   0.0800 
 39 H       -2.9870     4.5530     2.9110 H     1 <1>   0.0800 
 40 H       -4.4270    -1.7350    -1.2310 H     1 <1>   0.2700 
 41 H       -4.4670    -1.6640     2.9440 H     1 <1>   0.1500 
 42 H       -2.3480    -2.2000    -2.8560 H     1 <1>   0.4000 
 43 H        2.2580     3.0610     0.7390 H     1 <1>   0.1500 
 44 H        0.3780     4.5030    -2.7990 H     1 <1>   0.1500 
 45 H        2.4010     4.2130    -1.4300 H     1 <1>   0.1500 
 46 H       -7.1300    -2.8680    -1.2530 H     1 <1>   0.0800 
 47 H       -7.2780    -1.1200    -1.2830 H     1 <1>   0.0800 
 48 H       -8.0890    -2.0480    -0.0430 H     1 <1>   0.0800 
@<TRIPOS>BOND
  1   1   2  2   
  2   2   3  am  
  3   2   4  1   
  4   3   5  1   
  5   3   6  1   
  6   4   7  1   
  7   4   8  1   
  8   4  24  1   
  9   5   9  1   
 10   5  25  1   
 11   5  26  1   
 12   6  10  1   
 13   6  27  1   
 14   6  28  1   
 15   7  11  ar  
 16   7  12  ar  
 17   8  13  1   
 18   8  14  1   
 19   8  29  1   
 20   9  15  1   
 21   9  16  2   
 22  10  17  1   
 23  10  30  1   
 24  10  31  1   
 25  11  18  ar  
 26  11  32  1   
 27  12  19  ar  
 28  12  33  1   
 29  13  34  1   
 30  13  35  1   
 31  13  36  1   
 32  14  37  1   
 33  14  38  1   
 34  14  39  1   
 35  15  20  1   
 36  15  40  1   
 37  16  21  1   
 38  16  41  1   
 39  17  42  1   
 40  18  22  ar  
 41  18  43  1   
 42  19  22  ar  
 43  19  44  1   
 44  20  21  2   
 45  20  23  1   
 46  22  45  1   
 47  23  46  1   
 48  23  47  1   
 49  23  48  1   
@<TRIPOS>SUBSTRUCTURE
  1 ****   2 GROUP 4 **** **** 0

# MOE 2024.06 (io_trps.svl 2023.06)
