@<TRIPOS>MOLECULE
F8884-5060
21 21 1 0 0 
SMALL
USER_CHARGES


@<TRIPOS>ATOM
  1 N       -3.0780    -1.6680     0.0000 N.4   1 <1>  -0.8440 
  2 C       -2.0620    -0.5730     0.1260 C.3   1 <1>   0.4720 
  3 C       -4.1370    -0.6240    -0.1840 C.3   1 <1>   0.4720 
  4 C       -3.2140     0.3440     0.5900 C.3   1 <1>   0.0000 
  5 C       -3.1570     1.7780     0.0380 C.3   1 <1>  -0.1600 
  6 C       -4.4500     2.5490     0.3320 C.3   1 <1>  -0.1600 
  7 C       -4.3660     3.9790    -0.2050 C.3   1 <1>  -0.2400 
  8 H       -3.1960    -2.1890     0.8740 H     1 <1>   0.4500 
  9 H       -2.9410    -2.2670    -0.8200 H     1 <1>   0.4500 
 10 H       -1.6620    -0.3020    -0.8350 H     1 <1>   0.0000 
 11 H       -1.3240    -0.7820     0.8800 H     1 <1>   0.0000 
 12 H       -5.0510    -0.8720     0.3240 H     1 <1>   0.0000 
 13 H       -4.2510    -0.3650    -1.2210 H     1 <1>   0.0000 
 14 H       -3.3680     0.3020     1.6560 H     1 <1>   0.0000 
 15 H       -2.9860     1.7630    -1.0260 H     1 <1>   0.0800 
 16 H       -2.3300     2.2970     0.4950 H     1 <1>   0.0800 
 17 H       -4.6200     2.5870     1.3960 H     1 <1>   0.0800 
 18 H       -5.2940     2.0580    -0.1230 H     1 <1>   0.0800 
 19 H       -3.5510     4.5110     0.2540 H     1 <1>   0.0800 
 20 H       -5.2780     4.5080     0.0120 H     1 <1>   0.0800 
 21 H       -4.2220     3.9790    -1.2720 H     1 <1>   0.0800 
@<TRIPOS>BOND
  1   1   2  1   
  2   1   3  1   
  3   1   8  1   
  4   1   9  1   
  5   2   4  1   
  6   2  10  1   
  7   2  11  1   
  8   3   4  1   
  9   3  12  1   
 10   3  13  1   
 11   4   5  1   
 12   4  14  1   
 13   5   6  1   
 14   5  15  1   
 15   5  16  1   
 16   6   7  1   
 17   6  17  1   
 18   6  18  1   
 19   7  19  1   
 20   7  20  1   
 21   7  21  1   
@<TRIPOS>SUBSTRUCTURE
  1 ****   4 GROUP 4 **** **** 0

# MOE 2024.06 (io_trps.svl 2023.06)
