@<TRIPOS>MOLECULE
NONAME
45 48 1 0 0 
SMALL
USER_CHARGES


@<TRIPOS>ATOM
  1 S        2.2350     0.5410     1.8700 S.3   1 <1>  -0.0800 
  2 C        1.4060     1.6140     0.7480 C.2   1 <1>  -0.1400 
  3 C        1.5240    -0.8760     1.1210 C.2   1 <1>  -0.1100 
  4 C        0.6510     0.8940    -0.1060 C.2   1 <1>  -0.1500 
  5 C        1.6490     3.1090     0.9100 C.3   1 <1>   0.3800 
  6 C        0.7200    -0.5200     0.1030 C.2   1 <1>  -0.1500 
  7 O        0.8560     3.7770    -0.0050 O.3   1 <1>  -0.6800 
  8 C        3.1290     3.5050     0.6890 C.3   1 <1>  -0.0800 
  9 C        3.3660     5.0170     0.8590 C.3   1 <1>  -0.1600 
 10 C        3.6920     3.0550    -0.6740 C.3   1 <1>  -0.1600 
 11 C        4.8350     5.3870     0.6370 C.3   1 <1>   0.1100 
 12 C        5.1540     3.4770    -0.8330 C.3   1 <1>   0.1100 
 13 N        5.2760     4.9340    -0.6930 N.3   1 <1>  -0.8100 
 14 C        6.6600     5.3720    -1.0130 C.3   1 <1>   0.2900 
 15 C        6.8110     6.8710    -1.2780 C.2   1 <1>   0.2980 
 16 O        6.7890     7.7100    -0.2820 O.3   1 <1>  -0.2800 
 17 N        6.9990     7.4040    -2.4210 N.2   1 <1>  -0.3380 
 18 C        6.9600     8.8430    -0.9230 C.2   1 <1>   0.4250 
 19 N        7.0950     8.6930    -2.1950 N.2   1 <1>  -0.3380 
 20 C        6.9870    10.0890    -0.1930 C.ar  1 <1>   0.0530 
 21 C        6.8260    10.1280     1.1940 C.ar  1 <1>   0.1600 
 22 C        7.1730    11.3090    -0.8330 C.ar  1 <1>  -0.1500 
 23 N        6.8360    11.2140     1.9490 N.ar  1 <1>  -0.6200 
 24 C        7.1870    12.4540    -0.0660 C.ar  1 <1>  -0.1500 
 25 C        7.0160    12.3540     1.3030 C.ar  1 <1>   0.1600 
 26 H        1.7860    -1.8360     1.5280 H     1 <1>   0.1500 
 27 H        0.0320     1.3020    -0.8860 H     1 <1>   0.1500 
 28 H        1.3300     3.4160     1.8910 H     1 <1>   0.0800 
 29 H        0.1620    -1.1970    -0.5190 H     1 <1>   0.1500 
 30 H        1.1700     3.5530    -0.8990 H     1 <1>   0.4000 
 31 H        3.7020     3.0090     1.4530 H     1 <1>   0.0800 
 32 H        3.0700     5.3250     1.8460 H     1 <1>   0.0800 
 33 H        2.7700     5.5700     0.1530 H     1 <1>   0.0800 
 34 H        3.1270     3.4910    -1.4780 H     1 <1>   0.0800 
 35 H        3.6310     1.9850    -0.7660 H     1 <1>   0.0800 
 36 H        5.4470     4.9380     1.4010 H     1 <1>   0.0800 
 37 H        4.9230     6.4560     0.7110 H     1 <1>   0.0800 
 38 H        5.4940     3.1770    -1.8110 H     1 <1>   0.0800 
 39 H        5.7620     2.9830    -0.0940 H     1 <1>   0.0800 
 40 H        6.9820     4.8660    -1.9060 H     1 <1>   0.0800 
 41 H        7.3250     5.0870    -0.2170 H     1 <1>   0.0800 
 42 H        6.6790     9.1970     1.7130 H     1 <1>   0.1500 
 43 H        7.3030    11.3570    -1.9010 H     1 <1>   0.1500 
 44 H        7.3280    13.4170    -0.5230 H     1 <1>   0.1500 
 45 H        7.0290    13.2540     1.8950 H     1 <1>   0.1500 
@<TRIPOS>BOND
  1   1   2  1   
  2   1   3  1   
  3   2   4  2   
  4   2   5  1   
  5   3   6  2   
  6   3  26  1   
  7   4   6  1   
  8   4  27  1   
  9   5   7  1   
 10   5   8  1   
 11   5  28  1   
 12   6  29  1   
 13   7  30  1   
 14   8   9  1   
 15   8  10  1   
 16   8  31  1   
 17   9  11  1   
 18   9  32  1   
 19   9  33  1   
 20  10  12  1   
 21  10  34  1   
 22  10  35  1   
 23  11  13  1   
 24  11  36  1   
 25  11  37  1   
 26  12  13  1   
 27  12  38  1   
 28  12  39  1   
 29  13  14  1   
 30  14  15  1   
 31  14  40  1   
 32  14  41  1   
 33  15  16  1   
 34  15  17  2   
 35  16  18  1   
 36  17  19  1   
 37  18  19  2   
 38  18  20  1   
 39  20  21  ar  
 40  20  22  ar  
 41  21  23  ar  
 42  21  42  1   
 43  22  24  ar  
 44  22  43  1   
 45  23  25  ar  
 46  24  25  ar  
 47  24  44  1   
 48  25  45  1   
@<TRIPOS>SUBSTRUCTURE
  1 ****  11 GROUP 4 **** **** 0

# MOE 2024.06 (io_trps.svl 2023.06)
