@<TRIPOS>MOLECULE
NONAME
43 44 1 0 0 
SMALL
USER_CHARGES


@<TRIPOS>ATOM
  1 S        3.7960     1.2520     0.7550 S.o2  1 <1>   1.3330 
  2 O        4.2700     2.1790     1.7550 O.2   1 <1>  -0.6500 
  3 O        4.5530     0.0820     0.3940 O.2   1 <1>  -0.6500 
  4 N        3.5920     2.1180    -0.6680 N.am  1 <1>  -0.9140 
  5 C        2.1450     0.7390     1.1840 C.3   1 <1>  -0.1350 
  6 C        2.8320     3.3500    -0.5640 C.3   1 <1>   0.1960 
  7 C        3.0750     4.1990    -1.8050 C.3   1 <1>  -0.0990 
  8 C        2.6490     5.6120    -1.4970 C.2   1 <1>   0.5690 
  9 O        1.5380     5.9640    -1.8070 O.2   1 <1>  -0.5700 
 10 N        3.5450     6.3870    -0.8240 N.am  1 <1>  -0.4940 
 11 C        3.4100     7.6810    -0.2720 C.2   1 <1>  -0.0880 
 12 N        4.2350     8.2290     0.6710 N.pl3 1 <1>   0.3140 
 13 C        2.4770     8.6180    -0.5570 C.2   1 <1>  -0.1500 
 14 N        3.8470     9.4960     0.9710 N.2   1 <1>  -0.7070 
 15 C        5.3820     7.6050     1.4070 C.3   1 <1>   0.3190 
 16 C        2.8000     9.7090     0.2350 C.2   1 <1>   0.1390 
 17 C        6.0550     6.4990     0.5800 C.ar  1 <1>  -0.1430 
 18 C        4.9220     7.1500     2.8020 C.3   1 <1>  -0.2400 
 19 C        5.9170     5.1420     0.8620 C.ar  1 <1>  -0.1500 
 20 C        6.8010     6.8740    -0.5300 C.ar  1 <1>  -0.1500 
 21 C        6.4990     4.1910     0.0440 C.ar  1 <1>  -0.1500 
 22 C        7.3850     5.9220    -1.3470 C.ar  1 <1>  -0.1500 
 23 C        7.2320     4.5780    -1.0620 C.ar  1 <1>  -0.1500 
 24 H        3.2480     1.4860    -1.3870 H     1 <1>   0.4200 
 25 H        2.1750     0.1340     2.0700 H     1 <1>   0.0800 
 26 H        1.7150     0.1590     0.3920 H     1 <1>   0.0800 
 27 H        1.5230     1.5900     1.3770 H     1 <1>   0.0800 
 28 H        3.1690     3.8960     0.3040 H     1 <1>   0.0800 
 29 H        1.7800     3.1480    -0.4500 H     1 <1>   0.0800 
 30 H        2.5060     3.8240    -2.6350 H     1 <1>   0.0800 
 31 H        4.1190     4.1970    -2.0620 H     1 <1>   0.0800 
 32 H        4.4610     5.9470    -0.6630 H     1 <1>   0.3700 
 33 H        1.6570     8.5470    -1.2490 H     1 <1>   0.1500 
 34 H        6.1090     8.3840     1.5510 H     1 <1>   0.0800 
 35 H        2.2480    10.6340     0.2440 H     1 <1>   0.1500 
 36 H        4.1170     6.4410     2.7260 H     1 <1>   0.0800 
 37 H        4.5820     8.0000     3.3660 H     1 <1>   0.0800 
 38 H        5.7420     6.6990     3.3320 H     1 <1>   0.0800 
 39 H        5.3550     4.7900     1.7100 H     1 <1>   0.1500 
 40 H        6.9240     7.9170    -0.7730 H     1 <1>   0.1500 
 41 H        6.3810     3.1430     0.2730 H     1 <1>   0.1500 
 42 H        7.9590     6.2270    -2.2050 H     1 <1>   0.1500 
 43 H        7.6850     3.8330    -1.6940 H     1 <1>   0.1500 
@<TRIPOS>BOND
  1   1   2  2   
  2   1   3  2   
  3   1   4  am  
  4   1   5  1   
  5   4   6  1   
  6   4  24  1   
  7   5  25  1   
  8   5  26  1   
  9   5  27  1   
 10   6   7  1   
 11   6  28  1   
 12   6  29  1   
 13   7   8  1   
 14   7  30  1   
 15   7  31  1   
 16   8   9  2   
 17   8  10  am  
 18  10  11  1   
 19  10  32  1   
 20  11  12  1   
 21  11  13  2   
 22  12  14  1   
 23  12  15  1   
 24  13  16  1   
 25  13  33  1   
 26  14  16  2   
 27  15  17  1   
 28  15  18  1   
 29  15  34  1   
 30  16  35  1   
 31  17  19  ar  
 32  17  20  ar  
 33  18  36  1   
 34  18  37  1   
 35  18  38  1   
 36  19  21  ar  
 37  19  39  1   
 38  20  22  ar  
 39  20  40  1   
 40  21  23  ar  
 41  21  41  1   
 42  22  23  ar  
 43  22  42  1   
 44  23  43  1   
@<TRIPOS>SUBSTRUCTURE
  1 ****  10 GROUP 4 **** **** 0

# MOE 2024.06 (io_trps.svl 2023.06)
