@<TRIPOS>MOLECULE
NONAME
58 62 1 0 0 
SMALL
USER_CHARGES


@<TRIPOS>ATOM
  1 O       -0.0480    -0.4600     0.2990 O.2   1 <1>  -0.5700 
  2 C        1.0780    -0.9040     0.2490 C.2   1 <1>   0.5690 
  3 N        2.1940    -0.0930     0.1460 N.am  1 <1>  -0.4770 
  4 C        1.2720    -2.4380     0.3010 C.3   1 <1>   0.1710 
  5 C        2.2530     1.3070     0.0520 C.ar  1 <1>   0.1170 
  6 C        3.5900    -0.6210     0.1600 C.3   1 <1>   0.1400 
  7 N        0.0330    -3.2720     0.2360 N.3   1 <1>  -0.8100 
  8 C        3.5560     1.7570     0.0140 C.ar  1 <1>  -0.1430 
  9 C        1.2190     2.2350    -0.0060 C.ar  1 <1>  -0.1500 
 10 C        4.5170     0.6020     0.0900 C.3   1 <1>  -0.0170 
 11 C       -0.6780    -3.1570    -1.0630 C.3   1 <1>   0.1100 
 12 C        0.2470    -4.6930     0.5890 C.3   1 <1>   0.1100 
 13 C        3.8620     3.1010    -0.0820 C.ar  1 <1>  -0.1500 
 14 C        1.5090     3.5860    -0.1020 C.ar  1 <1>  -0.1500 
 15 C       -2.0430    -3.8850    -1.0350 C.3   1 <1>   0.3430 
 16 C       -1.0840    -5.4890     0.5870 C.3   1 <1>   0.3430 
 17 C        2.8260     4.0200    -0.1410 C.ar  1 <1>  -0.1500 
 18 N       -2.2470    -4.5890     0.2800 N.4   1 <1>  -0.9590 
 19 C       -3.5820    -5.2120     0.5090 C.3   1 <1>   0.4230 
 20 C       -3.9080    -6.3120    -0.5120 C.3   1 <1>  -0.0170 
 21 C       -4.6710    -4.1380     0.4980 C.3   1 <1>  -0.1600 
 22 C       -5.3300    -6.8230    -0.3420 C.ar  1 <1>  -0.1430 
 23 C       -5.9920    -4.7410     0.9870 C.3   1 <1>  -0.0170 
 24 C       -6.2950    -6.0890     0.3420 C.ar  1 <1>  -0.1430 
 25 C       -5.6670    -8.0490    -0.8980 C.ar  1 <1>  -0.1500 
 26 C       -7.5800    -6.5950     0.4600 C.ar  1 <1>  -0.1500 
 27 C       -6.9510    -8.5460    -0.7750 C.ar  1 <1>  -0.1500 
 28 C       -7.9090    -7.8180    -0.0950 C.ar  1 <1>  -0.1500 
 29 H        1.7750    -2.6530     1.2260 H     1 <1>   0.0800 
 30 H        1.9230    -2.7260    -0.5040 H     1 <1>   0.0800 
 31 H        3.7510    -1.2540    -0.6950 H     1 <1>   0.0800 
 32 H        3.7680    -1.1700     1.0680 H     1 <1>   0.0800 
 33 H        0.1950     1.9140     0.0230 H     1 <1>   0.1500 
 34 H        5.1430     0.5630    -0.7830 H     1 <1>   0.0800 
 35 H        5.1280     0.6720     0.9720 H     1 <1>   0.0800 
 36 H       -0.0700    -3.5650    -1.8520 H     1 <1>   0.0800 
 37 H       -0.8570    -2.1220    -1.3010 H     1 <1>   0.0800 
 38 H        0.6840    -4.7530     1.5720 H     1 <1>   0.0800 
 39 H        0.9370    -5.1460    -0.1030 H     1 <1>   0.0800 
 40 H        4.8850     3.4320    -0.1110 H     1 <1>   0.1500 
 41 H        0.7080     4.3020    -0.1470 H     1 <1>   0.1500 
 42 H       -2.0880    -4.5890    -1.8490 H     1 <1>   0.0800 
 43 H       -2.8210    -3.1560    -1.1850 H     1 <1>   0.0800 
 44 H       -1.2180    -5.9460     1.5540 H     1 <1>   0.0800 
 45 H       -1.0250    -6.2780    -0.1440 H     1 <1>   0.0800 
 46 H        3.0430     5.0710    -0.2150 H     1 <1>   0.1500 
 47 H       -2.1200    -3.8170     0.9570 H     1 <1>   0.4500 
 48 H       -3.5860    -5.6630     1.4880 H     1 <1>   0.0800 
 49 H       -3.2270    -7.1330    -0.3870 H     1 <1>   0.0800 
 50 H       -3.8200    -5.9350    -1.5140 H     1 <1>   0.0800 
 51 H       -4.8180    -3.7650    -0.5000 H     1 <1>   0.0800 
 52 H       -4.4040    -3.3190     1.1420 H     1 <1>   0.0800 
 53 H       -6.7950    -4.0540     0.7800 H     1 <1>   0.0800 
 54 H       -5.9510    -4.8810     2.0540 H     1 <1>   0.0800 
 55 H       -4.9350    -8.6280    -1.4340 H     1 <1>   0.1500 
 56 H       -8.3360    -6.0410     0.9880 H     1 <1>   0.1500 
 57 H       -7.2070    -9.4980    -1.2080 H     1 <1>   0.1500 
 58 H       -8.9100    -8.2030     0.0020 H     1 <1>   0.1500 
@<TRIPOS>BOND
  1   1   2  2   
  2   2   3  am  
  3   2   4  1   
  4   3   5  1   
  5   3   6  1   
  6   4   7  1   
  7   4  29  1   
  8   4  30  1   
  9   5   8  ar  
 10   5   9  ar  
 11   6  10  1   
 12   6  31  1   
 13   6  32  1   
 14   7  11  1   
 15   7  12  1   
 16   8  10  1   
 17   8  13  ar  
 18   9  14  ar  
 19   9  33  1   
 20  10  34  1   
 21  10  35  1   
 22  11  15  1   
 23  11  36  1   
 24  11  37  1   
 25  12  16  1   
 26  12  38  1   
 27  12  39  1   
 28  13  17  ar  
 29  13  40  1   
 30  14  17  ar  
 31  14  41  1   
 32  15  18  1   
 33  15  42  1   
 34  15  43  1   
 35  16  18  1   
 36  16  44  1   
 37  16  45  1   
 38  17  46  1   
 39  18  19  1   
 40  18  47  1   
 41  19  20  1   
 42  19  21  1   
 43  19  48  1   
 44  20  22  1   
 45  20  49  1   
 46  20  50  1   
 47  21  23  1   
 48  21  51  1   
 49  21  52  1   
 50  22  24  ar  
 51  22  25  ar  
 52  23  24  1   
 53  23  53  1   
 54  23  54  1   
 55  24  26  ar  
 56  25  27  ar  
 57  25  55  1   
 58  26  28  ar  
 59  26  56  1   
 60  27  28  ar  
 61  27  57  1   
 62  28  58  1   
@<TRIPOS>SUBSTRUCTURE
  1 ****  11 GROUP 4 **** **** 0

# MOE 2024.06 (io_trps.svl 2023.06)
