@<TRIPOS>MOLECULE
NONAME
47 49 1 0 0 
SMALL
USER_CHARGES


@<TRIPOS>ATOM
  1 O       -1.5900    -2.5930    -0.3090 O.2   1 <1>  -0.5700 
  2 C       -1.1440    -3.3350     0.5570 C.2   1 <1>   0.6900 
  3 N       -0.3540    -4.4300     0.3370 N.am  1 <1>  -0.4690 
  4 N       -1.3810    -3.2200     1.8790 N.am  1 <1>  -0.5390 
  5 C       -0.0810    -4.9810     1.5880 C.2   1 <1>  -0.0410 
  6 C        0.3410    -4.7810    -0.9290 C.3   1 <1>   0.1400 
  7 C       -0.7070    -4.2480     2.5240 C.2   1 <1>  -0.0410 
  8 C       -0.5540    -4.5760    -2.1660 C.3   1 <1>   0.3430 
  9 N       -1.8720    -5.2670    -2.0250 N.4   1 <1>  -0.9590 
 10 C       -1.8260    -6.7520    -2.2240 C.3   1 <1>   0.3430 
 11 C       -2.9610    -4.5820    -2.7690 C.3   1 <1>   0.3430 
 12 C       -3.1110    -7.4430    -1.7250 C.3   1 <1>   0.2090 
 13 C       -4.1630    -4.3680    -1.8440 C.3   1 <1>  -0.1600 
 14 N       -3.8500    -6.5660    -0.7650 N.pl3 1 <1>  -0.8380 
 15 C       -4.8500    -5.6510    -1.3700 C.3   1 <1>   0.2090 
 16 C       -4.1320    -7.0710     0.5050 C.ar  1 <1>   0.1000 
 17 C       -4.9480    -8.1850     0.7340 C.ar  1 <1>  -0.1430 
 18 C       -3.5660    -6.4200     1.5930 C.ar  1 <1>  -0.1500 
 19 C       -5.1500    -8.6260     2.0330 C.ar  1 <1>  -0.1500 
 20 C       -5.6430    -8.9390    -0.3930 C.3   1 <1>  -0.0970 
 21 C       -3.7750    -6.8630     2.8840 C.ar  1 <1>  -0.1500 
 22 C       -4.5670    -7.9740     3.1050 C.ar  1 <1>  -0.1500 
 23 H       -1.9280    -2.4570     2.2810 H     1 <1>   0.3700 
 24 H        0.5450    -5.8510     1.7120 H     1 <1>   0.1500 
 25 H        0.6660    -5.8050    -0.8820 H     1 <1>   0.0800 
 26 H        1.2160    -4.1610    -1.0220 H     1 <1>   0.0800 
 27 H       -0.7280    -4.3650     3.5960 H     1 <1>   0.1500 
 28 H       -0.0460    -4.9230    -3.0500 H     1 <1>   0.0800 
 29 H       -0.7180    -3.5160    -2.2780 H     1 <1>   0.0800 
 30 H       -2.1770    -5.1770    -1.0340 H     1 <1>   0.4500 
 31 H       -1.0030    -7.1550    -1.6580 H     1 <1>   0.0800 
 32 H       -1.6610    -6.9920    -3.2610 H     1 <1>   0.0800 
 33 H       -3.2490    -5.1590    -3.6320 H     1 <1>   0.0800 
 34 H       -2.6170    -3.6170    -3.1050 H     1 <1>   0.0800 
 35 H       -2.8450    -8.3700    -1.2460 H     1 <1>   0.0800 
 36 H       -3.7420    -7.6810    -2.5630 H     1 <1>   0.0800 
 37 H       -4.8920    -3.7790    -2.3700 H     1 <1>   0.0800 
 38 H       -3.8640    -3.7920    -0.9870 H     1 <1>   0.0800 
 39 H       -5.3420    -6.1390    -2.1940 H     1 <1>   0.0800 
 40 H       -5.6020    -5.4050    -0.6370 H     1 <1>   0.0800 
 41 H       -2.9590    -5.5550     1.4190 H     1 <1>   0.1500 
 42 H       -5.7690    -9.4850     2.2240 H     1 <1>   0.1500 
 43 H       -6.0430    -8.2530    -1.1150 H     1 <1>   0.0800 
 44 H       -6.4580    -9.5270    -0.0110 H     1 <1>   0.0800 
 45 H       -4.9470    -9.6000    -0.8770 H     1 <1>   0.0800 
 46 H       -3.3270    -6.3470     3.7140 H     1 <1>   0.1500 
 47 H       -4.7340    -8.3280     4.1070 H     1 <1>   0.1500 
@<TRIPOS>BOND
  1   1   2  2   
  2   2   3  am  
  3   2   4  am  
  4   3   5  1   
  5   3   6  1   
  6   4   7  1   
  7   4  23  1   
  8   5   7  2   
  9   5  24  1   
 10   6   8  1   
 11   6  25  1   
 12   6  26  1   
 13   7  27  1   
 14   8   9  1   
 15   8  28  1   
 16   8  29  1   
 17   9  10  1   
 18   9  11  1   
 19   9  30  1   
 20  10  12  1   
 21  10  31  1   
 22  10  32  1   
 23  11  13  1   
 24  11  33  1   
 25  11  34  1   
 26  12  14  1   
 27  12  35  1   
 28  12  36  1   
 29  13  15  1   
 30  13  37  1   
 31  13  38  1   
 32  14  15  1   
 33  14  16  1   
 34  15  39  1   
 35  15  40  1   
 36  16  17  ar  
 37  16  18  ar  
 38  17  19  ar  
 39  17  20  1   
 40  18  21  ar  
 41  18  41  1   
 42  19  22  ar  
 43  19  42  1   
 44  20  43  1   
 45  20  44  1   
 46  20  45  1   
 47  21  22  ar  
 48  21  46  1   
 49  22  47  1   
@<TRIPOS>SUBSTRUCTURE
  1 ****  14 GROUP 4 **** **** 0

# MOE 2024.06 (io_trps.svl 2023.06)
