@<TRIPOS>MOLECULE
NONAME
45 47 1 0 0 
SMALL
USER_CHARGES


@<TRIPOS>ATOM
  1 O        2.1310    -0.8240    -2.5900 O.2   1 <1>  -0.5700 
  2 C        2.3760    -1.0910    -1.4410 C.2   1 <1>   0.5690 
  3 N        3.0400    -0.1910    -0.6370 N.am  1 <1>  -0.6600 
  4 C        1.9340    -2.4590    -0.9510 C.3   1 <1>  -0.0990 
  5 C        3.6050    -0.5360     0.7230 C.3   1 <1>   0.2200 
  6 C        3.2450     1.2050    -1.1620 C.3   1 <1>   0.1400 
  7 C        0.6340    -2.3710    -0.1420 C.3   1 <1>  -0.0160 
  8 C        3.2690     0.5130     1.7980 C.3   1 <1>   0.1200 
  9 C        5.1340    -0.7730     0.6340 C.3   1 <1>   0.3430 
 10 C        4.4080     1.9970    -0.5350 C.3   1 <1>  -0.0800 
 11 C        0.2890    -3.7250     0.4520 C.ar  1 <1>  -0.1440 
 12 O        4.2300     1.5230     1.8200 O.3   1 <1>  -0.5600 
 13 N        5.7370    -0.1840    -0.6140 N.4   1 <1>  -0.9590 
 14 C        4.0720     2.5200     0.8690 C.3   1 <1>   0.1200 
 15 C        5.7890     1.3120    -0.5890 C.3   1 <1>   0.3430 
 16 C        0.4450    -4.0020     1.7950 C.ar  1 <1>  -0.1500 
 17 C       -0.2000    -4.7530    -0.3290 C.ar  1 <1>  -0.1500 
 18 C        7.0760    -0.7700    -0.9110 C.3   1 <1>   0.2630 
 19 C        0.1210    -5.2600     2.2770 C.ar  1 <1>   0.1600 
 20 C       -0.4930    -5.9760     0.2520 C.ar  1 <1>   0.1600 
 21 N       -0.3400    -6.2540     1.5370 N.ar  1 <1>  -0.6200 
 22 H        1.7610    -3.0840    -1.8090 H     1 <1>   0.0800 
 23 H        2.7100    -2.9300    -0.3800 H     1 <1>   0.0800 
 24 H        3.1570    -1.4450     1.0760 H     1 <1>   0.0800 
 25 H        3.4160     1.1570    -2.2250 H     1 <1>   0.0800 
 26 H        2.3270     1.7530    -1.0250 H     1 <1>   0.0800 
 27 H       -0.1670    -2.0460    -0.7850 H     1 <1>   0.0800 
 28 H        0.7320    -1.6440     0.6450 H     1 <1>   0.0800 
 29 H        3.3000     0.0470     2.7670 H     1 <1>   0.0800 
 30 H        2.2860     0.9320     1.6590 H     1 <1>   0.0800 
 31 H        5.3030    -1.8360     0.6370 H     1 <1>   0.0800 
 32 H        5.6160    -0.3670     1.5090 H     1 <1>   0.0800 
 33 H        4.5000     2.8870    -1.1320 H     1 <1>   0.0800 
 34 H        5.0690    -0.4300    -1.3670 H     1 <1>   0.4500 
 35 H        3.0690     2.9100     0.9240 H     1 <1>   0.0800 
 36 H        4.7510     3.3130     1.1360 H     1 <1>   0.0800 
 37 H        6.3780     1.6410     0.2530 H     1 <1>   0.0800 
 38 H        6.2880     1.6480    -1.4830 H     1 <1>   0.0800 
 39 H        0.8100    -3.2570     2.4770 H     1 <1>   0.1500 
 40 H       -0.3570    -4.6170    -1.3840 H     1 <1>   0.1500 
 41 H        7.7740    -0.5250    -0.1270 H     1 <1>   0.0800 
 42 H        7.4550    -0.3830    -1.8440 H     1 <1>   0.0800 
 43 H        7.0070    -1.8430    -0.9910 H     1 <1>   0.0800 
 44 H        0.2470    -5.4600     3.3270 H     1 <1>   0.1500 
 45 H       -0.8730    -6.7670    -0.3720 H     1 <1>   0.1500 
@<TRIPOS>BOND
  1   1   2  2   
  2   2   3  am  
  3   2   4  1   
  4   3   5  1   
  5   3   6  1   
  6   4   7  1   
  7   4  22  1   
  8   4  23  1   
  9   5   8  1   
 10   5   9  1   
 11   5  24  1   
 12   6  10  1   
 13   6  25  1   
 14   6  26  1   
 15   7  11  1   
 16   7  27  1   
 17   7  28  1   
 18   8  12  1   
 19   8  29  1   
 20   8  30  1   
 21   9  13  1   
 22   9  31  1   
 23   9  32  1   
 24  10  14  1   
 25  10  15  1   
 26  10  33  1   
 27  11  16  ar  
 28  11  17  ar  
 29  12  14  1   
 30  13  15  1   
 31  13  18  1   
 32  13  34  1   
 33  14  35  1   
 34  14  36  1   
 35  15  37  1   
 36  15  38  1   
 37  16  19  ar  
 38  16  39  1   
 39  17  20  ar  
 40  17  40  1   
 41  18  41  1   
 42  18  42  1   
 43  18  43  1   
 44  19  21  ar  
 45  19  44  1   
 46  20  21  ar  
 47  20  45  1   
@<TRIPOS>SUBSTRUCTURE
  1 ****   5 GROUP 4 **** **** 0

# MOE 2024.06 (io_trps.svl 2023.06)
