@<TRIPOS>MOLECULE
NONAME
52 54 1 0 0 
SMALL
USER_CHARGES


@<TRIPOS>ATOM
  1 O        5.0930     0.8690    -2.7950 O.2   1 <1>  -0.5700 
  2 C        4.8120     1.6880    -1.9530 C.2   1 <1>   0.5690 
  3 N        4.0510     1.4650    -0.8590 N.am  1 <1>  -0.6600 
  4 C        5.2770     3.1150    -2.0000 C.3   1 <1>  -0.0990 
  5 C        3.9150     2.6650    -0.0190 C.3   1 <1>   0.1400 
  6 C        3.4220     0.1780    -0.4970 C.3   1 <1>   0.1400 
  7 C        4.9490     3.6520    -0.5860 C.3   1 <1>  -0.0190 
  8 C        1.9070     0.2860    -0.6470 C.3   1 <1>  -0.2400 
  9 C        4.4450     5.0950    -0.5050 C.2   1 <1>   0.5690 
 10 O        4.3060     5.7120    -1.5380 O.2   1 <1>  -0.5700 
 11 N        4.1320     5.6760     0.7060 N.am  1 <1>  -0.6600 
 12 C        4.4620     5.0860     2.0510 C.3   1 <1>   0.1400 
 13 C        3.5380     7.0460     0.7300 C.3   1 <1>   0.1400 
 14 C        5.1250     6.0810     3.0210 C.3   1 <1>   0.1400 
 15 C        4.6330     8.1200     0.6400 C.3   1 <1>  -0.1600 
 16 N        6.0960     6.9480     2.2970 N.am  1 <1>  -0.6600 
 17 C        5.5250     8.2570     1.8820 C.3   1 <1>   0.1400 
 18 C        7.2920     6.4030     1.8890 C.2   1 <1>   0.5690 
 19 O        7.6800     5.3560     2.3600 O.2   1 <1>  -0.5700 
 20 C        8.1790     7.0560     0.8350 C.3   1 <1>   0.0440 
 21 C        8.2990     6.1970    -0.4210 C.ar  1 <1>  -0.1430 
 22 C        7.5830     6.4580    -1.5720 C.ar  1 <1>  -0.1500 
 23 C        9.1410     5.1040    -0.4650 C.ar  1 <1>  -0.1500 
 24 C        7.7440     5.6430    -2.6800 C.ar  1 <1>   0.1600 
 25 C        9.2330     4.3540    -1.6260 C.ar  1 <1>   0.1600 
 26 N        8.5590     4.6020    -2.7370 N.ar  1 <1>  -0.6200 
 27 H        4.7280     3.6180    -2.7740 H     1 <1>   0.0800 
 28 H        6.3280     3.1580    -2.2110 H     1 <1>   0.0800 
 29 H        4.1160     2.4290     1.0110 H     1 <1>   0.0800 
 30 H        2.9170     3.0560    -0.1210 H     1 <1>   0.0800 
 31 H        3.6840    -0.0790     0.5150 H     1 <1>   0.0800 
 32 H        3.7950    -0.5950    -1.1490 H     1 <1>   0.0800 
 33 H        5.8500     3.5780    -0.0050 H     1 <1>   0.0800 
 34 H        1.5070     1.0130     0.0350 H     1 <1>   0.0800 
 35 H        1.4560    -0.6660    -0.4350 H     1 <1>   0.0800 
 36 H        1.6590     0.5640    -1.6560 H     1 <1>   0.0800 
 37 H        5.1460     4.2650     1.9400 H     1 <1>   0.0800 
 38 H        3.5640     4.7020     2.5010 H     1 <1>   0.0800 
 39 H        2.9480     7.1790     1.6200 H     1 <1>   0.0800 
 40 H        2.8760     7.1520    -0.1130 H     1 <1>   0.0800 
 41 H        5.6340     5.5350     3.7970 H     1 <1>   0.0800 
 42 H        4.3710     6.6820     3.4960 H     1 <1>   0.0800 
 43 H        4.1550     9.0680     0.4740 H     1 <1>   0.0800 
 44 H        5.2410     7.9290    -0.2230 H     1 <1>   0.0800 
 45 H        4.9400     8.6540     2.6950 H     1 <1>   0.0800 
 46 H        6.3100     8.9670     1.6950 H     1 <1>   0.0800 
 47 H        9.1550     7.1860     1.2630 H     1 <1>   0.0800 
 48 H        7.8220     8.0260     0.5610 H     1 <1>   0.0800 
 49 H        6.8950     7.2790    -1.6280 H     1 <1>   0.1500 
 50 H        9.7210     4.8260     0.3970 H     1 <1>   0.1500 
 51 H        7.1690     5.8610    -3.5640 H     1 <1>   0.1500 
 52 H        9.8950     3.5060    -1.6390 H     1 <1>   0.1500 
@<TRIPOS>BOND
  1   1   2  2   
  2   2   3  am  
  3   2   4  1   
  4   3   5  1   
  5   3   6  1   
  6   4   7  1   
  7   4  27  1   
  8   4  28  1   
  9   5   7  1   
 10   5  29  1   
 11   5  30  1   
 12   6   8  1   
 13   6  31  1   
 14   6  32  1   
 15   7   9  1   
 16   7  33  1   
 17   8  34  1   
 18   8  35  1   
 19   8  36  1   
 20   9  10  2   
 21   9  11  am  
 22  11  12  1   
 23  11  13  1   
 24  12  14  1   
 25  12  37  1   
 26  12  38  1   
 27  13  15  1   
 28  13  39  1   
 29  13  40  1   
 30  14  16  1   
 31  14  41  1   
 32  14  42  1   
 33  15  17  1   
 34  15  43  1   
 35  15  44  1   
 36  16  17  1   
 37  16  18  am  
 38  17  45  1   
 39  17  46  1   
 40  18  19  2   
 41  18  20  1   
 42  20  21  1   
 43  20  47  1   
 44  20  48  1   
 45  21  22  ar  
 46  21  23  ar  
 47  22  24  ar  
 48  22  49  1   
 49  23  25  ar  
 50  23  50  1   
 51  24  26  ar  
 52  24  51  1   
 53  25  26  ar  
 54  25  52  1   
@<TRIPOS>SUBSTRUCTURE
  1 ****   9 GROUP 4 **** **** 0

# MOE 2024.06 (io_trps.svl 2023.06)
