@<TRIPOS>MOLECULE
NONAME
54 58 1 0 0 
SMALL
USER_CHARGES


@<TRIPOS>ATOM
  1 O       -1.3270     1.5940     2.1740 O.2   1 <1>  -0.5700 
  2 C       -2.1090     1.5340     1.2530 C.2   1 <1>   0.5690 
  3 N       -3.0250     0.5130     1.1570 N.am  1 <1>  -0.6600 
  4 C       -2.0330     2.6390     0.1970 C.3   1 <1>  -0.0190 
  5 C       -2.9920    -0.6050     2.1520 C.3   1 <1>   0.1400 
  6 C       -4.0840     0.4420     0.1020 C.3   1 <1>   0.1400 
  7 C       -0.5590     3.0040    -0.0530 C.3   1 <1>   0.0960 
  8 C       -2.8640     3.8670     0.6230 C.3   1 <1>  -0.2400 
  9 C       -3.3920    -1.9070     1.4670 C.3   1 <1>  -0.1600 
 10 C       -5.2640    -0.4180     0.5560 C.3   1 <1>  -0.1600 
 11 N       -0.4170     3.9020    -1.2130 N.pl3 1 <1>   0.3140 
 12 C       -4.8400    -1.8400     0.9630 C.3   1 <1>   0.4600 
 13 N       -0.6720     3.4890    -2.4700 N.2   1 <1>  -0.7070 
 14 C       -0.0370     5.1950    -1.1930 C.2   1 <1>  -0.3020 
 15 O       -5.6420    -2.2240     2.0560 O.3   1 <1>  -0.5600 
 16 C       -5.0490    -2.8310    -0.1790 C.2   1 <1>  -0.3320 
 17 C       -0.4450     4.5290    -3.2140 C.2   1 <1>   0.1390 
 18 C       -0.0450     5.6310    -2.4700 C.2   1 <1>  -0.1500 
 19 C       -6.9570    -2.6490     1.7870 C.3   1 <1>   0.1200 
 20 N       -4.3320    -2.9030    -1.3420 N.pl3 1 <1>   0.0330 
 21 C       -6.0000    -3.7860    -0.1860 C.2   1 <1>  -0.1810 
 22 C       -6.9590    -3.9500     0.9670 C.3   1 <1>   0.0210 
 23 C       -4.8430    -3.9320    -2.0940 C.ar  1 <1>  -0.1520 
 24 C       -5.8960    -4.5120    -1.3910 C.ar  1 <1>   0.0000 
 25 C       -4.4690    -4.4170    -3.3500 C.ar  1 <1>  -0.1500 
 26 C       -6.5880    -5.5930    -1.9460 C.ar  1 <1>  -0.1500 
 27 C       -5.1580    -5.4800    -3.8860 C.ar  1 <1>  -0.1500 
 28 C       -6.2180    -6.0680    -3.1840 C.ar  1 <1>  -0.1500 
 29 H       -2.4180     2.2580    -0.7300 H     1 <1>   0.0800 
 30 H       -3.6700    -0.3870     2.9590 H     1 <1>   0.0800 
 31 H       -2.0020    -0.7090     2.5630 H     1 <1>   0.0800 
 32 H       -3.6570     0.0280    -0.7950 H     1 <1>   0.0800 
 33 H       -4.4470     1.4310    -0.1210 H     1 <1>   0.0800 
 34 H        0.0050     2.1120    -0.2590 H     1 <1>   0.0800 
 35 H       -0.1380     3.4790     0.8130 H     1 <1>   0.0800 
 36 H       -2.4580     4.2990     1.5210 H     1 <1>   0.0800 
 37 H       -3.8820     3.5790     0.8180 H     1 <1>   0.0800 
 38 H       -2.8670     4.6130    -0.1520 H     1 <1>   0.0800 
 39 H       -3.2880    -2.7350     2.1440 H     1 <1>   0.0800 
 40 H       -2.7120    -2.0730     0.6530 H     1 <1>   0.0800 
 41 H       -5.9900    -0.4710    -0.2360 H     1 <1>   0.0800 
 42 H       -5.7240     0.0760     1.3930 H     1 <1>   0.0800 
 43 H        0.2120     5.7220    -0.2900 H     1 <1>   0.1500 
 44 H       -0.5570     4.5270    -4.2860 H     1 <1>   0.1500 
 45 H        0.1990     6.6040    -2.8570 H     1 <1>   0.1500 
 46 H       -7.4650    -1.8680     1.2500 H     1 <1>   0.0800 
 47 H       -7.4520    -2.8020     2.7290 H     1 <1>   0.0800 
 48 H       -3.5320    -2.3220    -1.6110 H     1 <1>   0.2700 
 49 H       -7.9500    -4.1480     0.6020 H     1 <1>   0.0800 
 50 H       -6.6470    -4.7730     1.5840 H     1 <1>   0.0800 
 51 H       -3.6540    -3.9600    -3.8820 H     1 <1>   0.1500 
 52 H       -7.3970    -6.0340    -1.3960 H     1 <1>   0.1500 
 53 H       -4.8900    -5.8710    -4.8510 H     1 <1>   0.1500 
 54 H       -6.7400    -6.8990    -3.6240 H     1 <1>   0.1500 
@<TRIPOS>BOND
  1   1   2  2   
  2   2   3  am  
  3   2   4  1   
  4   3   5  1   
  5   3   6  1   
  6   4   7  1   
  7   4   8  1   
  8   4  29  1   
  9   5   9  1   
 10   5  30  1   
 11   5  31  1   
 12   6  10  1   
 13   6  32  1   
 14   6  33  1   
 15   7  11  1   
 16   7  34  1   
 17   7  35  1   
 18   8  36  1   
 19   8  37  1   
 20   8  38  1   
 21   9  12  1   
 22   9  39  1   
 23   9  40  1   
 24  10  12  1   
 25  10  41  1   
 26  10  42  1   
 27  11  13  1   
 28  11  14  1   
 29  12  15  1   
 30  12  16  1   
 31  13  17  2   
 32  14  18  2   
 33  14  43  1   
 34  15  19  1   
 35  16  20  1   
 36  16  21  2   
 37  17  18  1   
 38  17  44  1   
 39  18  45  1   
 40  19  22  1   
 41  19  46  1   
 42  19  47  1   
 43  20  23  1   
 44  20  48  1   
 45  21  22  1   
 46  21  24  1   
 47  22  49  1   
 48  22  50  1   
 49  23  24  ar  
 50  23  25  ar  
 51  24  26  ar  
 52  25  27  ar  
 53  25  51  1   
 54  26  28  ar  
 55  26  52  1   
 56  27  28  ar  
 57  27  53  1   
 58  28  54  1   
@<TRIPOS>SUBSTRUCTURE
  1 ****   6 GROUP 4 **** **** 0

# MOE 2024.06 (io_trps.svl 2023.06)
