@<TRIPOS>MOLECULE
NONAME
60 63 1 0 0 
SMALL
USER_CHARGES


@<TRIPOS>ATOM
  1 O        2.6370     2.3330     2.3420 O.co2 1 <1>  -0.9000 
  2 C        2.1160     1.3070     1.8780 C.2   1 <1>   0.9060 
  3 O        1.5890     0.4740     2.6140 O.co2 1 <1>  -0.9000 
  4 C        2.3890     0.9070     0.4210 C.3   1 <1>  -0.1060 
  5 C        3.3420    -0.3030     0.5540 C.3   1 <1>   0.2000 
  6 C        3.1300     2.0320    -0.3740 C.3   1 <1>  -0.1600 
  7 C        1.0560     0.5200    -0.2720 C.3   1 <1>  -0.0160 
  8 O        3.7500    -0.7340    -0.7110 O.3   1 <1>  -0.6800 
  9 C        4.6040     0.0920     1.3680 C.3   1 <1>   0.3430 
 10 C        4.6480     2.0890    -0.1230 C.3   1 <1>   0.3430 
 11 C        0.1540     1.7170    -0.5540 C.ar  1 <1>  -0.1440 
 12 N        4.9500     1.5490     1.2250 N.4   1 <1>  -0.9590 
 13 C        0.0530     2.2390    -1.8360 C.ar  1 <1>  -0.1500 
 14 C       -0.5800     2.2940     0.4700 C.ar  1 <1>  -0.1500 
 15 C        6.2650     1.9240     1.7620 C.3   1 <1>   0.5240 
 16 C       -0.7650     3.3260    -2.0880 C.ar  1 <1>  -0.1500 
 17 C       -1.3980     3.3820     0.2210 C.ar  1 <1>  -0.1500 
 18 C        6.3020     3.4290     1.8940 C.2   1 <1>  -0.1810 
 19 C       -1.4910     3.9000    -1.0590 C.ar  1 <1>  -0.1500 
 20 C        7.3290     4.2330     1.4010 C.2   1 <1>   0.2350 
 21 C        5.4100     4.2750     2.4490 C.2   1 <1>  -0.3020 
 22 N        7.0830     5.4960     1.6350 N.2   1 <1>  -0.7070 
 23 C        8.4820     3.7130     0.7040 C.ar  1 <1>   0.0540 
 24 N        5.9040     5.5150     2.2830 N.pl3 1 <1>   0.3000 
 25 C        9.5700     3.1500     1.3780 C.ar  1 <1>  -0.1430 
 26 C        8.4970     3.7240    -0.6880 C.ar  1 <1>  -0.1500 
 27 C       10.6100     2.5850     0.6600 C.ar  1 <1>  -0.1500 
 28 C        9.6360     3.1630     2.9000 C.3   1 <1>  -0.0970 
 29 C        9.5380     3.1640    -1.4060 C.ar  1 <1>  -0.1430 
 30 C       10.5940     2.5860    -0.7240 C.ar  1 <1>  -0.1500 
 31 C        9.5390     3.1820    -2.9240 C.3   1 <1>  -0.0970 
 32 H        2.8510    -1.1310     1.0390 H     1 <1>   0.0800 
 33 H        2.6970     2.9870    -0.1310 H     1 <1>   0.0800 
 34 H        2.9880     1.8910    -1.4300 H     1 <1>   0.0800 
 35 H        1.2570     0.0230    -1.2030 H     1 <1>   0.0800 
 36 H        0.5170    -0.1790     0.3450 H     1 <1>   0.0800 
 37 H        2.9810    -1.0830    -1.2040 H     1 <1>   0.4000 
 38 H        5.4250    -0.5290     1.0540 H     1 <1>   0.0800 
 39 H        4.4020    -0.1060     2.4080 H     1 <1>   0.0800 
 40 H        4.9850     3.1100    -0.2080 H     1 <1>   0.0800 
 41 H        5.1570     1.4930    -0.8630 H     1 <1>   0.0800 
 42 H        4.2460     2.0480     1.8330 H     1 <1>   0.4500 
 43 H        0.6100     1.8020    -2.6450 H     1 <1>   0.1500 
 44 H       -0.5160     1.9000     1.4720 H     1 <1>   0.1500 
 45 H        6.4070     1.4800     2.7320 H     1 <1>   0.0800 
 46 H        7.0460     1.5850     1.1010 H     1 <1>   0.0800 
 47 H       -0.8390     3.7260    -3.0840 H     1 <1>   0.1500 
 48 H       -1.9580     3.8220     1.0260 H     1 <1>   0.1500 
 49 H       -2.1270     4.7450    -1.2520 H     1 <1>   0.1500 
 50 H        4.4660     4.0760     2.9350 H     1 <1>   0.1500 
 51 H        5.4570     6.3870     2.5940 H     1 <1>   0.2700 
 52 H        7.6740     4.1860    -1.2030 H     1 <1>   0.1500 
 53 H       11.4490     2.1450     1.1710 H     1 <1>   0.1500 
 54 H       10.6270     2.9220     3.2420 H     1 <1>   0.0800 
 55 H        8.9480     2.4500     3.3120 H     1 <1>   0.0800 
 56 H        9.3870     4.1420     3.2700 H     1 <1>   0.0800 
 57 H       11.4120     2.1450    -1.2670 H     1 <1>   0.1500 
 58 H       10.4870     3.5370    -3.2860 H     1 <1>   0.0800 
 59 H        8.7690     3.8310    -3.3010 H     1 <1>   0.0800 
 60 H        9.3730     2.1890    -3.3030 H     1 <1>   0.0800 
@<TRIPOS>BOND
  1   1   2  ar  
  2   2   3  ar  
  3   2   4  1   
  4   4   5  1   
  5   4   6  1   
  6   4   7  1   
  7   5   8  1   
  8   5   9  1   
  9   5  32  1   
 10   6  10  1   
 11   6  33  1   
 12   6  34  1   
 13   7  11  1   
 14   7  35  1   
 15   7  36  1   
 16   8  37  1   
 17   9  12  1   
 18   9  38  1   
 19   9  39  1   
 20  10  12  1   
 21  10  40  1   
 22  10  41  1   
 23  11  13  ar  
 24  11  14  ar  
 25  12  15  1   
 26  12  42  1   
 27  13  16  ar  
 28  13  43  1   
 29  14  17  ar  
 30  14  44  1   
 31  15  18  1   
 32  15  45  1   
 33  15  46  1   
 34  16  19  ar  
 35  16  47  1   
 36  17  19  ar  
 37  17  48  1   
 38  18  20  1   
 39  18  21  2   
 40  19  49  1   
 41  20  22  2   
 42  20  23  1   
 43  21  24  1   
 44  21  50  1   
 45  22  24  1   
 46  23  25  ar  
 47  23  26  ar  
 48  24  51  1   
 49  25  27  ar  
 50  25  28  1   
 51  26  29  ar  
 52  26  52  1   
 53  27  30  ar  
 54  27  53  1   
 55  28  54  1   
 56  28  55  1   
 57  28  56  1   
 58  29  30  ar  
 59  29  31  1   
 60  30  57  1   
 61  31  58  1   
 62  31  59  1   
 63  31  60  1   
@<TRIPOS>SUBSTRUCTURE
  1 ****  10 GROUP 4 **** **** 0

# MOE 2024.06 (io_trps.svl 2023.06)
