@<TRIPOS>MOLECULE
NONAME
50 53 1 0 0 
SMALL
USER_CHARGES


@<TRIPOS>ATOM
  1 O       -3.2440     2.0920    -2.7600 O.co2 1 <1>  -0.9000 
  2 C       -3.5890     2.4800    -1.6270 C.2   1 <1>   1.0330 
  3 O       -3.5240     3.7010    -1.3850 O.co2 1 <1>  -0.9000 
  4 C       -4.0890     1.5430    -0.6150 C.2   1 <1>  -0.2330 
  5 C       -4.0140     1.6240     0.7590 C.2   1 <1>  -0.3320 
  6 C       -4.7910     0.3430    -0.8600 C.2   1 <1>  -0.1810 
  7 N       -4.6430     0.5730     1.3180 N.pl3 1 <1>   0.0330 
  8 C       -3.3390     2.6940     1.5980 C.3   1 <1>  -0.0600 
  9 C       -5.1780    -0.2050     0.3370 C.2   1 <1>  -0.2370 
 10 C       -5.0440    -0.2170    -2.2490 C.3   1 <1>  -0.0590 
 11 C       -6.0040    -1.3260     0.6960 C.2   1 <1>   0.7150 
 12 O       -5.5850    -2.1260     1.5150 O.2   1 <1>  -0.5700 
 13 N       -7.3050    -1.4500     0.2430 N.am  1 <1>  -0.6600 
 14 C       -7.9930    -0.4100    -0.5860 C.3   1 <1>   0.1400 
 15 C       -8.2490    -2.4400     0.8280 C.3   1 <1>   0.1400 
 16 C       -9.0190     0.3790     0.2460 C.3   1 <1>   0.1430 
 17 C       -9.2750    -1.7050     1.7040 C.3   1 <1>  -0.1600 
 18 C       -9.6910     1.3780    -0.6790 C.ar  1 <1>   0.1670 
 19 C      -10.0070    -0.5940     0.9260 C.3   1 <1>  -0.1600 
 20 C       -8.3160     1.3230     1.2560 C.3   1 <1>  -0.1600 
 21 N      -10.6630     1.1140    -1.5250 N.ar  1 <1>  -0.6200 
 22 C       -9.1400     2.6180    -0.5470 C.ar  1 <1>  -0.1440 
 23 C       -8.0470     2.6330     0.4960 C.3   1 <1>  -0.0170 
 24 C      -11.0670     2.1590    -2.2340 C.ar  1 <1>   0.4770 
 25 C       -9.6280     3.6250    -1.3410 C.ar  1 <1>   0.1600 
 26 N      -10.6090     3.4040    -2.1940 N.ar  1 <1>  -0.6200 
 27 C      -12.1860     1.9090    -3.2160 C.3   1 <1>  -0.0970 
 28 H       -4.7160     0.3630     2.3180 H     1 <1>   0.2700 
 29 H       -2.7650     3.3560     0.9740 H     1 <1>   0.0800 
 30 H       -2.6730     2.2420     2.3100 H     1 <1>   0.0800 
 31 H       -4.0780     3.2750     2.1170 H     1 <1>   0.0800 
 32 H       -5.5900     0.4990    -2.8360 H     1 <1>   0.0800 
 33 H       -5.5940    -1.1380    -2.2010 H     1 <1>   0.0800 
 34 H       -4.1030    -0.4020    -2.7330 H     1 <1>   0.0800 
 35 H       -8.4990    -0.8970    -1.4020 H     1 <1>   0.0800 
 36 H       -7.2960     0.2830    -1.0130 H     1 <1>   0.0800 
 37 H       -7.7230    -3.1720     1.4170 H     1 <1>   0.0800 
 38 H       -8.7510    -2.9580     0.0290 H     1 <1>   0.0800 
 39 H       -8.7650    -1.2850     2.5530 H     1 <1>   0.0800 
 40 H       -9.9930    -2.4150     2.0760 H     1 <1>   0.0800 
 41 H      -10.6130    -1.0540     0.1650 H     1 <1>   0.0800 
 42 H      -10.6690    -0.0540     1.5800 H     1 <1>   0.0800 
 43 H       -7.4170     0.9080     1.6710 H     1 <1>   0.0800 
 44 H       -8.9910     1.5400     2.0650 H     1 <1>   0.0800 
 45 H       -7.0810     2.6060     0.0160 H     1 <1>   0.0800 
 46 H       -8.1100     3.4920     1.1400 H     1 <1>   0.0800 
 47 H       -9.2140     4.6170    -1.2780 H     1 <1>   0.1500 
 48 H      -12.5700     0.9120    -3.1050 H     1 <1>   0.0800 
 49 H      -11.8150     2.0350    -4.2150 H     1 <1>   0.0800 
 50 H      -12.9790     2.6110    -3.0420 H     1 <1>   0.0800 
@<TRIPOS>BOND
  1   1   2  ar  
  2   2   3  ar  
  3   2   4  1   
  4   4   5  2   
  5   4   6  1   
  6   5   7  1   
  7   5   8  1   
  8   6   9  2   
  9   6  10  1   
 10   7   9  1   
 11   7  28  1   
 12   8  29  1   
 13   8  30  1   
 14   8  31  1   
 15   9  11  1   
 16  10  32  1   
 17  10  33  1   
 18  10  34  1   
 19  11  12  2   
 20  11  13  am  
 21  13  14  1   
 22  13  15  1   
 23  14  16  1   
 24  14  35  1   
 25  14  36  1   
 26  15  17  1   
 27  15  37  1   
 28  15  38  1   
 29  16  18  1   
 30  16  19  1   
 31  16  20  1   
 32  17  19  1   
 33  17  39  1   
 34  17  40  1   
 35  18  21  ar  
 36  18  22  ar  
 37  19  41  1   
 38  19  42  1   
 39  20  23  1   
 40  20  43  1   
 41  20  44  1   
 42  21  24  ar  
 43  22  23  1   
 44  22  25  ar  
 45  23  45  1   
 46  23  46  1   
 47  24  26  ar  
 48  24  27  1   
 49  25  26  ar  
 50  25  47  1   
 51  27  48  1   
 52  27  49  1   
 53  27  50  1   
@<TRIPOS>SUBSTRUCTURE
  1 ****  14 GROUP 4 **** **** 0

# MOE 2024.06 (io_trps.svl 2023.06)
