@<TRIPOS>MOLECULE
NONAME
38 39 1 0 0 
SMALL
USER_CHARGES


@<TRIPOS>ATOM
  1 F        0.9290     0.4580     1.6500 F     1 <1>  -0.1900 
  2 C        1.6820    -0.5020     1.1850 C.ar  1 <1>   0.1900 
  3 C        1.1920    -1.2910     0.1630 C.ar  1 <1>  -0.1500 
  4 C        2.9360    -0.6930     1.7320 C.ar  1 <1>  -0.1500 
  5 C        1.9870    -2.3180    -0.3280 C.ar  1 <1>  -0.1430 
  6 C        3.7280    -1.7150     1.2380 C.ar  1 <1>  -0.1500 
  7 C        3.2550    -2.5310     0.2090 C.ar  1 <1>   0.0830 
  8 C        1.4790    -3.2080    -1.4460 C.3   1 <1>   0.4870 
  9 O        3.9770    -3.5570    -0.3120 O.3   1 <1>  -0.3620 
 10 N        0.5330    -4.1930    -0.8760 N.4   1 <1>  -0.9590 
 11 C        5.3150    -3.7920     0.0790 C.3   1 <1>   0.0400 
 12 C        1.2620    -5.1760     0.0200 C.3   1 <1>   0.3430 
 13 C       -0.2530    -4.8940    -1.9280 C.3   1 <1>   0.3430 
 14 C        0.5410    -6.5310     0.1720 C.3   1 <1>   0.2000 
 15 C       -1.3920    -5.6770    -1.2650 C.3   1 <1>  -0.1600 
 16 O        0.9450    -7.3590    -0.8620 O.3   1 <1>  -0.6800 
 17 C       -0.9780    -6.3510     0.0700 C.3   1 <1>  -0.1860 
 18 C       -1.6670    -7.6800     0.2780 C.2   1 <1>   0.9060 
 19 O       -2.5440    -7.7520     1.1350 O.co2 1 <1>  -0.9000 
 20 O       -1.2990    -8.6340    -0.4180 O.co2 1 <1>  -0.9000 
 21 H        0.2110    -1.0870    -0.2280 H     1 <1>   0.1500 
 22 H        3.2790    -0.0530     2.5260 H     1 <1>   0.1500 
 23 H        4.7030    -1.8560     1.6670 H     1 <1>   0.1500 
 24 H        2.3020    -3.7160    -1.9230 H     1 <1>   0.0800 
 25 H        0.9810    -2.6000    -2.1830 H     1 <1>   0.0800 
 26 H       -0.1380    -3.6940    -0.2820 H     1 <1>   0.4500 
 27 H        5.6930    -4.6190    -0.4960 H     1 <1>   0.0800 
 28 H        5.3380    -4.0380     1.1260 H     1 <1>   0.0800 
 29 H        5.9000    -2.9120    -0.1230 H     1 <1>   0.0800 
 30 H        2.2490    -5.3700    -0.3650 H     1 <1>   0.0800 
 31 H        1.3740    -4.7340     0.9950 H     1 <1>   0.0800 
 32 H       -0.6600    -4.1950    -2.6390 H     1 <1>   0.0800 
 33 H        0.3900    -5.5850    -2.4510 H     1 <1>   0.0800 
 34 H        0.8150    -7.0120     1.0960 H     1 <1>   0.0800 
 35 H       -2.2400    -5.0370    -1.0960 H     1 <1>   0.0800 
 36 H       -1.7090    -6.4360    -1.9610 H     1 <1>   0.0800 
 37 H        0.2710    -8.1080    -0.8870 H     1 <1>   0.4000 
 38 H       -1.2860    -5.7190     0.8820 H     1 <1>   0.0800 
@<TRIPOS>BOND
  1   1   2  1   
  2   2   3  ar  
  3   2   4  ar  
  4   3   5  ar  
  5   3  21  1   
  6   4   6  ar  
  7   4  22  1   
  8   5   7  ar  
  9   5   8  1   
 10   6   7  ar  
 11   6  23  1   
 12   7   9  1   
 13   8  10  1   
 14   8  24  1   
 15   8  25  1   
 16   9  11  1   
 17  10  12  1   
 18  10  13  1   
 19  10  26  1   
 20  11  27  1   
 21  11  28  1   
 22  11  29  1   
 23  12  14  1   
 24  12  30  1   
 25  12  31  1   
 26  13  15  1   
 27  13  32  1   
 28  13  33  1   
 29  14  16  1   
 30  14  17  1   
 31  14  34  1   
 32  15  17  1   
 33  15  35  1   
 34  15  36  1   
 35  16  37  1   
 36  17  18  1   
 37  17  38  1   
 38  18  19  ar  
 39  18  20  ar  
@<TRIPOS>SUBSTRUCTURE
  1 ****  12 GROUP 4 **** **** 0

# MOE 2024.06 (io_trps.svl 2023.06)
