@<TRIPOS>MOLECULE
NONAME
47 49 1 0 0 
SMALL
USER_CHARGES


@<TRIPOS>ATOM
  1 S       -1.0860    -0.3270    -1.1620 S.3   1 <1>  -0.0800 
  2 C        0.5580     0.1420    -1.4910 C.2   1 <1>   0.4410 
  3 C       -0.5080    -1.5190    -0.0070 C.2   1 <1>  -0.0450 
  4 O        0.7340     1.1120    -2.3890 O.3   1 <1>  -0.3430 
  5 N        1.4410    -0.5040    -0.8270 N.2   1 <1>  -0.5650 
  6 C        0.8480    -1.4300     0.0000 C.2   1 <1>   0.0460 
  7 C       -1.4790    -2.3260     0.6830 C.2   1 <1>   0.7150 
  8 C        2.0390     1.5430    -2.7030 C.3   1 <1>   0.0400 
  9 C        1.8160    -2.2510     0.8340 C.3   1 <1>  -0.0590 
 10 O       -1.1520    -3.1840     1.4810 O.2   1 <1>  -0.5700 
 11 N       -2.8110    -2.1640     0.4440 N.am  1 <1>  -0.7300 
 12 C       -3.9290    -2.8360     1.1520 C.3   1 <1>   0.2200 
 13 C       -4.1400    -4.2820     0.6430 C.3   1 <1>   0.2000 
 14 C       -5.1850    -1.9770     0.9630 C.3   1 <1>  -0.1600 
 15 O       -3.0710    -5.0810     1.0280 O.3   1 <1>  -0.6800 
 16 C       -5.4240    -4.9120     1.1990 C.3   1 <1>   0.1400 
 17 C       -6.4090    -2.6440     1.5900 C.3   1 <1>   0.1400 
 18 N       -6.5850    -3.9940     0.9930 N.am  1 <1>  -0.6600 
 19 C       -7.6270    -4.2710     0.1300 C.2   1 <1>   0.5440 
 20 O       -8.2550    -3.3420    -0.3410 O.2   1 <1>  -0.5700 
 21 C       -7.9800    -5.6290    -0.2450 C.ar  1 <1>   0.0860 
 22 C       -8.1370    -6.6360     0.7090 C.ar  1 <1>  -0.1500 
 23 C       -8.1830    -5.9720    -1.5810 C.ar  1 <1>  -0.1500 
 24 C       -8.4630    -7.9300     0.3440 C.ar  1 <1>  -0.1500 
 25 C       -8.5100    -7.2630    -1.9530 C.ar  1 <1>  -0.1500 
 26 C       -8.6480    -8.2460    -0.9890 C.ar  1 <1>  -0.1500 
 27 H        1.9710     2.3230    -3.4400 H     1 <1>   0.0800 
 28 H        2.5950     0.7090    -3.0930 H     1 <1>   0.0800 
 29 H        2.5060     1.9170    -1.8080 H     1 <1>   0.0800 
 30 H        1.3090    -2.9520     1.4680 H     1 <1>   0.0800 
 31 H        2.4030    -1.5950     1.4500 H     1 <1>   0.0800 
 32 H        2.4770    -2.7940     0.1840 H     1 <1>   0.0800 
 33 H       -3.0850    -1.4960    -0.2780 H     1 <1>   0.3700 
 34 H       -3.7060    -2.8800     2.2060 H     1 <1>   0.0800 
 35 H       -4.1840    -4.2850    -0.4320 H     1 <1>   0.0800 
 36 H       -5.0390    -1.0170     1.4240 H     1 <1>   0.0800 
 37 H       -5.3830    -1.8300    -0.0840 H     1 <1>   0.0800 
 38 H       -2.2650    -4.5170     1.1540 H     1 <1>   0.4000 
 39 H       -5.3080    -5.0940     2.2540 H     1 <1>   0.0800 
 40 H       -5.5830    -5.8530     0.7030 H     1 <1>   0.0800 
 41 H       -7.2840    -2.0370     1.4210 H     1 <1>   0.0800 
 42 H       -6.2780    -2.7430     2.6540 H     1 <1>   0.0800 
 43 H       -8.0030    -6.3940     1.7490 H     1 <1>   0.1500 
 44 H       -8.0840    -5.2070    -2.3320 H     1 <1>   0.1500 
 45 H       -8.5750    -8.6910     1.0970 H     1 <1>   0.1500 
 46 H       -8.6590    -7.5030    -2.9920 H     1 <1>   0.1500 
 47 H       -8.9020    -9.2520    -1.2770 H     1 <1>   0.1500 
@<TRIPOS>BOND
  1   1   2  1   
  2   1   3  1   
  3   2   4  1   
  4   2   5  2   
  5   3   6  2   
  6   3   7  1   
  7   4   8  1   
  8   5   6  1   
  9   6   9  1   
 10   7  10  2   
 11   7  11  am  
 12   8  27  1   
 13   8  28  1   
 14   8  29  1   
 15   9  30  1   
 16   9  31  1   
 17   9  32  1   
 18  11  12  1   
 19  11  33  1   
 20  12  13  1   
 21  12  14  1   
 22  12  34  1   
 23  13  15  1   
 24  13  16  1   
 25  13  35  1   
 26  14  17  1   
 27  14  36  1   
 28  14  37  1   
 29  15  38  1   
 30  16  18  1   
 31  16  39  1   
 32  16  40  1   
 33  17  18  1   
 34  17  41  1   
 35  17  42  1   
 36  18  19  am  
 37  19  20  2   
 38  19  21  1   
 39  21  22  ar  
 40  21  23  ar  
 41  22  24  ar  
 42  22  43  1   
 43  23  25  ar  
 44  23  44  1   
 45  24  26  ar  
 46  24  45  1   
 47  25  26  ar  
 48  25  46  1   
 49  26  47  1   
@<TRIPOS>SUBSTRUCTURE
  1 ****  13 GROUP 4 **** **** 0

# MOE 2024.06 (io_trps.svl 2023.06)
