@<TRIPOS>MOLECULE
NONAME
39 41 1 0 0 
SMALL
USER_CHARGES


@<TRIPOS>ATOM
  1 O        0.3490    -0.2600     0.0250 O.3   1 <1>  -0.6800 
  2 C        1.4050    -0.2450    -0.8860 C.3   1 <1>   0.2000 
  3 C        2.3920    -1.3750    -0.5840 C.3   1 <1>  -0.0800 
  4 C        2.2260     1.0380    -0.6970 C.3   1 <1>   0.2090 
  5 C        3.3440    -0.7650     0.4430 C.3   1 <1>   0.2090 
  6 C        1.7840    -2.7180    -0.1390 C.3   1 <1>  -0.0170 
  7 N        3.4370     0.6740     0.0960 N.pl3 1 <1>  -0.8380 
  8 C        2.8650    -3.7560     0.1180 C.ar  1 <1>  -0.1440 
  9 C        4.6500     1.0940    -0.4160 C.ar  1 <1>   0.4100 
 10 C        3.2170    -4.1440     1.3950 C.ar  1 <1>  -0.1500 
 11 C        3.5540    -4.3610    -0.9130 C.ar  1 <1>  -0.1500 
 12 N        5.0070     0.5650    -1.5830 N.ar  1 <1>  -0.6200 
 13 C        5.4280     2.0240     0.2860 C.ar  1 <1>  -0.1440 
 14 C        4.2110    -5.0930     1.5730 C.ar  1 <1>   0.1600 
 15 C        4.5320    -5.2990    -0.6270 C.ar  1 <1>   0.1600 
 16 C        6.1700     0.9660    -2.0650 C.ar  1 <1>   0.1600 
 17 C        6.6350     2.4250    -0.2410 C.ar  1 <1>  -0.1500 
 18 C        4.9530     2.5890     1.6180 C.3   1 <1>  -0.0970 
 19 N        4.8760    -5.6810     0.5920 N.ar  1 <1>  -0.6200 
 20 C        7.0090     1.8760    -1.4500 C.ar  1 <1>  -0.1500 
 21 H       -0.2180    -1.0400    -0.1210 H     1 <1>   0.4000 
 22 H        0.9950    -0.3060    -1.8790 H     1 <1>   0.0800 
 23 H        2.9730    -1.5410    -1.4750 H     1 <1>   0.0800 
 24 H        1.6550     1.7910    -0.1830 H     1 <1>   0.0800 
 25 H        2.5240     1.4200    -1.6580 H     1 <1>   0.0800 
 26 H        4.3100    -1.2410     0.4110 H     1 <1>   0.0800 
 27 H        2.9360    -0.8530     1.4350 H     1 <1>   0.0800 
 28 H        1.1220    -3.0830    -0.9040 H     1 <1>   0.0800 
 29 H        1.2070    -2.5830     0.7590 H     1 <1>   0.0800 
 30 H        2.7310    -3.7190     2.2540 H     1 <1>   0.1500 
 31 H        3.3420    -4.1110    -1.9370 H     1 <1>   0.1500 
 32 H        4.4720    -5.3830     2.5760 H     1 <1>   0.1500 
 33 H        5.0600    -5.7580    -1.4450 H     1 <1>   0.1500 
 34 H        6.4720     0.5440    -3.0070 H     1 <1>   0.1500 
 35 H        7.2670     3.1360     0.2620 H     1 <1>   0.1500 
 36 H        5.6600     3.2920     2.0190 H     1 <1>   0.0800 
 37 H        4.8200     1.7890     2.3230 H     1 <1>   0.0800 
 38 H        4.0090     3.0860     1.4830 H     1 <1>   0.0800 
 39 H        7.9410     2.1500    -1.9090 H     1 <1>   0.1500 
@<TRIPOS>BOND
  1   1   2  1   
  2   1  21  1   
  3   2   3  1   
  4   2   4  1   
  5   2  22  1   
  6   3   5  1   
  7   3   6  1   
  8   3  23  1   
  9   4   7  1   
 10   4  24  1   
 11   4  25  1   
 12   5   7  1   
 13   5  26  1   
 14   5  27  1   
 15   6   8  1   
 16   6  28  1   
 17   6  29  1   
 18   7   9  1   
 19   8  10  ar  
 20   8  11  ar  
 21   9  12  ar  
 22   9  13  ar  
 23  10  14  ar  
 24  10  30  1   
 25  11  15  ar  
 26  11  31  1   
 27  12  16  ar  
 28  13  17  ar  
 29  13  18  1   
 30  14  19  ar  
 31  14  32  1   
 32  15  19  ar  
 33  15  33  1   
 34  16  20  ar  
 35  16  34  1   
 36  17  20  ar  
 37  17  35  1   
 38  18  36  1   
 39  18  37  1   
 40  18  38  1   
 41  20  39  1   
@<TRIPOS>SUBSTRUCTURE
  1 ****   5 GROUP 4 **** **** 0

# MOE 2024.06 (io_trps.svl 2023.06)
