@<TRIPOS>MOLECULE
NONAME
47 49 1 0 0 
SMALL
USER_CHARGES


@<TRIPOS>ATOM
  1 S        0.9960     0.7550     0.5290 S.o2  1 <1>   1.3330 
  2 O        0.0320     0.2050     1.4490 O.2   1 <1>  -0.6500 
  3 O        2.0340     1.6300     1.0330 O.2   1 <1>  -0.6500 
  4 N        1.6910    -0.4740    -0.4040 N.am  1 <1>  -0.8490 
  5 C        0.1060     1.7520    -0.6640 C.3   1 <1>  -0.0550 
  6 C        2.9530    -0.9650     0.1620 C.3   1 <1>   0.1160 
  7 C        0.7870    -1.6080    -0.6390 C.3   1 <1>   0.1160 
  8 C       -0.8630     2.7830    -0.0290 C.3   1 <1>  -0.0800 
  9 C       -1.1160     3.9370    -0.9950 C.3   1 <1>   0.2000 
 10 C       -0.3100     3.4990     1.2140 C.3   1 <1>   0.3430 
 11 O       -2.3360     4.5220    -0.6850 O.3   1 <1>  -0.6800 
 12 C        0.0290     4.9200    -0.7100 C.3   1 <1>   0.3430 
 13 N        0.4310     4.6970     0.7210 N.4   1 <1>  -0.9590 
 14 C        1.9090     4.5610     0.8970 C.3   1 <1>   0.5230 
 15 C        2.5200     5.9460     0.9200 C.2   1 <1>  -0.1400 
 16 S        2.5980     6.8350    -0.5930 S.3   1 <1>  -0.0800 
 17 C        3.0530     6.6840     1.9120 C.2   1 <1>  -0.1500 
 18 C        3.3500     8.2360     0.1710 C.2   1 <1>   0.0410 
 19 C        3.5180     7.9670     1.4900 C.2   1 <1>  -0.1500 
 20 C        3.6600     9.3870    -0.6390 C.2   1 <1>   0.2880 
 21 N        3.3150     9.5290    -1.8970 N.2   1 <1>  -0.7070 
 22 C        4.3630    10.5120    -0.1940 C.2   1 <1>  -0.1500 
 23 N        3.7930    10.7300    -2.2630 N.pl3 1 <1>   0.3000 
 24 C        4.4300    11.3450    -1.2500 C.2   1 <1>  -0.3020 
 25 H        0.8290     2.2500    -1.2800 H     1 <1>   0.0800 
 26 H       -0.4640     1.1080    -1.3050 H     1 <1>   0.0800 
 27 H        3.3770    -1.7240    -0.4740 H     1 <1>   0.0800 
 28 H        2.7890    -1.3790     1.1440 H     1 <1>   0.0800 
 29 H        3.6640    -0.1590     0.2400 H     1 <1>   0.0800 
 30 H        1.2500    -2.3200    -1.3010 H     1 <1>   0.0800 
 31 H       -0.1280    -1.2700    -1.0940 H     1 <1>   0.0800 
 32 H        0.5480    -2.0990     0.2910 H     1 <1>   0.0800 
 33 H       -1.7760     2.2690     0.2230 H     1 <1>   0.0800 
 34 H       -1.1520     3.6350    -2.0290 H     1 <1>   0.0800 
 35 H        0.3050     2.8650     1.8320 H     1 <1>   0.0800 
 36 H       -1.1430     3.8270     1.8150 H     1 <1>   0.0800 
 37 H       -2.3950     4.8510     0.2320 H     1 <1>   0.4000 
 38 H       -0.2790     5.9370    -0.8910 H     1 <1>   0.0800 
 39 H        0.8580     4.6890    -1.3580 H     1 <1>   0.0800 
 40 H        0.1670     5.5260     1.2720 H     1 <1>   0.4500 
 41 H        2.1210     4.0720     1.8350 H     1 <1>   0.0800 
 42 H        2.3400     3.9680     0.1070 H     1 <1>   0.0800 
 43 H        3.1480     6.3860     2.9430 H     1 <1>   0.1500 
 44 H        3.9610     8.6480     2.1960 H     1 <1>   0.1500 
 45 H        4.7590    10.6520     0.7950 H     1 <1>   0.1500 
 46 H        3.6670    11.1030    -3.2130 H     1 <1>   0.2700 
 47 H        4.8830    12.3160    -1.3400 H     1 <1>   0.1500 
@<TRIPOS>BOND
  1   1   2  2   
  2   1   3  2   
  3   1   4  am  
  4   1   5  1   
  5   4   6  1   
  6   4   7  1   
  7   5   8  1   
  8   5  25  1   
  9   5  26  1   
 10   6  27  1   
 11   6  28  1   
 12   6  29  1   
 13   7  30  1   
 14   7  31  1   
 15   7  32  1   
 16   8   9  1   
 17   8  10  1   
 18   8  33  1   
 19   9  11  1   
 20   9  12  1   
 21   9  34  1   
 22  10  13  1   
 23  10  35  1   
 24  10  36  1   
 25  11  37  1   
 26  12  13  1   
 27  12  38  1   
 28  12  39  1   
 29  13  14  1   
 30  13  40  1   
 31  14  15  1   
 32  14  41  1   
 33  14  42  1   
 34  15  16  1   
 35  15  17  2   
 36  16  18  1   
 37  17  19  1   
 38  17  43  1   
 39  18  19  2   
 40  18  20  1   
 41  19  44  1   
 42  20  21  2   
 43  20  22  1   
 44  21  23  1   
 45  22  24  2   
 46  22  45  1   
 47  23  24  1   
 48  23  46  1   
 49  24  47  1   
@<TRIPOS>SUBSTRUCTURE
  1 ****  14 GROUP 4 **** **** 0

# MOE 2024.06 (io_trps.svl 2023.06)
