@<TRIPOS>MOLECULE
NONAME
49 51 1 0 0 
SMALL
USER_CHARGES


@<TRIPOS>ATOM
  1 CL      -0.2560     0.4950     0.8450 Cl    1 <1>  -0.1770 
  2 C        0.3680     2.1220     0.8760 C.ar  1 <1>   0.1770 
  3 C        0.3460     2.8990    -0.2690 C.ar  1 <1>   0.1600 
  4 C        0.8850     2.6350     2.0420 C.ar  1 <1>  -0.1500 
  5 N        0.8000     4.1420    -0.3360 N.ar  1 <1>  -0.6200 
  6 C        1.3550     3.9310     1.9830 C.ar  1 <1>  -0.1500 
  7 C        1.3030     4.6720     0.7970 C.ar  1 <1>   0.3960 
  8 C        1.8130     6.0470     0.7890 C.2   1 <1>   0.5440 
  9 O        2.6840     6.4060     1.5670 O.2   1 <1>  -0.5700 
 10 N        1.4030     6.9990    -0.1210 N.am  1 <1>  -0.6600 
 11 C        1.9060     6.9470    -1.5290 C.3   1 <1>   0.1400 
 12 C        0.8840     8.3220     0.3250 C.3   1 <1>   0.1400 
 13 C        3.4100     7.2950    -1.6020 C.3   1 <1>   0.3430 
 14 C        2.0070     9.3130     0.6760 C.3   1 <1>  -0.1600 
 15 N        3.8490     8.1190    -0.4300 N.4   1 <1>  -0.9590 
 16 C        3.1380     9.4230    -0.3510 C.3   1 <1>   0.3430 
 17 C        5.3320     8.2410    -0.3430 C.3   1 <1>   0.3430 
 18 C        5.7810     8.5770     1.0800 C.3   1 <1>  -0.0170 
 19 C        7.2810     8.7690     1.0820 C.ar  1 <1>   0.1670 
 20 N        7.7480     9.5990     0.1620 N.ar  1 <1>  -0.6200 
 21 C        8.0730     8.1010     2.0030 C.ar  1 <1>  -0.1500 
 22 C        9.0590     9.7790     0.1570 C.ar  1 <1>   0.1670 
 23 C        9.4370     8.2910     1.9870 C.ar  1 <1>  -0.1500 
 24 C        9.9320     9.1560     1.0350 C.ar  1 <1>  -0.1500 
 25 C        9.5920    10.7350    -0.8900 C.3   1 <1>  -0.0970 
 26 H       -0.0660     2.4670    -1.1660 H     1 <1>   0.1500 
 27 H        0.9140     2.0490     2.9440 H     1 <1>   0.1500 
 28 H        1.7710     4.3840     2.8660 H     1 <1>   0.1500 
 29 H        1.3480     7.6380    -2.1360 H     1 <1>   0.0800 
 30 H        1.7480     5.9660    -1.9430 H     1 <1>   0.0800 
 31 H        0.2600     8.1770     1.1920 H     1 <1>   0.0800 
 32 H        0.2600     8.7340    -0.4510 H     1 <1>   0.0800 
 33 H        3.6230     7.8050    -2.5270 H     1 <1>   0.0800 
 34 H        3.9640     6.3700    -1.6050 H     1 <1>   0.0800 
 35 H        2.4210     9.0580     1.6350 H     1 <1>   0.0800 
 36 H        1.5620    10.2860     0.7890 H     1 <1>   0.0800 
 37 H        3.5150     7.5760     0.3980 H     1 <1>   0.4500 
 38 H        3.8220    10.1950    -0.0370 H     1 <1>   0.0800 
 39 H        2.7430     9.6970    -1.3150 H     1 <1>   0.0800 
 40 H        5.6780     9.0070    -1.0190 H     1 <1>   0.0800 
 41 H        5.7940     7.3120    -0.6320 H     1 <1>   0.0800 
 42 H        5.5040     7.7820     1.7480 H     1 <1>   0.0800 
 43 H        5.3310     9.4930     1.4140 H     1 <1>   0.0800 
 44 H        7.6370     7.4390     2.7300 H     1 <1>   0.1500 
 45 H       10.0860     7.7920     2.6850 H     1 <1>   0.1500 
 46 H       10.9890     9.3430     0.9790 H     1 <1>   0.1500 
 47 H        9.1470    11.7030    -0.7510 H     1 <1>   0.0800 
 48 H        9.3390    10.3740    -1.8700 H     1 <1>   0.0800 
 49 H       10.6600    10.8310    -0.8210 H     1 <1>   0.0800 
@<TRIPOS>BOND
  1   1   2  1   
  2   2   3  ar  
  3   2   4  ar  
  4   3   5  ar  
  5   3  26  1   
  6   4   6  ar  
  7   4  27  1   
  8   5   7  ar  
  9   6   7  ar  
 10   6  28  1   
 11   7   8  1   
 12   8   9  2   
 13   8  10  am  
 14  10  11  1   
 15  10  12  1   
 16  11  13  1   
 17  11  29  1   
 18  11  30  1   
 19  12  14  1   
 20  12  31  1   
 21  12  32  1   
 22  13  15  1   
 23  13  33  1   
 24  13  34  1   
 25  14  16  1   
 26  14  35  1   
 27  14  36  1   
 28  15  16  1   
 29  15  17  1   
 30  15  37  1   
 31  16  38  1   
 32  16  39  1   
 33  17  18  1   
 34  17  40  1   
 35  17  41  1   
 36  18  19  1   
 37  18  42  1   
 38  18  43  1   
 39  19  20  ar  
 40  19  21  ar  
 41  20  22  ar  
 42  21  23  ar  
 43  21  44  1   
 44  22  24  ar  
 45  22  25  1   
 46  23  24  ar  
 47  23  45  1   
 48  24  46  1   
 49  25  47  1   
 50  25  48  1   
 51  25  49  1   
@<TRIPOS>SUBSTRUCTURE
  1 ****  15 GROUP 4 **** **** 0

# MOE 2024.06 (io_trps.svl 2023.06)
