@<TRIPOS>MOLECULE
NONAME
46 48 1 0 0 
SMALL
USER_CHARGES


@<TRIPOS>ATOM
  1 F       -3.2480    -0.3680     1.7410 F     1 <1>  -0.1900 
  2 C       -2.7430     0.4420     0.8510 C.ar  1 <1>   0.1900 
  3 C       -2.4210    -0.0460    -0.4140 C.ar  1 <1>   0.0860 
  4 C       -2.5580     1.7610     1.2210 C.ar  1 <1>  -0.1500 
  5 C       -2.6230    -1.4270    -0.7900 C.2   1 <1>   0.5440 
  6 C       -1.8770     0.8710    -1.3140 C.ar  1 <1>  -0.1500 
  7 C       -2.0250     2.6470     0.3010 C.ar  1 <1>  -0.1500 
  8 O       -1.6520    -2.1070    -1.0600 O.2   1 <1>  -0.5700 
  9 N       -3.8780    -1.9920    -0.8850 N.am  1 <1>  -0.6600 
 10 C       -1.6840     2.1970    -0.9650 C.ar  1 <1>  -0.1500 
 11 C       -5.1680    -1.2560    -0.7180 C.3   1 <1>   0.1400 
 12 C       -4.0770    -3.4610    -1.0790 C.3   1 <1>   0.1400 
 13 C       -6.0480    -1.9330     0.3490 C.3   1 <1>   0.2950 
 14 C       -5.0350    -4.0320    -0.0100 C.3   1 <1>   0.2000 
 15 O       -6.2200    -3.2870     0.0250 O.3   1 <1>  -0.5600 
 16 C       -7.4220    -1.2450     0.4440 C.3   1 <1>  -0.1950 
 17 C       -5.4380    -5.4880    -0.2770 C.3   1 <1>  -0.1600 
 18 C       -8.6390    -1.9480     0.9630 C.3   1 <1>  -0.2000 
 19 C       -8.5490    -1.5670    -0.4890 C.3   1 <1>  -0.2000 
 20 C       -4.2540    -6.4650    -0.1980 C.3   1 <1>  -0.1600 
 21 C       -4.7230    -7.9130    -0.3780 C.3   1 <1>  -0.1600 
 22 C       -3.5450    -8.8880    -0.3030 C.3   1 <1>  -0.2400 
 23 H       -2.8250     2.0860     2.2110 H     1 <1>   0.1500 
 24 H       -1.6000     0.5270    -2.2970 H     1 <1>   0.1500 
 25 H       -1.8730     3.6790     0.5670 H     1 <1>   0.1500 
 26 H       -1.2630     2.8840    -1.6810 H     1 <1>   0.1500 
 27 H       -4.9980    -0.2320    -0.4410 H     1 <1>   0.0800 
 28 H       -5.6960    -1.2580    -1.6550 H     1 <1>   0.0800 
 29 H       -4.4870    -3.6350    -2.0580 H     1 <1>   0.0800 
 30 H       -3.1340    -3.9750    -1.0200 H     1 <1>   0.0800 
 31 H       -5.5640    -1.8780     1.3090 H     1 <1>   0.0800 
 32 H       -4.5710    -3.9650     0.9600 H     1 <1>   0.0800 
 33 H       -7.3190    -0.2140     0.7340 H     1 <1>   0.1000 
 34 H       -6.1700    -5.7710     0.4600 H     1 <1>   0.0800 
 35 H       -5.8960    -5.5550    -1.2480 H     1 <1>   0.0800 
 36 H       -8.5720    -2.9920     1.2210 H     1 <1>   0.1000 
 37 H       -9.3190    -1.4090     1.6000 H     1 <1>   0.1000 
 38 H       -9.1700    -0.7680    -0.8530 H     1 <1>   0.1000 
 39 H       -8.4230    -2.3560    -1.2110 H     1 <1>   0.1000 
 40 H       -3.5340    -6.2340    -0.9640 H     1 <1>   0.0800 
 41 H       -3.7700    -6.3650     0.7590 H     1 <1>   0.0800 
 42 H       -5.4370    -8.1620     0.3890 H     1 <1>   0.0800 
 43 H       -5.2100    -8.0200    -1.3330 H     1 <1>   0.0800 
 44 H       -3.0560    -8.8140     0.6530 H     1 <1>   0.0800 
 45 H       -2.8290    -8.6740    -1.0760 H     1 <1>   0.0800 
 46 H       -3.8940    -9.8980    -0.4300 H     1 <1>   0.0800 
@<TRIPOS>BOND
  1   1   2  1   
  2   2   3  ar  
  3   2   4  ar  
  4   3   5  1   
  5   3   6  ar  
  6   4   7  ar  
  7   4  23  1   
  8   5   8  2   
  9   5   9  am  
 10   6  10  ar  
 11   6  24  1   
 12   7  10  ar  
 13   7  25  1   
 14   9  11  1   
 15   9  12  1   
 16  10  26  1   
 17  11  13  1   
 18  11  27  1   
 19  11  28  1   
 20  12  14  1   
 21  12  29  1   
 22  12  30  1   
 23  13  15  1   
 24  13  16  1   
 25  13  31  1   
 26  14  15  1   
 27  14  17  1   
 28  14  32  1   
 29  16  18  1   
 30  16  19  1   
 31  16  33  1   
 32  17  20  1   
 33  17  34  1   
 34  17  35  1   
 35  18  19  1   
 36  18  36  1   
 37  18  37  1   
 38  19  38  1   
 39  19  39  1   
 40  20  21  1   
 41  20  40  1   
 42  20  41  1   
 43  21  22  1   
 44  21  42  1   
 45  21  43  1   
 46  22  44  1   
 47  22  45  1   
 48  22  46  1   
@<TRIPOS>SUBSTRUCTURE
  1 ****   9 GROUP 4 **** **** 0

# MOE 2024.06 (io_trps.svl 2023.06)
