@<TRIPOS>MOLECULE
NONAME
42 43 1 0 0 
SMALL
USER_CHARGES


@<TRIPOS>ATOM
  1 CL       1.3810     0.4910    -1.7490 Cl    1 <1>  -0.1770 
  2 C        0.7010     1.7700    -0.7670 C.ar  1 <1>   0.1770 
  3 C        1.4610     2.4410     0.1870 C.ar  1 <1>  -0.1440 
  4 C       -0.6280     2.0850    -0.9840 C.ar  1 <1>  -0.1500 
  5 C        0.8450     3.4480     0.9210 C.ar  1 <1>  -0.1500 
  6 C        2.9300     2.1270     0.4620 C.3   1 <1>   0.3640 
  7 C       -1.2250     3.0880    -0.2430 C.ar  1 <1>  -0.1500 
  8 C       -0.4860     3.7690     0.7080 C.ar  1 <1>  -0.1500 
  9 N        3.0590     0.7210     0.9060 N.am  1 <1>  -0.7300 
 10 C        3.8560     2.4710    -0.7350 C.3   1 <1>   0.2610 
 11 C        3.9880    -0.1320     0.4190 C.2   1 <1>   0.5690 
 12 O        5.0840     1.7610    -0.6800 O.3   1 <1>  -0.5600 
 13 C        4.0610     3.9910    -0.7910 C.2   1 <1>   0.5690 
 14 O        4.0530    -1.2640     0.8240 O.2   1 <1>  -0.5700 
 15 C        4.9460     0.3560    -0.6710 C.3   1 <1>   0.1810 
 16 O        3.3710     4.5940    -1.5820 O.2   1 <1>  -0.5700 
 17 N        4.9490     4.6770     0.0170 N.am  1 <1>  -0.6600 
 18 C        5.8460     4.0560     1.0440 C.3   1 <1>   0.1400 
 19 C        5.0560     6.1650    -0.1030 C.3   1 <1>   0.1400 
 20 C        7.2630     3.8520     0.4980 C.3   1 <1>   0.1200 
 21 C        5.8130     6.5630    -1.3750 C.3   1 <1>   0.1200 
 22 O        8.0770     3.3590     1.5100 O.3   1 <1>  -0.6800 
 23 O        5.9410     7.9430    -1.4140 O.3   1 <1>  -0.6800 
 24 H       -1.1880     1.5480    -1.7290 H     1 <1>   0.1500 
 25 H        1.3930     3.9980     1.6660 H     1 <1>   0.1500 
 26 H        3.2440     2.7380     1.2900 H     1 <1>   0.0800 
 27 H       -2.2590     3.3390    -0.4070 H     1 <1>   0.1500 
 28 H       -0.9490     4.5520     1.2840 H     1 <1>   0.1500 
 29 H        2.3840     0.3680     1.5860 H     1 <1>   0.3700 
 30 H        3.3780     2.1870    -1.6530 H     1 <1>   0.0800 
 31 H        4.5860     0.0410    -1.6330 H     1 <1>   0.0800 
 32 H        5.9200    -0.0680    -0.5060 H     1 <1>   0.0800 
 33 H        5.8830     4.6940     1.9090 H     1 <1>   0.0800 
 34 H        5.4590     3.1040     1.3570 H     1 <1>   0.0800 
 35 H        4.0650     6.5840    -0.1360 H     1 <1>   0.0800 
 36 H        5.5670     6.5680     0.7540 H     1 <1>   0.0800 
 37 H        7.6890     4.7760     0.1500 H     1 <1>   0.0800 
 38 H        7.2570     3.1300    -0.3000 H     1 <1>   0.0800 
 39 H        5.2850     6.2460    -2.2590 H     1 <1>   0.0800 
 40 H        6.8040     6.1450    -1.3770 H     1 <1>   0.0800 
 41 H        8.3050     4.0580     2.1530 H     1 <1>   0.4000 
 42 H        5.0880     8.3570    -1.6510 H     1 <1>   0.4000 
@<TRIPOS>BOND
  1   1   2  1   
  2   2   3  ar  
  3   2   4  ar  
  4   3   5  ar  
  5   3   6  1   
  6   4   7  ar  
  7   4  24  1   
  8   5   8  ar  
  9   5  25  1   
 10   6   9  1   
 11   6  10  1   
 12   6  26  1   
 13   7   8  ar  
 14   7  27  1   
 15   8  28  1   
 16   9  11  am  
 17   9  29  1   
 18  10  12  1   
 19  10  13  1   
 20  10  30  1   
 21  11  14  2   
 22  11  15  1   
 23  12  15  1   
 24  13  16  2   
 25  13  17  am  
 26  15  31  1   
 27  15  32  1   
 28  17  18  1   
 29  17  19  1   
 30  18  20  1   
 31  18  33  1   
 32  18  34  1   
 33  19  21  1   
 34  19  35  1   
 35  19  36  1   
 36  20  22  1   
 37  20  37  1   
 38  20  38  1   
 39  21  23  1   
 40  21  39  1   
 41  21  40  1   
 42  22  41  1   
 43  23  42  1   
@<TRIPOS>SUBSTRUCTURE
  1 ****  10 GROUP 4 **** **** 0

# MOE 2024.06 (io_trps.svl 2023.06)
