@<TRIPOS>MOLECULE
NONAME
51 54 1 0 0 
SMALL
USER_CHARGES


@<TRIPOS>ATOM
  1 O        1.3090    -1.5010     2.0040 O.2   1 <1>  -0.5700 
  2 C        1.3090    -1.7700     0.8210 C.2   1 <1>   0.6900 
  3 N        0.4250    -2.5870     0.1740 N.am  1 <1>  -0.4770 
  4 N        2.2480    -1.3060    -0.0190 N.am  1 <1>  -0.7300 
  5 C       -0.6890    -3.2620     0.6990 C.ar  1 <1>   0.1170 
  6 C        0.8450    -2.7470    -1.2380 C.3   1 <1>   0.1400 
  7 C        2.1300    -1.9090    -1.3540 C.3   1 <1>   0.1400 
  8 C       -1.7850    -2.5840     1.2390 C.ar  1 <1>  -0.1430 
  9 C       -0.7080    -4.6510     0.6720 C.ar  1 <1>  -0.1500 
 10 C       -2.8510    -3.3060     1.7460 C.ar  1 <1>  -0.1500 
 11 C       -1.8390    -1.0620     1.2940 C.3   1 <1>  -0.0970 
 12 C       -1.7820    -5.3920     1.1530 C.ar  1 <1>   0.0860 
 13 C       -2.8480    -4.6880     1.7080 C.ar  1 <1>  -0.1500 
 14 C       -1.7740    -6.8420     1.0800 C.2   1 <1>   0.5440 
 15 O       -0.7830    -7.4590     1.4190 O.2   1 <1>  -0.5700 
 16 N       -2.8570    -7.5510     0.6080 N.am  1 <1>  -0.6600 
 17 C       -3.9420    -6.9880    -0.2360 C.3   1 <1>   0.1400 
 18 C       -2.8600    -9.0340     0.5390 C.3   1 <1>   0.1400 
 19 C       -4.5540    -8.1950    -0.9480 C.3   1 <1>   0.2000 
 20 C       -4.2090    -9.4020    -0.0800 C.3   1 <1>  -0.0800 
 21 O       -5.9300    -8.0760    -1.0690 O.3   1 <1>  -0.6800 
 22 C       -4.2020   -10.7210    -0.8730 C.3   1 <1>  -0.0170 
 23 C       -3.9110   -11.9140     0.0230 C.ar  1 <1>   0.1670 
 24 N       -2.6380   -12.1670     0.2750 N.ar  1 <1>  -0.6200 
 25 C       -4.9620   -12.6740     0.5340 C.ar  1 <1>   0.1600 
 26 C       -2.4860   -13.2160     1.0670 C.ar  1 <1>   0.1600 
 27 N       -4.8130   -13.7230     1.3260 N.ar  1 <1>  -0.6200 
 28 C       -3.5380   -13.9680     1.5750 C.ar  1 <1>   0.1600 
 29 H        3.1060    -0.8980     0.3510 H     1 <1>   0.3700 
 30 H        1.0400    -3.7810    -1.4620 H     1 <1>   0.0800 
 31 H        0.0790    -2.3710    -1.8930 H     1 <1>   0.0800 
 32 H        2.0330    -1.1480    -2.1090 H     1 <1>   0.0800 
 33 H        2.9810    -2.5340    -1.5640 H     1 <1>   0.0800 
 34 H        0.1390    -5.1800     0.2760 H     1 <1>   0.1500 
 35 H       -3.6910    -2.7920     2.1810 H     1 <1>   0.1500 
 36 H       -2.8450    -0.7160     1.4440 H     1 <1>   0.0800 
 37 H       -1.4710    -0.6380     0.3770 H     1 <1>   0.0800 
 38 H       -1.2300    -0.7080     2.1070 H     1 <1>   0.0800 
 39 H       -3.6780    -5.2320     2.1220 H     1 <1>   0.1500 
 40 H       -4.6700    -6.5100     0.3940 H     1 <1>   0.0800 
 41 H       -3.5420    -6.2860    -0.9460 H     1 <1>   0.0800 
 42 H       -2.0450    -9.3580    -0.0880 H     1 <1>   0.0800 
 43 H       -2.7390    -9.4630     1.5190 H     1 <1>   0.0800 
 44 H       -4.1310    -8.2890    -1.9350 H     1 <1>   0.0800 
 45 H       -4.9170    -9.4750     0.7280 H     1 <1>   0.0800 
 46 H       -6.3430    -7.9920    -0.1880 H     1 <1>   0.4000 
 47 H       -3.4610   -10.6780    -1.6520 H     1 <1>   0.0800 
 48 H       -5.1590   -10.8530    -1.3460 H     1 <1>   0.0800 
 49 H       -5.9710   -12.4020     0.2780 H     1 <1>   0.1500 
 50 H       -1.4790   -13.4940     1.3260 H     1 <1>   0.1500 
 51 H       -3.3130   -14.8040     2.2120 H     1 <1>   0.1500 
@<TRIPOS>BOND
  1   1   2  2   
  2   2   3  am  
  3   2   4  am  
  4   3   5  1   
  5   3   6  1   
  6   4   7  1   
  7   4  29  1   
  8   5   8  ar  
  9   5   9  ar  
 10   6   7  1   
 11   6  30  1   
 12   6  31  1   
 13   7  32  1   
 14   7  33  1   
 15   8  10  ar  
 16   8  11  1   
 17   9  12  ar  
 18   9  34  1   
 19  10  13  ar  
 20  10  35  1   
 21  11  36  1   
 22  11  37  1   
 23  11  38  1   
 24  12  13  ar  
 25  12  14  1   
 26  13  39  1   
 27  14  15  2   
 28  14  16  am  
 29  16  17  1   
 30  16  18  1   
 31  17  19  1   
 32  17  40  1   
 33  17  41  1   
 34  18  20  1   
 35  18  42  1   
 36  18  43  1   
 37  19  20  1   
 38  19  21  1   
 39  19  44  1   
 40  20  22  1   
 41  20  45  1   
 42  21  46  1   
 43  22  23  1   
 44  22  47  1   
 45  22  48  1   
 46  23  24  ar  
 47  23  25  ar  
 48  24  26  ar  
 49  25  27  ar  
 50  25  49  1   
 51  26  28  ar  
 52  26  50  1   
 53  27  28  ar  
 54  28  51  1   
@<TRIPOS>SUBSTRUCTURE
  1 ****  14 GROUP 4 **** **** 0

# MOE 2024.06 (io_trps.svl 2023.06)
