@<TRIPOS>MOLECULE
NONAME
52 55 1 0 0 
SMALL
USER_CHARGES


@<TRIPOS>ATOM
  1 O        0.2520    -1.8390    -2.0700 O.2   1 <1>  -0.5700 
  2 C        1.0140    -2.6020    -1.5260 C.2   1 <1>   0.5690 
  3 N        0.9270    -3.9620    -1.6390 N.am  1 <1>  -0.6600 
  4 C        2.1280    -2.0400    -0.6650 C.3   1 <1>  -0.0990 
  5 C        1.8900    -4.8370    -0.9240 C.3   1 <1>   0.1400 
  6 C       -0.1450    -4.6360    -2.4190 C.3   1 <1>   0.0600 
  7 C        3.4560    -2.7580    -0.9680 C.3   1 <1>  -0.0800 
  8 C        3.3230    -4.2910    -1.0790 C.3   1 <1>  -0.0800 
  9 C        4.5420    -2.4920     0.0810 C.3   1 <1>  -0.1600 
 10 C        4.2930    -4.8620    -0.0400 C.3   1 <1>  -0.1600 
 11 C        5.3620    -3.7830     0.1550 C.3   1 <1>   0.2200 
 12 N        6.1250    -3.9350     1.4400 N.am  1 <1>  -0.6600 
 13 C        6.7940    -2.9030     2.0730 C.2   1 <1>   0.7160 
 14 C        6.3140    -5.3290     1.9500 C.3   1 <1>   0.0600 
 15 O        7.0450    -3.0130     3.2580 O.2   1 <1>  -0.5700 
 16 C        7.2240    -1.7100     1.3920 C.2   1 <1>  -0.0860 
 17 C        7.9540    -1.6180     0.2100 C.2   1 <1>   0.2350 
 18 C        7.0350    -0.4140     1.7050 C.2   1 <1>  -0.0400 
 19 N        8.1020    -0.3720    -0.1000 N.2   1 <1>  -0.4100 
 20 C        8.4730    -2.7200    -0.5720 C.ar  1 <1>   0.0540 
 21 O        7.5520     0.3910     0.8120 O.3   1 <1>  -0.0190 
 22 C        6.3250     0.1990     2.8960 C.3   1 <1>  -0.0600 
 23 C        9.1110    -3.8080     0.0230 C.ar  1 <1>  -0.1500 
 24 C        8.3380    -2.7280    -1.9590 C.ar  1 <1>  -0.1500 
 25 C        9.5720    -4.8710    -0.7330 C.ar  1 <1>  -0.1500 
 26 C        8.7970    -3.7870    -2.7200 C.ar  1 <1>  -0.1500 
 27 C        9.4130    -4.8630    -2.1070 C.ar  1 <1>  -0.1500 
 28 H        2.2290    -0.9860    -0.8480 H     1 <1>   0.0800 
 29 H        1.8480    -2.1800     0.3620 H     1 <1>   0.0800 
 30 H        1.6110    -4.8620     0.1150 H     1 <1>   0.0800 
 31 H        1.8410    -5.8400    -1.3120 H     1 <1>   0.0800 
 32 H       -0.7270    -5.2660    -1.7690 H     1 <1>   0.0800 
 33 H        0.2920    -5.2330    -3.2000 H     1 <1>   0.0800 
 34 H       -0.8000    -3.9080    -2.8680 H     1 <1>   0.0800 
 35 H        3.8100    -2.4000    -1.9210 H     1 <1>   0.0800 
 36 H        3.6760    -4.5770    -2.0560 H     1 <1>   0.0800 
 37 H        4.0920    -2.3050     1.0410 H     1 <1>   0.0800 
 38 H        5.1320    -1.6450    -0.2150 H     1 <1>   0.0800 
 39 H        4.7170    -5.7910    -0.3770 H     1 <1>   0.0800 
 40 H        3.7700    -5.0120     0.8890 H     1 <1>   0.0800 
 41 H        6.0440    -3.8250    -0.6770 H     1 <1>   0.0800 
 42 H        6.5760    -5.9860     1.1390 H     1 <1>   0.0800 
 43 H        5.4100    -5.6740     2.4180 H     1 <1>   0.0800 
 44 H        7.1070    -5.3660     2.6780 H     1 <1>   0.0800 
 45 H        5.9370    -0.5650     3.5450 H     1 <1>   0.0800 
 46 H        5.5110     0.8150     2.5590 H     1 <1>   0.0800 
 47 H        7.0140     0.8070     3.4550 H     1 <1>   0.0800 
 48 H        9.2520    -3.8220     1.0900 H     1 <1>   0.1500 
 49 H        7.8660    -1.8900    -2.4410 H     1 <1>   0.1500 
 50 H       10.0600    -5.7020    -0.2530 H     1 <1>   0.1500 
 51 H        8.6800    -3.7730    -3.7900 H     1 <1>   0.1500 
 52 H        9.7730    -5.6890    -2.6970 H     1 <1>   0.1500 
@<TRIPOS>BOND
  1   1   2  2   
  2   2   3  am  
  3   2   4  1   
  4   3   5  1   
  5   3   6  1   
  6   4   7  1   
  7   4  28  1   
  8   4  29  1   
  9   5   8  1   
 10   5  30  1   
 11   5  31  1   
 12   6  32  1   
 13   6  33  1   
 14   6  34  1   
 15   7   8  1   
 16   7   9  1   
 17   7  35  1   
 18   8  10  1   
 19   8  36  1   
 20   9  11  1   
 21   9  37  1   
 22   9  38  1   
 23  10  11  1   
 24  10  39  1   
 25  10  40  1   
 26  11  12  1   
 27  11  41  1   
 28  12  13  am  
 29  12  14  1   
 30  13  15  2   
 31  13  16  1   
 32  14  42  1   
 33  14  43  1   
 34  14  44  1   
 35  16  17  1   
 36  16  18  2   
 37  17  19  2   
 38  17  20  1   
 39  18  21  1   
 40  18  22  1   
 41  19  21  1   
 42  20  23  ar  
 43  20  24  ar  
 44  22  45  1   
 45  22  46  1   
 46  22  47  1   
 47  23  25  ar  
 48  23  48  1   
 49  24  26  ar  
 50  24  49  1   
 51  25  27  ar  
 52  25  50  1   
 53  26  27  ar  
 54  26  51  1   
 55  27  52  1   
@<TRIPOS>SUBSTRUCTURE
  1 ****  11 GROUP 4 **** **** 0

# MOE 2024.06 (io_trps.svl 2023.06)
