@<TRIPOS>MOLECULE
NONAME
51 54 1 0 0 
SMALL
USER_CHARGES


@<TRIPOS>ATOM
  1 O       -1.0210     0.7340    -2.0860 O.2   1 <1>  -0.5700 
  2 C       -1.9170     1.1970    -1.3940 C.2   1 <1>   0.7160 
  3 N       -3.0960     0.4680    -1.3070 N.am  1 <1>  -0.6600 
  4 C       -1.6850     2.4680    -0.7060 C.2   1 <1>   0.2030 
  5 C       -4.1180     0.6580    -0.2390 C.3   1 <1>   0.1400 
  6 C       -3.4560    -0.5730    -2.3110 C.3   1 <1>   0.1400 
  7 N       -2.5810     3.3480    -0.2830 N.2   1 <1>  -0.7070 
  8 C       -0.3980     2.9420    -0.4190 C.2   1 <1>  -0.1500 
  9 C       -4.3720    -0.6710     0.4760 C.3   1 <1>  -0.1600 
 10 C       -3.6980    -1.9120    -1.6100 C.3   1 <1>  -0.1600 
 11 N       -1.8850     4.3510     0.2600 N.pl3 1 <1>   0.3140 
 12 C       -0.5560     4.1310     0.1930 C.2   1 <1>  -0.3320 
 13 C       -4.7570    -1.7990    -0.5000 C.3   1 <1>   0.4240 
 14 C       -2.5570     5.5230     0.8340 C.3   1 <1>   0.0160 
 15 C        0.5140     5.0740     0.7160 C.3   1 <1>  -0.0600 
 16 O       -5.9170    -1.3730    -1.1830 O.3   1 <1>  -0.5600 
 17 C       -4.9890    -3.1610     0.2190 C.ar  1 <1>  -0.1430 
 18 C       -7.1450    -1.5710    -0.5650 C.3   1 <1>   0.1200 
 19 C       -3.9650    -3.8260     0.9090 C.ar  1 <1>   0.0830 
 20 C       -6.2510    -3.7540     0.1930 C.ar  1 <1>  -0.1430 
 21 C       -7.4050    -3.0670    -0.5090 C.3   1 <1>  -0.0170 
 22 O       -2.7340    -3.2530     0.9720 O.3   1 <1>  -0.3630 
 23 C       -4.2130    -5.0520     1.5250 C.ar  1 <1>  -0.1500 
 24 C       -6.4860    -4.9730     0.8060 C.ar  1 <1>  -0.1500 
 25 C       -1.6200    -3.8870     1.5600 C.3   1 <1>   0.0400 
 26 C       -5.4680    -5.6230     1.4710 C.ar  1 <1>  -0.1500 
 27 H       -5.0270     1.0240    -0.6850 H     1 <1>   0.0800 
 28 H       -3.7880     1.3730     0.4910 H     1 <1>   0.0800 
 29 H       -2.6750    -0.6870    -3.0430 H     1 <1>   0.0800 
 30 H       -4.3480    -0.2640    -2.8280 H     1 <1>   0.0800 
 31 H        0.5110     2.4220    -0.6640 H     1 <1>   0.1500 
 32 H       -5.1360    -0.5490     1.2190 H     1 <1>   0.0800 
 33 H       -3.4730    -0.9290     1.0000 H     1 <1>   0.0800 
 34 H       -2.7580    -2.2420    -1.2150 H     1 <1>   0.0800 
 35 H       -4.0180    -2.6460    -2.3260 H     1 <1>   0.0800 
 36 H       -3.6200     5.4050     0.7300 H     1 <1>   0.0800 
 37 H       -2.2390     6.4030     0.3090 H     1 <1>   0.0800 
 38 H       -2.3030     5.6010     1.8740 H     1 <1>   0.0800 
 39 H        1.4900     4.6610     0.5360 H     1 <1>   0.0800 
 40 H        0.3960     5.2230     1.7750 H     1 <1>   0.0800 
 41 H        0.4490     6.0250     0.2170 H     1 <1>   0.0800 
 42 H       -7.8960    -1.0770    -1.1560 H     1 <1>   0.0800 
 43 H       -7.1260    -1.1390     0.4190 H     1 <1>   0.0800 
 44 H       -7.5050    -3.4520    -1.5090 H     1 <1>   0.0800 
 45 H       -8.3240    -3.2460     0.0180 H     1 <1>   0.0800 
 46 H       -3.4450    -5.5790     2.0540 H     1 <1>   0.1500 
 47 H       -7.4630    -5.4210     0.7700 H     1 <1>   0.1500 
 48 H       -0.7680    -3.2420     1.4360 H     1 <1>   0.0800 
 49 H       -1.4460    -4.8220     1.0580 H     1 <1>   0.0800 
 50 H       -1.8150    -4.0370     2.6060 H     1 <1>   0.0800 
 51 H       -5.6530    -6.5710     1.9460 H     1 <1>   0.1500 
@<TRIPOS>BOND
  1   1   2  2   
  2   2   3  am  
  3   2   4  1   
  4   3   5  1   
  5   3   6  1   
  6   4   7  2   
  7   4   8  1   
  8   5   9  1   
  9   5  27  1   
 10   5  28  1   
 11   6  10  1   
 12   6  29  1   
 13   6  30  1   
 14   7  11  1   
 15   8  12  2   
 16   8  31  1   
 17   9  13  1   
 18   9  32  1   
 19   9  33  1   
 20  10  13  1   
 21  10  34  1   
 22  10  35  1   
 23  11  12  1   
 24  11  14  1   
 25  12  15  1   
 26  13  16  1   
 27  13  17  1   
 28  14  36  1   
 29  14  37  1   
 30  14  38  1   
 31  15  39  1   
 32  15  40  1   
 33  15  41  1   
 34  16  18  1   
 35  17  19  ar  
 36  17  20  ar  
 37  18  21  1   
 38  18  42  1   
 39  18  43  1   
 40  19  22  1   
 41  19  23  ar  
 42  20  21  1   
 43  20  24  ar  
 44  21  44  1   
 45  21  45  1   
 46  22  25  1   
 47  23  26  ar  
 48  23  46  1   
 49  24  26  ar  
 50  24  47  1   
 51  25  48  1   
 52  25  49  1   
 53  25  50  1   
 54  26  51  1   
@<TRIPOS>SUBSTRUCTURE
  1 ****   9 GROUP 4 **** **** 0

# MOE 2024.06 (io_trps.svl 2023.06)
