@<TRIPOS>MOLECULE
NONAME
50 52 1 0 0 
SMALL
USER_CHARGES


@<TRIPOS>ATOM
  1 O        1.3870    -0.0210     0.3080 O.2   1 <1>  -0.5700 
  2 C        2.2380    -0.8660     0.4300 C.2   1 <1>   0.5690 
  3 N        3.4970    -0.5380     0.8700 N.am  1 <1>  -0.6600 
  4 C        1.8820    -2.2970     0.0620 C.3   1 <1>  -0.0990 
  5 C        4.7110    -1.4140     0.7880 C.3   1 <1>   0.1400 
  6 C        3.7240     0.7810     1.5260 C.3   1 <1>   0.1400 
  7 C        0.3660    -2.4950    -0.0980 C.3   1 <1>   0.0960 
  8 C        5.7140    -0.9570    -0.2970 C.3   1 <1>   0.3430 
  9 C        4.0750     1.8520     0.4900 C.3   1 <1>  -0.1600 
 10 N        0.0690    -3.9020    -0.4250 N.pl3 1 <1>   0.0480 
 11 N        6.0200     0.5130    -0.2680 N.4   1 <1>  -0.9590 
 12 C        4.8630     1.3430    -0.7160 C.3   1 <1>   0.3430 
 13 C       -0.1010    -4.4620    -1.6230 C.2   1 <1>   0.0360 
 14 C       -0.0660    -4.9390     0.4030 C.2   1 <1>   0.0360 
 15 C        7.2680     0.8500    -1.0050 C.3   1 <1>   0.4860 
 16 N       -0.3110    -5.7290    -1.5340 N.2   1 <1>  -0.3380 
 17 N       -0.2890    -6.0350    -0.2350 N.2   1 <1>  -0.3380 
 18 C        7.6560     2.2800    -0.6930 C.ar  1 <1>  -0.1440 
 19 C        7.8970     2.6670     0.6230 C.ar  1 <1>   0.3930 
 20 C        7.7730     3.2160    -1.7010 C.ar  1 <1>  -0.1500 
 21 O        7.7690     1.7270     1.5910 O.3   1 <1>  -0.3630 
 22 N        8.2270     3.8980     0.9880 N.ar  1 <1>  -0.6200 
 23 C        8.1240     4.4960    -1.3280 C.ar  1 <1>  -0.1500 
 24 C        8.1040     2.0270     2.9370 C.3   1 <1>   0.0400 
 25 C        8.3370     4.7800     0.0090 C.ar  1 <1>   0.1600 
 26 H        2.2330    -2.9480     0.8410 H     1 <1>   0.0800 
 27 H        2.3730    -2.5460    -0.8600 H     1 <1>   0.0800 
 28 H        4.4310    -2.4310     0.5830 H     1 <1>   0.0800 
 29 H        5.2050    -1.4180     1.7450 H     1 <1>   0.0800 
 30 H        4.5170     0.6930     2.2500 H     1 <1>   0.0800 
 31 H        2.8370     1.0810     2.0630 H     1 <1>   0.0800 
 32 H       -0.0120    -1.8670    -0.8860 H     1 <1>   0.0800 
 33 H       -0.1420    -2.2350     0.8140 H     1 <1>   0.0800 
 34 H        5.3170    -1.2180    -1.2650 H     1 <1>   0.0800 
 35 H        6.6260    -1.5150    -0.1620 H     1 <1>   0.0800 
 36 H        4.6150     2.6500     0.9690 H     1 <1>   0.0800 
 37 H        3.1570     2.2790     0.1260 H     1 <1>   0.0800 
 38 H        6.2270     0.7940     0.7040 H     1 <1>   0.4500 
 39 H        5.2020     2.1920    -1.2890 H     1 <1>   0.0800 
 40 H        4.2120     0.7550    -1.3430 H     1 <1>   0.0800 
 41 H       -0.0630    -3.9130    -2.5460 H     1 <1>   0.1500 
 42 H        0.0070    -4.8570     1.4720 H     1 <1>   0.1500 
 43 H        7.1220     0.7270    -2.0660 H     1 <1>   0.0800 
 44 H        8.0680     0.1990    -0.6900 H     1 <1>   0.0800 
 45 H        7.6070     2.9790    -2.7400 H     1 <1>   0.1500 
 46 H        8.2360     5.2730    -2.0650 H     1 <1>   0.1500 
 47 H        7.9660     1.1430     3.5340 H     1 <1>   0.0800 
 48 H        7.4640     2.8160     3.2920 H     1 <1>   0.0800 
 49 H        9.1330     2.3390     2.9790 H     1 <1>   0.0800 
 50 H        8.6110     5.7850     0.2880 H     1 <1>   0.1500 
@<TRIPOS>BOND
  1   1   2  2   
  2   2   3  am  
  3   2   4  1   
  4   3   5  1   
  5   3   6  1   
  6   4   7  1   
  7   4  26  1   
  8   4  27  1   
  9   5   8  1   
 10   5  28  1   
 11   5  29  1   
 12   6   9  1   
 13   6  30  1   
 14   6  31  1   
 15   7  10  1   
 16   7  32  1   
 17   7  33  1   
 18   8  11  1   
 19   8  34  1   
 20   8  35  1   
 21   9  12  1   
 22   9  36  1   
 23   9  37  1   
 24  10  13  1   
 25  10  14  1   
 26  11  12  1   
 27  11  15  1   
 28  11  38  1   
 29  12  39  1   
 30  12  40  1   
 31  13  16  2   
 32  13  41  1   
 33  14  17  2   
 34  14  42  1   
 35  15  18  1   
 36  15  43  1   
 37  15  44  1   
 38  16  17  1   
 39  18  19  ar  
 40  18  20  ar  
 41  19  21  1   
 42  19  22  ar  
 43  20  23  ar  
 44  20  45  1   
 45  21  24  1   
 46  22  25  ar  
 47  23  25  ar  
 48  23  46  1   
 49  24  47  1   
 50  24  48  1   
 51  24  49  1   
 52  25  50  1   
@<TRIPOS>SUBSTRUCTURE
  1 ****   3 GROUP 4 **** **** 0

# MOE 2024.06 (io_trps.svl 2023.06)
