@<TRIPOS>MOLECULE
NONAME
54 58 1 0 0 
SMALL
USER_CHARGES


@<TRIPOS>ATOM
  1 S       -1.5620     1.8410     0.9390 S.3   1 <1>  -0.0800 
  2 C       -0.4570     3.1510     0.5800 C.2   1 <1>  -0.1400 
  3 C       -0.2280     0.6980     0.9680 C.2   1 <1>  -0.1100 
  4 C        0.8090     2.7250     0.4790 C.2   1 <1>  -0.1810 
  5 C       -0.9140     4.5760     0.4240 C.3   1 <1>   0.0200 
  6 C        0.9420     1.3140     0.7120 C.2   1 <1>  -0.1500 
  7 C        1.9460     3.7020     0.1580 C.3   1 <1>   0.4610 
  8 C        0.3270     5.4690     0.5740 C.3   1 <1>   0.1200 
  9 O        1.4020     4.9670    -0.1830 O.3   1 <1>  -0.5600 
 10 C        2.8730     3.8740     1.3690 C.3   1 <1>  -0.1600 
 11 C        2.7510     3.2370    -1.0740 C.3   1 <1>  -0.1600 
 12 C        3.9530     4.9310     1.1030 C.3   1 <1>   0.1400 
 13 C        4.2450     3.5910    -1.0180 C.3   1 <1>   0.1400 
 14 N        4.4370     4.8840    -0.3110 N.am  1 <1>  -0.6600 
 15 C        4.8200     6.0160    -1.0010 C.2   1 <1>   0.7160 
 16 O        5.4030     5.8980    -2.0640 O.2   1 <1>  -0.5700 
 17 C        4.5300     7.3280    -0.4820 C.2   1 <1>  -0.0860 
 18 C        5.3010     8.3000     0.0900 C.2   1 <1>  -0.3320 
 19 C        3.2470     7.8780    -0.4670 C.2   1 <1>   0.1390 
 20 N        4.4830     9.3210     0.3940 N.pl3 1 <1>   0.3000 
 21 C        6.7970     8.3290     0.3720 C.3   1 <1>   0.1000 
 22 N        3.2060     9.0600     0.0620 N.2   1 <1>  -0.7070 
 23 C        7.5880     8.4640    -0.9360 C.3   1 <1>  -0.1600 
 24 C        7.2440     7.0850     1.1550 C.3   1 <1>  -0.1600 
 25 C        9.1020     8.4840    -0.6770 C.3   1 <1>  -0.1600 
 26 C        8.7550     7.1100     1.4270 C.3   1 <1>  -0.1600 
 27 C        9.5440     7.2470     0.1180 C.3   1 <1>  -0.1600 
 28 H       -0.4670    -0.3300     1.1790 H     1 <1>   0.1500 
 29 H       -1.6360     4.8260     1.1800 H     1 <1>   0.0800 
 30 H       -1.3600     4.7160    -0.5440 H     1 <1>   0.0800 
 31 H        1.9010     0.8280     0.6780 H     1 <1>   0.1500 
 32 H        0.6310     5.5250     1.6040 H     1 <1>   0.0800 
 33 H        0.1150     6.4650     0.2240 H     1 <1>   0.0800 
 34 H        3.3470     2.9340     1.5810 H     1 <1>   0.0800 
 35 H        2.3070     4.1380     2.2420 H     1 <1>   0.0800 
 36 H        2.3140     3.6620    -1.9590 H     1 <1>   0.0800 
 37 H        2.6820     2.1710    -1.1800 H     1 <1>   0.0800 
 38 H        4.7850     4.7790     1.7690 H     1 <1>   0.0800 
 39 H        3.5330     5.8980     1.3170 H     1 <1>   0.0800 
 40 H        4.6460     3.6300    -2.0170 H     1 <1>   0.0800 
 41 H        4.7830     2.8290    -0.4820 H     1 <1>   0.0800 
 42 H        2.3820     7.3650    -0.8540 H     1 <1>   0.1500 
 43 H        4.7580    10.2110     0.8270 H     1 <1>   0.2700 
 44 H        7.0130     9.1920     0.9810 H     1 <1>   0.0800 
 45 H        7.2950     9.3670    -1.4430 H     1 <1>   0.0800 
 46 H        7.3530     7.6370    -1.5820 H     1 <1>   0.0800 
 47 H        7.0130     6.2000     0.5910 H     1 <1>   0.0800 
 48 H        6.7080     7.0350     2.0870 H     1 <1>   0.0800 
 49 H        9.3610     9.3730    -0.1280 H     1 <1>   0.0800 
 50 H        9.6250     8.5120    -1.6180 H     1 <1>   0.0800 
 51 H        9.0460     6.2030     1.9280 H     1 <1>   0.0800 
 52 H        8.9910     7.9360     2.0750 H     1 <1>   0.0800 
 53 H       10.5960     7.3140     0.3340 H     1 <1>   0.0800 
 54 H        9.3880     6.3670    -0.4840 H     1 <1>   0.0800 
@<TRIPOS>BOND
  1   1   2  1   
  2   1   3  1   
  3   2   4  2   
  4   2   5  1   
  5   3   6  2   
  6   3  28  1   
  7   4   6  1   
  8   4   7  1   
  9   5   8  1   
 10   5  29  1   
 11   5  30  1   
 12   6  31  1   
 13   7   9  1   
 14   7  10  1   
 15   7  11  1   
 16   8   9  1   
 17   8  32  1   
 18   8  33  1   
 19  10  12  1   
 20  10  34  1   
 21  10  35  1   
 22  11  13  1   
 23  11  36  1   
 24  11  37  1   
 25  12  14  1   
 26  12  38  1   
 27  12  39  1   
 28  13  14  1   
 29  13  40  1   
 30  13  41  1   
 31  14  15  am  
 32  15  16  2   
 33  15  17  1   
 34  17  18  2   
 35  17  19  1   
 36  18  20  1   
 37  18  21  1   
 38  19  22  2   
 39  19  42  1   
 40  20  22  1   
 41  20  43  1   
 42  21  23  1   
 43  21  24  1   
 44  21  44  1   
 45  23  25  1   
 46  23  45  1   
 47  23  46  1   
 48  24  26  1   
 49  24  47  1   
 50  24  48  1   
 51  25  27  1   
 52  25  49  1   
 53  25  50  1   
 54  26  27  1   
 55  26  51  1   
 56  26  52  1   
 57  27  53  1   
 58  27  54  1   
@<TRIPOS>SUBSTRUCTURE
  1 ****  14 GROUP 4 **** **** 0

# MOE 2024.06 (io_trps.svl 2023.06)
