@<TRIPOS>MOLECULE
NONAME
39 41 1 0 0 
SMALL
USER_CHARGES


@<TRIPOS>ATOM
  1 F        0.8070     0.4340    -0.8930 F     1 <1>  -0.1900 
  2 C        1.7720    -0.2860    -0.3900 C.ar  1 <1>   0.1900 
  3 C        3.0970     0.1620    -0.4720 C.ar  1 <1>   0.3960 
  4 C        1.4220    -1.4670     0.2250 C.ar  1 <1>  -0.1500 
  5 N        4.1110    -0.5420     0.0920 N.ar  1 <1>  -0.6200 
  6 C        3.4020     1.4000    -1.1830 C.2   1 <1>   0.5440 
  7 C        2.4760    -2.1650     0.7610 C.ar  1 <1>   0.1900 
  8 C        3.7760    -1.6860     0.6800 C.ar  1 <1>   0.1600 
  9 O        3.1190     1.4850    -2.3630 O.2   1 <1>  -0.5700 
 10 N        4.0690     2.4770    -0.6070 N.am  1 <1>  -0.6600 
 11 F        2.2490    -3.2970     1.3640 F     1 <1>  -0.1900 
 12 C        4.6210     2.4150     0.7990 C.3   1 <1>   0.2200 
 13 C        4.4020     3.6830    -1.4440 C.3   1 <1>   0.1400 
 14 C        4.4880     3.7390     1.5700 C.3   1 <1>   0.1200 
 15 C        6.0930     1.9320     0.7700 C.3   1 <1>   0.3430 
 16 C        5.7120     4.4030    -1.0650 C.3   1 <1>  -0.0800 
 17 O        5.5890     4.5630     1.3360 O.3   1 <1>  -0.5600 
 18 N        6.7160     2.0910    -0.5920 N.4   1 <1>  -0.9590 
 19 C        5.5420     5.3050     0.1660 C.3   1 <1>   0.1200 
 20 C        6.9740     3.5170    -0.9700 C.3   1 <1>   0.3430 
 21 C        7.9350     1.2460    -0.7390 C.3   1 <1>   0.2630 
 22 H        0.4060    -1.8150     0.2830 H     1 <1>   0.1500 
 23 H        4.5590    -2.2790     1.1210 H     1 <1>   0.1500 
 24 H        4.0490     1.7040     1.3650 H     1 <1>   0.0800 
 25 H        4.4820     3.3890    -2.4780 H     1 <1>   0.0800 
 26 H        3.5790     4.3750    -1.3850 H     1 <1>   0.0800 
 27 H        4.4870     3.5310     2.6260 H     1 <1>   0.0800 
 28 H        3.5730     4.2550     1.3300 H     1 <1>   0.0800 
 29 H        6.0980     0.8890     1.0380 H     1 <1>   0.0800 
 30 H        6.6670     2.4620     1.5120 H     1 <1>   0.0800 
 31 H        5.8990     5.0920    -1.8690 H     1 <1>   0.0800 
 32 H        5.9820     1.7540    -1.2410 H     1 <1>   0.4500 
 33 H        4.6190     5.8600     0.1340 H     1 <1>   0.0800 
 34 H        6.3530     6.0130     0.2150 H     1 <1>   0.0800 
 35 H        7.6590     3.9600    -0.2640 H     1 <1>   0.0800 
 36 H        7.4540     3.5270    -1.9350 H     1 <1>   0.0800 
 37 H        8.7010     1.5710    -0.0540 H     1 <1>   0.0800 
 38 H        8.3170     1.3120    -1.7440 H     1 <1>   0.0800 
 39 H        7.6990     0.2140    -0.5300 H     1 <1>   0.0800 
@<TRIPOS>BOND
  1   1   2  1   
  2   2   3  ar  
  3   2   4  ar  
  4   3   5  ar  
  5   3   6  1   
  6   4   7  ar  
  7   4  22  1   
  8   5   8  ar  
  9   6   9  2   
 10   6  10  am  
 11   7   8  ar  
 12   7  11  1   
 13   8  23  1   
 14  10  12  1   
 15  10  13  1   
 16  12  14  1   
 17  12  15  1   
 18  12  24  1   
 19  13  16  1   
 20  13  25  1   
 21  13  26  1   
 22  14  17  1   
 23  14  27  1   
 24  14  28  1   
 25  15  18  1   
 26  15  29  1   
 27  15  30  1   
 28  16  19  1   
 29  16  20  1   
 30  16  31  1   
 31  17  19  1   
 32  18  20  1   
 33  18  21  1   
 34  18  32  1   
 35  19  33  1   
 36  19  34  1   
 37  20  35  1   
 38  20  36  1   
 39  21  37  1   
 40  21  38  1   
 41  21  39  1   
@<TRIPOS>SUBSTRUCTURE
  1 ****  10 GROUP 4 **** **** 0

# MOE 2024.06 (io_trps.svl 2023.06)
