@<TRIPOS>MOLECULE
NONAME
56 59 1 0 0 
SMALL
USER_CHARGES


@<TRIPOS>ATOM
  1 O        1.8010    -2.6210    -2.7280 O.2   1 <1>  -0.5700 
  2 C        1.6660    -2.6190    -1.5290 C.2   1 <1>   0.5690 
  3 N        2.2840    -1.7950    -0.6590 N.am  1 <1>  -0.6600 
  4 C        0.7710    -3.5860    -0.8100 C.3   1 <1>  -0.0990 
  5 C        1.9620    -2.1190     0.7430 C.3   1 <1>   0.1400 
  6 C        3.2960    -0.7840    -1.0270 C.3   1 <1>   0.2780 
  7 C        0.7300    -3.0390     0.6310 C.3   1 <1>  -0.0190 
  8 C        2.8660     0.5790    -0.5150 C.2   1 <1>  -0.2880 
  9 C        0.6630    -4.1410     1.6860 C.2   1 <1>   0.5690 
 10 C        2.5040     1.6100    -1.2860 C.2   1 <1>  -0.3000 
 11 O        1.6270    -4.3030     2.3990 O.2   1 <1>  -0.5700 
 12 N       -0.4510    -4.9360     1.8040 N.am  1 <1>  -0.6600 
 13 C       -1.7440    -4.7620     1.0850 C.3   1 <1>   0.1400 
 14 C       -0.4200    -6.1870     2.6100 C.3   1 <1>   0.1400 
 15 C       -1.9250    -5.9180     0.0990 C.3   1 <1>  -0.1600 
 16 C       -0.5570    -7.3820     1.6620 C.3   1 <1>  -0.1600 
 17 C       -1.8250    -7.2940     0.7920 C.3   1 <1>   0.4240 
 18 O       -2.8770    -7.3410     1.7320 O.3   1 <1>  -0.5600 
 19 C       -1.8950    -8.4730    -0.2210 C.ar  1 <1>  -0.1430 
 20 C       -4.1280    -7.7610     1.2930 C.3   1 <1>   0.1200 
 21 C       -0.9320    -8.6520    -1.2240 C.ar  1 <1>   0.0830 
 22 C       -2.9440    -9.3890    -0.1470 C.ar  1 <1>  -0.1430 
 23 C       -4.0260    -9.2260     0.9000 C.3   1 <1>  -0.0160 
 24 O        0.0880    -7.7580    -1.3270 O.3   1 <1>  -0.3630 
 25 C       -1.0270    -9.7300    -2.1020 C.ar  1 <1>  -0.1500 
 26 C       -3.0260   -10.4570    -1.0240 C.ar  1 <1>  -0.1500 
 27 C        1.0660    -7.8210    -2.3420 C.3   1 <1>   0.0400 
 28 C       -2.0680   -10.6300    -2.0010 C.ar  1 <1>  -0.1500 
 29 H        1.2180    -4.5630    -0.8450 H     1 <1>   0.0800 
 30 H       -0.2000    -3.6070    -1.2660 H     1 <1>   0.0800 
 31 H        1.7300    -1.2340     1.3090 H     1 <1>   0.0800 
 32 H        2.8070    -2.6210     1.1830 H     1 <1>   0.0800 
 33 H        3.3980    -0.7550    -2.0990 H     1 <1>   0.0800 
 34 H        4.2480    -1.0560    -0.6050 H     1 <1>   0.0800 
 35 H       -0.1300    -2.4060     0.7420 H     1 <1>   0.0800 
 36 H        2.8810     0.6410     0.5580 H     1 <1>   0.1500 
 37 H        2.2030     2.5700    -0.9040 H     1 <1>   0.1500 
 38 H        2.4750     1.5780    -2.3620 H     1 <1>   0.1500 
 39 H       -1.7830    -3.8250     0.5620 H     1 <1>   0.0800 
 40 H       -2.5460    -4.7700     1.8040 H     1 <1>   0.0800 
 41 H       -1.2310    -6.1770     3.3180 H     1 <1>   0.0800 
 42 H        0.5010    -6.2680     3.1620 H     1 <1>   0.0800 
 43 H       -1.1690    -5.8250    -0.6530 H     1 <1>   0.0800 
 44 H       -2.8680    -5.8300    -0.4040 H     1 <1>   0.0800 
 45 H       -0.5850    -8.2940     2.2280 H     1 <1>   0.0800 
 46 H        0.3250    -7.4150     1.0550 H     1 <1>   0.0800 
 47 H       -4.4380    -7.1540     0.4610 H     1 <1>   0.0800 
 48 H       -4.8230    -7.6350     2.1050 H     1 <1>   0.0800 
 49 H       -4.9740    -9.5550     0.5140 H     1 <1>   0.0800 
 50 H       -3.7870    -9.8160     1.7670 H     1 <1>   0.0800 
 51 H       -0.2990    -9.8920    -2.8730 H     1 <1>   0.1500 
 52 H       -3.8380   -11.1600    -0.9510 H     1 <1>   0.1500 
 53 H        1.7340    -6.9880    -2.2150 H     1 <1>   0.0800 
 54 H        0.5810    -7.7560    -3.3000 H     1 <1>   0.0800 
 55 H        1.6110    -8.7430    -2.2450 H     1 <1>   0.0800 
 56 H       -2.1350   -11.4610    -2.6800 H     1 <1>   0.1500 
@<TRIPOS>BOND
  1   1   2  2   
  2   2   3  am  
  3   2   4  1   
  4   3   5  1   
  5   3   6  1   
  6   4   7  1   
  7   4  29  1   
  8   4  30  1   
  9   5   7  1   
 10   5  31  1   
 11   5  32  1   
 12   6   8  1   
 13   6  33  1   
 14   6  34  1   
 15   7   9  1   
 16   7  35  1   
 17   8  10  2   
 18   8  36  1   
 19   9  11  2   
 20   9  12  am  
 21  10  37  1   
 22  10  38  1   
 23  12  13  1   
 24  12  14  1   
 25  13  15  1   
 26  13  39  1   
 27  13  40  1   
 28  14  16  1   
 29  14  41  1   
 30  14  42  1   
 31  15  17  1   
 32  15  43  1   
 33  15  44  1   
 34  16  17  1   
 35  16  45  1   
 36  16  46  1   
 37  17  18  1   
 38  17  19  1   
 39  18  20  1   
 40  19  21  ar  
 41  19  22  ar  
 42  20  23  1   
 43  20  47  1   
 44  20  48  1   
 45  21  24  1   
 46  21  25  ar  
 47  22  23  1   
 48  22  26  ar  
 49  23  49  1   
 50  23  50  1   
 51  24  27  1   
 52  25  28  ar  
 53  25  51  1   
 54  26  28  ar  
 55  26  52  1   
 56  27  53  1   
 57  27  54  1   
 58  27  55  1   
 59  28  56  1   
@<TRIPOS>SUBSTRUCTURE
  1 ****  15 GROUP 4 **** **** 0

# MOE 2024.06 (io_trps.svl 2023.06)
