@<TRIPOS>MOLECULE
NONAME
45 46 1 0 0 
SMALL
USER_CHARGES


@<TRIPOS>ATOM
  1 S       -0.2090     0.3370     0.3510 S.o2  1 <1>   1.3330 
  2 O        0.2150     0.6510     1.6960 O.2   1 <1>  -0.6500 
  3 O       -1.6060     0.4440    -0.0050 O.2   1 <1>  -0.6500 
  4 N        0.3150    -1.2380    -0.0050 N.am  1 <1>  -0.8490 
  5 C        0.7260     1.3360    -0.8050 C.3   1 <1>  -0.0550 
  6 C        1.5610    -1.6060     0.6770 C.3   1 <1>   0.1160 
  7 C       -0.7170    -2.2420     0.2690 C.3   1 <1>   0.1160 
  8 C        0.3660     2.8310    -0.7460 C.3   1 <1>  -0.0800 
  9 C        1.1090     3.6450    -1.8010 C.3   1 <1>   0.2000 
 10 C        0.7310     3.5160     0.5730 C.3   1 <1>   0.1400 
 11 O        0.4490     3.5620    -3.0160 O.3   1 <1>  -0.6800 
 12 C        1.1380     5.0730    -1.2630 C.3   1 <1>   0.1400 
 13 N        1.0270     4.9240     0.2100 N.am  1 <1>  -0.6600 
 14 C        1.2630     5.9060     1.1590 C.2   1 <1>   0.5440 
 15 O        1.2780     5.5410     2.3240 O.2   1 <1>  -0.5700 
 16 C        1.5090     7.3230     0.8530 C.ar  1 <1>   0.3960 
 17 N        1.1680     7.8660    -0.3190 N.ar  1 <1>  -0.6200 
 18 C        2.1070     8.1310     1.8070 C.ar  1 <1>  -0.1500 
 19 C        1.4280     9.1450    -0.4870 C.ar  1 <1>   0.4770 
 20 C        2.3320     9.4530     1.5230 C.ar  1 <1>   0.1670 
 21 N        1.9960     9.9730     0.3690 N.ar  1 <1>  -0.6200 
 22 C        1.0370     9.7470    -1.8150 C.3   1 <1>  -0.0970 
 23 C        2.9810    10.3790     2.5290 C.3   1 <1>  -0.0970 
 24 H        1.7740     1.2150    -0.6170 H     1 <1>   0.0800 
 25 H        0.5290     0.9800    -1.7980 H     1 <1>   0.0800 
 26 H        1.8920    -2.5750     0.3440 H     1 <1>   0.0800 
 27 H        1.4120    -1.6340     1.7450 H     1 <1>   0.0800 
 28 H        2.3320    -0.8890     0.4550 H     1 <1>   0.0800 
 29 H       -0.3580    -3.2250     0.0180 H     1 <1>   0.0800 
 30 H       -1.5920    -2.0430    -0.3280 H     1 <1>   0.0800 
 31 H       -0.9960    -2.2190     1.3090 H     1 <1>   0.0800 
 32 H       -0.6950     2.9500    -0.8850 H     1 <1>   0.0800 
 33 H        2.1160     3.2890    -1.9360 H     1 <1>   0.0800 
 34 H        1.6110     3.0770     1.0130 H     1 <1>   0.0800 
 35 H       -0.0780     3.4680     1.2840 H     1 <1>   0.0800 
 36 H       -0.4770     3.8600    -2.9220 H     1 <1>   0.4000 
 37 H        0.2960     5.6380    -1.6230 H     1 <1>   0.0800 
 38 H        2.0580     5.5650    -1.5260 H     1 <1>   0.0800 
 39 H        2.3860     7.7200     2.7590 H     1 <1>   0.1500 
 40 H        0.4080    10.6010    -1.6500 H     1 <1>   0.0800 
 41 H        0.5060     9.0320    -2.4150 H     1 <1>   0.0800 
 42 H        1.9210    10.0580    -2.3390 H     1 <1>   0.0800 
 43 H        3.2160     9.8590     3.4400 H     1 <1>   0.0800 
 44 H        2.3130    11.1900     2.7550 H     1 <1>   0.0800 
 45 H        3.8870    10.7830     2.1150 H     1 <1>   0.0800 
@<TRIPOS>BOND
  1   1   2  2   
  2   1   3  2   
  3   1   4  am  
  4   1   5  1   
  5   4   6  1   
  6   4   7  1   
  7   5   8  1   
  8   5  24  1   
  9   5  25  1   
 10   6  26  1   
 11   6  27  1   
 12   6  28  1   
 13   7  29  1   
 14   7  30  1   
 15   7  31  1   
 16   8   9  1   
 17   8  10  1   
 18   8  32  1   
 19   9  11  1   
 20   9  12  1   
 21   9  33  1   
 22  10  13  1   
 23  10  34  1   
 24  10  35  1   
 25  11  36  1   
 26  12  13  1   
 27  12  37  1   
 28  12  38  1   
 29  13  14  am  
 30  14  15  2   
 31  14  16  1   
 32  16  17  ar  
 33  16  18  ar  
 34  17  19  ar  
 35  18  20  ar  
 36  18  39  1   
 37  19  21  ar  
 38  19  22  1   
 39  20  21  ar  
 40  20  23  1   
 41  22  40  1   
 42  22  41  1   
 43  22  42  1   
 44  23  43  1   
 45  23  44  1   
 46  23  45  1   
@<TRIPOS>SUBSTRUCTURE
  1 ****  13 GROUP 4 **** **** 0

# MOE 2024.06 (io_trps.svl 2023.06)
