@<TRIPOS>MOLECULE
NONAME
46 48 1 0 0 
SMALL
USER_CHARGES


@<TRIPOS>ATOM
  1 N        0.2040    -0.9260     0.2910 N.ar  1 <1>  -0.6200 
  2 C        1.3710    -0.4380    -0.0850 C.ar  1 <1>   0.4100 
  3 C       -0.3020    -1.7770    -0.5810 C.ar  1 <1>   0.1660 
  4 N        1.8480     0.4640     0.8300 N.pl3 1 <1>  -0.8690 
  5 C        2.0160    -0.8150    -1.2870 C.ar  1 <1>   0.1660 
  6 C        0.3250    -2.1300    -1.7700 C.ar  1 <1>   0.1600 
  7 C       -1.6470    -2.3730    -0.2140 C.3   1 <1>  -0.0960 
  8 C        1.9320     1.8880     0.4180 C.3   1 <1>   0.4690 
  9 N        1.5000    -1.6610    -2.1590 N.ar  1 <1>  -0.6200 
 10 C        3.3830    -0.2650    -1.6580 C.3   1 <1>  -0.0970 
 11 C        3.4020     2.3040     0.3840 C.2   1 <1>   0.0060 
 12 C        1.1050     2.7590     1.4010 C.3   1 <1>  -0.0800 
 13 N        3.9340     3.1100    -0.4740 N.2   1 <1>  -0.5650 
 14 N        4.2850     1.8120     1.2880 N.pl3 1 <1>   0.0330 
 15 C       -0.3700     2.3210     1.4900 C.3   1 <1>  -0.2400 
 16 C        1.1430     4.2500     1.0190 C.3   1 <1>  -0.2400 
 17 C        5.2480     3.1650    -0.1170 C.ar  1 <1>   0.2270 
 18 C        5.4860     2.3600     0.9800 C.ar  1 <1>  -0.1520 
 19 C        6.2950     3.8850    -0.6900 C.ar  1 <1>  -0.1500 
 20 C        6.7640     2.2450     1.5300 C.ar  1 <1>  -0.1500 
 21 C        7.5630     3.7840    -0.1560 C.ar  1 <1>  -0.1430 
 22 C        7.7910     2.9600     0.9550 C.ar  1 <1>  -0.1500 
 23 C        8.7250     4.5540    -0.7560 C.3   1 <1>  -0.0970 
 24 H        1.2320     0.4040     1.6430 H     1 <1>   0.4000 
 25 H       -0.1560    -2.8290    -2.4300 H     1 <1>   0.1500 
 26 H       -2.3690    -1.5850    -0.0990 H     1 <1>   0.0800 
 27 H       -1.5620    -2.9030     0.7170 H     1 <1>   0.0800 
 28 H       -1.9910    -3.0520    -0.9710 H     1 <1>   0.0800 
 29 H        1.5230     2.0020    -0.5730 H     1 <1>   0.0800 
 30 H        4.0100    -0.2010    -0.7890 H     1 <1>   0.0800 
 31 H        3.2790     0.7120    -2.0940 H     1 <1>   0.0800 
 32 H        3.8640    -0.9090    -2.3710 H     1 <1>   0.0800 
 33 H        1.5470     2.6670     2.3790 H     1 <1>   0.0800 
 34 H        4.0780     1.0990     1.9920 H     1 <1>   0.2700 
 35 H       -0.8280     2.3430     0.5170 H     1 <1>   0.0800 
 36 H       -0.9200     2.9790     2.1410 H     1 <1>   0.0800 
 37 H       -0.4610     1.3250     1.8830 H     1 <1>   0.0800 
 38 H        0.7530     4.3970     0.0270 H     1 <1>   0.0800 
 39 H        2.1500     4.6280     1.0460 H     1 <1>   0.0800 
 40 H        0.5570     4.8330     1.7080 H     1 <1>   0.0800 
 41 H        6.0770     4.5020    -1.5410 H     1 <1>   0.1500 
 42 H        6.9340     1.6110     2.3820 H     1 <1>   0.1500 
 43 H        8.7850     2.8910     1.3610 H     1 <1>   0.1500 
 44 H        8.4030     5.1420    -1.5960 H     1 <1>   0.0800 
 45 H        9.4850     3.8700    -1.0870 H     1 <1>   0.0800 
 46 H        9.1460     5.2130    -0.0180 H     1 <1>   0.0800 
@<TRIPOS>BOND
  1   1   2  ar  
  2   1   3  ar  
  3   2   4  1   
  4   2   5  ar  
  5   3   6  ar  
  6   3   7  1   
  7   4   8  1   
  8   4  24  1   
  9   5   9  ar  
 10   5  10  1   
 11   6   9  ar  
 12   6  25  1   
 13   7  26  1   
 14   7  27  1   
 15   7  28  1   
 16   8  11  1   
 17   8  12  1   
 18   8  29  1   
 19  10  30  1   
 20  10  31  1   
 21  10  32  1   
 22  11  13  2   
 23  11  14  1   
 24  12  15  1   
 25  12  16  1   
 26  12  33  1   
 27  13  17  1   
 28  14  18  1   
 29  14  34  1   
 30  15  35  1   
 31  15  36  1   
 32  15  37  1   
 33  16  38  1   
 34  16  39  1   
 35  16  40  1   
 36  17  18  ar  
 37  17  19  ar  
 38  18  20  ar  
 39  19  21  ar  
 40  19  41  1   
 41  20  22  ar  
 42  20  42  1   
 43  21  22  ar  
 44  21  23  1   
 45  22  43  1   
 46  23  44  1   
 47  23  45  1   
 48  23  46  1   
@<TRIPOS>SUBSTRUCTURE
  1 ****  11 GROUP 4 **** **** 0

# MOE 2024.06 (io_trps.svl 2023.06)
