@<TRIPOS>MOLECULE
NONAME
43 44 1 0 0 
SMALL
USER_CHARGES


@<TRIPOS>ATOM
  1 S        0.6830     0.1940    -1.4710 S.o2  1 <1>   1.3330 
  2 O       -0.1660     1.1590    -2.1310 O.2   1 <1>  -0.6500 
  3 O        1.0430    -1.0270    -2.1580 O.2   1 <1>  -0.6500 
  4 N       -0.0850    -0.2380    -0.0180 N.am  1 <1>  -0.8490 
  5 C        2.1960     0.9980    -0.9420 C.3   1 <1>  -0.0550 
  6 C       -1.0040    -1.3650    -0.1950 C.3   1 <1>   0.1160 
  7 C       -0.7900     0.8810     0.6190 C.3   1 <1>   0.1160 
  8 C        3.2130     0.0560    -0.2620 C.3   1 <1>  -0.0800 
  9 C        4.5630     0.6900     0.0250 C.3   1 <1>   0.2890 
 10 C        2.7910    -0.4700     1.1150 C.3   1 <1>   0.1200 
 11 N        4.3870     2.0660     0.5600 N.pl3 1 <1>  -0.8690 
 12 C        5.0730    -0.2210     1.1340 C.3   1 <1>   0.1200 
 13 O        3.9500    -0.5560     1.8930 O.3   1 <1>  -0.5600 
 14 C        4.7450     3.2230    -0.0960 C.ar  1 <1>   0.4100 
 15 N        4.9320     3.1460    -1.4010 N.ar  1 <1>  -0.6200 
 16 C        4.8960     4.4410     0.5590 C.ar  1 <1>   0.1900 
 17 C        5.2650     4.2770    -2.0030 C.ar  1 <1>   0.4700 
 18 F        4.7060     4.5060     1.8600 F     1 <1>  -0.1900 
 19 C        5.2450     5.5580    -0.1590 C.ar  1 <1>   0.1670 
 20 N        5.4340     5.4770    -1.4680 N.ar  1 <1>  -0.6200 
 21 C        5.4350     6.9270     0.4830 C.3   1 <1>  -0.0170 
 22 C        6.9180     7.2330     0.7210 C.3   1 <1>  -0.2400 
 23 H        2.6690     1.4220    -1.8070 H     1 <1>   0.0800 
 24 H        1.9570     1.8100    -0.2850 H     1 <1>   0.0800 
 25 H       -1.4640    -1.6240     0.7430 H     1 <1>   0.0800 
 26 H       -0.4670    -2.2270    -0.5540 H     1 <1>   0.0800 
 27 H       -1.7710    -1.1140    -0.9100 H     1 <1>   0.0800 
 28 H       -1.1850     0.5740     1.5720 H     1 <1>   0.0800 
 29 H       -1.6020     1.2190    -0.0040 H     1 <1>   0.0800 
 30 H       -0.1150     1.7030     0.7820 H     1 <1>   0.0800 
 31 H        3.3760    -0.7940    -0.9010 H     1 <1>   0.0800 
 32 H        5.2160     0.6850    -0.8310 H     1 <1>   0.0800 
 33 H        2.3350    -1.4440     1.0510 H     1 <1>   0.0800 
 34 H        2.1210     0.2120     1.6100 H     1 <1>   0.0800 
 35 H        4.2750     2.1010     1.5790 H     1 <1>   0.4000 
 36 H        5.8080     0.2540     1.7580 H     1 <1>   0.0800 
 37 H        5.4720    -1.1310     0.7210 H     1 <1>   0.0800 
 38 H        5.4180     4.2140    -3.0680 H     1 <1>   0.1500 
 39 H        5.0150     7.6760    -0.1650 H     1 <1>   0.0800 
 40 H        4.9060     6.9770     1.4190 H     1 <1>   0.0800 
 41 H        7.4530     7.2140    -0.2130 H     1 <1>   0.0800 
 42 H        7.3490     6.5020     1.3810 H     1 <1>   0.0800 
 43 H        7.0290     8.2080     1.1620 H     1 <1>   0.0800 
@<TRIPOS>BOND
  1   1   2  2   
  2   1   3  2   
  3   1   4  am  
  4   1   5  1   
  5   4   6  1   
  6   4   7  1   
  7   5   8  1   
  8   5  23  1   
  9   5  24  1   
 10   6  25  1   
 11   6  26  1   
 12   6  27  1   
 13   7  28  1   
 14   7  29  1   
 15   7  30  1   
 16   8   9  1   
 17   8  10  1   
 18   8  31  1   
 19   9  11  1   
 20   9  12  1   
 21   9  32  1   
 22  10  13  1   
 23  10  33  1   
 24  10  34  1   
 25  11  14  1   
 26  11  35  1   
 27  12  13  1   
 28  12  36  1   
 29  12  37  1   
 30  14  15  ar  
 31  14  16  ar  
 32  15  17  ar  
 33  16  18  1   
 34  16  19  ar  
 35  17  20  ar  
 36  17  38  1   
 37  19  20  ar  
 38  19  21  1   
 39  21  22  1   
 40  21  39  1   
 41  21  40  1   
 42  22  41  1   
 43  22  42  1   
 44  22  43  1   
@<TRIPOS>SUBSTRUCTURE
  1 ****  11 GROUP 4 **** **** 0

# MOE 2024.06 (io_trps.svl 2023.06)
