@<TRIPOS>MOLECULE
NONAME
48 50 1 0 0 
SMALL
USER_CHARGES


@<TRIPOS>ATOM
  1 O        0.6360     3.0600    -0.4970 O.2   1 <1>  -0.5700 
  2 C       -0.5220     2.7960    -0.1950 C.2   1 <1>   0.7670 
  3 N       -0.7860     1.4920     0.1040 N.2   1 <1>  -0.6610 
  4 C       -1.5410     3.8040    -0.1540 C.2   1 <1>  -0.1240 
  5 C       -1.9930     1.1890     0.3940 C.2   1 <1>   0.4390 
  6 C       -2.8100     3.4200     0.1520 C.2   1 <1>  -0.0380 
  7 C       -1.1180     5.2550    -0.4360 C.3   1 <1>   0.0390 
  8 N       -3.0080     2.0940     0.4210 N.pl3 1 <1>  -0.5500 
  9 C       -2.3500    -0.2380     0.7300 C.3   1 <1>  -0.1790 
 10 C       -4.0590     4.2830     0.2470 C.3   1 <1>  -0.1020 
 11 C        0.0130     5.7030     0.4860 C.2   1 <1>   0.5690 
 12 O       -0.2360     5.7060     1.6680 O.2   1 <1>  -0.5700 
 13 N        1.2710     6.0560     0.0410 N.am  1 <1>  -0.6600 
 14 C        2.2970     6.4390     1.0820 C.3   1 <1>   0.2200 
 15 C        1.7530     5.8390    -1.3660 C.3   1 <1>   0.1400 
 16 C        3.2690     7.5410     0.6310 C.3   1 <1>   0.1200 
 17 C        3.0450     5.1840     1.5880 C.3   1 <1>   0.3430 
 18 C        3.2450     5.4670    -1.5040 C.3   1 <1>  -0.0800 
 19 O        4.3720     7.0010    -0.0310 O.3   1 <1>  -0.5600 
 20 N        3.0120     4.0350     0.6150 N.4   1 <1>  -0.9590 
 21 C        4.1680     6.6840    -1.3640 C.3   1 <1>   0.1200 
 22 C        3.7430     4.2670    -0.6660 C.3   1 <1>   0.3430 
 23 C        3.4070     2.7510     1.2520 C.3   1 <1>   0.2630 
 24 H       -1.9270     5.9330    -0.2590 H     1 <1>   0.0800 
 25 H       -0.8580     5.3560    -1.4700 H     1 <1>   0.0800 
 26 H       -3.9420     1.7570     0.6700 H     1 <1>   0.4000 
 27 H       -3.0800    -0.6070     0.0350 H     1 <1>   0.0800 
 28 H       -2.7440    -0.2920     1.7280 H     1 <1>   0.0800 
 29 H       -1.4750    -0.8610     0.6720 H     1 <1>   0.0800 
 30 H       -4.8780     3.7990    -0.2560 H     1 <1>   0.0800 
 31 H       -3.9340     5.2460    -0.2070 H     1 <1>   0.0800 
 32 H       -4.3250     4.4230     1.2790 H     1 <1>   0.0800 
 33 H        1.7820     6.8630     1.9270 H     1 <1>   0.0800 
 34 H        1.1910     5.0470    -1.8240 H     1 <1>   0.0800 
 35 H        1.5580     6.7340    -1.9330 H     1 <1>   0.0800 
 36 H        3.6550     8.0420     1.5010 H     1 <1>   0.0800 
 37 H        2.7810     8.2760     0.0120 H     1 <1>   0.0800 
 38 H        2.5690     4.8750     2.5030 H     1 <1>   0.0800 
 39 H        4.0640     5.4440     1.8210 H     1 <1>   0.0800 
 40 H        3.3650     5.1670    -2.5300 H     1 <1>   0.0800 
 41 H        2.0120     3.9300     0.3350 H     1 <1>   0.4500 
 42 H        3.7780     7.5480    -1.8780 H     1 <1>   0.0800 
 43 H        5.1360     6.4590    -1.7800 H     1 <1>   0.0800 
 44 H        4.7930     4.3970    -0.4610 H     1 <1>   0.0800 
 45 H        3.6370     3.3810    -1.2710 H     1 <1>   0.0800 
 46 H        4.4430     2.7800     1.5470 H     1 <1>   0.0800 
 47 H        3.2600     1.9360     0.5620 H     1 <1>   0.0800 
 48 H        2.8000     2.5680     2.1240 H     1 <1>   0.0800 
@<TRIPOS>BOND
  1   1   2  2   
  2   2   3  1   
  3   2   4  1   
  4   3   5  2   
  5   4   6  2   
  6   4   7  1   
  7   5   8  1   
  8   5   9  1   
  9   6   8  1   
 10   6  10  1   
 11   7  11  1   
 12   7  24  1   
 13   7  25  1   
 14   8  26  1   
 15   9  27  1   
 16   9  28  1   
 17   9  29  1   
 18  10  30  1   
 19  10  31  1   
 20  10  32  1   
 21  11  12  2   
 22  11  13  am  
 23  13  14  1   
 24  13  15  1   
 25  14  16  1   
 26  14  17  1   
 27  14  33  1   
 28  15  18  1   
 29  15  34  1   
 30  15  35  1   
 31  16  19  1   
 32  16  36  1   
 33  16  37  1   
 34  17  20  1   
 35  17  38  1   
 36  17  39  1   
 37  18  21  1   
 38  18  22  1   
 39  18  40  1   
 40  19  21  1   
 41  20  22  1   
 42  20  23  1   
 43  20  41  1   
 44  21  42  1   
 45  21  43  1   
 46  22  44  1   
 47  22  45  1   
 48  23  46  1   
 49  23  47  1   
 50  23  48  1   
@<TRIPOS>SUBSTRUCTURE
  1 ****   1 GROUP 4 **** **** 0

# MOE 2024.06 (io_trps.svl 2023.06)
