@<TRIPOS>MOLECULE
NONAME
42 44 1 0 0 
SMALL
USER_CHARGES


@<TRIPOS>ATOM
  1 O        0.4660    -0.1050     2.1560 O.2   1 <1>  -0.5700 
  2 C        1.3260    -0.5400     1.4250 C.2   1 <1>   0.5690 
  3 N        2.0930     0.2620     0.6200 N.am  1 <1>  -0.4940 
  4 C        1.6270    -2.0430     1.3980 C.3   1 <1>   0.1250 
  5 C        2.0760     1.6720     0.4710 C.2   1 <1>  -0.0880 
  6 C        1.1410    -2.7790     0.1610 C.ar  1 <1>  -0.1440 
  7 C        1.0190    -2.8790     2.5470 C.3   1 <1>  -0.1600 
  8 N        2.8300     2.3740    -0.4190 N.pl3 1 <1>   0.3140 
  9 C        1.3490     2.5920     1.1460 C.2   1 <1>  -0.1500 
 10 C        0.7140    -4.0430     0.4940 C.ar  1 <1>  -0.1430 
 11 C        1.0930    -2.3540    -1.1570 C.ar  1 <1>  -0.1500 
 12 C        0.8200    -4.2930     1.9790 C.3   1 <1>  -0.0170 
 13 N        2.6050     3.7030    -0.3250 N.2   1 <1>  -0.7070 
 14 C        3.7730     1.8350    -1.4190 C.3   1 <1>   0.0960 
 15 C        1.7200     3.8190     0.6120 C.2   1 <1>   0.1080 
 16 C        0.2450    -4.9160    -0.4700 C.ar  1 <1>  -0.1500 
 17 C        0.6240    -3.2210    -2.1310 C.ar  1 <1>  -0.1500 
 18 C        5.1150     1.4640    -0.7700 C.3   1 <1>  -0.1600 
 19 C        1.1740     5.1580     1.0480 C.3   1 <1>  -0.0590 
 20 C        0.2040    -4.4990    -1.7900 C.ar  1 <1>  -0.1500 
 21 C        6.0790     0.8540    -1.7930 C.3   1 <1>  -0.2400 
 22 H        2.7720    -0.2380     0.0480 H     1 <1>   0.3700 
 23 H        2.6940    -2.1630     1.4400 H     1 <1>   0.0800 
 24 H        0.0500    -2.4870     2.8040 H     1 <1>   0.0800 
 25 H        1.6400    -2.8740     3.4240 H     1 <1>   0.0800 
 26 H        0.6340     2.4270     1.9310 H     1 <1>   0.1500 
 27 H        1.4040    -1.3650    -1.4400 H     1 <1>   0.1500 
 28 H       -0.0690    -4.7540     2.3700 H     1 <1>   0.0800 
 29 H        1.6760    -4.9120     2.1800 H     1 <1>   0.0800 
 30 H        3.9270     2.5870    -2.1720 H     1 <1>   0.0800 
 31 H        3.3250     0.9770    -1.8830 H     1 <1>   0.0800 
 32 H       -0.0860    -5.9030    -0.1990 H     1 <1>   0.1500 
 33 H        0.5800    -2.9030    -3.1580 H     1 <1>   0.1500 
 34 H        4.9560     0.7600     0.0290 H     1 <1>   0.0800 
 35 H        5.5580     2.3530    -0.3530 H     1 <1>   0.0800 
 36 H        0.4510     5.0310     1.8330 H     1 <1>   0.0800 
 37 H        0.7060     5.6430     0.2120 H     1 <1>   0.0800 
 38 H        1.9790     5.7730     1.4040 H     1 <1>   0.0800 
 39 H       -0.1590    -5.1670    -2.5520 H     1 <1>   0.1500 
 40 H        5.6690    -0.0470    -2.2150 H     1 <1>   0.0800 
 41 H        7.0140     0.6120    -1.3180 H     1 <1>   0.0800 
 42 H        6.2750     1.5530    -2.5890 H     1 <1>   0.0800 
@<TRIPOS>BOND
  1   1   2  2   
  2   2   3  am  
  3   2   4  1   
  4   3   5  1   
  5   3  22  1   
  6   4   6  1   
  7   4   7  1   
  8   4  23  1   
  9   5   8  1   
 10   5   9  2   
 11   6  10  ar  
 12   6  11  ar  
 13   7  12  1   
 14   7  24  1   
 15   7  25  1   
 16   8  13  1   
 17   8  14  1   
 18   9  15  1   
 19   9  26  1   
 20  10  12  1   
 21  10  16  ar  
 22  11  17  ar  
 23  11  27  1   
 24  12  28  1   
 25  12  29  1   
 26  13  15  2   
 27  14  18  1   
 28  14  30  1   
 29  14  31  1   
 30  15  19  1   
 31  16  20  ar  
 32  16  32  1   
 33  17  20  ar  
 34  17  33  1   
 35  18  21  1   
 36  18  34  1   
 37  18  35  1   
 38  19  36  1   
 39  19  37  1   
 40  19  38  1   
 41  20  39  1   
 42  21  40  1   
 43  21  41  1   
 44  21  42  1   
@<TRIPOS>SUBSTRUCTURE
  1 ****   3 GROUP 4 **** **** 0

# MOE 2024.06 (io_trps.svl 2023.06)
