@<TRIPOS>MOLECULE
NONAME
48 50 1 0 0 
SMALL
USER_CHARGES


@<TRIPOS>ATOM
  1 S        0.5120     0.0590    -0.0630 S.o2  1 <1>   1.3330 
  2 O        0.4610    -1.0450    -0.9940 O.2   1 <1>  -0.6500 
  3 O        0.3980    -0.1850     1.3570 O.2   1 <1>  -0.6500 
  4 N       -0.6740     1.1890    -0.5060 N.am  1 <1>  -0.8490 
  5 C        2.0310     0.9710    -0.3200 C.3   1 <1>  -0.0550 
  6 C       -0.9270     1.2280    -1.9510 C.3   1 <1>   0.1160 
  7 C       -1.9360     0.9760     0.2090 C.3   1 <1>   0.1160 
  8 C        3.3000     0.1310    -0.0730 C.3   1 <1>  -0.0800 
  9 C        4.6130     0.8430    -0.3710 C.3   1 <1>   0.2200 
 10 C        3.4910    -0.3490     1.3760 C.3   1 <1>   0.1200 
 11 N        4.5920     2.2270     0.1710 N.am  1 <1>  -0.7300 
 12 C        5.5600     0.0250     0.4940 C.3   1 <1>   0.1200 
 13 O        4.8450    -0.1610     1.6750 O.3   1 <1>  -0.5600 
 14 C        4.4330     3.3670    -0.5630 C.2   1 <1>   0.7030 
 15 O        4.2050     3.2610    -1.7520 O.2   1 <1>  -0.5700 
 16 C        4.5080     4.6930     0.0300 C.2   1 <1>   0.2770 
 17 N        4.3600     5.8770    -0.6730 N.pl3 1 <1>  -0.7000 
 18 C        4.7210     5.0590     1.3180 C.2   1 <1>   0.2000 
 19 C        4.4790     6.9150     0.1630 C.cat 1 <1>   0.7910 
 20 N        4.7040     6.4330     1.4090 N.pl3 1 <1>  -0.6290 
 21 C        4.4070     8.3050    -0.0800 C.2   1 <1>  -0.1290 
 22 C        4.8640     7.2970     2.4710 C.2   1 <1>   0.2290 
 23 C        4.5670     9.1640     0.9750 C.2   1 <1>  -0.1500 
 24 C        4.1560     8.8330    -1.4880 C.3   1 <1>  -0.1020 
 25 C        4.7980     8.6440     2.2660 C.2   1 <1>  -0.1500 
 26 H        2.0540     1.3300    -1.3300 H     1 <1>   0.0800 
 27 H        2.0250     1.8230     0.3300 H     1 <1>   0.0800 
 28 H       -1.6210     2.0170    -2.1850 H     1 <1>   0.0800 
 29 H       -1.3380     0.2890    -2.2870 H     1 <1>   0.0800 
 30 H       -0.0110     1.4130    -2.4860 H     1 <1>   0.0800 
 31 H       -2.6620     1.7160    -0.0830 H     1 <1>   0.0800 
 32 H       -1.7790     1.0630     1.2720 H     1 <1>   0.0800 
 33 H       -2.3260    -0.0060    -0.0030 H     1 <1>   0.0800 
 34 H        3.2460    -0.7460    -0.6980 H     1 <1>   0.0800 
 35 H        4.8800     0.8290    -1.4150 H     1 <1>   0.0800 
 36 H        3.2510    -1.3940     1.4840 H     1 <1>   0.0800 
 37 H        2.9140     0.2270     2.0800 H     1 <1>   0.0800 
 38 H        4.7150     2.2260     1.1880 H     1 <1>   0.3700 
 39 H        6.4880     0.5270     0.7010 H     1 <1>   0.0800 
 40 H        5.7510    -0.9420     0.0590 H     1 <1>   0.0800 
 41 H        4.1880     5.9220    -1.6820 H     1 <1>   0.4500 
 42 H        4.8840     4.4270     2.1760 H     1 <1>   0.1500 
 43 H        5.0390     6.8780     3.4510 H     1 <1>   0.1500 
 44 H        4.5220    10.2350     0.8510 H     1 <1>   0.1500 
 45 H        3.2100     8.4790    -1.8590 H     1 <1>   0.0800 
 46 H        4.9360     8.5100    -2.1550 H     1 <1>   0.0800 
 47 H        4.1360     9.9090    -1.4960 H     1 <1>   0.0800 
 48 H        4.9210     9.3330     3.0840 H     1 <1>   0.1500 
@<TRIPOS>BOND
  1   1   2  2   
  2   1   3  2   
  3   1   4  am  
  4   1   5  1   
  5   4   6  1   
  6   4   7  1   
  7   5   8  1   
  8   5  26  1   
  9   5  27  1   
 10   6  28  1   
 11   6  29  1   
 12   6  30  1   
 13   7  31  1   
 14   7  32  1   
 15   7  33  1   
 16   8   9  1   
 17   8  10  1   
 18   8  34  1   
 19   9  11  1   
 20   9  12  1   
 21   9  35  1   
 22  10  13  1   
 23  10  36  1   
 24  10  37  1   
 25  11  14  am  
 26  11  38  1   
 27  12  13  1   
 28  12  39  1   
 29  12  40  1   
 30  14  15  2   
 31  14  16  1   
 32  16  17  1   
 33  16  18  2   
 34  17  19  ar  
 35  17  41  1   
 36  18  20  1   
 37  18  42  1   
 38  19  20  ar  
 39  19  21  1   
 40  20  22  1   
 41  21  23  2   
 42  21  24  1   
 43  22  25  2   
 44  22  43  1   
 45  23  25  1   
 46  23  44  1   
 47  24  45  1   
 48  24  46  1   
 49  24  47  1   
 50  25  48  1   
@<TRIPOS>SUBSTRUCTURE
  1 ****  14 GROUP 4 **** **** 0

# MOE 2024.06 (io_trps.svl 2023.06)
