@<TRIPOS>MOLECULE
NONAME
56 58 1 0 0 
SMALL
USER_CHARGES


@<TRIPOS>ATOM
  1 F        2.4360     0.8130     4.1030 F     1 <1>  -0.3400 
  2 C        1.6290     0.4580     3.1070 C.3   1 <1>   1.1640 
  3 F        1.2740    -0.7990     3.3640 F     1 <1>  -0.3400 
  4 F        0.5200     1.1780     3.2500 F     1 <1>  -0.3400 
  5 C        2.2840     0.6280     1.7080 C.ar  1 <1>   0.1660 
  6 N        2.6850     1.8310     1.3050 N.ar  1 <1>  -0.6200 
  7 C        2.4560    -0.4630     0.8770 C.ar  1 <1>  -0.1500 
  8 C        3.2330     1.9050     0.1060 C.ar  1 <1>   0.4760 
  9 C        3.0410    -0.2690    -0.3520 C.ar  1 <1>   0.1660 
 10 N        3.4350     0.9170    -0.7460 N.ar  1 <1>  -0.6200 
 11 C        3.6920     3.2740    -0.3460 C.3   1 <1>  -0.0160 
 12 C        3.2600    -1.4170    -1.3140 C.3   1 <1>  -0.0960 
 13 C        5.2050     3.3960    -0.1780 C.3   1 <1>   0.1400 
 14 N        5.6810     4.6950    -0.7260 N.am  1 <1>  -0.7300 
 15 C        6.1860     5.7100     0.0260 C.2   1 <1>   0.5690 
 16 O        6.2560     5.6310     1.2270 O.2   1 <1>  -0.5700 
 17 C        6.7070     6.9800    -0.6510 C.3   1 <1>   0.0610 
 18 C        6.5970     8.1990     0.2970 C.3   1 <1>   0.4230 
 19 C        5.8740     7.4850    -1.8620 C.3   1 <1>  -0.1600 
 20 C        8.1820     6.7450    -1.0720 C.3   1 <1>  -0.0220 
 21 N        6.7180     9.3060    -0.6590 N.4   1 <1>  -0.9060 
 22 C        5.1620     8.4590     0.7940 C.3   1 <1>  -0.1600 
 23 C        5.5750     8.9500    -1.5020 C.3   1 <1>   0.4230 
 24 C        9.1260     6.8820     0.1120 C.2   1 <1>  -0.2880 
 25 C        4.4540     8.9830    -0.4640 C.3   1 <1>  -0.1600 
 26 C       10.0700     7.8060     0.3290 C.2   1 <1>  -0.2760 
 27 C       10.9120     7.7750     1.5960 C.3   1 <1>  -0.1020 
 28 C       10.4700     8.9610    -0.5810 C.3   1 <1>  -0.1020 
 29 H        2.1440    -1.4490     1.1700 H     1 <1>   0.1500 
 30 H        3.4220     3.4010    -1.3780 H     1 <1>   0.0800 
 31 H        3.2000     4.0300     0.2400 H     1 <1>   0.0800 
 32 H        2.8980    -2.3420    -0.9050 H     1 <1>   0.0800 
 33 H        4.3090    -1.5160    -1.5240 H     1 <1>   0.0800 
 34 H        2.7420    -1.2190    -2.2350 H     1 <1>   0.0800 
 35 H        5.6960     2.5900    -0.6990 H     1 <1>   0.0800 
 36 H        5.4550     3.3160     0.8680 H     1 <1>   0.0800 
 37 H        5.6960     4.7400    -1.7470 H     1 <1>   0.3700 
 38 H        7.3350     8.2050     1.0860 H     1 <1>   0.0800 
 39 H        4.9550     6.9380    -1.9910 H     1 <1>   0.0800 
 40 H        6.4180     7.4330    -2.7890 H     1 <1>   0.0800 
 41 H        8.2910     5.7570    -1.4880 H     1 <1>   0.0800 
 42 H        8.4720     7.4290    -1.8450 H     1 <1>   0.0800 
 43 H        6.5900    10.2080    -0.1890 H     1 <1>   0.4500 
 44 H        7.6240     9.2710    -1.1380 H     1 <1>   0.4500 
 45 H        4.6830     7.5810     1.1910 H     1 <1>   0.0800 
 46 H        5.1720     9.2060     1.5690 H     1 <1>   0.0800 
 47 H        5.4160     9.6010    -2.3480 H     1 <1>   0.0800 
 48 H        8.9520     6.0960     0.8350 H     1 <1>   0.1500 
 49 H        4.1020     9.9900    -0.3190 H     1 <1>   0.0800 
 50 H        3.6180     8.3660    -0.7500 H     1 <1>   0.0800 
 51 H       10.7940     8.6890     2.1490 H     1 <1>   0.0800 
 52 H       11.9520     7.6530     1.3480 H     1 <1>   0.0800 
 53 H       10.6240     6.9570     2.2320 H     1 <1>   0.0800 
 54 H       10.3230     9.8990    -0.0750 H     1 <1>   0.0800 
 55 H        9.9210     8.9790    -1.5010 H     1 <1>   0.0800 
 56 H       11.5140     8.8760    -0.8300 H     1 <1>   0.0800 
@<TRIPOS>BOND
  1   1   2  1   
  2   2   3  1   
  3   2   4  1   
  4   2   5  1   
  5   5   6  ar  
  6   5   7  ar  
  7   6   8  ar  
  8   7   9  ar  
  9   7  29  1   
 10   8  10  ar  
 11   8  11  1   
 12   9  10  ar  
 13   9  12  1   
 14  11  13  1   
 15  11  30  1   
 16  11  31  1   
 17  12  32  1   
 18  12  33  1   
 19  12  34  1   
 20  13  14  1   
 21  13  35  1   
 22  13  36  1   
 23  14  15  am  
 24  14  37  1   
 25  15  16  2   
 26  15  17  1   
 27  17  18  1   
 28  17  19  1   
 29  17  20  1   
 30  18  21  1   
 31  18  22  1   
 32  18  38  1   
 33  19  23  1   
 34  19  39  1   
 35  19  40  1   
 36  20  24  1   
 37  20  41  1   
 38  20  42  1   
 39  21  23  1   
 40  21  43  1   
 41  21  44  1   
 42  22  25  1   
 43  22  45  1   
 44  22  46  1   
 45  23  25  1   
 46  23  47  1   
 47  24  26  2   
 48  24  48  1   
 49  25  49  1   
 50  25  50  1   
 51  26  27  1   
 52  26  28  1   
 53  27  51  1   
 54  27  52  1   
 55  27  53  1   
 56  28  54  1   
 57  28  55  1   
 58  28  56  1   
@<TRIPOS>SUBSTRUCTURE
  1 ****  13 GROUP 4 **** **** 0

# MOE 2024.06 (io_trps.svl 2023.06)
