@<TRIPOS>MOLECULE
NONAME
42 44 1 0 0 
SMALL
USER_CHARGES


@<TRIPOS>ATOM
  1 CL      -0.1890     2.2680    -1.8760 Cl    1 <1>  -0.1770 
  2 C        1.2620     2.2000    -0.9030 C.ar  1 <1>   0.1770 
  3 C        1.7990     0.9860    -0.5090 C.ar  1 <1>   0.1900 
  4 C        1.8760     3.3790    -0.5270 C.ar  1 <1>  -0.1500 
  5 F        1.2260    -0.1320    -0.8620 F     1 <1>  -0.1900 
  6 C        2.9450     0.9320     0.2610 C.ar  1 <1>  -0.1500 
  7 C        3.0430     3.3660     0.2440 C.ar  1 <1>   0.0860 
  8 C        3.5540     2.1200     0.6320 C.ar  1 <1>  -0.1500 
  9 C        3.6910     4.6090     0.6320 C.2   1 <1>   0.5440 
 10 O        3.0620     5.6490     0.6980 O.2   1 <1>  -0.5700 
 11 N        5.0370     4.6870     0.8890 N.am  1 <1>  -0.6600 
 12 C        5.5440     5.5960     1.9850 C.3   1 <1>   0.1400 
 13 C        6.0320     4.2210    -0.1260 C.3   1 <1>   0.1400 
 14 C        6.0510     6.9660     1.4660 C.3   1 <1>   0.4230 
 15 C        6.7910     5.3550    -0.8650 C.3   1 <1>  -0.0800 
 16 N        5.3740     7.2460     0.1480 N.4   1 <1>  -0.9590 
 17 C        7.6020     7.0200     1.4630 C.3   1 <1>   0.1200 
 18 C        8.2020     5.5910    -0.3070 C.3   1 <1>   0.1200 
 19 C        6.0590     6.6970    -1.0610 C.3   1 <1>   0.3430 
 20 C        5.1180     8.7370    -0.0260 C.3   1 <1>   0.2370 
 21 O        8.1700     5.8040     1.0620 O.3   1 <1>  -0.5600 
 22 C        6.3770     9.6050    -0.0120 C.2   1 <1>   0.9060 
 23 O        7.0460     9.6730    -1.0470 O.co2 1 <1>  -0.9000 
 24 O        6.7540    10.0500     1.0750 O.co2 1 <1>  -0.9000 
 25 H        1.4450     4.3160    -0.8340 H     1 <1>   0.1500 
 26 H        3.3440    -0.0210     0.5620 H     1 <1>   0.1500 
 27 H        4.4420     2.0830     1.2410 H     1 <1>   0.1500 
 28 H        4.7400     5.7850     2.6750 H     1 <1>   0.0800 
 29 H        6.3150     5.0940     2.5440 H     1 <1>   0.0800 
 30 H        6.7400     3.5680     0.3570 H     1 <1>   0.0800 
 31 H        5.5160     3.6320    -0.8650 H     1 <1>   0.0800 
 32 H        5.7310     7.7200     2.1660 H     1 <1>   0.0800 
 33 H        6.9680     4.9890    -1.8600 H     1 <1>   0.0800 
 34 H        4.4630     6.7520     0.2330 H     1 <1>   0.4500 
 35 H        7.9340     7.1900     2.4720 H     1 <1>   0.0800 
 36 H        7.9920     7.8200     0.8600 H     1 <1>   0.0800 
 37 H        8.6860     6.4310    -0.7800 H     1 <1>   0.0800 
 38 H        8.8110     4.7180    -0.4700 H     1 <1>   0.0800 
 39 H        5.3230     6.5810    -1.8400 H     1 <1>   0.0800 
 40 H        6.7790     7.4200    -1.4140 H     1 <1>   0.0800 
 41 H        4.6170     8.9140    -0.9600 H     1 <1>   0.0800 
 42 H        4.4860     9.0890     0.7680 H     1 <1>   0.0800 
@<TRIPOS>BOND
  1   1   2  1   
  2   2   3  ar  
  3   2   4  ar  
  4   3   5  1   
  5   3   6  ar  
  6   4   7  ar  
  7   4  25  1   
  8   6   8  ar  
  9   6  26  1   
 10   7   8  ar  
 11   7   9  1   
 12   8  27  1   
 13   9  10  2   
 14   9  11  am  
 15  11  12  1   
 16  11  13  1   
 17  12  14  1   
 18  12  28  1   
 19  12  29  1   
 20  13  15  1   
 21  13  30  1   
 22  13  31  1   
 23  14  16  1   
 24  14  17  1   
 25  14  32  1   
 26  15  18  1   
 27  15  19  1   
 28  15  33  1   
 29  16  19  1   
 30  16  20  1   
 31  16  34  1   
 32  17  21  1   
 33  17  35  1   
 34  17  36  1   
 35  18  21  1   
 36  18  37  1   
 37  18  38  1   
 38  19  39  1   
 39  19  40  1   
 40  20  22  1   
 41  20  41  1   
 42  20  42  1   
 43  22  23  ar  
 44  22  24  ar  
@<TRIPOS>SUBSTRUCTURE
  1 ****  11 GROUP 4 **** **** 0

# MOE 2024.06 (io_trps.svl 2023.06)
