@<TRIPOS>MOLECULE
NONAME
48 50 1 0 0 
SMALL
USER_CHARGES


@<TRIPOS>ATOM
  1 S        0.2330    -0.6070     0.4850 S.o2  1 <1>   1.3330 
  2 O        0.3900    -0.3140     1.8870 O.2   1 <1>  -0.6500 
  3 O        1.2070    -1.4080    -0.2170 O.2   1 <1>  -0.6500 
  4 N       -1.2380    -1.3980     0.3850 N.am  1 <1>  -0.9140 
  5 C       -0.0690     0.9080    -0.4280 C.3   1 <1>  -0.0550 
  6 C       -1.1350    -2.8510     0.4720 C.3   1 <1>   0.2760 
  7 C        1.1420     1.8550    -0.4680 C.3   1 <1>  -0.1600 
  8 C       -2.4810    -3.4840     0.1480 C.3   1 <1>  -0.0800 
  9 C       -0.9890    -3.2810     1.9310 C.3   1 <1>   0.1200 
 10 C        0.8260     3.1300    -1.2600 C.3   1 <1>  -0.1600 
 11 C       -3.2340    -3.3870     1.4790 C.3   1 <1>   0.1200 
 12 C       -3.2150    -2.9070    -1.0800 C.3   1 <1>  -0.0160 
 13 O       -2.2720    -3.1530     2.4660 O.3   1 <1>  -0.5600 
 14 C        2.0360     4.0660    -1.2950 C.3   1 <1>  -0.2400 
 15 C       -4.5420    -3.6210    -1.3120 C.ar  1 <1>  -0.1440 
 16 C       -5.7880    -3.1250    -0.8520 C.ar  1 <1>   0.0000 
 17 C       -4.5470    -4.8050    -1.9890 C.ar  1 <1>  -0.1500 
 18 C       -6.9390    -3.9110    -1.1100 C.ar  1 <1>   0.3100 
 19 C       -5.9680    -1.9050    -0.1570 C.ar  1 <1>  -0.1500 
 20 C       -5.7450    -5.4970    -2.1990 C.ar  1 <1>   0.1600 
 21 N       -6.9000    -5.0880    -1.7810 N.ar  1 <1>  -0.6200 
 22 C       -8.1880    -3.4600    -0.6550 C.ar  1 <1>  -0.1500 
 23 C       -7.2010    -1.4940     0.2710 C.ar  1 <1>  -0.1500 
 24 C       -8.3270    -2.2800     0.0220 C.ar  1 <1>  -0.1500 
 25 H       -1.7130    -1.1400     1.2550 H     1 <1>   0.4200 
 26 H       -0.3430     0.6550    -1.4340 H     1 <1>   0.0800 
 27 H       -0.8970     1.4240     0.0170 H     1 <1>   0.0800 
 28 H       -0.3530    -3.2380    -0.1620 H     1 <1>   0.0800 
 29 H        1.4210     2.1150     0.5400 H     1 <1>   0.0800 
 30 H        1.9750     1.3440    -0.9210 H     1 <1>   0.0800 
 31 H       -2.3120    -4.5300    -0.0380 H     1 <1>   0.0800 
 32 H       -0.2970    -2.6830     2.4950 H     1 <1>   0.0800 
 33 H       -0.7060    -4.3170     1.9960 H     1 <1>   0.0800 
 34 H        0.5500     2.8730    -2.2690 H     1 <1>   0.0800 
 35 H       -0.0050     3.6440    -0.8070 H     1 <1>   0.0800 
 36 H       -3.7620    -4.2970     1.7090 H     1 <1>   0.0800 
 37 H       -3.9170    -2.5580     1.4970 H     1 <1>   0.0800 
 38 H       -2.5900    -3.0460    -1.9450 H     1 <1>   0.0800 
 39 H       -3.3640    -1.8480    -0.9890 H     1 <1>   0.0800 
 40 H        2.8740     3.5820    -1.7650 H     1 <1>   0.0800 
 41 H        2.3180     4.3560    -0.2980 H     1 <1>   0.0800 
 42 H        1.7990     4.9540    -1.8530 H     1 <1>   0.0800 
 43 H       -3.6410    -5.2380    -2.3730 H     1 <1>   0.1500 
 44 H       -5.1240    -1.2760     0.0460 H     1 <1>   0.1500 
 45 H       -5.7030    -6.4270    -2.7380 H     1 <1>   0.1500 
 46 H       -9.0400    -4.0800    -0.8610 H     1 <1>   0.1500 
 47 H       -7.3200    -0.5640     0.8010 H     1 <1>   0.1500 
 48 H       -9.2920    -1.9470     0.3650 H     1 <1>   0.1500 
@<TRIPOS>BOND
  1   1   2  2   
  2   1   3  2   
  3   1   4  am  
  4   1   5  1   
  5   4   6  1   
  6   4  25  1   
  7   5   7  1   
  8   5  26  1   
  9   5  27  1   
 10   6   8  1   
 11   6   9  1   
 12   6  28  1   
 13   7  10  1   
 14   7  29  1   
 15   7  30  1   
 16   8  11  1   
 17   8  12  1   
 18   8  31  1   
 19   9  13  1   
 20   9  32  1   
 21   9  33  1   
 22  10  14  1   
 23  10  34  1   
 24  10  35  1   
 25  11  13  1   
 26  11  36  1   
 27  11  37  1   
 28  12  15  1   
 29  12  38  1   
 30  12  39  1   
 31  14  40  1   
 32  14  41  1   
 33  14  42  1   
 34  15  16  ar  
 35  15  17  ar  
 36  16  18  ar  
 37  16  19  ar  
 38  17  20  ar  
 39  17  43  1   
 40  18  21  ar  
 41  18  22  ar  
 42  19  23  ar  
 43  19  44  1   
 44  20  21  ar  
 45  20  45  1   
 46  22  24  ar  
 47  22  46  1   
 48  23  24  ar  
 49  23  47  1   
 50  24  48  1   
@<TRIPOS>SUBSTRUCTURE
  1 ****  12 GROUP 4 **** **** 0

# MOE 2024.06 (io_trps.svl 2023.06)
