@<TRIPOS>MOLECULE
NONAME
43 44 1 0 0 
SMALL
USER_CHARGES


@<TRIPOS>ATOM
  1 O        1.1680    -0.5990    -1.1050 O.3   1 <1>  -0.5600 
  2 C        0.5170    -0.9940     0.0660 C.3   1 <1>   0.2000 
  3 C        1.1300     0.7720    -1.3600 C.3   1 <1>   0.1200 
  4 C        1.2260    -0.3630     1.2730 C.3   1 <1>  -0.1600 
  5 C        0.5320    -2.5220     0.1310 C.3   1 <1>  -0.1600 
  6 C        1.8720     1.5220    -0.2460 C.3   1 <1>  -0.1600 
  7 C        1.2980     1.1620     1.1290 C.3   1 <1>  -0.1600 
  8 C       -0.1490    -3.1390    -1.0890 C.3   1 <1>   0.2090 
  9 N       -0.2590    -4.6110    -0.8990 N.pl3 1 <1>  -0.8380 
 10 C       -1.4110    -5.2040    -0.4150 C.ar  1 <1>   0.7200 
 11 C        0.8750    -5.4160    -1.4340 C.3   1 <1>   0.1290 
 12 N       -1.5270    -6.5140    -0.5910 N.ar  1 <1>  -0.6200 
 13 N       -2.2890    -4.4090     0.1840 N.ar  1 <1>  -0.6200 
 14 C       -2.6180    -7.0650    -0.1250 C.ar  1 <1>   0.3930 
 15 C       -3.3710    -4.9830     0.6410 C.ar  1 <1>   0.3930 
 16 O       -2.7060    -8.3970    -0.3190 O.3   1 <1>  -0.3630 
 17 C       -3.5940    -6.3340     0.5120 C.ar  1 <1>  -0.1500 
 18 O       -4.2420    -4.1470     1.2430 O.3   1 <1>  -0.3630 
 19 C       -3.8060    -9.1680     0.1100 C.3   1 <1>   0.0400 
 20 C       -5.4640    -4.5770     1.7980 C.3   1 <1>   0.0400 
 21 H       -0.5040    -0.6500     0.0140 H     1 <1>   0.0800 
 22 H        0.1010     1.0830    -1.4210 H     1 <1>   0.0800 
 23 H        1.6050     0.9420    -2.3100 H     1 <1>   0.0800 
 24 H        2.2200    -0.7670     1.3470 H     1 <1>   0.0800 
 25 H        0.6980    -0.6170     2.1750 H     1 <1>   0.0800 
 26 H        0.0040    -2.8330     1.0140 H     1 <1>   0.0800 
 27 H        1.5460    -2.8710     0.1980 H     1 <1>   0.0800 
 28 H        1.7950     2.5820    -0.4100 H     1 <1>   0.0800 
 29 H        2.9140     1.2550    -0.2880 H     1 <1>   0.0800 
 30 H        1.9110     1.5810     1.9090 H     1 <1>   0.0800 
 31 H        0.3080     1.5750     1.2210 H     1 <1>   0.0800 
 32 H        0.4220    -2.9270    -1.9780 H     1 <1>   0.0800 
 33 H       -1.1260    -2.7080    -1.2220 H     1 <1>   0.0800 
 34 H        1.7880    -4.8500    -1.3860 H     1 <1>   0.0800 
 35 H        0.6740    -5.6830    -2.4560 H     1 <1>   0.0800 
 36 H        1.0000    -6.3140    -0.8550 H     1 <1>   0.0800 
 37 H       -4.4800    -6.7930     0.8890 H     1 <1>   0.1500 
 38 H       -3.6230   -10.1900    -0.1690 H     1 <1>   0.0800 
 39 H       -4.6960    -8.8110    -0.3780 H     1 <1>   0.0800 
 40 H       -3.8910    -9.0930     1.1800 H     1 <1>   0.0800 
 41 H       -5.9620    -3.7170     2.2100 H     1 <1>   0.0800 
 42 H       -5.2640    -5.2900     2.5770 H     1 <1>   0.0800 
 43 H       -6.0700    -5.0090     1.0200 H     1 <1>   0.0800 
@<TRIPOS>BOND
  1   1   2  1   
  2   1   3  1   
  3   2   4  1   
  4   2   5  1   
  5   2  21  1   
  6   3   6  1   
  7   3  22  1   
  8   3  23  1   
  9   4   7  1   
 10   4  24  1   
 11   4  25  1   
 12   5   8  1   
 13   5  26  1   
 14   5  27  1   
 15   6   7  1   
 16   6  28  1   
 17   6  29  1   
 18   7  30  1   
 19   7  31  1   
 20   8   9  1   
 21   8  32  1   
 22   8  33  1   
 23   9  10  1   
 24   9  11  1   
 25  10  12  ar  
 26  10  13  ar  
 27  11  34  1   
 28  11  35  1   
 29  11  36  1   
 30  12  14  ar  
 31  13  15  ar  
 32  14  16  1   
 33  14  17  ar  
 34  15  17  ar  
 35  15  18  1   
 36  16  19  1   
 37  17  37  1   
 38  18  20  1   
 39  19  38  1   
 40  19  39  1   
 41  19  40  1   
 42  20  41  1   
 43  20  42  1   
 44  20  43  1   
@<TRIPOS>SUBSTRUCTURE
  1 ****  13 GROUP 4 **** **** 0

# MOE 2024.06 (io_trps.svl 2023.06)
