@<TRIPOS>MOLECULE
NONAME
53 56 1 0 0 
SMALL
USER_CHARGES


@<TRIPOS>ATOM
  1 O       -2.1120     0.4020    -1.8730 O.2   1 <1>  -0.5700 
  2 C       -2.2020    -0.4230    -1.0080 C.2   1 <1>   0.5690 
  3 N       -2.7070    -0.0890     0.2000 N.am  1 <1>  -0.7300 
  4 C       -1.8450    -1.8600    -1.3080 C.3   1 <1>  -0.0190 
  5 C       -2.9550    -1.0440     1.3210 C.3   1 <1>   0.2200 
  6 C       -0.7710    -2.3920    -0.3510 C.3   1 <1>   0.1200 
  7 C       -3.0970    -2.7530    -1.3300 C.3   1 <1>   0.3430 
  8 C       -1.6540    -1.7480     1.7450 C.3   1 <1>   0.1200 
  9 C       -4.0260    -2.1030     0.9350 C.3   1 <1>   0.3430 
 10 O       -1.3460    -2.7830     0.8570 O.3   1 <1>  -0.5600 
 11 N       -4.2890    -2.2170    -0.5610 N.4   1 <1>  -0.9590 
 12 C       -5.5410    -2.9330    -0.9450 C.3   1 <1>   0.4230 
 13 C       -6.7740    -2.1150    -0.5540 C.3   1 <1>  -0.1600 
 14 C       -5.6170    -4.3420    -0.3430 C.3   1 <1>  -0.1600 
 15 C       -8.0570    -2.8300    -0.9840 C.3   1 <1>   0.3430 
 16 C       -6.9080    -5.0400    -0.7720 C.3   1 <1>   0.3430 
 17 N       -8.0890    -4.2010    -0.4040 N.4   1 <1>  -0.9590 
 18 C       -9.3650    -4.9020    -0.7480 C.3   1 <1>   0.4860 
 19 C       -9.4460    -6.1570     0.0970 C.ar  1 <1>  -0.1440 
 20 C       -9.7290    -6.0700     1.4530 C.ar  1 <1>  -0.1500 
 21 C       -9.2250    -7.4010    -0.4770 C.ar  1 <1>  -0.1500 
 22 C       -9.7690    -7.2150     2.2290 C.ar  1 <1>  -0.1500 
 23 C       -9.2670    -8.5440     0.3020 C.ar  1 <1>  -0.1500 
 24 C       -9.5350    -8.4510     1.6550 C.ar  1 <1>  -0.1500 
 25 H       -2.8020     0.9160     0.3900 H     1 <1>   0.3700 
 26 H       -1.4090    -1.8810    -2.2910 H     1 <1>   0.0800 
 27 H       -3.3080    -0.4840     2.1700 H     1 <1>   0.0800 
 28 H        0.0020    -1.6620    -0.1700 H     1 <1>   0.0800 
 29 H       -0.3090    -3.2680    -0.7740 H     1 <1>   0.0800 
 30 H       -2.8310    -3.7290    -0.9570 H     1 <1>   0.0800 
 31 H       -3.3840    -2.8690    -2.3630 H     1 <1>   0.0800 
 32 H       -1.7880    -2.2010     2.7130 H     1 <1>   0.0800 
 33 H       -0.8280    -1.0590     1.8120 H     1 <1>   0.0800 
 34 H       -4.9370    -1.8300     1.4370 H     1 <1>   0.0800 
 35 H       -3.7220    -3.0600     1.3270 H     1 <1>   0.0800 
 36 H       -4.3780    -1.2350    -0.8750 H     1 <1>   0.4500 
 37 H       -5.5500    -3.0320    -2.0210 H     1 <1>   0.0800 
 38 H       -6.8150    -1.9490     0.5070 H     1 <1>   0.0800 
 39 H       -6.7420    -1.1570    -1.0430 H     1 <1>   0.0800 
 40 H       -4.7880    -4.9360    -0.6830 H     1 <1>   0.0800 
 41 H       -5.5900    -4.3120     0.7310 H     1 <1>   0.0800 
 42 H       -8.0980    -2.8880    -2.0610 H     1 <1>   0.0800 
 43 H       -8.9140    -2.2660    -0.6480 H     1 <1>   0.0800 
 44 H       -6.9710    -6.0020    -0.2830 H     1 <1>   0.0800 
 45 H       -6.8970    -5.2090    -1.8370 H     1 <1>   0.0800 
 46 H       -8.1130    -4.1420     0.6240 H     1 <1>   0.4500 
 47 H      -10.2130    -4.2730    -0.5260 H     1 <1>   0.0800 
 48 H       -9.3910    -5.1570    -1.7950 H     1 <1>   0.0800 
 49 H       -9.9280    -5.1240     1.9260 H     1 <1>   0.1500 
 50 H       -9.0230    -7.5040    -1.5300 H     1 <1>   0.1500 
 51 H       -9.9890    -7.1500     3.2830 H     1 <1>   0.1500 
 52 H       -9.0950    -9.5110    -0.1420 H     1 <1>   0.1500 
 53 H       -9.5690    -9.3410     2.2600 H     1 <1>   0.1500 
@<TRIPOS>BOND
  1   1   2  2   
  2   2   3  am  
  3   2   4  1   
  4   3   5  1   
  5   3  25  1   
  6   4   6  1   
  7   4   7  1   
  8   4  26  1   
  9   5   8  1   
 10   5   9  1   
 11   5  27  1   
 12   6  10  1   
 13   6  28  1   
 14   6  29  1   
 15   7  11  1   
 16   7  30  1   
 17   7  31  1   
 18   8  10  1   
 19   8  32  1   
 20   8  33  1   
 21   9  11  1   
 22   9  34  1   
 23   9  35  1   
 24  11  12  1   
 25  11  36  1   
 26  12  13  1   
 27  12  14  1   
 28  12  37  1   
 29  13  15  1   
 30  13  38  1   
 31  13  39  1   
 32  14  16  1   
 33  14  40  1   
 34  14  41  1   
 35  15  17  1   
 36  15  42  1   
 37  15  43  1   
 38  16  17  1   
 39  16  44  1   
 40  16  45  1   
 41  17  18  1   
 42  17  46  1   
 43  18  19  1   
 44  18  47  1   
 45  18  48  1   
 46  19  20  ar  
 47  19  21  ar  
 48  20  22  ar  
 49  20  49  1   
 50  21  23  ar  
 51  21  50  1   
 52  22  24  ar  
 53  22  51  1   
 54  23  24  ar  
 55  23  52  1   
 56  24  53  1   
@<TRIPOS>SUBSTRUCTURE
  1 ****  14 GROUP 4 **** **** 0

# MOE 2024.06 (io_trps.svl 2023.06)
