@<TRIPOS>MOLECULE
NONAME
55 57 1 0 0 
SMALL
USER_CHARGES


@<TRIPOS>ATOM
  1 O       -1.6350    -0.7610     0.4690 O.3   1 <1>  -0.3630 
  2 C       -2.0550     0.3470    -0.2040 C.ar  1 <1>   0.0820 
  3 C       -0.5200    -0.6870     1.3400 C.3   1 <1>   0.0400 
  4 C       -2.9170     0.1650    -1.2820 C.ar  1 <1>  -0.1440 
  5 C       -1.6650     1.6360     0.1510 C.ar  1 <1>  -0.1500 
  6 C       -3.3730     1.2630    -1.9940 C.ar  1 <1>  -0.1500 
  7 C       -3.3620    -1.2270    -1.6780 C.3   1 <1>   0.4870 
  8 C       -2.1260     2.7300    -0.5600 C.ar  1 <1>  -0.1440 
  9 C       -2.9780     2.5380    -1.6340 C.ar  1 <1>  -0.1500 
 10 N       -4.0440    -1.8360    -0.5010 N.4   1 <1>  -0.9590 
 11 C       -1.6970     4.1360    -0.1750 C.3   1 <1>  -0.0970 
 12 C       -4.2220    -3.3210    -0.6210 C.3   1 <1>   0.3430 
 13 C       -5.2920    -1.0910    -0.1390 C.3   1 <1>   0.3430 
 14 C       -5.1140    -3.8170     0.5460 C.3   1 <1>   0.4230 
 15 C       -6.1280    -1.8600     0.9070 C.3   1 <1>  -0.1600 
 16 N       -4.9320    -5.2380     1.0490 N.4   1 <1>  -0.9590 
 17 C       -6.6140    -3.2940     0.3300 C.3   1 <1>   0.0000 
 18 C       -5.1450    -6.2830     0.0300 C.3   1 <1>   0.3430 
 19 C       -3.6570    -5.4700     1.8020 C.3   1 <1>   0.2630 
 20 C       -7.1220    -4.6840    -0.3220 C.3   1 <1>  -0.1600 
 21 C       -8.1120    -2.7310     0.2080 C.3   1 <1>   0.1200 
 22 C       -6.1950    -5.7680    -0.9290 C.3   1 <1>  -0.1600 
 23 O       -8.6600    -2.7680     1.4850 O.3   1 <1>  -0.6800 
 24 H       -0.2620    -1.6830     1.6520 H     1 <1>   0.0800 
 25 H       -0.7800    -0.0930     2.1980 H     1 <1>   0.0800 
 26 H        0.3100    -0.2480     0.8120 H     1 <1>   0.0800 
 27 H       -1.0030     1.8110     0.9790 H     1 <1>   0.1500 
 28 H       -4.0320     1.1480    -2.8380 H     1 <1>   0.1500 
 29 H       -2.4910    -1.8030    -1.9470 H     1 <1>   0.0800 
 30 H       -4.0270    -1.1820    -2.5250 H     1 <1>   0.0800 
 31 H       -3.3340     3.3870    -2.1950 H     1 <1>   0.1500 
 32 H       -3.3550    -1.6250     0.2500 H     1 <1>   0.4500 
 33 H       -2.4920     4.8360    -0.3580 H     1 <1>   0.0800 
 34 H       -0.8400     4.4270    -0.7570 H     1 <1>   0.0800 
 35 H       -1.4390     4.1840     0.8680 H     1 <1>   0.0800 
 36 H       -4.6990    -3.5540    -1.5580 H     1 <1>   0.0800 
 37 H       -3.2600    -3.8040    -0.5820 H     1 <1>   0.0800 
 38 H       -5.0320    -0.1160     0.2480 H     1 <1>   0.0800 
 39 H       -5.8930    -0.9400    -1.0230 H     1 <1>   0.0800 
 40 H       -4.6810    -3.2950     1.3760 H     1 <1>   0.0800 
 41 H       -5.6100    -1.9040     1.8520 H     1 <1>   0.0800 
 42 H       -6.8820    -1.1410     1.1910 H     1 <1>   0.0800 
 43 H       -5.7050    -5.3670     1.7250 H     1 <1>   0.4500 
 44 H       -4.2340    -6.5010    -0.5040 H     1 <1>   0.0800 
 45 H       -5.4900    -7.1890     0.5050 H     1 <1>   0.0800 
 46 H       -2.8040    -5.3680     1.1500 H     1 <1>   0.0800 
 47 H       -3.6470    -6.4640     2.2210 H     1 <1>   0.0800 
 48 H       -3.5630    -4.7630     2.6110 H     1 <1>   0.0800 
 49 H       -7.7610    -5.1820     0.3940 H     1 <1>   0.0800 
 50 H       -7.7140    -4.5060    -1.2070 H     1 <1>   0.0800 
 51 H       -8.8450    -3.2410    -0.3960 H     1 <1>   0.0800 
 52 H       -8.1770    -1.7230    -0.1740 H     1 <1>   0.0800 
 53 H       -5.7140    -5.3940    -1.8150 H     1 <1>   0.0800 
 54 H       -6.7910    -6.6070    -1.2520 H     1 <1>   0.0800 
 55 H       -9.5950    -2.4690     1.4860 H     1 <1>   0.4000 
@<TRIPOS>BOND
  1   1   2  1   
  2   1   3  1   
  3   2   4  ar  
  4   2   5  ar  
  5   3  24  1   
  6   3  25  1   
  7   3  26  1   
  8   4   6  ar  
  9   4   7  1   
 10   5   8  ar  
 11   5  27  1   
 12   6   9  ar  
 13   6  28  1   
 14   7  10  1   
 15   7  29  1   
 16   7  30  1   
 17   8   9  ar  
 18   8  11  1   
 19   9  31  1   
 20  10  12  1   
 21  10  13  1   
 22  10  32  1   
 23  11  33  1   
 24  11  34  1   
 25  11  35  1   
 26  12  14  1   
 27  12  36  1   
 28  12  37  1   
 29  13  15  1   
 30  13  38  1   
 31  13  39  1   
 32  14  16  1   
 33  14  17  1   
 34  14  40  1   
 35  15  17  1   
 36  15  41  1   
 37  15  42  1   
 38  16  18  1   
 39  16  19  1   
 40  16  43  1   
 41  17  20  1   
 42  17  21  1   
 43  18  22  1   
 44  18  44  1   
 45  18  45  1   
 46  19  46  1   
 47  19  47  1   
 48  19  48  1   
 49  20  22  1   
 50  20  49  1   
 51  20  50  1   
 52  21  23  1   
 53  21  51  1   
 54  21  52  1   
 55  22  53  1   
 56  22  54  1   
 57  23  55  1   
@<TRIPOS>SUBSTRUCTURE
  1 ****  10 GROUP 4 **** **** 0

# MOE 2024.06 (io_trps.svl 2023.06)
