@<TRIPOS>MOLECULE
NONAME
53 55 1 0 0 
SMALL
USER_CHARGES


@<TRIPOS>ATOM
  1 O        0.8750     0.3300     2.0270 O.2   1 <1>  -0.5700 
  2 C        1.9400     0.1870     1.4650 C.2   1 <1>   0.7150 
  3 N        2.5940     1.3080     1.0900 N.am  1 <1>  -0.8000 
  4 C        2.4790    -1.1270     1.2050 C.2   1 <1>   0.0550 
  5 O        3.6080    -1.2980     0.5290 O.3   1 <1>  -0.2800 
  6 C        2.0080    -2.3520     1.5520 C.2   1 <1>  -0.1500 
  7 C        3.8850    -2.5830     0.4300 C.2   1 <1>  -0.0400 
  8 C        2.9060    -3.2960     1.0450 C.2   1 <1>  -0.1810 
  9 C        5.1770    -2.9490    -0.3230 C.3   1 <1>   0.1800 
 10 C        2.7080    -4.7860     1.2090 C.3   1 <1>   0.5240 
 11 C        6.3600    -2.2080     0.3150 C.3   1 <1>  -0.2400 
 12 C        5.0400    -2.5110    -1.7880 C.3   1 <1>  -0.2400 
 13 C        5.4880    -4.4520    -0.2930 C.3   1 <1>  -0.2400 
 14 N        1.9610    -5.2720     0.0210 N.4   1 <1>  -0.9590 
 15 C        0.5470    -4.7800    -0.0310 C.3   1 <1>   0.3430 
 16 C        1.9410    -6.7620    -0.0900 C.3   1 <1>   0.3430 
 17 C       -0.2850    -5.9670    -0.5190 C.3   1 <1>   0.2000 
 18 C        0.4740    -7.1970    -0.0390 C.3   1 <1>  -0.0800 
 19 O       -1.5690    -5.9580     0.0010 O.3   1 <1>  -0.6800 
 20 C        0.1710    -8.4520    -0.8810 C.3   1 <1>  -0.0170 
 21 C        0.9080    -9.6830    -0.3700 C.ar  1 <1>   0.1670 
 22 N        2.2320    -9.6360    -0.4050 N.ar  1 <1>  -0.6200 
 23 C        0.1890   -10.7830     0.0960 C.ar  1 <1>   0.1600 
 24 C        2.7800   -10.7600     0.0370 C.ar  1 <1>   0.1600 
 25 N        0.7370   -11.8950     0.5540 N.ar  1 <1>  -0.6200 
 26 C        2.0560   -11.8510     0.5030 C.ar  1 <1>   0.1600 
 27 H        2.1950     2.2220     1.3000 H     1 <1>   0.3700 
 28 H        3.5020     1.2750     0.6290 H     1 <1>   0.3700 
 29 H        1.1110    -2.5380     2.1190 H     1 <1>   0.1500 
 30 H        2.1600    -4.9920     2.1140 H     1 <1>   0.0800 
 31 H        3.6650    -5.2750     1.2730 H     1 <1>   0.0800 
 32 H        7.2800    -2.4490    -0.1870 H     1 <1>   0.0800 
 33 H        6.4550    -2.4780     1.3520 H     1 <1>   0.0800 
 34 H        6.2170    -1.1440     0.2580 H     1 <1>   0.0800 
 35 H        5.9350    -2.7410    -2.3390 H     1 <1>   0.0800 
 36 H        4.8750    -1.4490    -1.8460 H     1 <1>   0.0800 
 37 H        4.2100    -3.0060    -2.2560 H     1 <1>   0.0800 
 38 H        6.4090    -4.6460    -0.8150 H     1 <1>   0.0800 
 39 H        4.7160    -5.0180    -0.7770 H     1 <1>   0.0800 
 40 H        5.6120    -4.7910     0.7200 H     1 <1>   0.0800 
 41 H        2.4560    -4.8840    -0.7940 H     1 <1>   0.4500 
 42 H        0.2180    -4.4990     0.9560 H     1 <1>   0.0800 
 43 H        0.4500    -3.9370    -0.6960 H     1 <1>   0.0800 
 44 H        2.3680    -7.0620    -1.0340 H     1 <1>   0.0800 
 45 H        2.5020    -7.2360     0.7000 H     1 <1>   0.0800 
 46 H       -0.3590    -5.9390    -1.5940 H     1 <1>   0.0800 
 47 H        0.2320    -7.3950     0.9910 H     1 <1>   0.0800 
 48 H       -1.5980    -6.1230     0.9650 H     1 <1>   0.4000 
 49 H        0.4540    -8.2880    -1.9060 H     1 <1>   0.0800 
 50 H       -0.8900    -8.6360    -0.8690 H     1 <1>   0.0800 
 51 H       -0.8870   -10.7480     0.0930 H     1 <1>   0.1500 
 52 H        3.8540   -10.8250     0.0330 H     1 <1>   0.1500 
 53 H        2.5900   -12.7210     0.8450 H     1 <1>   0.1500 
@<TRIPOS>BOND
  1   1   2  2   
  2   2   3  am  
  3   2   4  1   
  4   3  27  1   
  5   3  28  1   
  6   4   5  1   
  7   4   6  2   
  8   5   7  1   
  9   6   8  1   
 10   6  29  1   
 11   7   8  2   
 12   7   9  1   
 13   8  10  1   
 14   9  11  1   
 15   9  12  1   
 16   9  13  1   
 17  10  14  1   
 18  10  30  1   
 19  10  31  1   
 20  11  32  1   
 21  11  33  1   
 22  11  34  1   
 23  12  35  1   
 24  12  36  1   
 25  12  37  1   
 26  13  38  1   
 27  13  39  1   
 28  13  40  1   
 29  14  15  1   
 30  14  16  1   
 31  14  41  1   
 32  15  17  1   
 33  15  42  1   
 34  15  43  1   
 35  16  18  1   
 36  16  44  1   
 37  16  45  1   
 38  17  18  1   
 39  17  19  1   
 40  17  46  1   
 41  18  20  1   
 42  18  47  1   
 43  19  48  1   
 44  20  21  1   
 45  20  49  1   
 46  20  50  1   
 47  21  22  ar  
 48  21  23  ar  
 49  22  24  ar  
 50  23  25  ar  
 51  23  51  1   
 52  24  26  ar  
 53  24  52  1   
 54  25  26  ar  
 55  26  53  1   
@<TRIPOS>SUBSTRUCTURE
  1 ****  14 GROUP 4 **** **** 0

# MOE 2024.06 (io_trps.svl 2023.06)
