@<TRIPOS>MOLECULE
NONAME
45 46 1 0 0 
SMALL
USER_CHARGES


@<TRIPOS>ATOM
  1 S        0.2440     0.0140     0.8190 S.o2  1 <1>   1.3330 
  2 O        1.6110     0.0670     1.2840 O.2   1 <1>  -0.6500 
  3 O       -0.8390     0.0360     1.7760 O.2   1 <1>  -0.6500 
  4 N        0.0760    -1.3700    -0.1500 N.am  1 <1>  -0.8490 
  5 C       -0.0330     1.3490    -0.3420 C.3   1 <1>  -0.0550 
  6 C        1.3030    -1.7310    -0.8670 C.3   1 <1>   0.1160 
  7 C       -0.4140    -2.5230     0.6100 C.3   1 <1>   0.1160 
  8 C       -0.0240     2.7370     0.3210 C.3   1 <1>  -0.0800 
  9 C       -0.3910     3.8490    -0.6560 C.3   1 <1>   0.2000 
 10 C        1.3400     3.1630     0.8690 C.3   1 <1>   0.1400 
 11 O       -1.7680     3.9380    -0.7800 O.3   1 <1>  -0.6800 
 12 C        0.2130     5.1200    -0.0620 C.3   1 <1>   0.1400 
 13 N        1.3610     4.6420     0.7490 N.am  1 <1>  -0.6600 
 14 C        2.4940     5.3810     1.0050 C.2   1 <1>   0.5440 
 15 O        3.5190     4.7930     1.2900 O.2   1 <1>  -0.5700 
 16 C        2.4930     6.8300     0.9310 C.ar  1 <1>   0.0860 
 17 C        3.4870     7.5100     0.2320 C.ar  1 <1>  -0.1500 
 18 C        1.5100     7.5950     1.5600 C.ar  1 <1>  -0.1500 
 19 C        3.5020     8.8910     0.1470 C.ar  1 <1>   0.0820 
 20 C        1.5070     8.9750     1.4760 C.ar  1 <1>  -0.1500 
 21 O        4.5210     9.4490    -0.5510 O.3   1 <1>  -0.3630 
 22 C        2.4980     9.6290     0.7660 C.ar  1 <1>  -0.1500 
 23 C        4.9090    10.7790    -0.2980 C.3   1 <1>   0.8800 
 24 F        4.1330    11.5900    -1.0060 F     1 <1>  -0.3400 
 25 F        6.1350    10.9450    -0.7720 F     1 <1>  -0.3400 
 26 H        0.7120     1.3160    -1.1130 H     1 <1>   0.0800 
 27 H       -0.9900     1.2010    -0.8060 H     1 <1>   0.0800 
 28 H        1.1140    -2.5570    -1.5320 H     1 <1>   0.0800 
 29 H        2.0780    -2.0110    -0.1720 H     1 <1>   0.0800 
 30 H        1.6510    -0.8980    -1.4530 H     1 <1>   0.0800 
 31 H       -0.5240    -3.3770    -0.0360 H     1 <1>   0.0800 
 32 H       -1.3780    -2.3010     1.0380 H     1 <1>   0.0800 
 33 H        0.2700    -2.7650     1.4070 H     1 <1>   0.0800 
 34 H       -0.7170     2.7440     1.1450 H     1 <1>   0.0800 
 35 H        0.0280     3.6710    -1.6320 H     1 <1>   0.0800 
 36 H        2.1440     2.7510     0.2820 H     1 <1>   0.0800 
 37 H        1.4690     2.8640     1.8970 H     1 <1>   0.0800 
 38 H       -2.1880     4.0270     0.0980 H     1 <1>   0.4000 
 39 H       -0.4940     5.6120     0.5820 H     1 <1>   0.0800 
 40 H        0.5420     5.7880    -0.8390 H     1 <1>   0.0800 
 41 H        4.2660     6.9440    -0.2480 H     1 <1>   0.1500 
 42 H        0.7430     7.0940     2.1250 H     1 <1>   0.1500 
 43 H        0.7310     9.5420     1.9630 H     1 <1>   0.1500 
 44 H        2.4590    10.7020     0.7030 H     1 <1>   0.1500 
 45 H        4.8790    11.0410     0.7450 H     1 <1>   0.0800 
@<TRIPOS>BOND
  1   1   2  2   
  2   1   3  2   
  3   1   4  am  
  4   1   5  1   
  5   4   6  1   
  6   4   7  1   
  7   5   8  1   
  8   5  26  1   
  9   5  27  1   
 10   6  28  1   
 11   6  29  1   
 12   6  30  1   
 13   7  31  1   
 14   7  32  1   
 15   7  33  1   
 16   8   9  1   
 17   8  10  1   
 18   8  34  1   
 19   9  11  1   
 20   9  12  1   
 21   9  35  1   
 22  10  13  1   
 23  10  36  1   
 24  10  37  1   
 25  11  38  1   
 26  12  13  1   
 27  12  39  1   
 28  12  40  1   
 29  13  14  am  
 30  14  15  2   
 31  14  16  1   
 32  16  17  ar  
 33  16  18  ar  
 34  17  19  ar  
 35  17  41  1   
 36  18  20  ar  
 37  18  42  1   
 38  19  21  1   
 39  19  22  ar  
 40  20  22  ar  
 41  20  43  1   
 42  21  23  1   
 43  22  44  1   
 44  23  24  1   
 45  23  25  1   
 46  23  45  1   
@<TRIPOS>SUBSTRUCTURE
  1 ****  13 GROUP 4 **** **** 0

# MOE 2024.06 (io_trps.svl 2023.06)
