@<TRIPOS>MOLECULE
NONAME
58 61 1 0 0 
SMALL
USER_CHARGES


@<TRIPOS>ATOM
  1 O       -3.6860     2.5500    -1.7510 O.2   1 <1>  -0.5700 
  2 C       -3.2300     1.6680    -1.0500 C.2   1 <1>   0.5440 
  3 N       -3.7800     0.4030    -1.1330 N.am  1 <1>  -0.6600 
  4 C       -2.1420     1.9850    -0.1540 C.ar  1 <1>   0.0860 
  5 C       -3.2430    -0.7690    -0.3430 C.3   1 <1>   0.3640 
  6 C       -5.0550     0.2150    -1.8910 C.3   1 <1>   0.1400 
  7 C       -2.3540     2.1070     1.2140 C.ar  1 <1>   0.1600 
  8 C       -0.8440     2.1530    -0.6090 C.ar  1 <1>  -0.1500 
  9 C       -1.7530    -0.9430    -0.6550 C.ar  1 <1>  -0.1440 
 10 C       -3.9600    -2.1380    -0.5680 C.3   1 <1>   0.2000 
 11 C       -5.3200    -1.2460    -2.2510 C.3   1 <1>   0.1200 
 12 N       -1.4230     2.3360     2.1240 N.ar  1 <1>  -0.6200 
 13 C        0.1510     2.3900     0.3150 C.ar  1 <1>  -0.1430 
 14 C       -0.8330    -0.9950     0.3820 C.ar  1 <1>  -0.1500 
 15 C       -1.2990    -1.0260    -1.9630 C.ar  1 <1>  -0.1500 
 16 O       -5.2520    -2.0160    -1.0960 O.3   1 <1>  -0.5600 
 17 C       -4.1060    -2.9500     0.7290 C.3   1 <1>   0.1200 
 18 C       -0.1870     2.4720     1.6630 C.ar  1 <1>   0.1670 
 19 C        1.5880     2.5170    -0.1770 C.3   1 <1>  -0.0170 
 20 C        0.5290    -1.1170     0.1270 C.ar  1 <1>   0.0830 
 21 C        0.0520    -1.1500    -2.2330 C.ar  1 <1>  -0.1500 
 22 O       -2.8840    -3.1130     1.3760 O.3   1 <1>  -0.6800 
 23 C        0.8710     2.7520     2.7220 C.3   1 <1>  -0.0170 
 24 C        2.5040     3.1830     0.8540 C.3   1 <1>  -0.1600 
 25 O        1.4570    -1.1590     1.1270 O.3   1 <1>  -0.3620 
 26 C        0.9770    -1.1920    -1.1940 C.ar  1 <1>   0.0830 
 27 C        2.3080     2.5360     2.2280 C.3   1 <1>  -0.1600 
 28 C        1.0750    -1.1300     2.4850 C.3   1 <1>   0.0400 
 29 O        2.3200    -1.2950    -1.4130 O.3   1 <1>  -0.3630 
 30 C        2.8570    -1.3980    -2.7120 C.3   1 <1>   0.0400 
 31 H       -3.3470    -0.5220     0.6990 H     1 <1>   0.0800 
 32 H       -5.8710     0.5830    -1.2950 H     1 <1>   0.0800 
 33 H       -5.0250     0.7940    -2.7980 H     1 <1>   0.0800 
 34 H       -3.3630     2.0020     1.5710 H     1 <1>   0.1500 
 35 H       -0.6300     2.0750    -1.6600 H     1 <1>   0.1500 
 36 H       -3.3960    -2.7250    -1.2720 H     1 <1>   0.0800 
 37 H       -4.6050    -1.6090    -2.9680 H     1 <1>   0.0800 
 38 H       -6.3090    -1.3510    -2.6600 H     1 <1>   0.0800 
 39 H       -1.1960    -0.9260     1.3900 H     1 <1>   0.1500 
 40 H       -1.9990    -0.9790    -2.7800 H     1 <1>   0.1500 
 41 H       -4.5040    -3.9270     0.5160 H     1 <1>   0.0800 
 42 H       -4.7650    -2.4390     1.4090 H     1 <1>   0.0800 
 43 H        1.9590     1.5280    -0.3870 H     1 <1>   0.0800 
 44 H        1.6140     3.0800    -1.0930 H     1 <1>   0.0800 
 45 H        0.3620    -1.2070    -3.2590 H     1 <1>   0.1500 
 46 H       -2.2590    -3.6330     0.8300 H     1 <1>   0.4000 
 47 H        0.7530     3.7730     3.0380 H     1 <1>   0.0800 
 48 H        0.6920     2.1250     3.5770 H     1 <1>   0.0800 
 49 H        3.5290     3.0800     0.5430 H     1 <1>   0.0800 
 50 H        2.2740     4.2330     0.9130 H     1 <1>   0.0800 
 51 H        3.0000     2.9560     2.9360 H     1 <1>   0.0800 
 52 H        2.5060     1.4810     2.1520 H     1 <1>   0.0800 
 53 H        1.9670    -1.1690     3.0830 H     1 <1>   0.0800 
 54 H        0.4570    -1.9860     2.6910 H     1 <1>   0.0800 
 55 H        0.5430    -0.2160     2.6790 H     1 <1>   0.0800 
 56 H        3.9260    -1.4770    -2.6240 H     1 <1>   0.0800 
 57 H        2.6000    -0.5140    -3.2670 H     1 <1>   0.0800 
 58 H        2.4640    -2.2810    -3.1830 H     1 <1>   0.0800 
@<TRIPOS>BOND
  1   1   2  2   
  2   2   3  am  
  3   2   4  1   
  4   3   5  1   
  5   3   6  1   
  6   4   7  ar  
  7   4   8  ar  
  8   5   9  1   
  9   5  10  1   
 10   5  31  1   
 11   6  11  1   
 12   6  32  1   
 13   6  33  1   
 14   7  12  ar  
 15   7  34  1   
 16   8  13  ar  
 17   8  35  1   
 18   9  14  ar  
 19   9  15  ar  
 20  10  16  1   
 21  10  17  1   
 22  10  36  1   
 23  11  16  1   
 24  11  37  1   
 25  11  38  1   
 26  12  18  ar  
 27  13  18  ar  
 28  13  19  1   
 29  14  20  ar  
 30  14  39  1   
 31  15  21  ar  
 32  15  40  1   
 33  17  22  1   
 34  17  41  1   
 35  17  42  1   
 36  18  23  1   
 37  19  24  1   
 38  19  43  1   
 39  19  44  1   
 40  20  25  1   
 41  20  26  ar  
 42  21  26  ar  
 43  21  45  1   
 44  22  46  1   
 45  23  27  1   
 46  23  47  1   
 47  23  48  1   
 48  24  27  1   
 49  24  49  1   
 50  24  50  1   
 51  25  28  1   
 52  26  29  1   
 53  27  51  1   
 54  27  52  1   
 55  28  53  1   
 56  28  54  1   
 57  28  55  1   
 58  29  30  1   
 59  30  56  1   
 60  30  57  1   
 61  30  58  1   
@<TRIPOS>SUBSTRUCTURE
  1 ****  14 GROUP 4 **** **** 0

# MOE 2024.06 (io_trps.svl 2023.06)
