@<TRIPOS>MOLECULE
NONAME
42 44 1 0 0 
SMALL
USER_CHARGES


@<TRIPOS>ATOM
  1 N        0.5310    -0.2090    -0.8210 N.ar  1 <1>  -0.1790 
  2 C       -0.0400     0.5000     0.2030 C.ar  1 <1>   0.7710 
  3 C        0.4520    -1.5360    -0.9370 C.ar  1 <1>   0.4610 
  4 N       -0.7190    -0.0700     1.1570 N.ar  1 <1>  -0.5670 
  5 N        0.0910     1.8500     0.2730 N.pl3 1 <1>  -0.8690 
  6 N        1.0590    -2.1550    -1.9610 N.pl3 1 <1>  -0.9000 
  7 C       -0.2790    -2.1800     0.0670 C.ar  1 <1>   0.0000 
  8 C       -0.8330    -1.4210     1.0720 C.ar  1 <1>   0.1050 
  9 C        0.5970     2.8090    -0.7340 C.3   1 <1>   0.4690 
 10 C       -0.6490    -3.4940     0.3880 C.2   1 <1>   0.1390 
 11 N       -1.4740    -2.2830     1.9000 N.pl3 1 <1>   0.3140 
 12 C        1.9150     2.2980    -1.3180 C.2   1 <1>   0.0060 
 13 C        0.6010     4.2150    -0.1480 C.3   1 <1>  -0.2400 
 14 N       -1.3520    -3.5630     1.4670 N.2   1 <1>  -0.7070 
 15 C       -2.2250    -1.9660     3.1240 C.3   1 <1>   0.0160 
 16 N        1.8760     1.6890    -2.4580 N.2   1 <1>  -0.3380 
 17 N        3.1630     2.2710    -0.7950 N.pl3 1 <1>   0.0480 
 18 N        3.0840     1.2130    -2.7030 N.2   1 <1>  -0.3380 
 19 C        3.8320     1.5810    -1.7250 C.2   1 <1>   0.0360 
 20 C        3.8350     2.7160     0.4630 C.3   1 <1>   0.1760 
 21 C        3.1140     2.2260     1.7250 C.3   1 <1>  -0.2400 
 22 C        4.1000     4.2250     0.4670 C.3   1 <1>  -0.2400 
 23 H        1.0720     0.3190    -1.5080 H     1 <1>   0.4570 
 24 H       -0.4220     2.2880     1.0430 H     1 <1>   0.4000 
 25 H        1.0290    -3.1730    -2.0970 H     1 <1>   0.4000 
 26 H        1.6070    -1.6890    -2.6990 H     1 <1>   0.4000 
 27 H       -0.1140     2.8280    -1.5450 H     1 <1>   0.0800 
 28 H       -0.3790    -4.3590    -0.1960 H     1 <1>   0.1500 
 29 H        1.0840     4.2570     0.8060 H     1 <1>   0.0800 
 30 H       -0.4110     4.5580    -0.0310 H     1 <1>   0.0800 
 31 H        1.0970     4.8860    -0.8260 H     1 <1>   0.0800 
 32 H       -2.1790    -0.9110     3.3190 H     1 <1>   0.0800 
 33 H       -1.7950    -2.5070     3.9470 H     1 <1>   0.0800 
 34 H       -3.2470    -2.2680     2.9940 H     1 <1>   0.0800 
 35 H        4.8820     1.3560    -1.6490 H     1 <1>   0.1500 
 36 H        4.8030     2.2430     0.4740 H     1 <1>   0.0800 
 37 H        2.1730     2.7140     1.8730 H     1 <1>   0.0800 
 38 H        3.7240     2.4350     2.5870 H     1 <1>   0.0800 
 39 H        2.9610     1.1630     1.6810 H     1 <1>   0.0800 
 40 H        3.1970     4.8000     0.5070 H     1 <1>   0.0800 
 41 H        4.6540     4.5070    -0.4110 H     1 <1>   0.0800 
 42 H        4.6920     4.4850     1.3270 H     1 <1>   0.0800 
@<TRIPOS>BOND
  1   1   2  ar  
  2   1   3  ar  
  3   1  23  1   
  4   2   4  ar  
  5   2   5  1   
  6   3   6  1   
  7   3   7  ar  
  8   4   8  ar  
  9   5   9  1   
 10   5  24  1   
 11   6  25  1   
 12   6  26  1   
 13   7   8  ar  
 14   7  10  1   
 15   8  11  1   
 16   9  12  1   
 17   9  13  1   
 18   9  27  1   
 19  10  14  2   
 20  10  28  1   
 21  11  14  1   
 22  11  15  1   
 23  12  16  2   
 24  12  17  1   
 25  13  29  1   
 26  13  30  1   
 27  13  31  1   
 28  15  32  1   
 29  15  33  1   
 30  15  34  1   
 31  16  18  1   
 32  17  19  1   
 33  17  20  1   
 34  18  19  2   
 35  19  35  1   
 36  20  21  1   
 37  20  22  1   
 38  20  36  1   
 39  21  37  1   
 40  21  38  1   
 41  21  39  1   
 42  22  40  1   
 43  22  41  1   
 44  22  42  1   
@<TRIPOS>SUBSTRUCTURE
  1 ****   2 GROUP 4 **** **** 0

# MOE 2024.06 (io_trps.svl 2023.06)
