@<TRIPOS>MOLECULE
NONAME
57 60 1 0 0 
SMALL
USER_CHARGES


@<TRIPOS>ATOM
  1 O       -4.7680     3.1680    -1.4810 O.2   1 <1>  -0.5700 
  2 C       -3.5670     3.0440    -1.4730 C.2   1 <1>   0.5690 
  3 N       -2.9340     2.1290    -2.2480 N.am  1 <1>  -0.7300 
  4 C       -2.7310     3.8810    -0.5220 C.3   1 <1>   0.0440 
  5 C       -3.6010     0.9760    -2.8800 C.3   1 <1>   0.2200 
  6 C       -1.5150     3.0810    -0.0310 C.ar  1 <1>  -0.1440 
  7 C       -3.5930    -0.1680    -1.8810 C.3   1 <1>  -0.0800 
  8 C       -2.7470     0.4210    -4.0180 C.3   1 <1>   0.1200 
  9 C       -1.6670     2.1520     0.9990 C.ar  1 <1>  -0.1440 
 10 C       -0.2670     3.2360    -0.6360 C.ar  1 <1>  -0.1440 
 11 C       -2.2150    -0.7820    -2.1220 C.3   1 <1>   0.1200 
 12 C       -4.7370    -1.1660    -2.1380 C.3   1 <1>  -0.0160 
 13 O       -1.9150    -0.5620    -3.4680 O.3   1 <1>  -0.5600 
 14 C       -0.5810     1.3970     1.4100 C.ar  1 <1>  -0.1500 
 15 C       -2.9990     1.9180     1.7050 C.3   1 <1>  -0.0970 
 16 C        0.8040     2.4700    -0.2060 C.ar  1 <1>  -0.1500 
 17 C       -0.0210     4.2210    -1.7740 C.3   1 <1>  -0.0970 
 18 C       -4.8290    -2.1850    -1.0070 C.ar  1 <1>  -0.1440 
 19 C        0.6560     1.5500     0.8140 C.ar  1 <1>  -0.1440 
 20 C       -5.3580    -1.8540     0.2640 C.ar  1 <1>   0.0000 
 21 C       -4.3870    -3.4620    -1.1940 C.ar  1 <1>  -0.1500 
 22 C        1.8370     0.7130     1.2730 C.3   1 <1>  -0.0970 
 23 C       -5.3680    -2.8670     1.2540 C.ar  1 <1>   0.3100 
 24 C       -5.8740    -0.5830     0.6110 C.ar  1 <1>  -0.1500 
 25 C       -4.4530    -4.3900    -0.1490 C.ar  1 <1>   0.1600 
 26 N       -4.9150    -4.1270     1.0320 N.ar  1 <1>  -0.6200 
 27 C       -5.8690    -2.5630     2.5300 C.ar  1 <1>  -0.1500 
 28 C       -6.3560    -0.3210     1.8640 C.ar  1 <1>  -0.1500 
 29 C       -6.3530    -1.3210     2.8390 C.ar  1 <1>  -0.1500 
 30 H       -1.9320     1.9890    -2.0690 H     1 <1>   0.3700 
 31 H       -2.4460     4.7850    -1.0220 H     1 <1>   0.0800 
 32 H       -3.3410     4.1770     0.3100 H     1 <1>   0.0800 
 33 H       -4.5890     1.2560    -3.2060 H     1 <1>   0.0800 
 34 H       -3.6640     0.1960    -0.8730 H     1 <1>   0.0800 
 35 H       -2.1450     1.1800    -4.4870 H     1 <1>   0.0800 
 36 H       -3.3660    -0.0580    -4.7540 H     1 <1>   0.0800 
 37 H       -2.1770    -1.8370    -1.9150 H     1 <1>   0.0800 
 38 H       -1.4680    -0.2740    -1.5340 H     1 <1>   0.0800 
 39 H       -4.5760    -1.6700    -3.0760 H     1 <1>   0.0800 
 40 H       -5.6740    -0.6450    -2.2180 H     1 <1>   0.0800 
 41 H       -0.6950     0.6800     2.2030 H     1 <1>   0.1500 
 42 H       -2.9550     1.0480     2.3360 H     1 <1>   0.0800 
 43 H       -3.7900     1.7630     0.9950 H     1 <1>   0.0800 
 44 H       -3.2410     2.7660     2.3190 H     1 <1>   0.0800 
 45 H        1.7680     2.5860    -0.6680 H     1 <1>   0.1500 
 46 H        0.9710     4.1100    -2.1730 H     1 <1>   0.0800 
 47 H       -0.1250     5.2290    -1.4140 H     1 <1>   0.0800 
 48 H       -0.7190     4.0570    -2.5750 H     1 <1>   0.0800 
 49 H       -3.9770    -3.7840    -2.1340 H     1 <1>   0.1500 
 50 H        1.7590     0.5010     2.3250 H     1 <1>   0.0800 
 51 H        2.7600     1.2370     1.1010 H     1 <1>   0.0800 
 52 H        1.8560    -0.2150     0.7310 H     1 <1>   0.0800 
 53 H       -5.8930     0.2020    -0.1230 H     1 <1>   0.1500 
 54 H       -4.0930    -5.3870    -0.3400 H     1 <1>   0.1500 
 55 H       -5.8600    -3.3490     3.2630 H     1 <1>   0.1500 
 56 H       -6.7440     0.6520     2.1130 H     1 <1>   0.1500 
 57 H       -6.7340    -1.1040     3.8220 H     1 <1>   0.1500 
@<TRIPOS>BOND
  1   1   2  2   
  2   2   3  am  
  3   2   4  1   
  4   3   5  1   
  5   3  30  1   
  6   4   6  1   
  7   4  31  1   
  8   4  32  1   
  9   5   7  1   
 10   5   8  1   
 11   5  33  1   
 12   6   9  ar  
 13   6  10  ar  
 14   7  11  1   
 15   7  12  1   
 16   7  34  1   
 17   8  13  1   
 18   8  35  1   
 19   8  36  1   
 20   9  14  ar  
 21   9  15  1   
 22  10  16  ar  
 23  10  17  1   
 24  11  13  1   
 25  11  37  1   
 26  11  38  1   
 27  12  18  1   
 28  12  39  1   
 29  12  40  1   
 30  14  19  ar  
 31  14  41  1   
 32  15  42  1   
 33  15  43  1   
 34  15  44  1   
 35  16  19  ar  
 36  16  45  1   
 37  17  46  1   
 38  17  47  1   
 39  17  48  1   
 40  18  20  ar  
 41  18  21  ar  
 42  19  22  1   
 43  20  23  ar  
 44  20  24  ar  
 45  21  25  ar  
 46  21  49  1   
 47  22  50  1   
 48  22  51  1   
 49  22  52  1   
 50  23  26  ar  
 51  23  27  ar  
 52  24  28  ar  
 53  24  53  1   
 54  25  26  ar  
 55  25  54  1   
 56  27  29  ar  
 57  27  55  1   
 58  28  29  ar  
 59  28  56  1   
 60  29  57  1   
@<TRIPOS>SUBSTRUCTURE
  1 ****   7 GROUP 4 **** **** 0

# MOE 2024.06 (io_trps.svl 2023.06)
