@<TRIPOS>MOLECULE
NONAME
55 57 1 0 0 
SMALL
USER_CHARGES


@<TRIPOS>ATOM
  1 O        4.2220     0.1390    -1.0390 O.2   1 <1>  -0.5700 
  2 C        3.0170    -0.0240    -0.9390 C.2   1 <1>   0.7800 
  3 O        2.2150     0.5920    -1.8100 O.3   1 <1>  -0.4300 
  4 N        2.4190    -0.7770     0.0430 N.am  1 <1>  -0.6600 
  5 C        2.7120     1.3140    -2.9170 C.3   1 <1>   0.0400 
  6 C        3.0150    -2.0530     0.5870 C.3   1 <1>   0.2810 
  7 C        0.9430    -0.7180     0.2430 C.3   1 <1>   0.1400 
  8 C        4.5600    -2.1210     0.6520 C.2   1 <1>   0.5690 
  9 C        2.3970    -3.2310    -0.1920 C.3   1 <1>  -0.1600 
 10 C        0.2810    -1.8760    -0.5140 C.3   1 <1>  -0.1600 
 11 O        5.1530    -2.6970    -0.2350 O.2   1 <1>  -0.5700 
 12 N        5.2740    -1.5360     1.6820 N.am  1 <1>  -0.6600 
 13 C        0.8620    -3.2350    -0.0980 C.3   1 <1>  -0.1600 
 14 C        6.7580    -1.5000     1.5630 C.3   1 <1>   0.1400 
 15 C        4.7000    -0.7160     2.7830 C.3   1 <1>   0.1400 
 16 C        7.1330    -0.4710     0.4870 C.3   1 <1>   0.3430 
 17 C        5.3690     0.6620     2.8640 C.3   1 <1>  -0.1600 
 18 N        6.8550     0.9700     0.8390 N.4   1 <1>  -0.9590 
 19 C        5.5440     1.3050     1.4890 C.3   1 <1>   0.3430 
 20 C        6.9780     1.7860    -0.4000 C.3   1 <1>   0.5230 
 21 C        7.3110     3.2210    -0.0200 C.2   1 <1>   0.0060 
 22 N        7.1790     4.2790    -0.8250 N.pl3 1 <1>   0.0330 
 23 N        7.7660     3.5680     1.1370 N.2   1 <1>  -0.3380 
 24 C        7.5820     5.2930    -0.0610 C.2   1 <1>   0.0060 
 25 N        7.9330     4.8880     1.1090 N.2   1 <1>  -0.3380 
 26 C        7.6220     6.7370    -0.5190 C.3   1 <1>  -0.0600 
 27 H        1.8760     1.6720    -3.4900 H     1 <1>   0.0800 
 28 H        3.3160     0.6560    -3.5180 H     1 <1>   0.0800 
 29 H        3.2970     2.1430    -2.5590 H     1 <1>   0.0800 
 30 H        2.6750    -2.1610     1.6000 H     1 <1>   0.0800 
 31 H        0.5460     0.2220    -0.1040 H     1 <1>   0.0800 
 32 H        0.7230    -0.7960     1.2940 H     1 <1>   0.0800 
 33 H        2.7790    -4.1580     0.1990 H     1 <1>   0.0800 
 34 H        2.6990    -3.1680    -1.2240 H     1 <1>   0.0800 
 35 H        0.4260    -1.7280    -1.5700 H     1 <1>   0.0800 
 36 H       -0.7780    -1.8640    -0.3270 H     1 <1>   0.0800 
 37 H        0.5670    -3.4540     0.9140 H     1 <1>   0.0800 
 38 H        0.4620    -4.0090    -0.7310 H     1 <1>   0.0800 
 39 H        7.1080    -2.4710     1.2530 H     1 <1>   0.0800 
 40 H        7.2270    -1.2760     2.5040 H     1 <1>   0.0800 
 41 H        4.8250    -1.2380     3.7180 H     1 <1>   0.0800 
 42 H        3.6460    -0.5710     2.6270 H     1 <1>   0.0800 
 43 H        6.5850    -0.7310    -0.4050 H     1 <1>   0.0800 
 44 H        8.1810    -0.5810     0.2630 H     1 <1>   0.0800 
 45 H        6.3050     0.6180     3.3900 H     1 <1>   0.0800 
 46 H        4.7220     1.2940     3.4470 H     1 <1>   0.0800 
 47 H        7.5890     1.3380     1.4640 H     1 <1>   0.4500 
 48 H        5.4910     2.3740     1.6180 H     1 <1>   0.0800 
 49 H        4.7220     1.0130     0.8620 H     1 <1>   0.0800 
 50 H        6.0570     1.7430    -0.9600 H     1 <1>   0.0800 
 51 H        7.7730     1.4010    -1.0160 H     1 <1>   0.0800 
 52 H        6.8530     4.3360    -1.7930 H     1 <1>   0.2700 
 53 H        6.6380     7.0680    -0.7980 H     1 <1>   0.0800 
 54 H        8.2870     6.8450    -1.3570 H     1 <1>   0.0800 
 55 H        7.9790     7.3630     0.2810 H     1 <1>   0.0800 
@<TRIPOS>BOND
  1   1   2  2   
  2   2   3  1   
  3   2   4  am  
  4   3   5  1   
  5   4   6  1   
  6   4   7  1   
  7   5  27  1   
  8   5  28  1   
  9   5  29  1   
 10   6   8  1   
 11   6   9  1   
 12   6  30  1   
 13   7  10  1   
 14   7  31  1   
 15   7  32  1   
 16   8  11  2   
 17   8  12  am  
 18   9  13  1   
 19   9  33  1   
 20   9  34  1   
 21  10  13  1   
 22  10  35  1   
 23  10  36  1   
 24  12  14  1   
 25  12  15  1   
 26  13  37  1   
 27  13  38  1   
 28  14  16  1   
 29  14  39  1   
 30  14  40  1   
 31  15  17  1   
 32  15  41  1   
 33  15  42  1   
 34  16  18  1   
 35  16  43  1   
 36  16  44  1   
 37  17  19  1   
 38  17  45  1   
 39  17  46  1   
 40  18  19  1   
 41  18  20  1   
 42  18  47  1   
 43  19  48  1   
 44  19  49  1   
 45  20  21  1   
 46  20  50  1   
 47  20  51  1   
 48  21  22  1   
 49  21  23  2   
 50  22  24  1   
 51  22  52  1   
 52  23  25  1   
 53  24  25  2   
 54  24  26  1   
 55  26  53  1   
 56  26  54  1   
 57  26  55  1   
@<TRIPOS>SUBSTRUCTURE
  1 ****   1 GROUP 4 **** **** 0

# MOE 2024.06 (io_trps.svl 2023.06)
