@<TRIPOS>MOLECULE
NONAME
38 40 1 0 0 
SMALL
USER_CHARGES


@<TRIPOS>ATOM
  1 S       -0.2170     0.4470     1.3500 S.3   1 <1>  -0.0800 
  2 C       -1.9620     0.3660     1.2540 C.2   1 <1>   0.1980 
  3 C       -0.2010     1.3090    -0.1590 C.2   1 <1>  -0.1100 
  4 N       -2.4570     0.9010     0.2040 N.2   1 <1>  -0.5650 
  5 C       -2.6910    -0.3300     2.3990 C.3   1 <1>   0.3890 
  6 C       -1.4630     1.4500    -0.5930 C.2   1 <1>   0.0460 
  7 N       -3.1860    -1.6980     2.0440 N.pl3 1 <1>  -0.8690 
  8 C       -1.8910     2.1640    -1.8580 C.3   1 <1>  -0.0590 
  9 C       -3.7260    -2.2190     0.9350 C.ar  1 <1>   0.7710 
 10 N       -4.1270    -3.4690     1.0390 N.ar  1 <1>  -0.6200 
 11 N       -3.8560    -1.5070    -0.1990 N.ar  1 <1>  -0.1790 
 12 C       -4.6810    -4.0360    -0.0180 C.ar  1 <1>   0.4100 
 13 C       -4.4160    -2.0460    -1.3040 C.ar  1 <1>   0.2110 
 14 N       -5.0950    -5.3240     0.1040 N.pl3 1 <1>  -0.8380 
 15 C       -4.8420    -3.3290    -1.2270 C.ar  1 <1>  -0.1500 
 16 C       -5.7920    -6.1370    -0.9340 C.3   1 <1>   0.2090 
 17 C       -4.9350    -6.1300     1.3430 C.3   1 <1>   0.2090 
 18 C       -5.9900    -7.5280    -0.3230 C.3   1 <1>   0.2000 
 19 C       -5.0930    -7.5810     0.9060 C.3   1 <1>  -0.1600 
 20 O       -5.6100    -8.5200    -1.2120 O.3   1 <1>  -0.6800 
 21 H        0.7490     1.6230    -0.5520 H     1 <1>   0.1500 
 22 H       -3.5250     0.2800     2.7020 H     1 <1>   0.0800 
 23 H       -2.0220    -0.4060     3.2400 H     1 <1>   0.0800 
 24 H       -3.1600    -2.3600     2.8270 H     1 <1>   0.4000 
 25 H       -1.0350     2.5660    -2.3690 H     1 <1>   0.0800 
 26 H       -2.5560     2.9730    -1.6120 H     1 <1>   0.0800 
 27 H       -2.3980     1.4830    -2.5160 H     1 <1>   0.0800 
 28 H       -3.4770    -0.5530    -0.1830 H     1 <1>   0.4570 
 29 H       -4.5020    -1.4470    -2.1970 H     1 <1>   0.1500 
 30 H       -5.2960    -3.8160    -2.0690 H     1 <1>   0.1500 
 31 H       -5.1840    -6.1960    -1.8200 H     1 <1>   0.0800 
 32 H       -6.7470    -5.6980    -1.1670 H     1 <1>   0.0800 
 33 H       -5.7120    -5.8600     2.0390 H     1 <1>   0.0800 
 34 H       -3.9730    -5.9650     1.7980 H     1 <1>   0.0800 
 35 H       -7.0250    -7.6780    -0.0650 H     1 <1>   0.0800 
 36 H       -5.5250    -8.1760     1.6900 H     1 <1>   0.0800 
 37 H       -4.1200    -7.9670     0.6590 H     1 <1>   0.0800 
 38 H       -4.6420    -8.5080    -1.3370 H     1 <1>   0.4000 
@<TRIPOS>BOND
  1   1   2  1   
  2   1   3  1   
  3   2   4  2   
  4   2   5  1   
  5   3   6  2   
  6   3  21  1   
  7   4   6  1   
  8   5   7  1   
  9   5  22  1   
 10   5  23  1   
 11   6   8  1   
 12   7   9  1   
 13   7  24  1   
 14   8  25  1   
 15   8  26  1   
 16   8  27  1   
 17   9  10  ar  
 18   9  11  ar  
 19  10  12  ar  
 20  11  13  ar  
 21  11  28  1   
 22  12  14  1   
 23  12  15  ar  
 24  13  15  ar  
 25  13  29  1   
 26  14  16  1   
 27  14  17  1   
 28  15  30  1   
 29  16  18  1   
 30  16  31  1   
 31  16  32  1   
 32  17  19  1   
 33  17  33  1   
 34  17  34  1   
 35  18  19  1   
 36  18  20  1   
 37  18  35  1   
 38  19  36  1   
 39  19  37  1   
 40  20  38  1   
@<TRIPOS>SUBSTRUCTURE
  1 ****   9 GROUP 4 **** **** 0

# MOE 2024.06 (io_trps.svl 2023.06)
