@<TRIPOS>MOLECULE
NONAME
50 53 1 0 0 
SMALL
USER_CHARGES


@<TRIPOS>ATOM
  1 O       -0.9000     1.1170    -0.3540 O.2   1 <1>  -0.5700 
  2 C       -0.6720     2.2420    -0.7310 C.2   1 <1>   0.5690 
  3 N       -0.6480     3.3120     0.1260 N.am  1 <1>  -0.6600 
  4 C       -0.4280     2.4600    -2.2300 C.3   1 <1>   0.1810 
  5 C       -0.3370     4.6890    -0.3820 C.3   1 <1>   0.3640 
  6 C       -0.7990     3.1550     1.6030 C.3   1 <1>   0.0600 
  7 O        0.1810     3.6960    -2.5280 O.3   1 <1>  -0.5600 
  8 C       -1.1290     5.7720     0.3670 C.ar  1 <1>  -0.1430 
  9 C       -0.4660     4.7970    -1.9180 C.3   1 <1>   0.2610 
 10 C       -2.5210     5.9030     0.3420 C.ar  1 <1>  -0.1430 
 11 C       -0.3850     6.6760     1.1180 C.ar  1 <1>  -0.1500 
 12 C        0.1340     6.1180    -2.3970 C.2   1 <1>   0.5690 
 13 C       -3.1210     6.9310     1.0560 C.ar  1 <1>  -0.1500 
 14 C       -3.4530     4.9790    -0.4350 C.3   1 <1>  -0.0960 
 15 C       -0.9950     7.6910     1.8300 C.ar  1 <1>  -0.1500 
 16 O       -0.5980     7.0440    -2.6520 O.2   1 <1>  -0.5700 
 17 N        1.4820     6.2380    -2.5110 N.am  1 <1>  -0.7300 
 18 C       -2.3680     7.8200     1.7970 C.ar  1 <1>  -0.1500 
 19 C        2.1790     7.5140    -2.7870 C.3   1 <1>   0.3210 
 20 C        2.4630     8.2400    -1.4830 C.2   1 <1>   0.1080 
 21 N        3.6210     8.3240    -0.9270 N.2   1 <1>  -0.4100 
 22 C        1.5020     8.9030    -0.7230 C.2   1 <1>  -0.1500 
 23 O        3.4480     9.0240     0.1590 O.3   1 <1>  -0.0190 
 24 C        2.2020     9.3860     0.3130 C.2   1 <1>   0.0550 
 25 C        1.7960    10.2100     1.5200 C.3   1 <1>  -0.0150 
 26 C        0.5720    11.0700     1.4970 C.3   1 <1>  -0.2000 
 27 C        1.9380    11.6980     1.4910 C.3   1 <1>  -0.2000 
 28 H       -1.3650     2.4080    -2.7540 H     1 <1>   0.0800 
 29 H        0.2160     1.6820    -2.5990 H     1 <1>   0.0800 
 30 H        0.7040     4.8520    -0.1650 H     1 <1>   0.0800 
 31 H        0.0260     3.6250     2.1080 H     1 <1>   0.0800 
 32 H       -0.8200     2.1130     1.8750 H     1 <1>   0.0800 
 33 H       -1.7170     3.6120     1.9280 H     1 <1>   0.0800 
 34 H       -1.4960     4.7800    -2.2150 H     1 <1>   0.0800 
 35 H        0.6890     6.6040     1.1570 H     1 <1>   0.1500 
 36 H       -4.1910     7.0470     1.0390 H     1 <1>   0.1500 
 37 H       -4.4250     4.9590     0.0230 H     1 <1>   0.0800 
 38 H       -3.0910     3.9700    -0.4550 H     1 <1>   0.0800 
 39 H       -3.5660     5.3390    -1.4410 H     1 <1>   0.0800 
 40 H       -0.4030     8.3780     2.4070 H     1 <1>   0.1500 
 41 H        2.0780     5.4220    -2.3530 H     1 <1>   0.3700 
 42 H       -2.8500     8.6100     2.3460 H     1 <1>   0.1500 
 43 H        3.1020     7.3170    -3.3020 H     1 <1>   0.0800 
 44 H        1.5660     8.1380    -3.4140 H     1 <1>   0.0800 
 45 H        0.4530     8.9820    -0.9470 H     1 <1>   0.1500 
 46 H        2.0360     9.7150     2.4440 H     1 <1>   0.1000 
 47 H       -0.0180    11.1140     0.5980 H     1 <1>   0.1000 
 48 H       -0.0260    11.1400     2.3880 H     1 <1>   0.1000 
 49 H        2.2880    12.1980     2.3760 H     1 <1>   0.1000 
 50 H        2.2930    12.1600     0.5860 H     1 <1>   0.1000 
@<TRIPOS>BOND
  1   1   2  2   
  2   2   3  am  
  3   2   4  1   
  4   3   5  1   
  5   3   6  1   
  6   4   7  1   
  7   4  28  1   
  8   4  29  1   
  9   5   8  1   
 10   5   9  1   
 11   5  30  1   
 12   6  31  1   
 13   6  32  1   
 14   6  33  1   
 15   7   9  1   
 16   8  10  ar  
 17   8  11  ar  
 18   9  12  1   
 19   9  34  1   
 20  10  13  ar  
 21  10  14  1   
 22  11  15  ar  
 23  11  35  1   
 24  12  16  2   
 25  12  17  am  
 26  13  18  ar  
 27  13  36  1   
 28  14  37  1   
 29  14  38  1   
 30  14  39  1   
 31  15  18  ar  
 32  15  40  1   
 33  17  19  1   
 34  17  41  1   
 35  18  42  1   
 36  19  20  1   
 37  19  43  1   
 38  19  44  1   
 39  20  21  2   
 40  20  22  1   
 41  21  23  1   
 42  22  24  2   
 43  22  45  1   
 44  23  24  1   
 45  24  25  1   
 46  25  26  1   
 47  25  27  1   
 48  25  46  1   
 49  26  27  1   
 50  26  47  1   
 51  26  48  1   
 52  27  49  1   
 53  27  50  1   
@<TRIPOS>SUBSTRUCTURE
  1 ****  11 GROUP 4 **** **** 0

# MOE 2024.06 (io_trps.svl 2023.06)
