@<TRIPOS>MOLECULE
NONAME
42 43 1 0 0 
SMALL
USER_CHARGES


@<TRIPOS>ATOM
  1 F       -2.1530     1.7080     2.8370 F     1 <1>  -0.1900 
  2 C       -1.4530     1.2930     1.8140 C.ar  1 <1>   0.1900 
  3 C       -2.0300     1.2680     0.5530 C.ar  1 <1>  -0.1440 
  4 C       -0.1500     0.8940     2.0440 C.ar  1 <1>  -0.1500 
  5 C       -1.2510     0.8210    -0.5060 C.ar  1 <1>  -0.1500 
  6 C       -3.4630     1.7140     0.3130 C.3   1 <1>   0.2840 
  7 C        0.6110     0.4520     0.9760 C.ar  1 <1>  -0.1500 
  8 C        0.0590     0.4160    -0.2950 C.ar  1 <1>  -0.1500 
  9 N       -4.2490     0.5650    -0.1660 N.am  1 <1>  -0.7300 
 10 C       -5.1760     0.5860    -1.1540 C.2   1 <1>   0.5690 
 11 O       -5.4590     1.6020    -1.7440 O.2   1 <1>  -0.5700 
 12 C       -5.8750    -0.7260    -1.5280 C.3   1 <1>   0.1710 
 13 N       -5.8860    -1.7630    -0.4470 N.3   1 <1>  -0.8100 
 14 C       -6.2060    -3.0940    -1.0230 C.3   1 <1>   0.1100 
 15 C       -6.8080    -1.3680     0.6310 C.3   1 <1>   0.0300 
 16 C       -5.8460    -4.2790    -0.1070 C.3   1 <1>   0.2000 
 17 O       -5.5160    -5.3620    -0.9370 O.3   1 <1>  -0.5600 
 18 C       -6.9990    -4.7050     0.8310 C.3   1 <1>   0.1200 
 19 C       -5.1620    -6.5180    -0.2350 C.3   1 <1>   0.1200 
 20 O       -6.6680    -5.8740     1.5290 O.3   1 <1>  -0.5600 
 21 C       -6.3120    -6.9380     0.6960 C.3   1 <1>   0.1200 
 22 H        0.2570     0.9310     3.0380 H     1 <1>   0.1500 
 23 H       -1.6670     0.7860    -1.4990 H     1 <1>   0.1500 
 24 H       -3.4790     2.4990    -0.4240 H     1 <1>   0.0800 
 25 H       -3.9110     2.0930     1.2150 H     1 <1>   0.0800 
 26 H        1.6290     0.1360     1.1310 H     1 <1>   0.1500 
 27 H        0.6500     0.0710    -1.1260 H     1 <1>   0.1500 
 28 H       -4.0940    -0.3330     0.3040 H     1 <1>   0.3700 
 29 H       -5.3520    -1.1120    -2.3850 H     1 <1>   0.0800 
 30 H       -6.8820    -0.5060    -1.8320 H     1 <1>   0.0800 
 31 H       -5.6240    -3.2160    -1.9200 H     1 <1>   0.0800 
 32 H       -7.2450    -3.1400    -1.2980 H     1 <1>   0.0800 
 33 H       -6.6520    -0.3380     0.9030 H     1 <1>   0.0800 
 34 H       -6.6230    -1.9590     1.5090 H     1 <1>   0.0800 
 35 H       -7.8320    -1.4900     0.3220 H     1 <1>   0.0800 
 36 H       -4.9710    -4.0260     0.4660 H     1 <1>   0.0800 
 37 H       -7.8960    -4.8880     0.2660 H     1 <1>   0.0800 
 38 H       -7.2030    -3.9480     1.5630 H     1 <1>   0.0800 
 39 H       -4.2690    -6.3200     0.3320 H     1 <1>   0.0800 
 40 H       -4.9580    -7.2920    -0.9520 H     1 <1>   0.0800 
 41 H       -6.0100    -7.7600     1.3200 H     1 <1>   0.0800 
 42 H       -7.1740    -7.2320     0.1230 H     1 <1>   0.0800 
@<TRIPOS>BOND
  1   1   2  1   
  2   2   3  ar  
  3   2   4  ar  
  4   3   5  ar  
  5   3   6  1   
  6   4   7  ar  
  7   4  22  1   
  8   5   8  ar  
  9   5  23  1   
 10   6   9  1   
 11   6  24  1   
 12   6  25  1   
 13   7   8  ar  
 14   7  26  1   
 15   8  27  1   
 16   9  10  am  
 17   9  28  1   
 18  10  11  2   
 19  10  12  1   
 20  12  13  1   
 21  12  29  1   
 22  12  30  1   
 23  13  14  1   
 24  13  15  1   
 25  14  16  1   
 26  14  31  1   
 27  14  32  1   
 28  15  33  1   
 29  15  34  1   
 30  15  35  1   
 31  16  17  1   
 32  16  18  1   
 33  16  36  1   
 34  17  19  1   
 35  18  20  1   
 36  18  37  1   
 37  18  38  1   
 38  19  21  1   
 39  19  39  1   
 40  19  40  1   
 41  20  21  1   
 42  21  41  1   
 43  21  42  1   
@<TRIPOS>SUBSTRUCTURE
  1 ****  13 GROUP 4 **** **** 0

# MOE 2024.06 (io_trps.svl 2023.06)
