@<TRIPOS>MOLECULE
NONAME
43 44 1 0 0 
SMALL
USER_CHARGES


@<TRIPOS>ATOM
  1 S        0.7220     0.5790    -0.8990 S.3   1 <1>  -0.4600 
  2 C        1.5530     0.7860     0.7210 C.3   1 <1>   0.1310 
  3 C        0.6400    -1.2170    -1.1180 C.3   1 <1>   0.0700 
  4 C        1.4820     2.2250     1.2260 C.2   1 <1>   0.5690 
  5 C       -0.5420    -1.7430    -0.3050 C.3   1 <1>  -0.2400 
  6 O        0.8130     2.4160     2.2160 O.2   1 <1>  -0.5700 
  7 N        2.1750     3.2460     0.6150 N.am  1 <1>  -0.6600 
  8 C        2.0810     4.6470     1.1150 C.3   1 <1>   0.1400 
  9 C        3.0010     3.1000    -0.6180 C.3   1 <1>   0.1400 
 10 C        3.4840     5.1910     1.3950 C.3   1 <1>  -0.1600 
 11 C        4.4130     3.6280    -0.3570 C.3   1 <1>  -0.1600 
 12 C        4.3840     5.0760     0.1540 C.3   1 <1>   0.0630 
 13 C        5.8010     5.5930     0.4340 C.ar  1 <1>  -0.1430 
 14 C        6.3520     6.6570    -0.2860 C.ar  1 <1>   0.0830 
 15 C        6.5630     4.9880     1.4260 C.ar  1 <1>  -0.1500 
 16 O        5.5980     7.2400    -1.2570 O.3   1 <1>  -0.3630 
 17 C        7.6450     7.0900     0.0030 C.ar  1 <1>  -0.1500 
 18 C        7.8460     5.4240     1.7070 C.ar  1 <1>  -0.1500 
 19 C        6.0730     8.3230    -2.0260 C.3   1 <1>   0.0400 
 20 C        8.3870     6.4760     0.9950 C.ar  1 <1>  -0.1500 
 21 H        2.5730     0.4740     0.6070 H     1 <1>   0.0800 
 22 H        1.0540     0.1380     1.4160 H     1 <1>   0.0800 
 23 H        1.5760    -1.6360    -0.7920 H     1 <1>   0.0800 
 24 H        0.5000    -1.3990    -2.1690 H     1 <1>   0.0800 
 25 H       -0.4000    -1.5540     0.7430 H     1 <1>   0.0800 
 26 H       -0.6420    -2.8030    -0.4510 H     1 <1>   0.0800 
 27 H       -1.4510    -1.2650    -0.6270 H     1 <1>   0.0800 
 28 H        1.4930     4.6940     2.0160 H     1 <1>   0.0800 
 29 H        1.5930     5.2520     0.3700 H     1 <1>   0.0800 
 30 H        2.5400     3.6620    -1.4130 H     1 <1>   0.0800 
 31 H        3.0610     2.0740    -0.9320 H     1 <1>   0.0800 
 32 H        3.9020     4.6430     2.2190 H     1 <1>   0.0800 
 33 H        3.4130     6.2230     1.6880 H     1 <1>   0.0800 
 34 H        4.9820     3.5870    -1.2690 H     1 <1>   0.0800 
 35 H        4.8950     2.9870     0.3600 H     1 <1>   0.0800 
 36 H        3.9260     5.6710    -0.6170 H     1 <1>   0.0800 
 37 H        6.1630     4.1670     1.9920 H     1 <1>   0.1500 
 38 H        8.0950     7.9040    -0.5310 H     1 <1>   0.1500 
 39 H        8.4200     4.9440     2.4800 H     1 <1>   0.1500 
 40 H        5.2990     8.6060    -2.7170 H     1 <1>   0.0800 
 41 H        6.9490     8.0110    -2.5660 H     1 <1>   0.0800 
 42 H        6.2950     9.1460    -1.3700 H     1 <1>   0.0800 
 43 H        9.3840     6.8160     1.2130 H     1 <1>   0.1500 
@<TRIPOS>BOND
  1   1   2  1   
  2   1   3  1   
  3   2   4  1   
  4   2  21  1   
  5   2  22  1   
  6   3   5  1   
  7   3  23  1   
  8   3  24  1   
  9   4   6  2   
 10   4   7  am  
 11   5  25  1   
 12   5  26  1   
 13   5  27  1   
 14   7   8  1   
 15   7   9  1   
 16   8  10  1   
 17   8  28  1   
 18   8  29  1   
 19   9  11  1   
 20   9  30  1   
 21   9  31  1   
 22  10  12  1   
 23  10  32  1   
 24  10  33  1   
 25  11  12  1   
 26  11  34  1   
 27  11  35  1   
 28  12  13  1   
 29  12  36  1   
 30  13  14  ar  
 31  13  15  ar  
 32  14  16  1   
 33  14  17  ar  
 34  15  18  ar  
 35  15  37  1   
 36  16  19  1   
 37  17  20  ar  
 38  17  38  1   
 39  18  20  ar  
 40  18  39  1   
 41  19  40  1   
 42  19  41  1   
 43  19  42  1   
 44  20  43  1   
@<TRIPOS>SUBSTRUCTURE
  1 ****  11 GROUP 4 **** **** 0

# MOE 2024.06 (io_trps.svl 2023.06)
