@<TRIPOS>MOLECULE
NONAME
54 57 1 0 0 
SMALL
USER_CHARGES


@<TRIPOS>ATOM
  1 O       -0.9950     0.9290    -2.1420 O.2   1 <1>  -0.5700 
  2 C       -1.2130     1.5450    -1.1130 C.2   1 <1>   0.5440 
  3 N       -2.1680     1.0520    -0.2440 N.am  1 <1>  -0.6600 
  4 C       -0.4930     2.7800    -0.8770 C.ar  1 <1>   0.0860 
  5 C       -2.7370    -0.3110    -0.4530 C.3   1 <1>   0.1400 
  6 C       -2.6900     1.8350     0.9140 C.3   1 <1>   0.1400 
  7 C        0.3110     2.9830     0.2510 C.ar  1 <1>   0.0830 
  8 C       -0.5710     3.8180    -1.8060 C.ar  1 <1>  -0.1500 
  9 C       -3.9490    -0.2530    -1.3910 C.3   1 <1>   0.1400 
 10 C       -4.2200     1.7990     1.0500 C.3   1 <1>  -0.1600 
 11 O        0.4360     2.0130     1.1800 O.3   1 <1>  -0.3620 
 12 C        0.9780     4.1840     0.4480 C.ar  1 <1>  -0.1500 
 13 C        0.0990     5.0120    -1.6160 C.ar  1 <1>  -0.1500 
 14 N       -5.1450     0.3420    -0.7150 N.am  1 <1>  -0.6600 
 15 C       -4.9840     1.7570    -0.2780 C.3   1 <1>   0.1400 
 16 C        1.6640     1.3210     1.2620 C.3   1 <1>   0.1200 
 17 C        0.8740     5.1990    -0.4840 C.ar  1 <1>  -0.1500 
 18 C       -6.3080    -0.3410    -0.4520 C.2   1 <1>   0.6300 
 19 C        1.7030     0.2290     0.1880 C.3   1 <1>  -0.1600 
 20 O       -7.2600     0.1970     0.0640 O.2   1 <1>  -0.5700 
 21 C       -6.4320    -1.8180    -0.8090 C.3   1 <1>  -0.1000 
 22 C        2.9690    -0.6260     0.3090 C.3   1 <1>  -0.2400 
 23 C       -7.1440    -2.7690     0.1320 C.3   1 <1>   0.0000 
 24 C       -5.6590    -2.8550    -0.1120 C.3   1 <1>  -0.2000 
 25 C       -8.6390    -2.7320     0.3480 C.3   1 <1>  -0.2000 
 26 C       -7.8380    -3.6920     1.1060 C.3   1 <1>  -0.2000 
 27 H       -3.0140    -0.7520     0.4890 H     1 <1>   0.0800 
 28 H       -1.9840    -0.9390    -0.8980 H     1 <1>   0.0800 
 29 H       -2.3960     2.8640     0.8060 H     1 <1>   0.0800 
 30 H       -2.2380     1.4650     1.8180 H     1 <1>   0.0800 
 31 H       -1.1660     3.6730    -2.6910 H     1 <1>   0.1500 
 32 H       -4.1640    -1.2470    -1.7340 H     1 <1>   0.0800 
 33 H       -3.6970     0.3320    -2.2580 H     1 <1>   0.0800 
 34 H       -4.5150     2.6850     1.5820 H     1 <1>   0.0800 
 35 H       -4.5150     0.9650     1.6620 H     1 <1>   0.0800 
 36 H        1.5740     4.3220     1.3320 H     1 <1>   0.1500 
 37 H        0.0210     5.7980    -2.3490 H     1 <1>   0.1500 
 38 H       -4.4700     2.3240    -1.0350 H     1 <1>   0.0800 
 39 H       -5.9550     2.2030    -0.1410 H     1 <1>   0.0800 
 40 H        1.7200     0.8830     2.2430 H     1 <1>   0.0800 
 41 H        2.4740     2.0190     1.1400 H     1 <1>   0.0800 
 42 H        1.3930     6.1300    -0.3330 H     1 <1>   0.1500 
 43 H        1.6800     0.6810    -0.7880 H     1 <1>   0.0800 
 44 H        0.8380    -0.4020     0.2920 H     1 <1>   0.0800 
 45 H       -6.6720    -1.9410    -1.8480 H     1 <1>   0.1000 
 46 H        3.8480    -0.0170     0.1910 H     1 <1>   0.0800 
 47 H        2.9720    -1.3820    -0.4570 H     1 <1>   0.0800 
 48 H        3.0070    -1.1120     1.2680 H     1 <1>   0.0800 
 49 H       -5.0210    -2.5930     0.7130 H     1 <1>   0.1000 
 50 H       -5.3030    -3.7220    -0.6390 H     1 <1>   0.1000 
 51 H       -9.2570    -3.0520    -0.4710 H     1 <1>   0.1000 
 52 H       -9.0340    -1.8530     0.8280 H     1 <1>   0.1000 
 53 H       -7.6430    -3.5340     2.1520 H     1 <1>   0.1000 
 54 H       -7.8730    -4.7370     0.8560 H     1 <1>   0.1000 
@<TRIPOS>BOND
  1   1   2  2   
  2   2   3  am  
  3   2   4  1   
  4   3   5  1   
  5   3   6  1   
  6   4   7  ar  
  7   4   8  ar  
  8   5   9  1   
  9   5  27  1   
 10   5  28  1   
 11   6  10  1   
 12   6  29  1   
 13   6  30  1   
 14   7  11  1   
 15   7  12  ar  
 16   8  13  ar  
 17   8  31  1   
 18   9  14  1   
 19   9  32  1   
 20   9  33  1   
 21  10  15  1   
 22  10  34  1   
 23  10  35  1   
 24  11  16  1   
 25  12  17  ar  
 26  12  36  1   
 27  13  17  ar  
 28  13  37  1   
 29  14  15  1   
 30  14  18  am  
 31  15  38  1   
 32  15  39  1   
 33  16  19  1   
 34  16  40  1   
 35  16  41  1   
 36  17  42  1   
 37  18  20  2   
 38  18  21  1   
 39  19  22  1   
 40  19  43  1   
 41  19  44  1   
 42  21  23  1   
 43  21  24  1   
 44  21  45  1   
 45  22  46  1   
 46  22  47  1   
 47  22  48  1   
 48  23  24  1   
 49  23  25  1   
 50  23  26  1   
 51  24  49  1   
 52  24  50  1   
 53  25  26  1   
 54  25  51  1   
 55  25  52  1   
 56  26  53  1   
 57  26  54  1   
@<TRIPOS>SUBSTRUCTURE
  1 ****   3 GROUP 4 **** **** 0

# MOE 2024.06 (io_trps.svl 2023.06)
