@<TRIPOS>MOLECULE
NONAME
23 23 1 0 0 
SMALL
USER_CHARGES


@<TRIPOS>ATOM
  1 BR      -0.1620     0.3620    -2.9030 Br    1 <1>  -0.1110 
  2 C       -0.1360     2.0520    -1.9820 C.ar  1 <1>   0.1110 
  3 C       -1.2260     2.8830    -2.0200 C.ar  1 <1>   0.1600 
  4 C        0.9730     2.4450    -1.2790 C.ar  1 <1>   0.1600 
  5 N       -1.2170     4.0420    -1.3930 N.ar  1 <1>  -0.6200 
  6 N        0.9980     3.6000    -0.6450 N.ar  1 <1>  -0.6200 
  7 C       -0.1010     4.3520    -0.7240 C.ar  1 <1>   0.4770 
  8 C       -0.0960     5.7200     0.0190 C.3   1 <1>   0.1440 
  9 C       -0.1980     6.8640    -1.0210 C.3   1 <1>   0.1200 
 10 C       -1.2640     5.7940     1.0300 C.3   1 <1>  -0.2400 
 11 C        1.2030     5.9570     0.8280 C.3   1 <1>  -0.2400 
 12 O       -1.4220     6.8640    -1.6770 O.3   1 <1>  -0.6800 
 13 H       -2.1070     2.5940    -2.5670 H     1 <1>   0.1500 
 14 H        1.8410     1.8100    -1.2350 H     1 <1>   0.1500 
 15 H        0.5730     6.7550    -1.7640 H     1 <1>   0.0800 
 16 H       -0.0890     7.8230    -0.5460 H     1 <1>   0.0800 
 17 H       -2.2100     5.6660     0.5360 H     1 <1>   0.0800 
 18 H       -1.2740     6.7460     1.5290 H     1 <1>   0.0800 
 19 H       -1.1650     5.0170     1.7670 H     1 <1>   0.0800 
 20 H        2.0600     5.9480     0.1770 H     1 <1>   0.0800 
 21 H        1.3310     5.1850     1.5650 H     1 <1>   0.0800 
 22 H        1.1710     6.9060     1.3330 H     1 <1>   0.0800 
 23 H       -1.6740     5.9290    -1.8700 H     1 <1>   0.4000 
@<TRIPOS>BOND
  1   1   2  1   
  2   2   3  ar  
  3   2   4  ar  
  4   3   5  ar  
  5   3  13  1   
  6   4   6  ar  
  7   4  14  1   
  8   5   7  ar  
  9   6   7  ar  
 10   7   8  1   
 11   8   9  1   
 12   8  10  1   
 13   8  11  1   
 14   9  12  1   
 15   9  15  1   
 16   9  16  1   
 17  10  17  1   
 18  10  18  1   
 19  10  19  1   
 20  11  20  1   
 21  11  21  1   
 22  11  22  1   
 23  12  23  1   
@<TRIPOS>SUBSTRUCTURE
  1 ****   7 GROUP 4 **** **** 0

# MOE 2024.06 (io_trps.svl 2023.06)
