@<TRIPOS>MOLECULE
NONAME
35 37 1 0 0 
SMALL
USER_CHARGES


@<TRIPOS>ATOM
  1 F        1.8640    -2.5080    -0.5870 F     1 <1>  -0.3400 
  2 C        1.1650    -1.4550    -0.9900 C.3   1 <1>   1.3000 
  3 F        1.7830    -0.9390    -2.0430 F     1 <1>  -0.3400 
  4 F        1.1890    -0.5430    -0.0240 F     1 <1>  -0.3400 
  5 O       -0.1590    -1.8080    -1.3330 O.3   1 <1>  -0.3630 
  6 C       -0.9270    -2.3590    -0.3700 C.ar  1 <1>   0.0830 
  7 C       -0.9720    -3.7350    -0.2270 C.ar  1 <1>  -0.1500 
  8 C       -1.6830    -1.5440     0.4570 C.ar  1 <1>  -0.1500 
  9 C       -1.7570    -4.3320     0.7570 C.ar  1 <1>   0.0860 
 10 C       -2.4670    -2.1150     1.4440 C.ar  1 <1>  -0.1500 
 11 C       -1.7680    -5.7760     0.9050 C.2   1 <1>   0.5440 
 12 C       -2.4960    -3.4910     1.5920 C.ar  1 <1>  -0.1500 
 13 O       -0.7030    -6.3550     1.0190 O.2   1 <1>  -0.5700 
 14 N       -2.9340    -6.5000     0.9430 N.am  1 <1>  -0.6600 
 15 C       -4.2980    -6.0030     0.7760 C.3   1 <1>   0.2350 
 16 C       -3.0100    -7.9610     0.9550 C.3   1 <1>   0.2350 
 17 C       -5.0670    -7.0220    -0.0600 C.3   1 <1>  -0.2420 
 18 C       -4.1850    -8.3690     0.0610 C.3   1 <1>  -0.2420 
 19 C       -6.2140    -6.1230    -0.5230 C.2   1 <1>   0.9470 
 20 C       -5.4650    -8.3000    -0.6490 C.3   1 <1>  -0.2000 
 21 C       -3.8030    -9.8300    -0.1970 C.2   1 <1>   0.9470 
 22 O       -6.1000    -5.4710    -1.5680 O.co2 1 <1>  -0.9000 
 23 O       -7.1910    -5.9770     0.2250 O.co2 1 <1>  -0.9000 
 24 O       -3.2810   -10.1620    -1.2690 O.co2 1 <1>  -0.9000 
 25 O       -3.9750   -10.6500     0.7160 O.co2 1 <1>  -0.9000 
 26 H       -0.3950    -4.3670    -0.8790 H     1 <1>   0.1500 
 27 H       -1.6620    -0.4760     0.3320 H     1 <1>   0.1500 
 28 H       -3.0560    -1.4910     2.0930 H     1 <1>   0.1500 
 29 H       -3.1010    -3.9320     2.3650 H     1 <1>   0.1500 
 30 H       -4.7570    -5.9460     1.7480 H     1 <1>   0.0800 
 31 H       -4.3110    -5.0260     0.3220 H     1 <1>   0.0800 
 32 H       -2.0820    -8.4070     0.6340 H     1 <1>   0.0800 
 33 H       -3.2160    -8.2800     1.9620 H     1 <1>   0.0800 
 34 H       -5.4560    -8.3910    -1.7220 H     1 <1>   0.1000 
 35 H       -6.3090    -8.8120    -0.2200 H     1 <1>   0.1000 
@<TRIPOS>BOND
  1   1   2  1   
  2   2   3  1   
  3   2   4  1   
  4   2   5  1   
  5   5   6  1   
  6   6   7  ar  
  7   6   8  ar  
  8   7   9  ar  
  9   7  26  1   
 10   8  10  ar  
 11   8  27  1   
 12   9  11  1   
 13   9  12  ar  
 14  10  12  ar  
 15  10  28  1   
 16  11  13  2   
 17  11  14  am  
 18  12  29  1   
 19  14  15  1   
 20  14  16  1   
 21  15  17  1   
 22  15  30  1   
 23  15  31  1   
 24  16  18  1   
 25  16  32  1   
 26  16  33  1   
 27  17  18  1   
 28  17  19  1   
 29  17  20  1   
 30  18  20  1   
 31  18  21  1   
 32  19  22  ar  
 33  19  23  ar  
 34  20  34  1   
 35  20  35  1   
 36  21  24  ar  
 37  21  25  ar  
@<TRIPOS>SUBSTRUCTURE
  1 ****  11 GROUP 4 **** **** 0

# MOE 2024.06 (io_trps.svl 2023.06)
