@<TRIPOS>MOLECULE
NONAME
51 53 1 0 0 
SMALL
USER_CHARGES


@<TRIPOS>ATOM
  1 F       -0.3950     0.4890     0.5080 F     1 <1>  -0.1900 
  2 C       -1.6720     0.7570     0.4070 C.ar  1 <1>   0.1900 
  3 C       -2.1880     1.5250    -0.6430 C.ar  1 <1>   0.0830 
  4 C       -2.4870     0.2430     1.3970 C.ar  1 <1>  -0.1500 
  5 O       -1.4900     2.0850    -1.6720 O.3   1 <1>  -0.3630 
  6 C       -3.5540     1.7540    -0.6580 C.ar  1 <1>  -0.1500 
  7 C       -3.8460     0.4920     1.3510 C.ar  1 <1>  -0.1500 
  8 C       -0.1000     1.9160    -1.8400 C.3   1 <1>   0.0400 
  9 C       -4.4100     1.2480     0.3220 C.ar  1 <1>   0.0530 
 10 C       -5.8240     1.5230     0.2670 C.2   1 <1>   0.0870 
 11 O       -6.2250     2.7300    -0.0450 O.3   1 <1>  -0.0190 
 12 C       -6.9440     0.7760     0.4820 C.2   1 <1>  -0.0860 
 13 N       -7.5230     2.8560    -0.0440 N.2   1 <1>  -0.4100 
 14 C       -7.9810     1.6960     0.2710 C.2   1 <1>   0.3720 
 15 C       -7.0970    -0.6100     0.8140 C.2   1 <1>   0.7160 
 16 N       -9.3570     1.4360     0.3810 N.pl3 1 <1>  -0.8210 
 17 O       -6.1480    -1.3700     0.8410 O.2   1 <1>  -0.5700 
 18 N       -8.3300    -1.1090     1.0970 N.am  1 <1>  -0.7300 
 19 C       -9.9750     2.1250     1.5470 C.3   1 <1>   0.1290 
 20 C      -10.1030     1.7360    -0.8740 C.3   1 <1>   0.1290 
 21 C       -8.6940    -2.5240     1.3240 C.3   1 <1>   0.1400 
 22 C       -9.4150    -3.0910     0.0920 C.3   1 <1>  -0.0800 
 23 C      -10.7060    -2.3210    -0.2440 C.3   1 <1>  -0.1600 
 24 C       -9.7540    -4.5750     0.3060 C.3   1 <1>  -0.1600 
 25 C      -11.4790    -3.0130    -1.3720 C.3   1 <1>   0.1200 
 26 C      -10.5850    -5.1220    -0.8600 C.3   1 <1>   0.1200 
 27 O      -11.7270    -4.3380    -1.0190 O.3   1 <1>  -0.5600 
 28 H       -2.0630    -0.3450     2.1910 H     1 <1>   0.1500 
 29 H       -3.9640     2.3440    -1.4580 H     1 <1>   0.1500 
 30 H       -4.4810     0.0940     2.1230 H     1 <1>   0.1500 
 31 H        0.1940     2.4350    -2.7350 H     1 <1>   0.0800 
 32 H        0.1170     0.8670    -1.9390 H     1 <1>   0.0800 
 33 H        0.4090     2.3380    -0.9920 H     1 <1>   0.0800 
 34 H       -9.1030    -0.4430     0.9540 H     1 <1>   0.3700 
 35 H       -9.4090     1.9140     2.4390 H     1 <1>   0.0800 
 36 H      -10.9850     1.7810     1.6880 H     1 <1>   0.0800 
 37 H       -9.9820     3.1910     1.3880 H     1 <1>   0.0800 
 38 H       -9.6140     1.2670    -1.7100 H     1 <1>   0.0800 
 39 H      -10.1330     2.8000    -1.0440 H     1 <1>   0.0800 
 40 H      -11.1090     1.3600    -0.8050 H     1 <1>   0.0800 
 41 H       -9.3320    -2.5880     2.1890 H     1 <1>   0.0800 
 42 H       -7.8040    -3.0990     1.5190 H     1 <1>   0.0800 
 43 H       -8.7430    -3.0230    -0.7470 H     1 <1>   0.0800 
 44 H      -10.4720    -1.3180    -0.5500 H     1 <1>   0.0800 
 45 H      -11.3410    -2.2650     0.6230 H     1 <1>   0.0800 
 46 H      -10.3190    -4.7010     1.2130 H     1 <1>   0.0800 
 47 H       -8.8490    -5.1490     0.3960 H     1 <1>   0.0800 
 48 H      -10.9220    -3.0010    -2.2940 H     1 <1>   0.0800 
 49 H      -12.4290    -2.5330    -1.5300 H     1 <1>   0.0800 
 50 H      -10.9050    -6.1290    -0.6570 H     1 <1>   0.0800 
 51 H      -10.0270    -5.1090    -1.7810 H     1 <1>   0.0800 
@<TRIPOS>BOND
  1   1   2  1   
  2   2   3  ar  
  3   2   4  ar  
  4   3   5  1   
  5   3   6  ar  
  6   4   7  ar  
  7   4  28  1   
  8   5   8  1   
  9   6   9  ar  
 10   6  29  1   
 11   7   9  ar  
 12   7  30  1   
 13   8  31  1   
 14   8  32  1   
 15   8  33  1   
 16   9  10  1   
 17  10  11  1   
 18  10  12  2   
 19  11  13  1   
 20  12  14  1   
 21  12  15  1   
 22  13  14  2   
 23  14  16  1   
 24  15  17  2   
 25  15  18  am  
 26  16  19  1   
 27  16  20  1   
 28  18  21  1   
 29  18  34  1   
 30  19  35  1   
 31  19  36  1   
 32  19  37  1   
 33  20  38  1   
 34  20  39  1   
 35  20  40  1   
 36  21  22  1   
 37  21  41  1   
 38  21  42  1   
 39  22  23  1   
 40  22  24  1   
 41  22  43  1   
 42  23  25  1   
 43  23  44  1   
 44  23  45  1   
 45  24  26  1   
 46  24  46  1   
 47  24  47  1   
 48  25  27  1   
 49  25  48  1   
 50  25  49  1   
 51  26  27  1   
 52  26  50  1   
 53  26  51  1   
@<TRIPOS>SUBSTRUCTURE
  1 ****  12 GROUP 4 **** **** 0

# MOE 2024.06 (io_trps.svl 2023.06)
