@<TRIPOS>MOLECULE
NONAME
46 47 1 0 0 
SMALL
USER_CHARGES


@<TRIPOS>ATOM
  1 F        0.8470    -0.6050    -1.0730 F     1 <1>  -0.3400 
  2 C        1.9500    -0.6470    -1.8140 C.3   1 <1>   1.1640 
  3 F        1.6080    -1.2290    -2.9600 F     1 <1>  -0.3400 
  4 F        2.2210     0.6190    -2.1230 F     1 <1>  -0.3400 
  5 C        3.1290    -1.3590    -1.0980 C.ar  1 <1>   0.1660 
  6 N        3.0320    -2.6480    -0.8000 N.ar  1 <1>  -0.6200 
  7 C        4.2710    -0.6670    -0.7710 C.ar  1 <1>  -0.1500 
  8 C        4.0700    -3.2110    -0.1900 C.ar  1 <1>   0.7200 
  9 C        5.2960    -1.3360    -0.1350 C.ar  1 <1>   0.4100 
 10 N        5.1970    -2.6090     0.1540 N.ar  1 <1>  -0.6200 
 11 N        3.9560    -4.5540     0.1120 N.pl3 1 <1>  -0.8380 
 12 N        6.4600    -0.6760     0.2150 N.pl3 1 <1>  -0.8380 
 13 C        2.9020    -5.4180    -0.4920 C.3   1 <1>   0.1290 
 14 C        4.8610    -5.2280     1.0850 C.3   1 <1>   0.1290 
 15 C        6.3550     0.5010     1.1400 C.3   1 <1>   0.2090 
 16 C        7.7030    -1.4760     0.4120 C.3   1 <1>   0.2090 
 17 C        7.5720     1.4590     1.0520 C.3   1 <1>   0.0610 
 18 C        8.9350    -0.5760     0.2740 C.3   1 <1>  -0.1600 
 19 C        7.6000     2.1920    -0.3100 C.2   1 <1>   0.5690 
 20 C        8.8720     0.6330     1.2230 C.3   1 <1>  -0.1600 
 21 C        7.5020     2.4740     2.2300 C.3   1 <1>  -0.1600 
 22 O        8.1430     3.2630    -0.4230 O.2   1 <1>  -0.5700 
 23 N        7.0510     1.6270    -1.4010 N.am  1 <1>  -0.8000 
 24 C        6.2490     3.3670     2.2520 C.3   1 <1>  -0.2400 
 25 H        4.3920     0.3740    -0.9990 H     1 <1>   0.1500 
 26 H        2.6360    -5.0590    -1.4720 H     1 <1>   0.0800 
 27 H        2.0270    -5.4080     0.1340 H     1 <1>   0.0800 
 28 H        3.2610    -6.4270    -0.5890 H     1 <1>   0.0800 
 29 H        5.2630    -4.5170     1.7860 H     1 <1>   0.0800 
 30 H        5.6730    -5.6960     0.5560 H     1 <1>   0.0800 
 31 H        4.3190    -5.9750     1.6370 H     1 <1>   0.0800 
 32 H        6.2740     0.1270     2.1460 H     1 <1>   0.0800 
 33 H        5.4550     1.0500     0.9270 H     1 <1>   0.0800 
 34 H        7.7490    -2.2640    -0.3220 H     1 <1>   0.0800 
 35 H        7.6810    -1.9280     1.3890 H     1 <1>   0.0800 
 36 H        9.0170    -0.2470    -0.7460 H     1 <1>   0.0800 
 37 H        9.8140    -1.1560     0.4940 H     1 <1>   0.0800 
 38 H        8.9360     0.2690     2.2330 H     1 <1>   0.0800 
 39 H        9.7260     1.2670     1.0500 H     1 <1>   0.0800 
 40 H        8.3670     3.1140     2.1840 H     1 <1>   0.0800 
 41 H        7.5530     1.9440     3.1650 H     1 <1>   0.0800 
 42 H        7.1500     2.0590    -2.3180 H     1 <1>   0.3700 
 43 H        6.7430     0.6460    -1.3490 H     1 <1>   0.3700 
 44 H        6.1530     3.9160     1.3310 H     1 <1>   0.0800 
 45 H        6.3310     4.0800     3.0540 H     1 <1>   0.0800 
 46 H        5.3560     2.7900     2.4110 H     1 <1>   0.0800 
@<TRIPOS>BOND
  1   1   2  1   
  2   2   3  1   
  3   2   4  1   
  4   2   5  1   
  5   5   6  ar  
  6   5   7  ar  
  7   6   8  ar  
  8   7   9  ar  
  9   7  25  1   
 10   8  10  ar  
 11   8  11  1   
 12   9  10  ar  
 13   9  12  1   
 14  11  13  1   
 15  11  14  1   
 16  12  15  1   
 17  12  16  1   
 18  13  26  1   
 19  13  27  1   
 20  13  28  1   
 21  14  29  1   
 22  14  30  1   
 23  14  31  1   
 24  15  17  1   
 25  15  32  1   
 26  15  33  1   
 27  16  18  1   
 28  16  34  1   
 29  16  35  1   
 30  17  19  1   
 31  17  20  1   
 32  17  21  1   
 33  18  20  1   
 34  18  36  1   
 35  18  37  1   
 36  19  22  2   
 37  19  23  am  
 38  20  38  1   
 39  20  39  1   
 40  21  24  1   
 41  21  40  1   
 42  21  41  1   
 43  23  42  1   
 44  23  43  1   
 45  24  44  1   
 46  24  45  1   
 47  24  46  1   
@<TRIPOS>SUBSTRUCTURE
  1 ****   9 GROUP 4 **** **** 0

# MOE 2024.06 (io_trps.svl 2023.06)
