@<TRIPOS>MOLECULE
NONAME
51 53 1 0 0 
SMALL
USER_CHARGES


@<TRIPOS>ATOM
  1 O        3.6360    -1.6130     2.4440 O.2   1 <1>  -0.5700 
  2 C        3.0860    -1.5200     1.3650 C.2   1 <1>   0.5440 
  3 N        3.3230    -0.3880     0.6170 N.am  1 <1>  -0.6600 
  4 C        2.2990    -2.6120     0.8580 C.ar  1 <1>   0.0860 
  5 C        3.8630     0.8470     1.3060 C.3   1 <1>   0.2200 
  6 C        3.3910    -0.4720    -0.8780 C.3   1 <1>   0.1400 
  7 C        0.9970    -2.5040     0.3870 C.ar  1 <1>   0.1660 
  8 C        2.8520    -3.8750     0.7800 C.ar  1 <1>   0.1600 
  9 C        3.3430     2.1490     0.6770 C.3   1 <1>   0.1200 
 10 C        5.4080     0.8280     1.3780 C.3   1 <1>   0.3430 
 11 C        4.4450     0.4430    -1.5310 C.3   1 <1>  -0.0800 
 12 N        0.3730    -3.5110    -0.1670 N.ar  1 <1>  -0.6200 
 13 C        0.1890    -1.2200     0.4820 C.3   1 <1>  -0.0970 
 14 N        2.2450    -4.8970     0.2360 N.ar  1 <1>  -0.6200 
 15 O        4.1480     2.5580    -0.3860 O.3   1 <1>  -0.5600 
 16 N        6.0050    -0.1590     0.4160 N.4   1 <1>  -0.9590 
 17 C        3.9740     1.9040    -1.5960 C.3   1 <1>   0.1200 
 18 C        5.8910     0.3150    -1.0010 C.3   1 <1>   0.3430 
 19 C        1.0180    -4.6760    -0.2340 C.ar  1 <1>   0.7200 
 20 C        7.4760    -0.3390     0.7610 C.3   1 <1>   0.2370 
 21 N        0.3700    -5.7290    -0.8350 N.pl3 1 <1>  -0.8380 
 22 C        8.3210     0.9260     0.5980 C.2   1 <1>   0.9060 
 23 C        0.8730    -7.1290    -0.7420 C.3   1 <1>   0.1290 
 24 C       -0.9110    -5.5640    -1.5780 C.3   1 <1>   0.1290 
 25 O        8.3840     1.7050     1.5530 O.co2 1 <1>  -0.9000 
 26 O        8.7830     1.1660    -0.5210 O.co2 1 <1>  -0.9000 
 27 H        3.4980     0.8460     2.3190 H     1 <1>   0.0800 
 28 H        3.6100    -1.4880    -1.1620 H     1 <1>   0.0800 
 29 H        2.4210    -0.2340    -1.2810 H     1 <1>   0.0800 
 30 H        3.8400    -4.0350     1.1760 H     1 <1>   0.1500 
 31 H        3.3960     2.9340     1.4110 H     1 <1>   0.0800 
 32 H        2.3210     2.0580     0.3530 H     1 <1>   0.0800 
 33 H        5.6930     0.5560     2.3800 H     1 <1>   0.0800 
 34 H        5.8040     1.8150     1.1930 H     1 <1>   0.0800 
 35 H        4.4910     0.1380    -2.5610 H     1 <1>   0.0800 
 36 H        0.6020    -0.5380     1.2010 H     1 <1>   0.0800 
 37 H       -0.8160    -1.4530     0.7850 H     1 <1>   0.0800 
 38 H        0.1490    -0.7440    -0.4800 H     1 <1>   0.0800 
 39 H        5.4820    -1.0310     0.5490 H     1 <1>   0.4500 
 40 H        2.9410     1.9810    -1.8880 H     1 <1>   0.0800 
 41 H        4.5660     2.4410    -2.3190 H     1 <1>   0.0800 
 42 H        6.3870     1.2690    -1.0990 H     1 <1>   0.0800 
 43 H        6.4240    -0.3770    -1.6310 H     1 <1>   0.0800 
 44 H        7.5740    -0.6570     1.7830 H     1 <1>   0.0800 
 45 H        7.9100    -1.0910     0.1280 H     1 <1>   0.0800 
 46 H        0.0480    -7.8200    -0.7440 H     1 <1>   0.0800 
 47 H        1.4290    -7.2730     0.1680 H     1 <1>   0.0800 
 48 H        1.5140    -7.3370    -1.5800 H     1 <1>   0.0800 
 49 H       -0.9560    -6.2610    -2.3950 H     1 <1>   0.0800 
 50 H       -0.9940    -4.5690    -1.9800 H     1 <1>   0.0800 
 51 H       -1.7380    -5.7410    -0.9130 H     1 <1>   0.0800 
@<TRIPOS>BOND
  1   1   2  2   
  2   2   3  am  
  3   2   4  1   
  4   3   5  1   
  5   3   6  1   
  6   4   7  ar  
  7   4   8  ar  
  8   5   9  1   
  9   5  10  1   
 10   5  27  1   
 11   6  11  1   
 12   6  28  1   
 13   6  29  1   
 14   7  12  ar  
 15   7  13  1   
 16   8  14  ar  
 17   8  30  1   
 18   9  15  1   
 19   9  31  1   
 20   9  32  1   
 21  10  16  1   
 22  10  33  1   
 23  10  34  1   
 24  11  17  1   
 25  11  18  1   
 26  11  35  1   
 27  12  19  ar  
 28  13  36  1   
 29  13  37  1   
 30  13  38  1   
 31  14  19  ar  
 32  15  17  1   
 33  16  18  1   
 34  16  20  1   
 35  16  39  1   
 36  17  40  1   
 37  17  41  1   
 38  18  42  1   
 39  18  43  1   
 40  19  21  1   
 41  20  22  1   
 42  20  44  1   
 43  20  45  1   
 44  21  23  1   
 45  21  24  1   
 46  22  25  ar  
 47  22  26  ar  
 48  23  46  1   
 49  23  47  1   
 50  23  48  1   
 51  24  49  1   
 52  24  50  1   
 53  24  51  1   
@<TRIPOS>SUBSTRUCTURE
  1 ****   3 GROUP 4 **** **** 0

# MOE 2024.06 (io_trps.svl 2023.06)
