@<TRIPOS>MOLECULE
NONAME
56 56 1 0 0 
SMALL
USER_CHARGES


@<TRIPOS>ATOM
  1 SI      -0.1950     0.8560    -0.3240 Si    1 <1>   0.5390 
  2 O        0.4750     2.3130    -0.6820 O.3   1 <1>  -0.5770 
  3 C        1.0280    -0.2870     0.4490 C.3   1 <1>  -0.0810 
  4 C       -1.5550     1.1980     0.8120 C.3   1 <1>  -0.3200 
  5 C       -0.8860     0.1660    -1.8420 C.3   1 <1>  -0.3200 
  6 C        1.4100     2.5520    -1.6860 C.3   1 <1>   0.2610 
  7 C        1.7770     0.3820     1.6160 C.3   1 <1>  -0.2400 
  8 C        0.3550    -1.5490     1.0230 C.3   1 <1>  -0.2400 
  9 C        2.0990    -0.7880    -0.5390 C.3   1 <1>  -0.2400 
 10 C        2.7020     3.1230    -1.1140 C.2   1 <1>   0.5690 
 11 C        0.8730     3.7310    -2.4900 C.3   1 <1>  -0.1600 
 12 O        3.6420     2.4330    -0.8030 O.2   1 <1>  -0.5700 
 13 N        2.6630     4.4860    -1.1260 N.am  1 <1>  -0.4200 
 14 C        1.3890     4.9610    -1.7230 C.3   1 <1>   0.2810 
 15 C        3.5600     5.3890    -0.6220 C.2   1 <1>   0.7800 
 16 C        0.3890     5.4600    -0.6650 C.2   1 <1>   0.6590 
 17 O        3.4830     6.5640    -0.9160 O.2   1 <1>  -0.5700 
 18 O        4.5080     4.9380     0.1960 O.3   1 <1>  -0.4300 
 19 O        0.6220     5.4670     0.5180 O.2   1 <1>  -0.5700 
 20 O       -0.7730     5.8980    -1.1440 O.3   1 <1>  -0.4300 
 21 C        5.5000     5.6810     0.8660 C.3   1 <1>   0.2800 
 22 C       -1.7930     6.3710    -0.2870 C.3   1 <1>   0.0400 
 23 C        6.2850     4.6520     1.6780 C.3   1 <1>  -0.2400 
 24 C        4.8480     6.6910     1.8170 C.3   1 <1>  -0.2400 
 25 C        6.4340     6.3490    -0.1490 C.3   1 <1>  -0.2400 
 26 H       -2.1050     0.3140     1.0740 H     1 <1>   0.0800 
 27 H       -2.2600     1.8900     0.3910 H     1 <1>   0.0800 
 28 H       -1.2060     1.6360     1.7290 H     1 <1>   0.0800 
 29 H       -1.4000    -0.7600    -1.6640 H     1 <1>   0.0800 
 30 H       -0.1360    -0.0370    -2.5830 H     1 <1>   0.0800 
 31 H       -1.5980     0.8300    -2.2960 H     1 <1>   0.0800 
 32 H        1.5710     1.6710    -2.2810 H     1 <1>   0.0800 
 33 H        2.4870    -0.2920     2.0610 H     1 <1>   0.0800 
 34 H        1.0890     0.6990     2.3790 H     1 <1>   0.0800 
 35 H        2.3130     1.2500     1.2720 H     1 <1>   0.0800 
 36 H        1.0830    -2.2090     1.4610 H     1 <1>   0.0800 
 37 H       -0.1650    -2.0880     0.2510 H     1 <1>   0.0800 
 38 H       -0.3540    -1.2880     1.7890 H     1 <1>   0.0800 
 39 H        2.7860    -1.4570    -0.0530 H     1 <1>   0.0800 
 40 H        2.6710     0.0320    -0.9330 H     1 <1>   0.0800 
 41 H        1.6470    -1.3130    -1.3610 H     1 <1>   0.0800 
 42 H        1.3150     3.7240    -3.4700 H     1 <1>   0.0800 
 43 H       -0.1980     3.7090    -2.5930 H     1 <1>   0.0800 
 44 H        1.5830     5.7670    -2.4080 H     1 <1>   0.0800 
 45 H       -2.6360     6.6640    -0.8870 H     1 <1>   0.0800 
 46 H       -1.4180     7.2160     0.2660 H     1 <1>   0.0800 
 47 H       -2.0730     5.5810     0.3890 H     1 <1>   0.0800 
 48 H        7.0760     5.1290     2.2280 H     1 <1>   0.0800 
 49 H        6.7180     3.9160     1.0250 H     1 <1>   0.0800 
 50 H        5.6350     4.1560     2.3770 H     1 <1>   0.0800 
 51 H        5.5990     7.1560     2.4300 H     1 <1>   0.0800 
 52 H        4.1420     6.1950     2.4590 H     1 <1>   0.0800 
 53 H        4.3440     7.4680     1.2740 H     1 <1>   0.0800 
 54 H        7.2650     6.8000     0.3620 H     1 <1>   0.0800 
 55 H        5.9270     7.1250    -0.6920 H     1 <1>   0.0800 
 56 H        6.8150     5.6200    -0.8410 H     1 <1>   0.0800 
@<TRIPOS>BOND
  1   1   2  1   
  2   1   3  1   
  3   1   4  1   
  4   1   5  1   
  5   2   6  1   
  6   3   7  1   
  7   3   8  1   
  8   3   9  1   
  9   4  26  1   
 10   4  27  1   
 11   4  28  1   
 12   5  29  1   
 13   5  30  1   
 14   5  31  1   
 15   6  10  1   
 16   6  11  1   
 17   6  32  1   
 18   7  33  1   
 19   7  34  1   
 20   7  35  1   
 21   8  36  1   
 22   8  37  1   
 23   8  38  1   
 24   9  39  1   
 25   9  40  1   
 26   9  41  1   
 27  10  12  2   
 28  10  13  am  
 29  11  14  1   
 30  11  42  1   
 31  11  43  1   
 32  13  14  1   
 33  13  15  am  
 34  14  16  1   
 35  14  44  1   
 36  15  17  2   
 37  15  18  1   
 38  16  19  2   
 39  16  20  1   
 40  18  21  1   
 41  20  22  1   
 42  21  23  1   
 43  21  24  1   
 44  21  25  1   
 45  22  45  1   
 46  22  46  1   
 47  22  47  1   
 48  23  48  1   
 49  23  49  1   
 50  23  50  1   
 51  24  51  1   
 52  24  52  1   
 53  24  53  1   
 54  25  54  1   
 55  25  55  1   
 56  25  56  1   
@<TRIPOS>SUBSTRUCTURE
  1 ****  10 GROUP 4 **** **** 0

# MOE 2024.06 (io_trps.svl 2023.06)
