@<TRIPOS>MOLECULE
NONAME
47 50 1 0 0 
SMALL
USER_CHARGES


@<TRIPOS>ATOM
  1 F        0.1010     0.3600     0.4990 F     1 <1>  -0.3400 
  2 C        1.3170    -0.1200     0.2460 C.3   1 <1>   1.1640 
  3 F        2.1020     0.3880     1.1940 F     1 <1>  -0.3400 
  4 F        1.7000     0.4580    -0.8900 F     1 <1>  -0.3400 
  5 C        1.3900    -1.6730     0.1720 C.ar  1 <1>   0.1660 
  6 N        0.2530    -2.3530     0.2010 N.ar  1 <1>  -0.6200 
  7 C        2.6070    -2.3450     0.0770 C.ar  1 <1>  -0.1440 
  8 C        0.3250    -3.6740     0.1480 C.ar  1 <1>   0.7200 
  9 C        2.5600    -3.7280     0.0340 C.ar  1 <1>   0.1660 
 10 C        3.9560    -1.6130     0.0370 C.3   1 <1>  -0.0170 
 11 N        1.4340    -4.3890     0.0670 N.ar  1 <1>  -0.6200 
 12 N       -0.8620    -4.3600     0.1850 N.pl3 1 <1>  -0.8380 
 13 C        3.8090    -4.5930    -0.0680 C.3   1 <1>  -0.0170 
 14 C        5.1080    -2.4880    -0.4670 C.3   1 <1>  -0.1600 
 15 C       -2.1850    -3.7110     0.0120 C.3   1 <1>   0.2090 
 16 C       -0.9570    -5.8210    -0.0370 C.3   1 <1>   0.2090 
 17 C        5.1030    -3.8380     0.2500 C.3   1 <1>  -0.1600 
 18 C       -3.1420    -4.8520    -0.3460 C.3   1 <1>   0.2000 
 19 C       -2.4460    -6.1370     0.0990 C.3   1 <1>  -0.0800 
 20 O       -4.3630    -4.7320     0.3040 O.3   1 <1>  -0.6800 
 21 C       -2.9070    -7.3670    -0.7020 C.3   1 <1>  -0.0170 
 22 C       -2.2380    -8.6420    -0.2150 C.ar  1 <1>   0.1670 
 23 N       -1.0260    -8.8910    -0.6820 N.ar  1 <1>  -0.6200 
 24 C       -2.9040    -9.4790     0.6810 C.ar  1 <1>   0.1600 
 25 C       -0.5270   -10.0160    -0.1990 C.ar  1 <1>   0.1600 
 26 N       -2.4070   -10.6060     1.1650 N.ar  1 <1>  -0.6200 
 27 C       -1.1950   -10.8460     0.6940 C.ar  1 <1>   0.1600 
 28 H        3.9050    -0.7470    -0.5980 H     1 <1>   0.0800 
 29 H        4.1920    -1.2790     1.0340 H     1 <1>   0.0800 
 30 H        3.7150    -5.4310     0.6000 H     1 <1>   0.0800 
 31 H        3.8580    -4.9810    -1.0700 H     1 <1>   0.0800 
 32 H        5.0050    -2.6440    -1.5280 H     1 <1>   0.0800 
 33 H        6.0450    -1.9860    -0.2950 H     1 <1>   0.0800 
 34 H       -2.4670    -3.2360     0.9360 H     1 <1>   0.0800 
 35 H       -2.1470    -2.9840    -0.7800 H     1 <1>   0.0800 
 36 H       -0.5990    -6.0530    -1.0270 H     1 <1>   0.0800 
 37 H       -0.3700    -6.3600     0.6880 H     1 <1>   0.0800 
 38 H        5.1740    -3.6820     1.3130 H     1 <1>   0.0800 
 39 H        5.9490    -4.4270    -0.0600 H     1 <1>   0.0800 
 40 H       -3.3200    -4.8510    -1.4080 H     1 <1>   0.0800 
 41 H       -2.6350    -6.3000     1.1460 H     1 <1>   0.0800 
 42 H       -4.2220    -4.6650     1.2680 H     1 <1>   0.4000 
 43 H       -2.6830    -7.2310    -1.7450 H     1 <1>   0.0800 
 44 H       -3.9740    -7.4650    -0.6120 H     1 <1>   0.0800 
 45 H       -3.8890    -9.2030     1.0130 H     1 <1>   0.1500 
 46 H        0.4580   -10.2970    -0.5260 H     1 <1>   0.1500 
 47 H       -0.7070   -11.7430     1.0300 H     1 <1>   0.1500 
@<TRIPOS>BOND
  1   1   2  1   
  2   2   3  1   
  3   2   4  1   
  4   2   5  1   
  5   5   6  ar  
  6   5   7  ar  
  7   6   8  ar  
  8   7   9  ar  
  9   7  10  1   
 10   8  11  ar  
 11   8  12  1   
 12   9  11  ar  
 13   9  13  1   
 14  10  14  1   
 15  10  28  1   
 16  10  29  1   
 17  12  15  1   
 18  12  16  1   
 19  13  17  1   
 20  13  30  1   
 21  13  31  1   
 22  14  17  1   
 23  14  32  1   
 24  14  33  1   
 25  15  18  1   
 26  15  34  1   
 27  15  35  1   
 28  16  19  1   
 29  16  36  1   
 30  16  37  1   
 31  17  38  1   
 32  17  39  1   
 33  18  19  1   
 34  18  20  1   
 35  18  40  1   
 36  19  21  1   
 37  19  41  1   
 38  20  42  1   
 39  21  22  1   
 40  21  43  1   
 41  21  44  1   
 42  22  23  ar  
 43  22  24  ar  
 44  23  25  ar  
 45  24  26  ar  
 46  24  45  1   
 47  25  27  ar  
 48  25  46  1   
 49  26  27  ar  
 50  27  47  1   
@<TRIPOS>SUBSTRUCTURE
  1 ****   8 GROUP 4 **** **** 0

# MOE 2024.06 (io_trps.svl 2023.06)
