@<TRIPOS>MOLECULE
NONAME
47 50 1 0 0 
SMALL
USER_CHARGES


@<TRIPOS>ATOM
  1 O       -3.3810    -0.1670    -2.9120 O.2   1 <1>  -0.5700 
  2 C       -3.1740    -0.6010    -1.8120 C.2   1 <1>   0.5690 
  3 N       -2.8370     0.2270    -0.8090 N.am  1 <1>  -0.7300 
  4 C       -3.3310    -2.0740    -1.5490 C.3   1 <1>  -0.0190 
  5 C       -2.5600    -0.1780     0.5880 C.3   1 <1>   0.2200 
  6 C       -2.0050    -2.7150    -1.0810 C.3   1 <1>   0.1200 
  7 C       -4.5540    -2.2820    -0.6460 C.3   1 <1>   0.3430 
  8 C       -1.3670    -1.1650     0.6360 C.3   1 <1>   0.1200 
  9 C       -3.8500    -0.7240     1.2640 C.3   1 <1>   0.3430 
 10 O       -1.7220    -2.4760     0.2730 O.3   1 <1>  -0.5600 
 11 N       -4.2740    -2.1010     0.8210 N.4   1 <1>  -0.9590 
 12 C       -5.3440    -2.6750     1.6800 C.3   1 <1>   0.4860 
 13 C       -5.4400    -4.1550     1.3950 C.ar  1 <1>  -0.1440 
 14 C       -6.4770    -4.6240     0.5780 C.ar  1 <1>   0.0000 
 15 C       -4.5220    -5.0510     1.9000 C.ar  1 <1>  -0.1500 
 16 C       -6.5550    -5.9780     0.2690 C.ar  1 <1>  -0.1520 
 17 C       -7.5600    -4.0040    -0.0840 C.2   1 <1>  -0.1500 
 18 C       -4.6140    -6.4130     1.5930 C.ar  1 <1>  -0.1500 
 19 N       -7.6400    -6.1780    -0.5530 N.pl3 1 <1>   0.0480 
 20 C       -5.6200    -6.8800     0.7820 C.ar  1 <1>  -0.1500 
 21 C       -8.2350    -4.9650    -0.7550 C.2   1 <1>  -0.3020 
 22 C       -8.1060    -7.4700    -1.1010 C.3   1 <1>   0.0960 
 23 C       -8.9920    -8.1970    -0.0850 C.3   1 <1>  -0.2400 
 24 H       -2.6960     1.2100    -1.0670 H     1 <1>   0.3700 
 25 H       -3.5690    -2.5170    -2.5000 H     1 <1>   0.0800 
 26 H       -2.2650     0.7120     1.1170 H     1 <1>   0.0800 
 27 H       -1.1780    -2.3650    -1.6760 H     1 <1>   0.0800 
 28 H       -2.0680    -3.7840    -1.1990 H     1 <1>   0.0800 
 29 H       -4.8990    -3.2900    -0.8120 H     1 <1>   0.0800 
 30 H       -5.3440    -1.6170    -0.9560 H     1 <1>   0.0800 
 31 H       -0.9930    -1.2180     1.6440 H     1 <1>   0.0800 
 32 H       -0.5610    -0.8300     0.0040 H     1 <1>   0.0800 
 33 H       -4.6510    -0.0240     1.0900 H     1 <1>   0.0800 
 34 H       -3.6700    -0.7520     2.3250 H     1 <1>   0.0800 
 35 H       -3.4320    -2.6940     0.9660 H     1 <1>   0.4500 
 36 H       -5.1020    -2.5330     2.7200 H     1 <1>   0.0800 
 37 H       -6.2880    -2.1960     1.4780 H     1 <1>   0.0800 
 38 H       -3.7150    -4.7310     2.5370 H     1 <1>   0.1500 
 39 H       -7.8020    -2.9570    -0.0480 H     1 <1>   0.1500 
 40 H       -3.8870    -7.0950     2.0010 H     1 <1>   0.1500 
 41 H       -5.6930    -7.9270     0.5440 H     1 <1>   0.1500 
 42 H       -9.1150    -4.8630    -1.3660 H     1 <1>   0.1500 
 43 H       -8.6590    -7.2830    -2.0040 H     1 <1>   0.0800 
 44 H       -7.2500    -8.0720    -1.3460 H     1 <1>   0.0800 
 45 H       -9.8560    -7.6000     0.1500 H     1 <1>   0.0800 
 46 H       -8.4420    -8.3940     0.8180 H     1 <1>   0.0800 
 47 H       -9.3240    -9.1330    -0.4940 H     1 <1>   0.0800 
@<TRIPOS>BOND
  1   1   2  2   
  2   2   3  am  
  3   2   4  1   
  4   3   5  1   
  5   3  24  1   
  6   4   6  1   
  7   4   7  1   
  8   4  25  1   
  9   5   8  1   
 10   5   9  1   
 11   5  26  1   
 12   6  10  1   
 13   6  27  1   
 14   6  28  1   
 15   7  11  1   
 16   7  29  1   
 17   7  30  1   
 18   8  10  1   
 19   8  31  1   
 20   8  32  1   
 21   9  11  1   
 22   9  33  1   
 23   9  34  1   
 24  11  12  1   
 25  11  35  1   
 26  12  13  1   
 27  12  36  1   
 28  12  37  1   
 29  13  14  ar  
 30  13  15  ar  
 31  14  16  ar  
 32  14  17  1   
 33  15  18  ar  
 34  15  38  1   
 35  16  19  1   
 36  16  20  ar  
 37  17  21  2   
 38  17  39  1   
 39  18  20  ar  
 40  18  40  1   
 41  19  21  1   
 42  19  22  1   
 43  20  41  1   
 44  21  42  1   
 45  22  23  1   
 46  22  43  1   
 47  22  44  1   
 48  23  45  1   
 49  23  46  1   
 50  23  47  1   
@<TRIPOS>SUBSTRUCTURE
  1 ****   7 GROUP 4 **** **** 0

# MOE 2024.06 (io_trps.svl 2023.06)
