@<TRIPOS>MOLECULE
NONAME
44 47 1 0 0 
SMALL
USER_CHARGES


@<TRIPOS>ATOM
  1 S       -0.7710     1.2520    -0.5080 S.3   1 <1>  -0.0800 
  2 C        0.0620     2.5830    -1.2900 C.ar  1 <1>   0.2970 
  3 C        0.4880     1.0730     0.7370 C.2   1 <1>  -0.1920 
  4 N       -0.4130     3.1800    -2.3630 N.ar  1 <1>  -0.5670 
  5 C        1.2310     2.8740    -0.6300 C.ar  1 <1>   0.0000 
  6 C        1.4580     2.0050     0.5030 C.2   1 <1>  -0.1810 
  7 C        0.2800     0.0330     1.7300 C.2   1 <1>   1.0320 
  8 C        0.3750     4.1470    -2.7850 C.ar  1 <1>   0.4700 
  9 C        1.9490     3.9400    -1.1930 C.ar  1 <1>   0.4100 
 10 C        2.7180     2.1500     1.3440 C.3   1 <1>  -0.0590 
 11 O        0.9860    -0.0270     2.7540 O.co2 1 <1>  -0.9000 
 12 O       -0.6040    -0.8310     1.5860 O.co2 1 <1>  -0.9000 
 13 N        1.5270     4.5610    -2.2810 N.ar  1 <1>  -0.6200 
 14 N        3.1130     4.4270    -0.6480 N.pl3 1 <1>  -0.8380 
 15 C        3.0540     5.6240     0.2500 C.3   1 <1>   0.4690 
 16 C        4.3410     4.4700    -1.4790 C.3   1 <1>   0.2090 
 17 C        1.6720     6.2740     0.4500 C.2   1 <1>   0.2980 
 18 C        4.1080     6.5690    -0.3310 C.3   1 <1>  -0.1600 
 19 C        5.1530     5.6420    -0.9430 C.3   1 <1>  -0.1600 
 20 O        0.7820     5.5980     1.1350 O.3   1 <1>  -0.0190 
 21 N        1.2850     7.4250     0.0490 N.2   1 <1>  -0.5650 
 22 N       -0.2580     6.3730     1.1590 N.2   1 <1>  -0.4100 
 23 C        0.0430     7.4290     0.5130 C.2   1 <1>   0.3350 
 24 C       -0.8810     8.6220     0.2640 C.3   1 <1>   0.1010 
 25 C       -0.6610     9.7090     1.3250 C.3   1 <1>  -0.2400 
 26 C       -2.3620     8.2140     0.2240 C.3   1 <1>  -0.2400 
 27 H        0.0380     4.6720    -3.6620 H     1 <1>   0.1500 
 28 H        3.5850     2.1520     0.7110 H     1 <1>   0.0800 
 29 H        2.8270     1.3420     2.0400 H     1 <1>   0.0800 
 30 H        2.6780     3.0680     1.8990 H     1 <1>   0.0800 
 31 H        3.3940     5.3070     1.2190 H     1 <1>   0.0800 
 32 H        4.8830     3.5440    -1.3970 H     1 <1>   0.0800 
 33 H        4.0810     4.6390    -2.5110 H     1 <1>   0.0800 
 34 H        3.6620     7.1640    -1.1090 H     1 <1>   0.0800 
 35 H        4.5150     7.2200     0.4200 H     1 <1>   0.0800 
 36 H        5.8250     5.2860    -0.1820 H     1 <1>   0.0800 
 37 H        5.7200     6.1210    -1.7210 H     1 <1>   0.0800 
 38 H       -0.6250     9.0300    -0.6980 H     1 <1>   0.0800 
 39 H       -0.9000     9.3280     2.3020 H     1 <1>   0.0800 
 40 H       -1.2790    10.5650     1.1220 H     1 <1>   0.0800 
 41 H        0.3690    10.0200     1.3220 H     1 <1>   0.0800 
 42 H       -2.6700     7.8210     1.1780 H     1 <1>   0.0800 
 43 H       -2.5110     7.4520    -0.5210 H     1 <1>   0.0800 
 44 H       -2.9800     9.0600    -0.0190 H     1 <1>   0.0800 
@<TRIPOS>BOND
  1   1   2  1   
  2   1   3  1   
  3   2   4  ar  
  4   2   5  ar  
  5   3   6  2   
  6   3   7  1   
  7   4   8  ar  
  8   5   6  1   
  9   5   9  ar  
 10   6  10  1   
 11   7  11  ar  
 12   7  12  ar  
 13   8  13  ar  
 14   8  27  1   
 15   9  13  ar  
 16   9  14  1   
 17  10  28  1   
 18  10  29  1   
 19  10  30  1   
 20  14  15  1   
 21  14  16  1   
 22  15  17  1   
 23  15  18  1   
 24  15  31  1   
 25  16  19  1   
 26  16  32  1   
 27  16  33  1   
 28  17  20  1   
 29  17  21  2   
 30  18  19  1   
 31  18  34  1   
 32  18  35  1   
 33  19  36  1   
 34  19  37  1   
 35  20  22  1   
 36  21  23  1   
 37  22  23  2   
 38  23  24  1   
 39  24  25  1   
 40  24  26  1   
 41  24  38  1   
 42  25  39  1   
 43  25  40  1   
 44  25  41  1   
 45  26  42  1   
 46  26  43  1   
 47  26  44  1   
@<TRIPOS>SUBSTRUCTURE
  1 ****   9 GROUP 4 **** **** 0

# MOE 2024.06 (io_trps.svl 2023.06)
