@<TRIPOS>MOLECULE
NONAME
50 53 1 0 0 
SMALL
USER_CHARGES


@<TRIPOS>ATOM
  1 O       -0.7440     0.8950    -1.2250 O.2   1 <1>  -0.5700 
  2 C       -1.6940     1.2290    -0.5340 C.2   1 <1>   0.5440 
  3 N       -2.7470     0.3320    -0.4260 N.am  1 <1>  -0.6600 
  4 C       -1.6390     2.5250     0.1480 C.ar  1 <1>   0.3960 
  5 C       -2.8090    -0.8680    -1.3160 C.3   1 <1>   0.1400 
  6 C       -3.8240     0.4670     0.6030 C.3   1 <1>   0.1400 
  7 N       -2.7480     3.2540     0.3720 N.ar  1 <1>  -0.6200 
  8 C       -0.3830     2.9940     0.5550 C.ar  1 <1>   0.1600 
  9 C       -4.2580    -1.3040    -1.5490 C.3   1 <1>  -0.1600 
 10 C       -4.3740    -0.9080     0.9750 C.3   1 <1>  -0.1600 
 11 C       -2.5130     4.3970     0.9880 C.ar  1 <1>   0.1600 
 12 N       -0.1450     4.1370     1.1830 N.ar  1 <1>  -0.6200 
 13 C       -5.0280    -1.5850    -0.2400 C.3   1 <1>   0.4240 
 14 C       -1.2530     4.8260     1.3830 C.ar  1 <1>   0.1600 
 15 O       -6.2800    -0.9550    -0.3580 O.3   1 <1>  -0.5600 
 16 C       -5.1820    -3.1030     0.0090 C.ar  1 <1>  -0.1430 
 17 C       -7.2620    -1.6260    -1.0850 C.3   1 <1>   0.1200 
 18 C       -6.4270    -3.7170    -0.0220 C.ar  1 <1>  -0.1430 
 19 C       -4.0670    -3.8930     0.2540 C.ar  1 <1>  -0.1500 
 20 C       -7.6600    -2.8850    -0.3200 C.3   1 <1>  -0.0170 
 21 C       -6.5490    -5.0770     0.2110 C.ar  1 <1>  -0.1500 
 22 C       -4.1660    -5.2560     0.4760 C.ar  1 <1>   0.0830 
 23 C       -5.4310    -5.8650     0.4730 C.ar  1 <1>   0.0830 
 24 O       -2.9720    -5.8820     0.6870 O.3   1 <1>  -0.3630 
 25 O       -5.5530    -7.1990     0.7380 O.3   1 <1>  -0.3630 
 26 C       -2.7810    -7.2410     0.3660 C.3   1 <1>   0.0400 
 27 C       -6.7990    -7.7900     1.0380 C.3   1 <1>   0.0400 
 28 H       -2.2460    -1.6660    -0.8630 H     1 <1>   0.0800 
 29 H       -2.3530    -0.6400    -2.2650 H     1 <1>   0.0800 
 30 H       -4.6150     1.0840     0.2090 H     1 <1>   0.0800 
 31 H       -3.4310     0.9390     1.4860 H     1 <1>   0.0800 
 32 H        0.4730     2.3760     0.3440 H     1 <1>   0.1500 
 33 H       -4.2610    -2.1830    -2.1670 H     1 <1>   0.0800 
 34 H       -4.7430    -0.5170    -2.0980 H     1 <1>   0.0800 
 35 H       -5.0990    -0.8180     1.7620 H     1 <1>   0.0800 
 36 H       -3.5630    -1.4970     1.3570 H     1 <1>   0.0800 
 37 H       -3.3590     5.0300     1.1930 H     1 <1>   0.1500 
 38 H       -1.1600     5.7740     1.8830 H     1 <1>   0.1500 
 39 H       -6.8760    -1.8690    -2.0600 H     1 <1>   0.0800 
 40 H       -8.1040    -0.9660    -1.1910 H     1 <1>   0.0800 
 41 H       -3.0850    -3.4600     0.2730 H     1 <1>   0.1500 
 42 H       -8.3580    -3.4500    -0.9090 H     1 <1>   0.0800 
 43 H       -8.1390    -2.6060     0.6010 H     1 <1>   0.0800 
 44 H       -7.5300    -5.5080     0.1830 H     1 <1>   0.1500 
 45 H       -1.7240    -7.4250     0.3040 H     1 <1>   0.0800 
 46 H       -3.2480    -7.4480    -0.5810 H     1 <1>   0.0800 
 47 H       -3.2100    -7.8450     1.1450 H     1 <1>   0.0800 
 48 H       -6.6220    -8.8080     1.3350 H     1 <1>   0.0800 
 49 H       -7.4170    -7.7700     0.1580 H     1 <1>   0.0800 
 50 H       -7.2570    -7.2480     1.8460 H     1 <1>   0.0800 
@<TRIPOS>BOND
  1   1   2  2   
  2   2   3  am  
  3   2   4  1   
  4   3   5  1   
  5   3   6  1   
  6   4   7  ar  
  7   4   8  ar  
  8   5   9  1   
  9   5  28  1   
 10   5  29  1   
 11   6  10  1   
 12   6  30  1   
 13   6  31  1   
 14   7  11  ar  
 15   8  12  ar  
 16   8  32  1   
 17   9  13  1   
 18   9  33  1   
 19   9  34  1   
 20  10  13  1   
 21  10  35  1   
 22  10  36  1   
 23  11  14  ar  
 24  11  37  1   
 25  12  14  ar  
 26  13  15  1   
 27  13  16  1   
 28  14  38  1   
 29  15  17  1   
 30  16  18  ar  
 31  16  19  ar  
 32  17  20  1   
 33  17  39  1   
 34  17  40  1   
 35  18  20  1   
 36  18  21  ar  
 37  19  22  ar  
 38  19  41  1   
 39  20  42  1   
 40  20  43  1   
 41  21  23  ar  
 42  21  44  1   
 43  22  23  ar  
 44  22  24  1   
 45  23  25  1   
 46  24  26  1   
 47  25  27  1   
 48  26  45  1   
 49  26  46  1   
 50  26  47  1   
 51  27  48  1   
 52  27  49  1   
 53  27  50  1   
@<TRIPOS>SUBSTRUCTURE
  1 ****  10 GROUP 4 **** **** 0

# MOE 2024.06 (io_trps.svl 2023.06)
