@<TRIPOS>MOLECULE
NONAME
57 60 1 0 0 
SMALL
USER_CHARGES


@<TRIPOS>ATOM
  1 O        1.0720     1.2960    -0.1040 O.3   1 <1>  -0.6800 
  2 C        0.0960     1.8680     0.7070 C.3   1 <1>   0.3000 
  3 C        0.2930     3.3720     0.8280 C.2   1 <1>   0.0070 
  4 N        0.1420     4.0050     1.9410 N.2   1 <1>  -0.3380 
  5 N        0.6220     4.2050    -0.1700 N.pl3 1 <1>   0.0480 
  6 N        0.3790     5.2910     1.6960 N.2   1 <1>  -0.3380 
  7 C        0.6670     5.3960     0.4430 C.2   1 <1>   0.0070 
  8 C        0.8780     3.8770    -1.5890 C.3   1 <1>   0.0160 
  9 C        1.0130     6.7110    -0.2470 C.3   1 <1>   0.1000 
 10 C        1.6220     7.7120     0.7460 C.3   1 <1>   0.2090 
 11 C       -0.2380     7.3100    -0.9150 C.3   1 <1>  -0.1600 
 12 N        1.8990     9.0230     0.0760 N.pl3 1 <1>  -0.8380 
 13 C        0.0840     8.6670    -1.5610 C.3   1 <1>  -0.1600 
 14 C        3.1660     9.4280    -0.1800 C.ar  1 <1>   0.4100 
 15 C        0.7090     9.6470    -0.5620 C.3   1 <1>   0.2090 
 16 N        3.9510     8.5450    -0.7650 N.ar  1 <1>  -0.6200 
 17 C        3.6170    10.7260     0.1670 C.ar  1 <1>  -0.1430 
 18 C        5.1860     8.9100    -1.0700 C.ar  1 <1>   0.7710 
 19 C        4.8850    11.0740    -0.1780 C.ar  1 <1>   0.2180 
 20 C        2.7120    11.6930     0.9340 C.3   1 <1>  -0.0170 
 21 N        5.6410    10.1440    -0.8050 N.ar  1 <1>  -0.1790 
 22 N        6.0230     8.0180    -1.6740 N.pl3 1 <1>  -0.8380 
 23 C        5.5120    12.4330     0.1220 C.3   1 <1>  -0.0170 
 24 C        3.4960    12.8400     1.5850 C.3   1 <1>  -0.1600 
 25 C        5.5250     6.6700    -2.1100 C.3   1 <1>   0.1290 
 26 C        7.4930     8.1750    -1.9110 C.3   1 <1>   0.1290 
 27 C        4.4750    13.4640     0.5850 C.3   1 <1>  -0.1600 
 28 H        1.0790     0.3270     0.0160 H     1 <1>   0.4000 
 29 H        0.1640     1.4190     1.6830 H     1 <1>   0.0800 
 30 H       -0.8690     1.6530     0.2830 H     1 <1>   0.0800 
 31 H        0.1630     3.1470    -1.9210 H     1 <1>   0.0800 
 32 H        1.8680     3.4680    -1.6800 H     1 <1>   0.0800 
 33 H        0.7920     4.7560    -2.1990 H     1 <1>   0.0800 
 34 H        1.7610     6.5210    -0.9950 H     1 <1>   0.0800 
 35 H        2.5310     7.3040     1.1550 H     1 <1>   0.0800 
 36 H        0.9390     7.8760     1.5620 H     1 <1>   0.0800 
 37 H       -1.0020     7.4420    -0.1670 H     1 <1>   0.0800 
 38 H       -0.6190     6.6350    -1.6590 H     1 <1>   0.0800 
 39 H       -0.8180     9.0980    -1.9600 H     1 <1>   0.0800 
 40 H        0.7690     8.5260    -2.3780 H     1 <1>   0.0800 
 41 H        0.9930    10.5450    -1.0820 H     1 <1>   0.0800 
 42 H       -0.0070     9.9020     0.2010 H     1 <1>   0.0800 
 43 H        2.1750    11.1610     1.7020 H     1 <1>   0.0800 
 44 H        1.9880    12.1090     0.2550 H     1 <1>   0.0800 
 45 H        6.5860    10.3280    -1.1090 H     1 <1>   0.4570 
 46 H        6.0120    12.8150    -0.7510 H     1 <1>   0.0800 
 47 H        6.2460    12.3080     0.9000 H     1 <1>   0.0800 
 48 H        4.0370    12.4670     2.4380 H     1 <1>   0.0800 
 49 H        2.8060    13.5880     1.9380 H     1 <1>   0.0800 
 50 H        4.4680     6.6900    -2.3160 H     1 <1>   0.0800 
 51 H        5.7100     5.9450    -1.3360 H     1 <1>   0.0800 
 52 H        6.0290     6.3590    -3.0090 H     1 <1>   0.0800 
 53 H        7.9200     8.9500    -1.3010 H     1 <1>   0.0800 
 54 H        7.6750     8.3960    -2.9500 H     1 <1>   0.0800 
 55 H        8.0000     7.2550    -1.6670 H     1 <1>   0.0800 
 56 H        3.9240    13.8320    -0.2650 H     1 <1>   0.0800 
 57 H        4.9750    14.3040     1.0380 H     1 <1>   0.0800 
@<TRIPOS>BOND
  1   1   2  1   
  2   1  28  1   
  3   2   3  1   
  4   2  29  1   
  5   2  30  1   
  6   3   4  2   
  7   3   5  1   
  8   4   6  1   
  9   5   7  1   
 10   5   8  1   
 11   6   7  2   
 12   7   9  1   
 13   8  31  1   
 14   8  32  1   
 15   8  33  1   
 16   9  10  1   
 17   9  11  1   
 18   9  34  1   
 19  10  12  1   
 20  10  35  1   
 21  10  36  1   
 22  11  13  1   
 23  11  37  1   
 24  11  38  1   
 25  12  14  1   
 26  12  15  1   
 27  13  15  1   
 28  13  39  1   
 29  13  40  1   
 30  14  16  ar  
 31  14  17  ar  
 32  15  41  1   
 33  15  42  1   
 34  16  18  ar  
 35  17  19  ar  
 36  17  20  1   
 37  18  21  ar  
 38  18  22  1   
 39  19  21  ar  
 40  19  23  1   
 41  20  24  1   
 42  20  43  1   
 43  20  44  1   
 44  21  45  1   
 45  22  25  1   
 46  22  26  1   
 47  23  27  1   
 48  23  46  1   
 49  23  47  1   
 50  24  27  1   
 51  24  48  1   
 52  24  49  1   
 53  25  50  1   
 54  25  51  1   
 55  25  52  1   
 56  26  53  1   
 57  26  54  1   
 58  26  55  1   
 59  27  56  1   
 60  27  57  1   
@<TRIPOS>SUBSTRUCTURE
  1 ****  10 GROUP 4 **** **** 0

# MOE 2024.06 (io_trps.svl 2023.06)
