@<TRIPOS>MOLECULE
NONAME
47 49 1 0 0 
SMALL
USER_CHARGES


@<TRIPOS>ATOM
  1 O        2.4870    -1.4350     1.6830 O.3   1 <1>  -0.6800 
  2 C        1.7510    -2.1670     0.7700 C.3   1 <1>   0.2000 
  3 C        2.4920    -3.4680     0.4820 C.3   1 <1>  -0.1600 
  4 C        1.7650    -1.4290    -0.5630 C.3   1 <1>  -0.1600 
  5 C        3.5540    -3.1190    -0.5750 C.3   1 <1>  -0.0800 
  6 C        3.0820    -1.8210    -1.2500 C.3   1 <1>  -0.0800 
  7 C        4.9370    -2.8210     0.0290 C.3   1 <1>  -0.1600 
  8 C        4.1990    -0.7840    -1.0450 C.3   1 <1>  -0.1600 
  9 C        5.4530    -1.5430    -0.6330 C.3   1 <1>   0.4230 
 10 N        6.3310    -1.8130    -1.8140 N.4   1 <1>  -0.9590 
 11 C        7.6940    -2.2430    -1.3870 C.3   1 <1>   0.5230 
 12 C        5.7620    -2.6810    -2.8880 C.3   1 <1>   0.2630 
 13 C        8.4360    -1.0320    -0.8470 C.2   1 <1>   0.0060 
 14 N        8.1420     0.1760    -1.1950 N.2   1 <1>  -0.3380 
 15 N        9.4490    -1.0610     0.0310 N.pl3 1 <1>   0.0480 
 16 N        8.9620     0.9840    -0.5340 N.2   1 <1>  -0.3380 
 17 C        9.7260     0.2370     0.1850 C.2   1 <1>   0.0360 
 18 C       10.1110    -2.2130     0.7000 C.3   1 <1>   0.1760 
 19 C        9.7390    -2.2400     2.1860 C.3   1 <1>  -0.2400 
 20 C       11.6320    -2.1440     0.5170 C.3   1 <1>  -0.2400 
 21 H        2.3580    -1.7960     2.5820 H     1 <1>   0.4000 
 22 H        0.7560    -2.3120     1.1590 H     1 <1>   0.0800 
 23 H        2.8960    -3.9220     1.3700 H     1 <1>   0.0800 
 24 H        1.7910    -4.1570     0.0450 H     1 <1>   0.0800 
 25 H        0.9460    -1.7980    -1.1550 H     1 <1>   0.0800 
 26 H        1.6360    -0.3670    -0.4410 H     1 <1>   0.0800 
 27 H        3.6270    -3.9140    -1.2970 H     1 <1>   0.0800 
 28 H        2.9110    -1.9790    -2.3020 H     1 <1>   0.0800 
 29 H        5.6060    -3.6560    -0.0640 H     1 <1>   0.0800 
 30 H        4.8250    -2.6040     1.0770 H     1 <1>   0.0800 
 31 H        3.9380    -0.1410    -0.2210 H     1 <1>   0.0800 
 32 H        4.3480    -0.1620    -1.9090 H     1 <1>   0.0800 
 33 H        6.0010    -0.9500     0.0840 H     1 <1>   0.0800 
 34 H        6.5100    -0.8710    -2.2060 H     1 <1>   0.4500 
 35 H        7.6250    -3.0100    -0.6350 H     1 <1>   0.0800 
 36 H        8.2390    -2.6300    -2.2320 H     1 <1>   0.0800 
 37 H        5.5670    -3.6710    -2.5090 H     1 <1>   0.0800 
 38 H        6.4480    -2.7530    -3.7160 H     1 <1>   0.0800 
 39 H        4.8370    -2.2640    -3.2510 H     1 <1>   0.0800 
 40 H       10.4980     0.6040     0.8370 H     1 <1>   0.1500 
 41 H        9.7620    -3.1210     0.2430 H     1 <1>   0.0800 
 42 H       10.0960    -1.3570     2.6870 H     1 <1>   0.0800 
 43 H       10.1850    -3.0970     2.6620 H     1 <1>   0.0800 
 44 H        8.6730    -2.3060     2.3100 H     1 <1>   0.0800 
 45 H       12.0440    -1.2790     1.0060 H     1 <1>   0.0800 
 46 H       11.8850    -2.1110    -0.5290 H     1 <1>   0.0800 
 47 H       12.0930    -3.0180     0.9440 H     1 <1>   0.0800 
@<TRIPOS>BOND
  1   1   2  1   
  2   1  21  1   
  3   2   3  1   
  4   2   4  1   
  5   2  22  1   
  6   3   5  1   
  7   3  23  1   
  8   3  24  1   
  9   4   6  1   
 10   4  25  1   
 11   4  26  1   
 12   5   6  1   
 13   5   7  1   
 14   5  27  1   
 15   6   8  1   
 16   6  28  1   
 17   7   9  1   
 18   7  29  1   
 19   7  30  1   
 20   8   9  1   
 21   8  31  1   
 22   8  32  1   
 23   9  10  1   
 24   9  33  1   
 25  10  11  1   
 26  10  12  1   
 27  10  34  1   
 28  11  13  1   
 29  11  35  1   
 30  11  36  1   
 31  12  37  1   
 32  12  38  1   
 33  12  39  1   
 34  13  14  2   
 35  13  15  1   
 36  14  16  1   
 37  15  17  1   
 38  15  18  1   
 39  16  17  2   
 40  17  40  1   
 41  18  19  1   
 42  18  20  1   
 43  18  41  1   
 44  19  42  1   
 45  19  43  1   
 46  19  44  1   
 47  20  45  1   
 48  20  46  1   
 49  20  47  1   
@<TRIPOS>SUBSTRUCTURE
  1 ****   9 GROUP 4 **** **** 0

# MOE 2024.06 (io_trps.svl 2023.06)
