@<TRIPOS>MOLECULE
NONAME
50 52 1 0 0 
SMALL
USER_CHARGES


@<TRIPOS>ATOM
  1 O        3.8570    -1.2170     3.0070 O.2   1 <1>  -0.5700 
  2 C        2.7960    -1.1120     2.4370 C.2   1 <1>   0.5690 
  3 N        2.2750     0.0870     2.0890 N.am  1 <1>  -0.7300 
  4 C        2.0130    -2.3710     2.0530 C.3   1 <1>   0.1710 
  5 C        3.0290     1.3430     1.9940 C.3   1 <1>   0.2840 
  6 N        1.1140    -2.2030     0.8700 N.3   1 <1>  -0.8100 
  7 C        3.4760     1.5080     0.5510 C.ar  1 <1>  -0.1430 
  8 C        1.8530    -1.9490    -0.3760 C.3   1 <1>   0.1100 
  9 C        0.3130    -3.4060     0.6070 C.3   1 <1>   0.1100 
 10 C        2.5640     1.8490    -0.4450 C.ar  1 <1>   0.0820 
 11 C        4.8050     1.2940     0.2220 C.ar  1 <1>  -0.1500 
 12 C        0.8300    -2.2430    -1.4640 C.3   1 <1>   0.2000 
 13 C        0.0790    -3.4580    -0.9160 C.3   1 <1>  -0.0800 
 14 O        1.2650     2.0220    -0.0820 O.3   1 <1>  -0.3630 
 15 C        3.0040     1.9850    -1.7600 C.ar  1 <1>  -0.1500 
 16 C        5.2350     1.4290    -1.0860 C.ar  1 <1>  -0.1500 
 17 O       -0.0580    -1.1850    -1.4950 O.3   1 <1>  -0.6800 
 18 C        0.6030    -4.7640    -1.5430 C.3   1 <1>  -0.0170 
 19 C        0.2550     2.2480    -1.0410 C.3   1 <1>   0.0400 
 20 C        4.3340     1.7760    -2.0760 C.ar  1 <1>  -0.1500 
 21 C       -0.1240    -5.9830    -0.9980 C.ar  1 <1>   0.1670 
 22 N        0.5010    -6.6810    -0.0630 N.ar  1 <1>  -0.6200 
 23 C       -1.3880    -6.3090    -1.4870 C.ar  1 <1>   0.1600 
 24 C       -0.2150    -7.7170     0.3440 C.ar  1 <1>   0.1600 
 25 N       -2.1060    -7.3410    -1.0770 N.ar  1 <1>  -0.6200 
 26 C       -1.4750    -8.0350    -0.1460 C.ar  1 <1>   0.1600 
 27 H        1.4510     0.0540     1.4810 H     1 <1>   0.3700 
 28 H        1.4200    -2.6530     2.9040 H     1 <1>   0.0800 
 29 H        2.7170    -3.1620     1.8650 H     1 <1>   0.0800 
 30 H        2.3980     2.1640     2.2860 H     1 <1>   0.0800 
 31 H        3.8780     1.3120     2.6560 H     1 <1>   0.0800 
 32 H        2.2200    -0.9390    -0.4370 H     1 <1>   0.0800 
 33 H        2.6800    -2.6330    -0.4620 H     1 <1>   0.0800 
 34 H        0.8460    -4.2820     0.9380 H     1 <1>   0.0800 
 35 H       -0.6210    -3.3480     1.1400 H     1 <1>   0.0800 
 36 H        5.5110     1.0150     0.9860 H     1 <1>   0.1500 
 37 H        1.2540    -2.3740    -2.4450 H     1 <1>   0.0800 
 38 H       -0.9730    -3.3770    -1.1300 H     1 <1>   0.0800 
 39 H        2.3280     2.2510    -2.5500 H     1 <1>   0.1500 
 40 H        6.2700     1.2640    -1.3310 H     1 <1>   0.1500 
 41 H       -0.2520    -0.9720    -0.5570 H     1 <1>   0.4000 
 42 H        1.6580    -4.8660    -1.3540 H     1 <1>   0.0800 
 43 H        0.4680    -4.7270    -2.6090 H     1 <1>   0.0800 
 44 H       -0.6900     2.2860    -0.5310 H     1 <1>   0.0800 
 45 H        0.2560     1.4380    -1.7500 H     1 <1>   0.0800 
 46 H        0.4440     3.1870    -1.5310 H     1 <1>   0.0800 
 47 H        4.6690     1.8830    -3.0930 H     1 <1>   0.1500 
 48 H       -1.8250    -5.6870    -2.2480 H     1 <1>   0.1500 
 49 H        0.2170    -8.3450     1.1030 H     1 <1>   0.1500 
 50 H       -1.9800    -8.8990     0.2490 H     1 <1>   0.1500 
@<TRIPOS>BOND
  1   1   2  2   
  2   2   3  am  
  3   2   4  1   
  4   3   5  1   
  5   3  27  1   
  6   4   6  1   
  7   4  28  1   
  8   4  29  1   
  9   5   7  1   
 10   5  30  1   
 11   5  31  1   
 12   6   8  1   
 13   6   9  1   
 14   7  10  ar  
 15   7  11  ar  
 16   8  12  1   
 17   8  32  1   
 18   8  33  1   
 19   9  13  1   
 20   9  34  1   
 21   9  35  1   
 22  10  14  1   
 23  10  15  ar  
 24  11  16  ar  
 25  11  36  1   
 26  12  13  1   
 27  12  17  1   
 28  12  37  1   
 29  13  18  1   
 30  13  38  1   
 31  14  19  1   
 32  15  20  ar  
 33  15  39  1   
 34  16  20  ar  
 35  16  40  1   
 36  17  41  1   
 37  18  21  1   
 38  18  42  1   
 39  18  43  1   
 40  19  44  1   
 41  19  45  1   
 42  19  46  1   
 43  20  47  1   
 44  21  22  ar  
 45  21  23  ar  
 46  22  24  ar  
 47  23  25  ar  
 48  23  48  1   
 49  24  26  ar  
 50  24  49  1   
 51  25  26  ar  
 52  26  50  1   
@<TRIPOS>SUBSTRUCTURE
  1 ****   8 GROUP 4 **** **** 0

# MOE 2024.06 (io_trps.svl 2023.06)
