@<TRIPOS>MOLECULE
NONAME
25 26 1 0 0 
SMALL
USER_CHARGES


@<TRIPOS>ATOM
  1 O       -2.1310     3.0750     0.8340 O.2   1 <1>  -0.5700 
  2 C       -3.0730     2.4440     0.4060 C.2   1 <1>   0.5690 
  3 N       -4.1770     3.0750    -0.1030 N.am  1 <1>  -0.6600 
  4 C       -3.0480     0.8900     0.4850 C.3   1 <1>   0.2510 
  5 C       -5.3940     2.3490    -0.5130 C.3   1 <1>   0.2200 
  6 C       -4.4450     4.5160     0.0710 C.3   1 <1>   0.1400 
  7 N       -4.1820     0.2030    -0.1820 N.3   1 <1>  -0.9000 
  8 C       -1.7730     0.2980    -0.1170 C.3   1 <1>  -0.2400 
  9 C       -5.4440     0.9180     0.0660 C.3   1 <1>   0.1100 
 10 C       -6.5240     3.2620    -0.0480 C.3   1 <1>  -0.1600 
 11 C       -5.9440     4.6700    -0.1890 C.3   1 <1>  -0.1600 
 12 H       -3.0770     0.6370     1.5300 H     1 <1>   0.0800 
 13 H       -5.4060     2.2970    -1.5880 H     1 <1>   0.0800 
 14 H       -4.1980     4.8040     1.0800 H     1 <1>   0.0800 
 15 H       -3.8570     5.0950    -0.6210 H     1 <1>   0.0800 
 16 H       -3.9910     0.2420    -1.1900 H     1 <1>   0.3600 
 17 H       -1.6930     0.5600    -1.1560 H     1 <1>   0.0800 
 18 H       -1.7740    -0.7720    -0.0100 H     1 <1>   0.0800 
 19 H       -0.9150     0.6910     0.3980 H     1 <1>   0.0800 
 20 H       -6.2550     0.3770    -0.3900 H     1 <1>   0.0800 
 21 H       -5.6290     0.9580     1.1260 H     1 <1>   0.0800 
 22 H       -7.4160     3.1250    -0.6330 H     1 <1>   0.0800 
 23 H       -6.7470     3.0650     0.9860 H     1 <1>   0.0800 
 24 H       -6.3950     5.3690     0.4930 H     1 <1>   0.0800 
 25 H       -6.0860     5.0270    -1.1950 H     1 <1>   0.0800 
@<TRIPOS>BOND
  1   1   2  2   
  2   2   3  am  
  3   2   4  1   
  4   3   5  1   
  5   3   6  1   
  6   4   7  1   
  7   4   8  1   
  8   4  12  1   
  9   5   9  1   
 10   5  10  1   
 11   5  13  1   
 12   6  11  1   
 13   6  14  1   
 14   6  15  1   
 15   7   9  1   
 16   7  16  1   
 17   8  17  1   
 18   8  18  1   
 19   8  19  1   
 20   9  20  1   
 21   9  21  1   
 22  10  11  1   
 23  10  22  1   
 24  10  23  1   
 25  11  24  1   
 26  11  25  1   
@<TRIPOS>SUBSTRUCTURE
  1 ****   3 GROUP 4 **** **** 0

# MOE 2024.06 (io_trps.svl 2023.06)
