@<TRIPOS>MOLECULE
NONAME
44 44 1 0 0 
SMALL
USER_CHARGES


@<TRIPOS>ATOM
  1 O        0.0930    -1.4760    -1.5930 O.2   1 <1>  -0.5700 
  2 C        0.7240    -1.6070    -0.5630 C.2   1 <1>   0.7800 
  3 O        1.2780    -0.5580     0.0440 O.3   1 <1>  -0.4300 
  4 N        0.8470    -2.8180     0.0360 N.am  1 <1>  -0.6600 
  5 C        1.1570     0.8000    -0.3180 C.3   1 <1>   0.2800 
  6 C        1.9080    -3.2180     0.9560 C.3   1 <1>   0.5800 
  7 C        0.0080    -3.9930    -0.2990 C.3   1 <1>   0.2810 
  8 C        1.9430     1.5650     0.7470 C.3   1 <1>  -0.2400 
  9 C        1.7960     1.0420    -1.6900 C.3   1 <1>  -0.2400 
 10 C       -0.3140     1.2310    -0.2690 C.3   1 <1>  -0.2400 
 11 O        1.8920    -4.6040     0.9280 O.3   1 <1>  -0.5600 
 12 C        1.6000    -2.7660     2.3790 C.3   1 <1>  -0.2400 
 13 C        3.2970    -2.8040     0.4830 C.3   1 <1>  -0.2400 
 14 C       -1.5040    -3.8330    -0.0210 C.2   1 <1>   0.5690 
 15 C        0.6380    -5.0830     0.5610 C.3   1 <1>   0.1200 
 16 O       -2.1090    -4.7010     0.5670 O.2   1 <1>  -0.5700 
 17 N       -2.1560    -2.7290    -0.4560 N.am  1 <1>  -0.7300 
 18 C       -3.5080    -2.3600    -0.1000 C.3   1 <1>   0.4200 
 19 O       -3.4910    -0.9800    -0.0790 O.3   1 <1>  -0.5600 
 20 C       -4.7070    -0.4140     0.2860 C.3   1 <1>   0.0400 
 21 H        0.1430    -4.2360    -1.3370 H     1 <1>   0.0800 
 22 H        1.9060     2.6210     0.5520 H     1 <1>   0.0800 
 23 H        2.9730     1.2560     0.7460 H     1 <1>   0.0800 
 24 H        1.5230     1.3850     1.7200 H     1 <1>   0.0800 
 25 H        1.8280     2.0960    -1.8980 H     1 <1>   0.0800 
 26 H        1.2270     0.5760    -2.4730 H     1 <1>   0.0800 
 27 H        2.8010     0.6600    -1.7080 H     1 <1>   0.0800 
 28 H       -0.3900     2.2950    -0.3950 H     1 <1>   0.0800 
 29 H       -0.7510     0.9680     0.6780 H     1 <1>   0.0800 
 30 H       -0.8840     0.7720    -1.0560 H     1 <1>   0.0800 
 31 H        1.6450    -1.6950     2.4410 H     1 <1>   0.0800 
 32 H        2.3290    -3.1740     3.0540 H     1 <1>   0.0800 
 33 H        0.6210    -3.0900     2.6760 H     1 <1>   0.0800 
 34 H        3.4330    -1.7430     0.5660 H     1 <1>   0.0800 
 35 H        3.4430    -3.1030    -0.5380 H     1 <1>   0.0800 
 36 H        4.0400    -3.2790     1.0970 H     1 <1>   0.0800 
 37 H        0.7490    -6.0080     0.0240 H     1 <1>   0.0800 
 38 H        0.0780    -5.2550     1.4640 H     1 <1>   0.0800 
 39 H       -1.6430    -1.9820    -0.9430 H     1 <1>   0.3700 
 40 H       -3.7680    -2.7370     0.8760 H     1 <1>   0.0800 
 41 H       -4.2060    -2.7000    -0.8460 H     1 <1>   0.0800 
 42 H       -4.5940     0.6560     0.2710 H     1 <1>   0.0800 
 43 H       -4.9660    -0.7370     1.2790 H     1 <1>   0.0800 
 44 H       -5.4640    -0.7070    -0.4210 H     1 <1>   0.0800 
@<TRIPOS>BOND
  1   1   2  2   
  2   2   3  1   
  3   2   4  am  
  4   3   5  1   
  5   4   6  1   
  6   4   7  1   
  7   5   8  1   
  8   5   9  1   
  9   5  10  1   
 10   6  11  1   
 11   6  12  1   
 12   6  13  1   
 13   7  14  1   
 14   7  15  1   
 15   7  21  1   
 16   8  22  1   
 17   8  23  1   
 18   8  24  1   
 19   9  25  1   
 20   9  26  1   
 21   9  27  1   
 22  10  28  1   
 23  10  29  1   
 24  10  30  1   
 25  11  15  1   
 26  12  31  1   
 27  12  32  1   
 28  12  33  1   
 29  13  34  1   
 30  13  35  1   
 31  13  36  1   
 32  14  16  2   
 33  14  17  am  
 34  15  37  1   
 35  15  38  1   
 36  17  18  1   
 37  17  39  1   
 38  18  19  1   
 39  18  40  1   
 40  18  41  1   
 41  19  20  1   
 42  20  42  1   
 43  20  43  1   
 44  20  44  1   
@<TRIPOS>SUBSTRUCTURE
  1 ****   2 GROUP 4 **** **** 0

# MOE 2024.06 (io_trps.svl 2023.06)
