@<TRIPOS>MOLECULE
NONAME
46 48 1 0 0 
SMALL
USER_CHARGES


@<TRIPOS>ATOM
  1 O       -3.6030     2.1360    -2.1050 O.2   1 <1>  -0.5700 
  2 C       -3.1220     1.4540    -1.2210 C.2   1 <1>   0.5440 
  3 N       -3.5340     0.1430    -1.0950 N.am  1 <1>  -0.6600 
  4 C       -2.1520     2.0470    -0.3300 C.ar  1 <1>   0.0860 
  5 C       -2.9170    -0.7980    -0.0880 C.3   1 <1>   0.3640 
  6 C       -4.7050    -0.3310    -1.8940 C.3   1 <1>   0.1400 
  7 C       -2.5050     2.4030     0.9650 C.ar  1 <1>   0.1600 
  8 C       -0.8400     2.2700    -0.7120 C.ar  1 <1>  -0.1500 
  9 C       -1.4180    -0.9310    -0.3780 C.ar  1 <1>  -0.1440 
 10 C       -3.5380    -2.2290    -0.0120 C.3   1 <1>   0.2000 
 11 C       -4.8320    -1.8530    -1.9230 C.3   1 <1>   0.1200 
 12 N       -1.6920     2.9120     1.8750 N.ar  1 <1>  -0.6200 
 13 C        0.0360     2.8010     0.2140 C.ar  1 <1>  -0.1430 
 14 C       -0.4940    -0.7550     0.6440 C.ar  1 <1>  -0.1500 
 15 C       -0.9580    -1.2200    -1.6560 C.ar  1 <1>  -0.1500 
 16 O       -4.7960    -2.3360    -0.6210 O.3   1 <1>  -0.5600 
 17 C       -3.7180    -2.7170     1.4330 C.3   1 <1>   0.1200 
 18 C       -0.4400     3.1050     1.4880 C.ar  1 <1>   0.1670 
 19 C        1.4870     3.0170    -0.1940 C.3   1 <1>  -0.0970 
 20 C        0.8620    -0.8710     0.3940 C.ar  1 <1>  -0.1500 
 21 C        0.3980    -1.3370    -1.9070 C.ar  1 <1>  -0.1500 
 22 O       -2.5210    -2.6640     2.1420 O.3   1 <1>  -0.6800 
 23 C        0.4710     3.6900     2.5510 C.3   1 <1>  -0.0970 
 24 C        1.3090    -1.1630    -0.8810 C.ar  1 <1>  -0.1500 
 25 H       -3.0320    -0.3470     0.8830 H     1 <1>   0.0800 
 26 H       -5.6030     0.0870    -1.4730 H     1 <1>   0.0800 
 27 H       -4.6210     0.0300    -2.9050 H     1 <1>   0.0800 
 28 H       -3.5270     2.2500     1.2630 H     1 <1>   0.1500 
 29 H       -0.5270     2.0130    -1.7080 H     1 <1>   0.1500 
 30 H       -2.8930    -2.9230    -0.5220 H     1 <1>   0.0800 
 31 H       -4.0390    -2.3020    -2.4950 H     1 <1>   0.0800 
 32 H       -5.7760    -2.1370    -2.3550 H     1 <1>   0.0800 
 33 H       -0.8260    -0.5200     1.6420 H     1 <1>   0.1500 
 34 H       -1.6570    -1.3490    -2.4640 H     1 <1>   0.1500 
 35 H       -4.0670    -3.7350     1.4440 H     1 <1>   0.0800 
 36 H       -4.4270    -2.0920     1.9470 H     1 <1>   0.0800 
 37 H        1.6880     2.5610    -1.1470 H     1 <1>   0.0800 
 38 H        2.1470     2.5760     0.5310 H     1 <1>   0.0800 
 39 H        1.6950     4.0690    -0.2700 H     1 <1>   0.0800 
 40 H        1.5670    -0.7300     1.1950 H     1 <1>   0.1500 
 41 H        0.7430    -1.5610    -2.9010 H     1 <1>   0.1500 
 42 H       -1.8520    -3.2630     1.7530 H     1 <1>   0.4000 
 43 H        1.1400     4.4150     2.1280 H     1 <1>   0.0800 
 44 H        1.0390     2.9020     3.0100 H     1 <1>   0.0800 
 45 H       -0.1130     4.1780     3.3110 H     1 <1>   0.0800 
 46 H        2.3640    -1.2540    -1.0750 H     1 <1>   0.1500 
@<TRIPOS>BOND
  1   1   2  2   
  2   2   3  am  
  3   2   4  1   
  4   3   5  1   
  5   3   6  1   
  6   4   7  ar  
  7   4   8  ar  
  8   5   9  1   
  9   5  10  1   
 10   5  25  1   
 11   6  11  1   
 12   6  26  1   
 13   6  27  1   
 14   7  12  ar  
 15   7  28  1   
 16   8  13  ar  
 17   8  29  1   
 18   9  14  ar  
 19   9  15  ar  
 20  10  16  1   
 21  10  17  1   
 22  10  30  1   
 23  11  16  1   
 24  11  31  1   
 25  11  32  1   
 26  12  18  ar  
 27  13  18  ar  
 28  13  19  1   
 29  14  20  ar  
 30  14  33  1   
 31  15  21  ar  
 32  15  34  1   
 33  17  22  1   
 34  17  35  1   
 35  17  36  1   
 36  18  23  1   
 37  19  37  1   
 38  19  38  1   
 39  19  39  1   
 40  20  24  ar  
 41  20  40  1   
 42  21  24  ar  
 43  21  41  1   
 44  22  42  1   
 45  23  43  1   
 46  23  44  1   
 47  23  45  1   
 48  24  46  1   
@<TRIPOS>SUBSTRUCTURE
  1 ****   9 GROUP 4 **** **** 0

# MOE 2024.06 (io_trps.svl 2023.06)
