@<TRIPOS>MOLECULE
NONAME
42 44 1 0 0 
SMALL
USER_CHARGES


@<TRIPOS>ATOM
  1 S       -0.2820    -0.1870    -0.5290 S.3   1 <1>  -0.0800 
  2 C       -1.1390    -0.9690     0.7560 C.2   1 <1>   0.4420 
  3 C       -0.1080     1.1830     0.5180 C.2   1 <1>   0.1980 
  4 N       -1.2260    -0.2310     1.8020 N.2   1 <1>  -0.3380 
  5 N       -1.5830    -2.2480     0.5110 N.am  1 <1>  -0.4940 
  6 N       -0.6380     0.9950     1.6590 N.2   1 <1>  -0.3380 
  7 C        0.6170     2.4240     0.0000 C.3   1 <1>   0.3800 
  8 C       -2.4280    -3.0300     1.2420 C.2   1 <1>   0.7150 
  9 O        0.0450     2.8750    -1.1930 O.3   1 <1>  -0.5600 
 10 C        2.0930     2.1550    -0.2880 C.3   1 <1>  -0.2400 
 11 O       -3.1050    -2.5640     2.1310 O.2   1 <1>  -0.5700 
 12 C       -2.5110    -4.4200     0.8900 C.2   1 <1>  -0.2370 
 13 C       -1.2190     3.4500    -1.0580 C.3   1 <1>   0.0400 
 14 N       -1.3990    -5.2280     0.8500 N.pl3 1 <1>   0.0330 
 15 C       -3.5920    -5.1860     0.5550 C.2   1 <1>  -0.1810 
 16 C       -1.7720    -6.4880     0.4720 C.ar  1 <1>  -0.1520 
 17 C       -3.1480    -6.4930     0.2790 C.ar  1 <1>   0.0000 
 18 C       -5.0460    -4.7560     0.4840 C.3   1 <1>  -0.0590 
 19 C       -1.0130    -7.6460     0.2840 C.ar  1 <1>  -0.1500 
 20 C       -3.7880    -7.6760    -0.1130 C.ar  1 <1>  -0.1500 
 21 C       -1.6530    -8.8000    -0.1030 C.ar  1 <1>  -0.1500 
 22 C       -3.0400    -8.8230    -0.3030 C.ar  1 <1>   0.0830 
 23 O       -3.5640   -10.0210    -0.6840 O.3   1 <1>  -0.3630 
 24 C       -4.9520   -10.1610    -0.8920 C.3   1 <1>   0.0400 
 25 H       -1.3100    -2.6510    -0.3790 H     1 <1>   0.3700 
 26 H        0.5400     3.2120     0.7310 H     1 <1>   0.0800 
 27 H        2.1970     1.4140    -1.0590 H     1 <1>   0.0800 
 28 H        2.5790     1.8010     0.6030 H     1 <1>   0.0800 
 29 H        2.5740     3.0640    -0.6020 H     1 <1>   0.0800 
 30 H       -1.5420     3.7780    -2.0310 H     1 <1>   0.0800 
 31 H       -1.1600     4.2950    -0.3950 H     1 <1>   0.0800 
 32 H       -1.9130     2.7200    -0.6780 H     1 <1>   0.0800 
 33 H       -0.4520    -4.9660     1.1430 H     1 <1>   0.2700 
 34 H       -5.1510    -3.7180     0.7420 H     1 <1>   0.0800 
 35 H       -5.6300    -5.3380     1.1740 H     1 <1>   0.0800 
 36 H       -5.4250    -4.9060    -0.5100 H     1 <1>   0.0800 
 37 H        0.0510    -7.6300     0.4400 H     1 <1>   0.1500 
 38 H       -4.8490    -7.6480    -0.2530 H     1 <1>   0.1500 
 39 H       -1.1030    -9.7100    -0.2580 H     1 <1>   0.1500 
 40 H       -5.1450   -11.1790    -1.1780 H     1 <1>   0.0800 
 41 H       -5.2550    -9.4960    -1.6810 H     1 <1>   0.0800 
 42 H       -5.4660    -9.9340     0.0240 H     1 <1>   0.0800 
@<TRIPOS>BOND
  1   1   2  1   
  2   1   3  1   
  3   2   4  2   
  4   2   5  1   
  5   3   6  2   
  6   3   7  1   
  7   4   6  1   
  8   5   8  am  
  9   5  25  1   
 10   7   9  1   
 11   7  10  1   
 12   7  26  1   
 13   8  11  2   
 14   8  12  1   
 15   9  13  1   
 16  10  27  1   
 17  10  28  1   
 18  10  29  1   
 19  12  14  1   
 20  12  15  2   
 21  13  30  1   
 22  13  31  1   
 23  13  32  1   
 24  14  16  1   
 25  14  33  1   
 26  15  17  1   
 27  15  18  1   
 28  16  17  ar  
 29  16  19  ar  
 30  17  20  ar  
 31  18  34  1   
 32  18  35  1   
 33  18  36  1   
 34  19  21  ar  
 35  19  37  1   
 36  20  22  ar  
 37  20  38  1   
 38  21  22  ar  
 39  21  39  1   
 40  22  23  1   
 41  23  24  1   
 42  24  40  1   
 43  24  41  1   
 44  24  42  1   
@<TRIPOS>SUBSTRUCTURE
  1 ****   8 GROUP 4 **** **** 0

# MOE 2024.06 (io_trps.svl 2023.06)
