@<TRIPOS>MOLECULE
NONAME
47 48 1 0 0 
SMALL
USER_CHARGES


@<TRIPOS>ATOM
  1 S       -0.0090     0.7110    -0.2820 S.o2  1 <1>   1.3330 
  2 O       -0.2060     1.8070    -1.2030 O.2   1 <1>  -0.6500 
  3 O       -0.5980     0.7740     1.0370 O.2   1 <1>  -0.6500 
  4 N       -0.5520    -0.7140    -1.0260 N.am  1 <1>  -0.8490 
  5 C        1.7580     0.4300    -0.1460 C.3   1 <1>  -0.0550 
  6 C       -0.8020    -1.8070    -0.0790 C.3   1 <1>   0.1160 
  7 C       -1.7410    -0.4910    -1.8540 C.3   1 <1>   0.1160 
  8 C        2.5270     1.6070     0.4890 C.3   1 <1>  -0.0800 
  9 C        4.0280     1.4200     0.3460 C.3   1 <1>   0.2200 
 10 C        2.3620     1.6410     2.0120 C.3   1 <1>   0.1200 
 11 N        4.7000     2.7330     0.4690 N.am  1 <1>  -0.7300 
 12 C        4.3550     0.5610     1.5630 C.3   1 <1>   0.1200 
 13 O        3.4200     0.9000     2.5460 O.3   1 <1>  -0.5600 
 14 C        5.3950     3.3410    -0.5200 C.2   1 <1>   0.5690 
 15 O        5.4940     2.8620    -1.6220 O.2   1 <1>  -0.5700 
 16 C        6.0570     4.6660    -0.2410 C.3   1 <1>  -0.0990 
 17 C        5.3880     5.7650    -1.0710 C.3   1 <1>   0.0960 
 18 N        5.9920     7.0730    -0.7660 N.pl3 1 <1>   0.3140 
 19 N        5.7970     7.6830     0.4170 N.2   1 <1>  -0.7070 
 20 C        6.7920     7.8040    -1.5670 C.2   1 <1>  -0.3020 
 21 C        6.4730     8.7850     0.3400 C.2   1 <1>   0.1080 
 22 C        7.1210     8.9190    -0.8820 C.2   1 <1>  -0.1500 
 23 C        6.5250     9.7830     1.4720 C.3   1 <1>  -0.0590 
 24 H        1.9350    -0.4630     0.4210 H     1 <1>   0.0800 
 25 H        2.1380     0.2680    -1.1360 H     1 <1>   0.0800 
 26 H       -1.0520    -2.7080    -0.6110 H     1 <1>   0.0800 
 27 H       -1.6150    -1.5530     0.5830 H     1 <1>   0.0800 
 28 H        0.0770    -1.9940     0.5130 H     1 <1>   0.0800 
 29 H       -2.0490    -1.4110    -2.3220 H     1 <1>   0.0800 
 30 H       -1.5210     0.2220    -2.6310 H     1 <1>   0.0800 
 31 H       -2.5500    -0.1090    -1.2530 H     1 <1>   0.0800 
 32 H        2.2020     2.5270     0.0320 H     1 <1>   0.0800 
 33 H        4.3110     0.9390    -0.5760 H     1 <1>   0.0800 
 34 H        1.4340     1.2210     2.3590 H     1 <1>   0.0800 
 35 H        2.4530     2.6480     2.3810 H     1 <1>   0.0800 
 36 H        4.6430     3.1540     1.4000 H     1 <1>   0.3700 
 37 H        5.3500     0.7310     1.9350 H     1 <1>   0.0800 
 38 H        4.2250    -0.4820     1.3380 H     1 <1>   0.0800 
 39 H        5.9790     4.9000     0.8050 H     1 <1>   0.0800 
 40 H        7.0960     4.5930    -0.5050 H     1 <1>   0.0800 
 41 H        4.3400     5.8190    -0.8380 H     1 <1>   0.0800 
 42 H        5.5000     5.5620    -2.1200 H     1 <1>   0.0800 
 43 H        7.0780     7.4980    -2.5560 H     1 <1>   0.1500 
 44 H        7.7430     9.7410    -1.1870 H     1 <1>   0.1500 
 45 H        7.1460    10.6190     1.2080 H     1 <1>   0.0800 
 46 H        6.9230     9.3090     2.3500 H     1 <1>   0.0800 
 47 H        5.5320    10.1340     1.6850 H     1 <1>   0.0800 
@<TRIPOS>BOND
  1   1   2  2   
  2   1   3  2   
  3   1   4  am  
  4   1   5  1   
  5   4   6  1   
  6   4   7  1   
  7   5   8  1   
  8   5  24  1   
  9   5  25  1   
 10   6  26  1   
 11   6  27  1   
 12   6  28  1   
 13   7  29  1   
 14   7  30  1   
 15   7  31  1   
 16   8   9  1   
 17   8  10  1   
 18   8  32  1   
 19   9  11  1   
 20   9  12  1   
 21   9  33  1   
 22  10  13  1   
 23  10  34  1   
 24  10  35  1   
 25  11  14  am  
 26  11  36  1   
 27  12  13  1   
 28  12  37  1   
 29  12  38  1   
 30  14  15  2   
 31  14  16  1   
 32  16  17  1   
 33  16  39  1   
 34  16  40  1   
 35  17  18  1   
 36  17  41  1   
 37  17  42  1   
 38  18  19  1   
 39  18  20  1   
 40  19  21  2   
 41  20  22  2   
 42  20  43  1   
 43  21  22  1   
 44  21  23  1   
 45  22  44  1   
 46  23  45  1   
 47  23  46  1   
 48  23  47  1   
@<TRIPOS>SUBSTRUCTURE
  1 ****  11 GROUP 4 **** **** 0

# MOE 2024.06 (io_trps.svl 2023.06)
