@<TRIPOS>MOLECULE
NONAME
44 46 1 0 0 
SMALL
USER_CHARGES


@<TRIPOS>ATOM
  1 O       -2.1850    -0.5930    -2.9350 O.2   1 <1>  -0.5700 
  2 C       -2.2600    -0.9660    -1.7970 C.2   1 <1>   0.5690 
  3 N       -2.0970    -0.0960    -0.7850 N.am  1 <1>  -0.7300 
  4 C       -2.5790    -2.4060    -1.5040 C.3   1 <1>  -0.0190 
  5 C       -2.1740    -0.4230     0.6570 C.3   1 <1>   0.2200 
  6 C       -1.4450    -3.0940    -0.7110 C.3   1 <1>   0.1200 
  7 C       -3.9880    -2.4770    -0.8990 C.3   1 <1>   0.3430 
  8 C       -1.0990    -1.4770     1.0280 C.3   1 <1>   0.1200 
  9 C       -3.6200    -0.8450     1.0440 C.3   1 <1>   0.3430 
 10 O       -1.4590    -2.7850     0.6590 O.3   1 <1>  -0.5600 
 11 N       -4.0310    -2.2200     0.5820 N.4   1 <1>  -0.9590 
 12 C       -5.2950    -2.6890     1.2080 C.3   1 <1>   0.4860 
 13 C       -5.4480    -4.1740     0.9310 C.ar  1 <1>  -0.1430 
 14 C       -6.4650    -4.6670     0.1160 C.ar  1 <1>  -0.1430 
 15 C       -4.5310    -5.0530     1.4940 C.ar  1 <1>  -0.1500 
 16 C       -6.5380    -6.0290    -0.1340 C.ar  1 <1>  -0.1500 
 17 C       -7.5120    -3.7540    -0.5120 C.3   1 <1>  -0.0970 
 18 C       -4.6130    -6.4070     1.2370 C.ar  1 <1>  -0.1500 
 19 C       -5.6120    -6.9050     0.4210 C.ar  1 <1>   0.0830 
 20 O       -5.6180    -8.2450     0.2180 O.3   1 <1>  -0.3630 
 21 C       -6.6460    -8.8770    -0.5130 C.3   1 <1>   0.0400 
 22 H       -1.8270     0.8580    -1.0520 H     1 <1>   0.3700 
 23 H       -2.6280    -2.8950    -2.4610 H     1 <1>   0.0800 
 24 H       -1.9400     0.4800     1.1940 H     1 <1>   0.0800 
 25 H       -0.4810    -2.8340    -1.1160 H     1 <1>   0.0800 
 26 H       -1.5570    -4.1630    -0.7870 H     1 <1>   0.0800 
 27 H       -4.3650    -3.4700    -1.0890 H     1 <1>   0.0800 
 28 H       -4.6330    -1.7830    -1.4120 H     1 <1>   0.0800 
 29 H       -0.9670    -1.4860     2.0960 H     1 <1>   0.0800 
 30 H       -0.1490    -1.2340     0.5810 H     1 <1>   0.0800 
 31 H       -4.3070    -0.1110     0.6580 H     1 <1>   0.0800 
 32 H       -3.6870    -0.8160     2.1190 H     1 <1>   0.0800 
 33 H       -3.2800    -2.8460     0.9380 H     1 <1>   0.4500 
 34 H       -5.2620    -2.5340     2.2750 H     1 <1>   0.0800 
 35 H       -6.1330    -2.1410     0.8110 H     1 <1>   0.0800 
 36 H       -3.7420    -4.7030     2.1380 H     1 <1>   0.1500 
 37 H       -7.3220    -6.4050    -0.7640 H     1 <1>   0.1500 
 38 H       -8.2090    -4.3200    -1.1050 H     1 <1>   0.0800 
 39 H       -7.0490    -3.0270    -1.1540 H     1 <1>   0.0800 
 40 H       -8.0720    -3.2480     0.2550 H     1 <1>   0.0800 
 41 H       -3.9060    -7.0930     1.6690 H     1 <1>   0.1500 
 42 H       -6.4580    -9.9360    -0.5040 H     1 <1>   0.0800 
 43 H       -6.6320    -8.5130    -1.5240 H     1 <1>   0.0800 
 44 H       -7.5900    -8.6700    -0.0390 H     1 <1>   0.0800 
@<TRIPOS>BOND
  1   1   2  2   
  2   2   3  am  
  3   2   4  1   
  4   3   5  1   
  5   3  22  1   
  6   4   6  1   
  7   4   7  1   
  8   4  23  1   
  9   5   8  1   
 10   5   9  1   
 11   5  24  1   
 12   6  10  1   
 13   6  25  1   
 14   6  26  1   
 15   7  11  1   
 16   7  27  1   
 17   7  28  1   
 18   8  10  1   
 19   8  29  1   
 20   8  30  1   
 21   9  11  1   
 22   9  31  1   
 23   9  32  1   
 24  11  12  1   
 25  11  33  1   
 26  12  13  1   
 27  12  34  1   
 28  12  35  1   
 29  13  14  ar  
 30  13  15  ar  
 31  14  16  ar  
 32  14  17  1   
 33  15  18  ar  
 34  15  36  1   
 35  16  19  ar  
 36  16  37  1   
 37  17  38  1   
 38  17  39  1   
 39  17  40  1   
 40  18  19  ar  
 41  18  41  1   
 42  19  20  1   
 43  20  21  1   
 44  21  42  1   
 45  21  43  1   
 46  21  44  1   
@<TRIPOS>SUBSTRUCTURE
  1 ****   7 GROUP 4 **** **** 0

# MOE 2024.06 (io_trps.svl 2023.06)
