@<TRIPOS>MOLECULE
NONAME
47 48 1 0 0 
SMALL
USER_CHARGES


@<TRIPOS>ATOM
  1 O       -0.4900    -1.3260    -1.6910 O.3   1 <1>  -0.5600 
  2 C        0.1150    -1.9200    -0.5790 C.3   1 <1>   0.2800 
  3 C       -1.2940    -0.1990    -1.4740 C.3   1 <1>   0.1200 
  4 C       -0.8920    -2.0330     0.5960 C.3   1 <1>  -0.1600 
  5 C        1.3540    -1.0890    -0.2110 C.3   1 <1>  -0.1600 
  6 C        0.5720    -3.3000    -1.0750 C.3   1 <1>  -0.1600 
  7 C       -2.5140    -0.5530    -0.6080 C.3   1 <1>  -0.1600 
  8 C       -2.3530    -1.8760     0.1530 C.3   1 <1>   0.2800 
  9 C        2.2400    -1.8160     0.7960 C.3   1 <1>   0.3430 
 10 C        1.4830    -4.0050    -0.0750 C.3   1 <1>   0.3430 
 11 O       -2.6160    -2.8840    -0.7470 O.3   1 <1>  -0.6800 
 12 C       -3.3590    -2.0230     1.3150 C.3   1 <1>   0.1200 
 13 N        2.6490    -3.1370     0.2420 N.4   1 <1>  -0.9590 
 14 O       -3.0790    -1.1210     2.3430 O.3   1 <1>  -0.6800 
 15 C        3.6200    -3.8330     1.1110 C.3   1 <1>   0.4810 
 16 C        4.9300    -3.0990     0.9600 C.2   1 <1>  -0.2880 
 17 C        5.9390    -3.4120     0.1390 C.2   1 <1>  -0.2760 
 18 C        7.2180    -2.5900     0.0880 C.3   1 <1>  -0.1020 
 19 C        5.9720    -4.5890    -0.8290 C.3   1 <1>  -0.1020 
 20 H       -0.6990     0.5650    -1.0040 H     1 <1>   0.0800 
 21 H       -1.6130     0.1670    -2.4350 H     1 <1>   0.0800 
 22 H       -0.7820    -2.9570     1.1310 H     1 <1>   0.0800 
 23 H       -0.6890    -1.2530     1.3080 H     1 <1>   0.0800 
 24 H        1.9290    -0.8800    -1.0970 H     1 <1>   0.0800 
 25 H        1.0590    -0.1480     0.2160 H     1 <1>   0.0800 
 26 H       -0.2810    -3.9270    -1.2590 H     1 <1>   0.0800 
 27 H        1.1000    -3.1930    -2.0070 H     1 <1>   0.0800 
 28 H       -3.4030    -0.5800    -1.2120 H     1 <1>   0.0800 
 29 H       -2.6490     0.2490     0.0960 H     1 <1>   0.0800 
 30 H        1.7010    -1.9550     1.7190 H     1 <1>   0.0800 
 31 H        3.1120    -1.2150     0.9990 H     1 <1>   0.0800 
 32 H        1.8200    -4.9380    -0.4990 H     1 <1>   0.0800 
 33 H        0.9320    -4.2230     0.8250 H     1 <1>   0.0800 
 34 H       -2.1160    -2.6680    -1.5640 H     1 <1>   0.4000 
 35 H       -3.3070    -3.0170     1.7250 H     1 <1>   0.0800 
 36 H       -4.3580    -1.8310     0.9630 H     1 <1>   0.0800 
 37 H        3.1650    -2.9540    -0.6310 H     1 <1>   0.4500 
 38 H       -3.7670    -1.1710     3.0370 H     1 <1>   0.4000 
 39 H        3.2960    -3.8430     2.1390 H     1 <1>   0.0800 
 40 H        3.7440    -4.8510     0.7780 H     1 <1>   0.0800 
 41 H        4.9880    -2.2470     1.6170 H     1 <1>   0.1500 
 42 H        8.0650    -3.2030     0.3450 H     1 <1>   0.0800 
 43 H        7.1790    -1.7670     0.7800 H     1 <1>   0.0800 
 44 H        7.3700    -2.1930    -0.9000 H     1 <1>   0.0800 
 45 H        6.1220    -4.2360    -1.8340 H     1 <1>   0.0800 
 46 H        5.0660    -5.1630    -0.8080 H     1 <1>   0.0800 
 47 H        6.7880    -5.2450    -0.5780 H     1 <1>   0.0800 
@<TRIPOS>BOND
  1   1   2  1   
  2   1   3  1   
  3   2   4  1   
  4   2   5  1   
  5   2   6  1   
  6   3   7  1   
  7   3  20  1   
  8   3  21  1   
  9   4   8  1   
 10   4  22  1   
 11   4  23  1   
 12   5   9  1   
 13   5  24  1   
 14   5  25  1   
 15   6  10  1   
 16   6  26  1   
 17   6  27  1   
 18   7   8  1   
 19   7  28  1   
 20   7  29  1   
 21   8  11  1   
 22   8  12  1   
 23   9  13  1   
 24   9  30  1   
 25   9  31  1   
 26  10  13  1   
 27  10  32  1   
 28  10  33  1   
 29  11  34  1   
 30  12  14  1   
 31  12  35  1   
 32  12  36  1   
 33  13  15  1   
 34  13  37  1   
 35  14  38  1   
 36  15  16  1   
 37  15  39  1   
 38  15  40  1   
 39  16  17  2   
 40  16  41  1   
 41  17  18  1   
 42  17  19  1   
 43  18  42  1   
 44  18  43  1   
 45  18  44  1   
 46  19  45  1   
 47  19  46  1   
 48  19  47  1   
@<TRIPOS>SUBSTRUCTURE
  1 ****   2 GROUP 4 **** **** 0

# MOE 2024.06 (io_trps.svl 2023.06)
