@<TRIPOS>MOLECULE
NONAME
50 53 1 0 0 
SMALL
USER_CHARGES


@<TRIPOS>ATOM
  1 O        0.0100     0.5760    -0.2220 O.2   1 <1>  -0.5700 
  2 C       -0.0650     1.7580    -0.4670 C.2   1 <1>   0.5690 
  3 N       -0.8510     2.6100     0.2640 N.am  1 <1>  -0.6600 
  4 C        0.7410     2.2990    -1.6500 C.3   1 <1>   0.1810 
  5 C       -0.9310     4.0730    -0.0640 C.3   1 <1>   0.3640 
  6 C       -1.5880     2.1630     1.4820 C.3   1 <1>   0.0600 
  7 O        0.9590     3.6860    -1.5750 O.3   1 <1>  -0.5600 
  8 C       -2.3990     4.5200    -0.0950 C.ar  1 <1>  -0.1440 
  9 C       -0.2300     4.4340    -1.3980 C.3   1 <1>   0.2610 
 10 C       -2.8830     5.5710     0.6860 C.ar  1 <1>  -0.1440 
 11 C       -3.2770     3.8460    -0.9360 C.ar  1 <1>  -0.1500 
 12 C        0.0480     5.9370    -1.4670 C.2   1 <1>   0.5690 
 13 C       -4.2220     5.9250     0.5980 C.ar  1 <1>  -0.1500 
 14 C       -2.0010     6.3630     1.6430 C.3   1 <1>  -0.0960 
 15 C       -4.6090     4.2050    -1.0150 C.ar  1 <1>  -0.1500 
 16 O       -0.4860     6.5800    -2.3430 O.2   1 <1>  -0.5700 
 17 N        0.8660     6.5390    -0.5550 N.am  1 <1>  -0.5100 
 18 C       -5.0830     5.2490    -0.2460 C.ar  1 <1>  -0.1500 
 19 C        1.4870     7.9010    -0.6100 C.3   1 <1>   0.2250 
 20 C        2.0090     6.0270     0.2710 C.3   1 <1>   0.2250 
 21 C        2.8320     7.2320    -0.2420 C.3   1 <1>   0.1080 
 22 C        3.6420     7.9590     0.8250 C.ar  1 <1>   0.2020 
 23 N        3.0340     8.2700     1.9630 N.ar  1 <1>  -0.6200 
 24 C        4.9700     8.2610     0.5580 C.ar  1 <1>  -0.1500 
 25 C        3.7730     8.9010     2.8620 C.ar  1 <1>   0.1600 
 26 C        5.7290     8.9180     1.5030 C.ar  1 <1>  -0.1500 
 27 C        5.1030     9.2430     2.6860 C.ar  1 <1>  -0.1500 
 28 H        0.2250     2.0820    -2.5670 H     1 <1>   0.0800 
 29 H        1.7020     1.8190    -1.6720 H     1 <1>   0.0800 
 30 H       -0.4140     4.5880     0.7220 H     1 <1>   0.0800 
 31 H       -1.3640     2.8160     2.3070 H     1 <1>   0.0800 
 32 H       -1.3060     1.1600     1.7520 H     1 <1>   0.0800 
 33 H       -2.6480     2.1820     1.2970 H     1 <1>   0.0800 
 34 H       -0.8820     4.1920    -2.2180 H     1 <1>   0.0800 
 35 H       -2.9270     3.0240    -1.5380 H     1 <1>   0.1500 
 36 H       -4.6090     6.7360     1.1890 H     1 <1>   0.1500 
 37 H       -2.5860     7.0550     2.2220 H     1 <1>   0.0800 
 38 H       -1.2730     6.9300     1.0940 H     1 <1>   0.0800 
 39 H       -1.5000     5.7050     2.3290 H     1 <1>   0.0800 
 40 H       -5.2750     3.6740    -1.6720 H     1 <1>   0.1500 
 41 H       -6.1180     5.5350    -0.3040 H     1 <1>   0.1500 
 42 H        1.4680     8.3210    -1.5990 H     1 <1>   0.0000 
 43 H        1.0770     8.5410     0.1510 H     1 <1>   0.0000 
 44 H        1.7650     6.0540     1.3180 H     1 <1>   0.0000 
 45 H        2.3830     5.0800    -0.0680 H     1 <1>   0.0000 
 46 H        3.4050     6.9790    -1.1180 H     1 <1>   0.0000 
 47 H        5.4120     7.9860    -0.3820 H     1 <1>   0.1500 
 48 H        3.2930     9.1610     3.7900 H     1 <1>   0.1500 
 49 H        6.7620     9.1650     1.3250 H     1 <1>   0.1500 
 50 H        5.6360     9.7560     3.4650 H     1 <1>   0.1500 
@<TRIPOS>BOND
  1   1   2  2   
  2   2   3  am  
  3   2   4  1   
  4   3   5  1   
  5   3   6  1   
  6   4   7  1   
  7   4  28  1   
  8   4  29  1   
  9   5   8  1   
 10   5   9  1   
 11   5  30  1   
 12   6  31  1   
 13   6  32  1   
 14   6  33  1   
 15   7   9  1   
 16   8  10  ar  
 17   8  11  ar  
 18   9  12  1   
 19   9  34  1   
 20  10  13  ar  
 21  10  14  1   
 22  11  15  ar  
 23  11  35  1   
 24  12  16  2   
 25  12  17  am  
 26  13  18  ar  
 27  13  36  1   
 28  14  37  1   
 29  14  38  1   
 30  14  39  1   
 31  15  18  ar  
 32  15  40  1   
 33  17  19  1   
 34  17  20  1   
 35  18  41  1   
 36  19  21  1   
 37  19  42  1   
 38  19  43  1   
 39  20  21  1   
 40  20  44  1   
 41  20  45  1   
 42  21  22  1   
 43  21  46  1   
 44  22  23  ar  
 45  22  24  ar  
 46  23  25  ar  
 47  24  26  ar  
 48  24  47  1   
 49  25  27  ar  
 50  25  48  1   
 51  26  27  ar  
 52  26  49  1   
 53  27  50  1   
@<TRIPOS>SUBSTRUCTURE
  1 ****  17 GROUP 4 **** **** 0

# MOE 2024.06 (io_trps.svl 2023.06)
