@<TRIPOS>MOLECULE
NONAME
44 46 1 0 0 
SMALL
USER_CHARGES


@<TRIPOS>ATOM
  1 CL       1.7090     0.2200    -0.1250 Cl    1 <1>  -0.1770 
  2 C        1.1980    -1.4140     0.1990 C.ar  1 <1>   0.1770 
  3 C        0.9330    -2.2660    -0.8510 C.ar  1 <1>  -0.1500 
  4 C        1.0680    -1.8360     1.5090 C.ar  1 <1>  -0.1500 
  5 C        0.5290    -3.5680    -0.6010 C.ar  1 <1>   0.0830 
  6 C        0.6500    -3.1300     1.7590 C.ar  1 <1>  -0.1500 
  7 O        0.3230    -4.3340    -1.6970 O.3   1 <1>  -0.3630 
  8 C        0.3540    -4.0180     0.7210 C.ar  1 <1>   0.0860 
  9 C        0.7930    -5.6670    -1.7500 C.3   1 <1>   0.0400 
 10 C       -0.1450    -5.3310     1.0620 C.2   1 <1>   0.5440 
 11 O        0.6350    -6.1530     1.5070 O.2   1 <1>  -0.5700 
 12 N       -1.4760    -5.6790     0.9140 N.am  1 <1>  -0.6600 
 13 C       -2.5080    -4.6830     0.4920 C.3   1 <1>   0.2200 
 14 C       -1.9190    -7.0740     1.2300 C.3   1 <1>   0.0600 
 15 C       -3.0470    -4.9510    -0.9090 C.3   1 <1>  -0.1600 
 16 C       -3.7500    -4.6540     1.3800 C.3   1 <1>  -0.1600 
 17 C       -4.3660    -4.1690    -0.9650 C.3   1 <1>  -0.0800 
 18 C       -4.8310    -4.0050     0.5040 C.3   1 <1>  -0.0800 
 19 C       -5.3930    -4.7970    -1.9290 C.3   1 <1>   0.1400 
 20 C       -6.2450    -4.5500     0.7870 C.3   1 <1>  -0.0990 
 21 N       -6.7480    -4.3110    -1.5970 N.am  1 <1>  -0.7300 
 22 C       -7.1940    -4.1770    -0.3310 C.2   1 <1>   0.5690 
 23 O       -8.3060    -3.7870    -0.0920 O.2   1 <1>  -0.5700 
 24 H        1.0480    -1.9230    -1.8630 H     1 <1>   0.1500 
 25 H        1.2910    -1.1580     2.3140 H     1 <1>   0.1500 
 26 H        0.5440    -3.4700     2.7750 H     1 <1>   0.1500 
 27 H        0.9880    -5.9130    -2.7780 H     1 <1>   0.0800 
 28 H        0.0360    -6.3230    -1.3600 H     1 <1>   0.0800 
 29 H        1.7000    -5.7500    -1.1760 H     1 <1>   0.0800 
 30 H       -2.0930    -3.6900     0.4980 H     1 <1>   0.0800 
 31 H       -2.7570    -7.3590     0.6210 H     1 <1>   0.0800 
 32 H       -2.1980    -7.1340     2.2670 H     1 <1>   0.0800 
 33 H       -1.1190    -7.7710     1.0490 H     1 <1>   0.0800 
 34 H       -2.3590    -4.6150    -1.6640 H     1 <1>   0.0800 
 35 H       -3.2350    -6.0000    -1.0380 H     1 <1>   0.0800 
 36 H       -4.0550    -5.6490     1.6430 H     1 <1>   0.0800 
 37 H       -3.5750    -4.0870     2.2770 H     1 <1>   0.0800 
 38 H       -4.1420    -3.1830    -1.3390 H     1 <1>   0.0800 
 39 H       -4.8440    -2.9480     0.7140 H     1 <1>   0.0800 
 40 H       -5.3860    -5.8700    -1.8350 H     1 <1>   0.0800 
 41 H       -5.1490    -4.5400    -2.9460 H     1 <1>   0.0800 
 42 H       -6.6150    -4.1590     1.7180 H     1 <1>   0.0800 
 43 H       -6.2320    -5.6220     0.8530 H     1 <1>   0.0800 
 44 H       -7.3980    -4.0920    -2.3550 H     1 <1>   0.3700 
@<TRIPOS>BOND
  1   1   2  1   
  2   2   3  ar  
  3   2   4  ar  
  4   3   5  ar  
  5   3  24  1   
  6   4   6  ar  
  7   4  25  1   
  8   5   7  1   
  9   5   8  ar  
 10   6   8  ar  
 11   6  26  1   
 12   7   9  1   
 13   8  10  1   
 14   9  27  1   
 15   9  28  1   
 16   9  29  1   
 17  10  11  2   
 18  10  12  am  
 19  12  13  1   
 20  12  14  1   
 21  13  15  1   
 22  13  16  1   
 23  13  30  1   
 24  14  31  1   
 25  14  32  1   
 26  14  33  1   
 27  15  17  1   
 28  15  34  1   
 29  15  35  1   
 30  16  18  1   
 31  16  36  1   
 32  16  37  1   
 33  17  18  1   
 34  17  19  1   
 35  17  38  1   
 36  18  20  1   
 37  18  39  1   
 38  19  21  1   
 39  19  40  1   
 40  19  41  1   
 41  20  22  1   
 42  20  42  1   
 43  20  43  1   
 44  21  22  am  
 45  21  44  1   
 46  22  23  2   
@<TRIPOS>SUBSTRUCTURE
  1 ****  13 GROUP 4 **** **** 0

# MOE 2024.06 (io_trps.svl 2023.06)
