@<TRIPOS>MOLECULE
NONAME
55 58 1 0 0 
SMALL
USER_CHARGES


@<TRIPOS>ATOM
  1 O       -0.2200    -0.0270    -0.0690 O.2   1 <1>  -0.5700 
  2 C        0.8240    -0.5890     0.2090 C.2   1 <1>   0.5440 
  3 N        1.8790     0.1950     0.5640 N.am  1 <1>  -0.7300 
  4 C        0.9430    -2.0350     0.1560 C.ar  1 <1>   0.0860 
  5 C        1.9020     1.6660     0.5280 C.3   1 <1>   0.3210 
  6 C       -0.0250    -2.8140    -0.4830 C.ar  1 <1>  -0.1500 
  7 C        2.0180    -2.7160     0.7330 C.ar  1 <1>  -0.1500 
  8 C        3.3470     2.1540     0.6230 C.2   1 <1>   0.1080 
  9 C        0.0640    -4.1920    -0.5550 C.ar  1 <1>  -0.1440 
 10 C        2.1180    -4.0910     0.6670 C.ar  1 <1>  -0.1500 
 11 N        4.3700     1.3600     0.7910 N.2   1 <1>  -0.7070 
 12 C        3.7370     3.4920     0.5420 C.2   1 <1>  -0.1810 
 13 C        1.1490    -4.8510     0.0230 C.ar  1 <1>   0.1000 
 14 C       -1.0230    -4.9850    -1.2670 C.3   1 <1>  -0.0970 
 15 N        5.4360     2.1810     0.8190 N.pl3 1 <1>   0.3000 
 16 C        5.0780     3.4720     0.6710 C.2   1 <1>  -0.3320 
 17 C        2.8590     4.7160     0.3560 C.3   1 <1>   0.0210 
 18 N        1.2660    -6.2310    -0.0350 N.pl3 1 <1>  -0.8380 
 19 C        6.0560     4.6310     0.6600 C.3   1 <1>   0.0200 
 20 C        3.3070     5.5650    -0.8410 C.3   1 <1>  -0.1600 
 21 C        1.0710    -6.9880     1.2340 C.3   1 <1>   0.2090 
 22 C        2.3680    -6.7910    -0.8670 C.3   1 <1>   0.2090 
 23 C        5.8880     5.4990    -0.5930 C.3   1 <1>  -0.1600 
 24 C        4.6080     6.3540    -0.6080 C.3   1 <1>  -0.1600 
 25 C        0.9810    -8.5000     0.9580 C.3   1 <1>   0.1200 
 26 C        2.2070    -8.3140    -1.0310 C.3   1 <1>   0.1200 
 27 O        2.0850    -8.9430     0.2160 O.3   1 <1>  -0.5600 
 28 H        2.8330    -0.1720     0.6590 H     1 <1>   0.3700 
 29 H        1.3320     2.0490     1.3550 H     1 <1>   0.0800 
 30 H        1.4610     2.0080    -0.3920 H     1 <1>   0.0800 
 31 H       -0.8650    -2.3120    -0.9300 H     1 <1>   0.1500 
 32 H        2.7850    -2.1660     1.2460 H     1 <1>   0.1500 
 33 H        2.9540    -4.5910     1.1180 H     1 <1>   0.1500 
 34 H       -1.7850    -4.3380    -1.6600 H     1 <1>   0.0800 
 35 H       -1.4760    -5.6750    -0.5790 H     1 <1>   0.0800 
 36 H       -0.5910    -5.5430    -2.0780 H     1 <1>   0.0800 
 37 H        6.3940     1.8310     0.9390 H     1 <1>   0.2700 
 38 H        2.8790     5.3070     1.2540 H     1 <1>   0.0800 
 39 H        1.8430     4.4070     0.1930 H     1 <1>   0.0800 
 40 H        7.0610     4.2490     0.6820 H     1 <1>   0.0800 
 41 H        5.9140     5.2290     1.5440 H     1 <1>   0.0800 
 42 H        2.5260     6.2740    -1.0530 H     1 <1>   0.0800 
 43 H        3.4120     4.9350    -1.7080 H     1 <1>   0.0800 
 44 H        0.1660    -6.6530     1.7110 H     1 <1>   0.0800 
 45 H        1.8940    -6.7970     1.8990 H     1 <1>   0.0800 
 46 H        3.3150    -6.5830    -0.4020 H     1 <1>   0.0800 
 47 H        2.3570    -6.3200    -1.8350 H     1 <1>   0.0800 
 48 H        5.9180     4.8730    -1.4690 H     1 <1>   0.0800 
 49 H        6.7310     6.1660    -0.6470 H     1 <1>   0.0800 
 50 H        4.5350     6.9190     0.3050 H     1 <1>   0.0800 
 51 H        4.7040     7.0650    -1.4110 H     1 <1>   0.0800 
 52 H        0.0840    -8.7250     0.4080 H     1 <1>   0.0800 
 53 H        0.9660    -9.0460     1.8840 H     1 <1>   0.0800 
 54 H        3.0670    -8.7270    -1.5250 H     1 <1>   0.0800 
 55 H        1.3310    -8.5350    -1.6150 H     1 <1>   0.0800 
@<TRIPOS>BOND
  1   1   2  2   
  2   2   3  am  
  3   2   4  1   
  4   3   5  1   
  5   3  28  1   
  6   4   6  ar  
  7   4   7  ar  
  8   5   8  1   
  9   5  29  1   
 10   5  30  1   
 11   6   9  ar  
 12   6  31  1   
 13   7  10  ar  
 14   7  32  1   
 15   8  11  2   
 16   8  12  1   
 17   9  13  ar  
 18   9  14  1   
 19  10  13  ar  
 20  10  33  1   
 21  11  15  1   
 22  12  16  2   
 23  12  17  1   
 24  13  18  1   
 25  14  34  1   
 26  14  35  1   
 27  14  36  1   
 28  15  16  1   
 29  15  37  1   
 30  16  19  1   
 31  17  20  1   
 32  17  38  1   
 33  17  39  1   
 34  18  21  1   
 35  18  22  1   
 36  19  23  1   
 37  19  40  1   
 38  19  41  1   
 39  20  24  1   
 40  20  42  1   
 41  20  43  1   
 42  21  25  1   
 43  21  44  1   
 44  21  45  1   
 45  22  26  1   
 46  22  46  1   
 47  22  47  1   
 48  23  24  1   
 49  23  48  1   
 50  23  49  1   
 51  24  50  1   
 52  24  51  1   
 53  25  27  1   
 54  25  52  1   
 55  25  53  1   
 56  26  27  1   
 57  26  54  1   
 58  26  55  1   
@<TRIPOS>SUBSTRUCTURE
  1 ****   3 GROUP 4 **** **** 0

# MOE 2024.06 (io_trps.svl 2023.06)
