@<TRIPOS>MOLECULE
NONAME
46 47 1 0 0 
SMALL
USER_CHARGES


@<TRIPOS>ATOM
  1 O       -0.4160     1.6070    -1.9140 O.3   1 <1>  -0.3630 
  2 C        0.5830     1.7570    -1.0210 C.ar  1 <1>   0.0820 
  3 C       -1.6050     0.9210    -1.5870 C.3   1 <1>   0.0400 
  4 C        1.7220     2.4140    -1.4330 C.ar  1 <1>  -0.1500 
  5 C        0.5570     1.3020     0.2850 C.ar  1 <1>  -0.1500 
  6 C        2.7660     2.5910    -0.5430 C.ar  1 <1>   0.1660 
  7 C        1.6520     1.5300     1.0960 C.ar  1 <1>   0.1600 
  8 N        2.7530     2.1680     0.7190 N.ar  1 <1>  -0.6200 
  9 C        4.0240     3.3260    -0.9930 C.3   1 <1>   0.4870 
 10 N        4.5030     4.2030     0.1240 N.4   1 <1>  -0.9590 
 11 C        5.9260     4.6380    -0.0160 C.3   1 <1>   0.5610 
 12 C        3.5570     5.3550     0.3220 C.3   1 <1>   0.4230 
 13 C        5.9930     5.6810    -1.1220 C.2   1 <1>  -0.2880 
 14 C        6.8860     3.4580    -0.2560 C.3   1 <1>  -0.0220 
 15 C        3.5720     6.3080    -0.8990 C.3   1 <1>  -0.0220 
 16 C        3.8720     6.0900     1.6390 C.3   1 <1>  -0.0220 
 17 C        4.9560     6.4240    -1.5250 C.2   1 <1>  -0.2880 
 18 C        8.3500     3.7860     0.0190 C.2   1 <1>  -0.2880 
 19 C        2.7300     7.0090     2.0440 C.2   1 <1>  -0.2880 
 20 C        8.8660     4.9340     0.4750 C.2   1 <1>  -0.3000 
 21 C        2.8220     8.3380     2.1370 C.2   1 <1>  -0.3000 
 22 H       -2.2410     0.9200    -2.4540 H     1 <1>   0.0800 
 23 H       -2.0940     1.4330    -0.7770 H     1 <1>   0.0800 
 24 H       -1.3620    -0.0910    -1.3130 H     1 <1>   0.0800 
 25 H        1.7700     2.7730    -2.4450 H     1 <1>   0.1500 
 26 H       -0.2910     0.7770     0.6820 H     1 <1>   0.1500 
 27 H        1.6200     1.1670     2.1120 H     1 <1>   0.1500 
 28 H        3.8310     3.9060    -1.8790 H     1 <1>   0.0800 
 29 H        4.7660     2.5830    -1.2280 H     1 <1>   0.0800 
 30 H        4.4040     3.5950     0.9510 H     1 <1>   0.4500 
 31 H        6.2330     5.1080     0.9040 H     1 <1>   0.0800 
 32 H        2.5580     4.9630     0.4230 H     1 <1>   0.0800 
 33 H        6.9780     5.7830    -1.5490 H     1 <1>   0.1500 
 34 H        6.6130     2.6430     0.3910 H     1 <1>   0.0800 
 35 H        6.8080     3.1290    -1.2770 H     1 <1>   0.0800 
 36 H        2.8800     5.9460    -1.6380 H     1 <1>   0.0800 
 37 H        3.2260     7.2840    -0.6080 H     1 <1>   0.0800 
 38 H        4.0150     5.3760     2.4300 H     1 <1>   0.0800 
 39 H        4.7710     6.6720     1.5340 H     1 <1>   0.0800 
 40 H        5.0190     7.1600    -2.3120 H     1 <1>   0.1500 
 41 H        8.9920     2.9450    -0.1980 H     1 <1>   0.1500 
 42 H        1.8130     6.4840     2.2650 H     1 <1>   0.1500 
 43 H        9.9220     5.0730     0.6420 H     1 <1>   0.1500 
 44 H        8.3220     5.8280     0.7230 H     1 <1>   0.1500 
 45 H        2.0040     8.9760     2.4310 H     1 <1>   0.1500 
 46 H        3.7120     8.9100     1.9350 H     1 <1>   0.1500 
@<TRIPOS>BOND
  1   1   2  1   
  2   1   3  1   
  3   2   4  ar  
  4   2   5  ar  
  5   3  22  1   
  6   3  23  1   
  7   3  24  1   
  8   4   6  ar  
  9   4  25  1   
 10   5   7  ar  
 11   5  26  1   
 12   6   8  ar  
 13   6   9  1   
 14   7   8  ar  
 15   7  27  1   
 16   9  10  1   
 17   9  28  1   
 18   9  29  1   
 19  10  11  1   
 20  10  12  1   
 21  10  30  1   
 22  11  13  1   
 23  11  14  1   
 24  11  31  1   
 25  12  15  1   
 26  12  16  1   
 27  12  32  1   
 28  13  17  2   
 29  13  33  1   
 30  14  18  1   
 31  14  34  1   
 32  14  35  1   
 33  15  17  1   
 34  15  36  1   
 35  15  37  1   
 36  16  19  1   
 37  16  38  1   
 38  16  39  1   
 39  17  40  1   
 40  18  20  2   
 41  18  41  1   
 42  19  21  2   
 43  19  42  1   
 44  20  43  1   
 45  20  44  1   
 46  21  45  1   
 47  21  46  1   
@<TRIPOS>SUBSTRUCTURE
  1 ****  10 GROUP 4 **** **** 0

# MOE 2024.06 (io_trps.svl 2023.06)
