@<TRIPOS>MOLECULE
NONAME
42 44 1 0 0 
SMALL
USER_CHARGES


@<TRIPOS>ATOM
  1 S        1.6150    -0.3840    -0.0750 S.3   1 <1>  -0.2860 
  2 C        0.0750    -1.2880    -0.1530 C.2   1 <1>   0.5340 
  3 C        1.7020     0.3970    -1.7560 C.3   1 <1>   0.1310 
  4 O       -0.2860    -2.0030     0.8560 O.3   1 <1>  -0.2800 
  5 N       -0.7440    -1.2960    -1.1300 N.2   1 <1>  -0.3380 
  6 C        2.9280     1.2910    -1.8350 C.2   1 <1>   0.5690 
  7 C       -1.4180    -2.4890     0.4520 C.2   1 <1>   0.2980 
  8 N       -1.7350    -2.0960    -0.7260 N.2   1 <1>  -0.3380 
  9 O        3.9950     0.7980    -2.1160 O.2   1 <1>  -0.5700 
 10 N        2.8700     2.6150    -1.4890 N.am  1 <1>  -0.6600 
 11 C       -2.2020    -3.4140     1.3530 C.3   1 <1>  -0.0600 
 12 C        2.4260     2.9530    -0.0890 C.3   1 <1>   0.2200 
 13 C        3.7980     3.5780    -2.1720 C.3   1 <1>   0.1400 
 14 C        2.0560     4.4330     0.1070 C.3   1 <1>   0.1200 
 15 C        3.5180     2.5160     0.9280 C.3   1 <1>   0.3430 
 16 C        4.7170     4.3830    -1.2310 C.3   1 <1>  -0.0800 
 17 O        3.1830     5.1820     0.4520 O.3   1 <1>  -0.5600 
 18 N        4.8710     2.3110     0.2870 N.4   1 <1>  -0.9590 
 19 C        3.9890     5.5810    -0.6030 C.3   1 <1>   0.1200 
 20 C        5.5190     3.5760    -0.1840 C.3   1 <1>   0.3430 
 21 C        5.7780     1.5190     1.1640 C.3   1 <1>   0.2630 
 22 H        1.7650    -0.3990    -2.4760 H     1 <1>   0.0800 
 23 H        0.7990     0.9590    -1.9060 H     1 <1>   0.0800 
 24 H       -3.1090    -3.7190     0.8640 H     1 <1>   0.0800 
 25 H       -2.4500    -2.9070     2.2670 H     1 <1>   0.0800 
 26 H       -1.6150    -4.2850     1.5790 H     1 <1>   0.0800 
 27 H        1.5290     2.4010     0.1240 H     1 <1>   0.0800 
 28 H        4.4170     3.0420    -2.8740 H     1 <1>   0.0800 
 29 H        3.2040     4.2610    -2.7560 H     1 <1>   0.0800 
 30 H        1.3730     4.5180     0.9350 H     1 <1>   0.0800 
 31 H        1.5790     4.8510    -0.7640 H     1 <1>   0.0800 
 32 H        3.1980     1.5870     1.3700 H     1 <1>   0.0800 
 33 H        3.5870     3.2420     1.7200 H     1 <1>   0.0800 
 34 H        5.4530     4.8340    -1.8720 H     1 <1>   0.0800 
 35 H        4.6850     1.7540    -0.5760 H     1 <1>   0.4500 
 36 H        3.3870     6.1090    -1.3260 H     1 <1>   0.0800 
 37 H        4.7070     6.2760    -0.2000 H     1 <1>   0.0800 
 38 H        5.7220     4.2110     0.6620 H     1 <1>   0.0800 
 39 H        6.4670     3.3180    -0.6280 H     1 <1>   0.0800 
 40 H        5.9910     2.0610     2.0710 H     1 <1>   0.0800 
 41 H        6.7060     1.3170     0.6540 H     1 <1>   0.0800 
 42 H        5.3200     0.5780     1.4200 H     1 <1>   0.0800 
@<TRIPOS>BOND
  1   1   2  1   
  2   1   3  1   
  3   2   4  1   
  4   2   5  2   
  5   3   6  1   
  6   3  22  1   
  7   3  23  1   
  8   4   7  1   
  9   5   8  1   
 10   6   9  2   
 11   6  10  am  
 12   7   8  2   
 13   7  11  1   
 14  10  12  1   
 15  10  13  1   
 16  11  24  1   
 17  11  25  1   
 18  11  26  1   
 19  12  14  1   
 20  12  15  1   
 21  12  27  1   
 22  13  16  1   
 23  13  28  1   
 24  13  29  1   
 25  14  17  1   
 26  14  30  1   
 27  14  31  1   
 28  15  18  1   
 29  15  32  1   
 30  15  33  1   
 31  16  19  1   
 32  16  20  1   
 33  16  34  1   
 34  17  19  1   
 35  18  20  1   
 36  18  21  1   
 37  18  35  1   
 38  19  36  1   
 39  19  37  1   
 40  20  38  1   
 41  20  39  1   
 42  21  40  1   
 43  21  41  1   
 44  21  42  1   
@<TRIPOS>SUBSTRUCTURE
  1 ****   6 GROUP 4 **** **** 0

# MOE 2024.06 (io_trps.svl 2023.06)
