@<TRIPOS>MOLECULE
NONAME
38 40 1 0 0 
SMALL
USER_CHARGES


@<TRIPOS>ATOM
  1 S       -0.0060     0.3070     1.0420 S.3   1 <1>  -0.0800 
  2 C        1.3680    -0.5540     0.3700 C.2   1 <1>   0.0960 
  3 C       -1.1010    -0.9210     0.4200 C.2   1 <1>  -0.1100 
  4 S        3.0040     0.1410     0.6360 S.3   1 <1>  -0.1570 
  5 C        0.9960    -1.6820    -0.2600 C.2   1 <1>  -0.1500 
  6 C       -0.4220    -1.8850    -0.2340 C.2   1 <1>  -0.1500 
  7 C        2.9410     1.8680     0.1860 C.ar  1 <1>   0.4630 
  8 N        1.8350     2.3410    -0.4140 N.ar  1 <1>  -0.1790 
  9 C        3.9820     2.7020     0.4160 C.ar  1 <1>  -0.1500 
 10 C        1.7700     3.6330    -0.7680 C.ar  1 <1>   0.7710 
 11 C        3.8480     4.0360     0.0150 C.ar  1 <1>   0.4100 
 12 N        2.7510     4.4860    -0.5690 N.ar  1 <1>  -0.6200 
 13 N        0.6750     4.1120    -1.3520 N.pl3 1 <1>  -0.9000 
 14 N        4.8650     4.8940     0.2200 N.pl3 1 <1>  -0.8690 
 15 C        4.9560     6.3040    -0.2760 C.3   1 <1>   0.2890 
 16 C        6.2300     6.9930     0.1820 C.3   1 <1>   0.2000 
 17 C        3.8840     7.2440     0.2780 C.3   1 <1>   0.1200 
 18 O        7.2970     6.6660    -0.6640 O.3   1 <1>  -0.5600 
 19 C        5.8360     8.4640     0.1160 C.3   1 <1>   0.1200 
 20 O        4.4720     8.5090     0.4170 O.3   1 <1>  -0.5600 
 21 C        8.5480     7.1010    -0.2280 C.3   1 <1>   0.0400 
 22 H       -2.1540    -0.7970     0.6150 H     1 <1>   0.1500 
 23 H        1.6540    -2.3880    -0.7370 H     1 <1>   0.1500 
 24 H       -0.8640    -2.7510    -0.7000 H     1 <1>   0.1500 
 25 H        1.0360     1.7390    -0.5800 H     1 <1>   0.4570 
 26 H        4.8890     2.3730     0.8870 H     1 <1>   0.1500 
 27 H       -0.1900     3.6250    -1.5930 H     1 <1>   0.4000 
 28 H        0.6710     5.1050    -1.6080 H     1 <1>   0.4000 
 29 H        5.7840     4.5420     0.5060 H     1 <1>   0.4000 
 30 H        4.9060     6.3180    -1.3510 H     1 <1>   0.0800 
 31 H        6.4680     6.7170     1.1940 H     1 <1>   0.0800 
 32 H        3.5600     6.9250     1.2530 H     1 <1>   0.0800 
 33 H        3.0440     7.3240    -0.3890 H     1 <1>   0.0800 
 34 H        5.9660     8.8520    -0.8790 H     1 <1>   0.0800 
 35 H        6.3690     9.0630     0.8330 H     1 <1>   0.0800 
 36 H        9.2840     6.7630    -0.9360 H     1 <1>   0.0800 
 37 H        8.7570     6.6780     0.7390 H     1 <1>   0.0800 
 38 H        8.5610     8.1770    -0.1840 H     1 <1>   0.0800 
@<TRIPOS>BOND
  1   1   2  1   
  2   1   3  1   
  3   2   4  1   
  4   2   5  2   
  5   3   6  2   
  6   3  22  1   
  7   4   7  1   
  8   5   6  1   
  9   5  23  1   
 10   6  24  1   
 11   7   8  ar  
 12   7   9  ar  
 13   8  10  ar  
 14   8  25  1   
 15   9  11  ar  
 16   9  26  1   
 17  10  12  ar  
 18  10  13  1   
 19  11  12  ar  
 20  11  14  1   
 21  13  27  1   
 22  13  28  1   
 23  14  15  1   
 24  14  29  1   
 25  15  16  1   
 26  15  17  1   
 27  15  30  1   
 28  16  18  1   
 29  16  19  1   
 30  16  31  1   
 31  17  20  1   
 32  17  32  1   
 33  17  33  1   
 34  18  21  1   
 35  19  20  1   
 36  19  34  1   
 37  19  35  1   
 38  21  36  1   
 39  21  37  1   
 40  21  38  1   
@<TRIPOS>SUBSTRUCTURE
  1 ****  11 GROUP 4 **** **** 0

# MOE 2024.06 (io_trps.svl 2023.06)
