@<TRIPOS>MOLECULE
NONAME
42 44 1 0 0 
SMALL
USER_CHARGES


@<TRIPOS>ATOM
  1 O        0.0880     0.8180    -0.2240 O.2   1 <1>  -0.5700 
  2 C        0.8960     1.7210    -0.0900 C.2   1 <1>   0.6900 
  3 N        0.6200     2.9850     0.2780 N.am  1 <1>  -0.5390 
  4 N        2.2280     1.6130    -0.2770 N.am  1 <1>  -0.5390 
  5 C        1.8150     3.7190     0.3420 C.2   1 <1>   0.1230 
  6 C        2.7930     2.8410     0.0000 C.2   1 <1>  -0.0410 
  7 C        1.8520     5.1150     0.7340 C.2   1 <1>   0.6160 
  8 O        0.9180     5.5650     1.3760 O.2   1 <1>  -0.5700 
  9 N        2.8950     5.9670     0.4130 N.am  1 <1>  -0.6600 
 10 C        3.0460     7.2750     1.1310 C.3   1 <1>   0.1400 
 11 C        3.6850     5.8300    -0.8400 C.3   1 <1>   0.1400 
 12 C        4.4940     7.5830     1.5410 C.3   1 <1>   0.2090 
 13 C        5.1560     5.5560    -0.5110 C.3   1 <1>  -0.1600 
 14 N        5.3470     7.9380     0.3600 N.pl3 1 <1>  -0.8380 
 15 C        6.0190     6.8160    -0.3570 C.3   1 <1>   0.2090 
 16 C        5.7780     9.2110     0.1760 C.ar  1 <1>   0.1000 
 17 C        5.3970     9.9990    -0.9260 C.ar  1 <1>  -0.1430 
 18 C        6.6490     9.7850     1.1090 C.ar  1 <1>  -0.1500 
 19 C        5.8880    11.2760    -1.0530 C.ar  1 <1>   0.2110 
 20 C        4.4290     9.4490    -1.9690 C.3   1 <1>  -0.0970 
 21 C        7.1160    11.0620     0.9470 C.ar  1 <1>   0.2110 
 22 N        6.7360    11.7940    -0.1280 N.ar  1 <1>  -0.1790 
 23 H       -0.3020     3.3190     0.5580 H     1 <1>   0.3700 
 24 H        2.6580     0.7260    -0.5400 H     1 <1>   0.3700 
 25 H        3.8560     3.0030    -0.0550 H     1 <1>   0.1500 
 26 H        2.4530     7.2590     2.0290 H     1 <1>   0.0800 
 27 H        2.6700     8.0690     0.5120 H     1 <1>   0.0800 
 28 H        3.5930     6.7260    -1.4270 H     1 <1>   0.0800 
 29 H        3.2910     5.0230    -1.4330 H     1 <1>   0.0800 
 30 H        4.9110     6.7450     2.0720 H     1 <1>   0.0800 
 31 H        4.4720     8.4190     2.2180 H     1 <1>   0.0800 
 32 H        5.5810     4.9780    -1.3100 H     1 <1>   0.0800 
 33 H        5.2280     4.9570     0.3790 H     1 <1>   0.0800 
 34 H        6.3070     7.1600    -1.3350 H     1 <1>   0.0800 
 35 H        6.9230     6.5580     0.1690 H     1 <1>   0.0800 
 36 H        6.9480     9.1930     1.9560 H     1 <1>   0.1500 
 37 H        5.6070    11.8940    -1.8900 H     1 <1>   0.1500 
 38 H        3.5270     9.1140    -1.4880 H     1 <1>   0.0800 
 39 H        4.8710     8.6170    -2.4840 H     1 <1>   0.0800 
 40 H        4.1630    10.1950    -2.6970 H     1 <1>   0.0800 
 41 H        7.7890    11.5020     1.6660 H     1 <1>   0.1500 
 42 H        7.0900    12.7490    -0.2450 H     1 <1>   0.4570 
@<TRIPOS>BOND
  1   1   2  2   
  2   2   3  am  
  3   2   4  am  
  4   3   5  1   
  5   3  23  1   
  6   4   6  1   
  7   4  24  1   
  8   5   6  2   
  9   5   7  1   
 10   6  25  1   
 11   7   8  2   
 12   7   9  am  
 13   9  10  1   
 14   9  11  1   
 15  10  12  1   
 16  10  26  1   
 17  10  27  1   
 18  11  13  1   
 19  11  28  1   
 20  11  29  1   
 21  12  14  1   
 22  12  30  1   
 23  12  31  1   
 24  13  15  1   
 25  13  32  1   
 26  13  33  1   
 27  14  15  1   
 28  14  16  1   
 29  15  34  1   
 30  15  35  1   
 31  16  17  ar  
 32  16  18  ar  
 33  17  19  ar  
 34  17  20  1   
 35  18  21  ar  
 36  18  36  1   
 37  19  22  ar  
 38  19  37  1   
 39  20  38  1   
 40  20  39  1   
 41  20  40  1   
 42  21  22  ar  
 43  21  41  1   
 44  22  42  1   
@<TRIPOS>SUBSTRUCTURE
  1 ****   9 GROUP 4 **** **** 0

# MOE 2024.06 (io_trps.svl 2023.06)
