@<TRIPOS>MOLECULE
NONAME
50 53 1 0 0 
SMALL
USER_CHARGES


@<TRIPOS>ATOM
  1 F       -0.5260    -0.5250     0.3410 F     1 <1>  -0.3400 
  2 C       -1.6410    -1.0090    -0.1890 C.3   1 <1>   1.2400 
  3 F       -2.0300    -0.1760    -1.1430 F     1 <1>  -0.3400 
  4 O       -1.4010    -2.2970    -0.7370 O.3   1 <1>  -0.3630 
  5 O       -2.6480    -1.1150     0.8060 O.3   1 <1>  -0.3630 
  6 C       -2.2280    -3.1160    -0.0760 C.ar  1 <1>   0.0820 
  7 C       -2.9670    -2.4160     0.8390 C.ar  1 <1>   0.0820 
  8 C       -2.3740    -4.4810    -0.2300 C.ar  1 <1>  -0.1500 
  9 C       -3.8910    -3.0470     1.6460 C.ar  1 <1>  -0.1500 
 10 C       -3.2980    -5.1420     0.5750 C.ar  1 <1>  -0.1440 
 11 C       -4.0490    -4.4200     1.5070 C.ar  1 <1>  -0.1500 
 12 C       -3.4740    -6.6480     0.4370 C.3   1 <1>   0.4870 
 13 N       -4.8890    -6.9830     0.1870 N.4   1 <1>  -0.9590 
 14 C       -5.1850    -8.4620     0.2040 C.3   1 <1>   0.3430 
 15 C       -5.5370    -6.2850    -0.9510 C.3   1 <1>   0.3430 
 16 C       -6.6120    -8.7970    -0.3080 C.3   1 <1>   0.2000 
 17 C       -7.0670    -6.3650    -0.7980 C.3   1 <1>  -0.1600 
 18 O       -6.5470    -9.0370    -1.6830 O.3   1 <1>  -0.6800 
 19 C       -7.5750    -7.6240    -0.0180 C.3   1 <1>  -0.1060 
 20 C       -7.4680    -7.4520     1.5050 C.2   1 <1>   0.9060 
 21 C       -9.0380    -7.9630    -0.4030 C.3   1 <1>  -0.0160 
 22 O       -7.8050    -8.3970     2.2170 O.co2 1 <1>  -0.9000 
 23 O       -6.8260    -6.4970     1.9690 O.co2 1 <1>  -0.9000 
 24 C       -9.9870    -6.7780    -0.2630 C.ar  1 <1>  -0.1440 
 25 C      -10.4380    -6.3890     0.9890 C.ar  1 <1>  -0.1500 
 26 C      -10.4130    -6.0780    -1.3830 C.ar  1 <1>  -0.1500 
 27 C      -11.2950    -5.3110     1.1220 C.ar  1 <1>  -0.1500 
 28 C      -11.2710    -5.0000    -1.2520 C.ar  1 <1>  -0.1500 
 29 C      -11.7120    -4.6140     0.0020 C.ar  1 <1>  -0.1500 
 30 H       -1.7730    -4.9960    -0.9600 H     1 <1>   0.1500 
 31 H       -4.4700    -2.4880     2.3610 H     1 <1>   0.1500 
 32 H       -4.7710    -4.9200     2.1380 H     1 <1>   0.1500 
 33 H       -3.1490    -7.1230     1.3480 H     1 <1>   0.0800 
 34 H       -2.8670    -7.0130    -0.3750 H     1 <1>   0.0800 
 35 H       -5.4280    -6.6120     1.0140 H     1 <1>   0.4500 
 36 H       -4.4700    -9.0020    -0.3930 H     1 <1>   0.0800 
 37 H       -5.1110    -8.8090     1.2220 H     1 <1>   0.0800 
 38 H       -5.2370    -5.2500    -0.9840 H     1 <1>   0.0800 
 39 H       -5.2430    -6.7610    -1.8720 H     1 <1>   0.0800 
 40 H       -6.9550    -9.7030     0.1640 H     1 <1>   0.0800 
 41 H       -7.4200    -5.4740    -0.3080 H     1 <1>   0.0800 
 42 H       -7.4840    -6.3550    -1.7880 H     1 <1>   0.0800 
 43 H       -7.4140    -9.3590    -2.0030 H     1 <1>   0.4000 
 44 H       -9.0800    -8.3100    -1.4190 H     1 <1>   0.0800 
 45 H       -9.3990    -8.7680     0.2160 H     1 <1>   0.0800 
 46 H      -10.1200    -6.9240     1.8700 H     1 <1>   0.1500 
 47 H      -10.0790    -6.3670    -2.3630 H     1 <1>   0.1500 
 48 H      -11.6320    -5.0170     2.1000 H     1 <1>   0.1500 
 49 H      -11.5960    -4.4610    -2.1240 H     1 <1>   0.1500 
 50 H      -12.3770    -3.7760     0.1070 H     1 <1>   0.1500 
@<TRIPOS>BOND
  1   1   2  1   
  2   2   3  1   
  3   2   4  1   
  4   2   5  1   
  5   4   6  1   
  6   5   7  1   
  7   6   7  ar  
  8   6   8  ar  
  9   7   9  ar  
 10   8  10  ar  
 11   8  30  1   
 12   9  11  ar  
 13   9  31  1   
 14  10  11  ar  
 15  10  12  1   
 16  11  32  1   
 17  12  13  1   
 18  12  33  1   
 19  12  34  1   
 20  13  14  1   
 21  13  15  1   
 22  13  35  1   
 23  14  16  1   
 24  14  36  1   
 25  14  37  1   
 26  15  17  1   
 27  15  38  1   
 28  15  39  1   
 29  16  18  1   
 30  16  19  1   
 31  16  40  1   
 32  17  19  1   
 33  17  41  1   
 34  17  42  1   
 35  18  43  1   
 36  19  20  1   
 37  19  21  1   
 38  20  22  ar  
 39  20  23  ar  
 40  21  24  1   
 41  21  44  1   
 42  21  45  1   
 43  24  25  ar  
 44  24  26  ar  
 45  25  27  ar  
 46  25  46  1   
 47  26  28  ar  
 48  26  47  1   
 49  27  29  ar  
 50  27  48  1   
 51  28  29  ar  
 52  28  49  1   
 53  29  50  1   
@<TRIPOS>SUBSTRUCTURE
  1 ****  15 GROUP 4 **** **** 0

# MOE 2024.06 (io_trps.svl 2023.06)
