@<TRIPOS>MOLECULE
NONAME
48 50 1 0 0 
SMALL
USER_CHARGES


@<TRIPOS>ATOM
  1 O       -2.7860     1.2600    -2.1550 O.2   1 <1>  -0.5700 
  2 C       -2.2580     1.0860    -1.0850 C.2   1 <1>   0.5690 
  3 N       -1.9040    -0.1480    -0.6550 N.am  1 <1>  -0.7300 
  4 C       -1.9900     2.2770    -0.1940 C.3   1 <1>  -0.0990 
  5 C       -2.0800    -1.3970    -1.4330 C.3   1 <1>   0.2200 
  6 C       -0.8250     3.1110    -0.7320 C.3   1 <1>   0.0210 
  7 C       -3.2460    -2.2210    -0.9030 C.3   1 <1>  -0.0800 
  8 C       -0.9190    -2.3330    -1.1280 C.3   1 <1>   0.1200 
  9 C       -0.5760     4.3020     0.1770 C.2   1 <1>  -0.1810 
 10 C       -2.6170    -3.0110     0.2510 C.3   1 <1>   0.1200 
 11 C       -4.5110    -1.4310    -0.5170 C.3   1 <1>  -0.0170 
 12 O       -1.2300    -2.9020     0.1070 O.3   1 <1>  -0.5600 
 13 C        0.3090     4.3650     1.2520 C.2   1 <1>   0.1080 
 14 C       -1.1530     5.5230     0.1340 C.2   1 <1>  -0.3320 
 15 C       -5.6300    -2.3700    -0.0970 C.ar  1 <1>  -0.1440 
 16 N        0.2920     5.5210     1.8340 N.2   1 <1>  -0.7070 
 17 C        1.2120     3.2480     1.7250 C.3   1 <1>  -0.0590 
 18 N       -0.6100     6.2370     1.1420 N.pl3 1 <1>   0.3000 
 19 C       -2.2060     6.0810    -0.8080 C.3   1 <1>  -0.0600 
 20 C       -6.4230    -3.0130    -1.0260 C.ar  1 <1>  -0.1500 
 21 C       -5.9110    -2.6310     1.2290 C.ar  1 <1>  -0.1500 
 22 C       -7.4260    -3.8660    -0.5960 C.ar  1 <1>   0.1600 
 23 C       -6.9390    -3.5020     1.5520 C.ar  1 <1>   0.1600 
 24 N       -7.7020    -4.1280     0.6710 N.ar  1 <1>  -0.6200 
 25 H       -1.4880    -0.2910     0.2680 H     1 <1>   0.3700 
 26 H       -2.8760     2.8840    -0.1590 H     1 <1>   0.0800 
 27 H       -1.7730     1.9480     0.8050 H     1 <1>   0.0800 
 28 H       -2.1670    -1.1810    -2.4850 H     1 <1>   0.0800 
 29 H       -1.0580     3.4580    -1.7230 H     1 <1>   0.0800 
 30 H        0.0630     2.5090    -0.7990 H     1 <1>   0.0800 
 31 H       -3.5170    -2.9310    -1.6650 H     1 <1>   0.0800 
 32 H        0.0260    -1.8220    -1.0680 H     1 <1>   0.0800 
 33 H       -0.8650    -3.1250    -1.8540 H     1 <1>   0.0800 
 34 H       -2.8930    -4.0510     0.2180 H     1 <1>   0.0800 
 35 H       -2.8780    -2.5960     1.2080 H     1 <1>   0.0800 
 36 H       -4.8350    -0.8440    -1.3600 H     1 <1>   0.0800 
 37 H       -4.2990    -0.7490     0.2870 H     1 <1>   0.0800 
 38 H        0.6560     2.3330     1.8080 H     1 <1>   0.0800 
 39 H        1.6200     3.4950     2.6880 H     1 <1>   0.0800 
 40 H        2.0190     3.1180     1.0290 H     1 <1>   0.0800 
 41 H       -0.8330     7.2100     1.3820 H     1 <1>   0.2700 
 42 H       -2.5250     5.3310    -1.5100 H     1 <1>   0.0800 
 43 H       -1.8070     6.9140    -1.3580 H     1 <1>   0.0800 
 44 H       -3.0660     6.4080    -0.2500 H     1 <1>   0.0800 
 45 H       -6.2710    -2.8590    -2.0780 H     1 <1>   0.1500 
 46 H       -5.3450    -2.1660     2.0150 H     1 <1>   0.1500 
 47 H       -8.0350    -4.3580    -1.3350 H     1 <1>   0.1500 
 48 H       -7.1440    -3.6930     2.5920 H     1 <1>   0.1500 
@<TRIPOS>BOND
  1   1   2  2   
  2   2   3  am  
  3   2   4  1   
  4   3   5  1   
  5   3  25  1   
  6   4   6  1   
  7   4  26  1   
  8   4  27  1   
  9   5   7  1   
 10   5   8  1   
 11   5  28  1   
 12   6   9  1   
 13   6  29  1   
 14   6  30  1   
 15   7  10  1   
 16   7  11  1   
 17   7  31  1   
 18   8  12  1   
 19   8  32  1   
 20   8  33  1   
 21   9  13  1   
 22   9  14  2   
 23  10  12  1   
 24  10  34  1   
 25  10  35  1   
 26  11  15  1   
 27  11  36  1   
 28  11  37  1   
 29  13  16  2   
 30  13  17  1   
 31  14  18  1   
 32  14  19  1   
 33  15  20  ar  
 34  15  21  ar  
 35  16  18  1   
 36  17  38  1   
 37  17  39  1   
 38  17  40  1   
 39  18  41  1   
 40  19  42  1   
 41  19  43  1   
 42  19  44  1   
 43  20  22  ar  
 44  20  45  1   
 45  21  23  ar  
 46  21  46  1   
 47  22  24  ar  
 48  22  47  1   
 49  23  24  ar  
 50  23  48  1   
@<TRIPOS>SUBSTRUCTURE
  1 ****   3 GROUP 4 **** **** 0

# MOE 2024.06 (io_trps.svl 2023.06)
