@<TRIPOS>MOLECULE
NONAME
45 47 1 0 0 
SMALL
USER_CHARGES


@<TRIPOS>ATOM
  1 F       -1.2420    -1.5090     2.8660 F     1 <1>  -0.1900 
  2 C       -2.0950    -1.5850     1.8790 C.ar  1 <1>   0.1900 
  3 C       -2.1470    -2.7440     1.1300 C.ar  1 <1>  -0.1500 
  4 C       -2.9140    -0.5020     1.6270 C.ar  1 <1>  -0.1500 
  5 C       -3.0590    -2.8290     0.0840 C.ar  1 <1>  -0.1430 
  6 C       -3.8230    -0.5870     0.5870 C.ar  1 <1>  -0.1500 
  7 C       -3.8980    -1.7480    -0.1830 C.ar  1 <1>   0.0830 
  8 C       -3.1600    -4.0880    -0.7810 C.3   1 <1>   0.4610 
  9 O       -4.7880    -1.8850    -1.1990 O.3   1 <1>  -0.3620 
 10 N       -4.0110    -5.1190    -0.0520 N.4   1 <1>  -0.9590 
 11 C       -1.7720    -4.6420    -1.1900 C.2   1 <1>   0.9060 
 12 C       -5.2740    -0.7470    -1.8810 C.3   1 <1>   0.0400 
 13 C       -4.1180    -6.3480    -0.8880 C.3   1 <1>   0.3430 
 14 C       -5.3130    -4.5710     0.4120 C.3   1 <1>   0.3430 
 15 O       -1.2190    -5.4240    -0.3990 O.co2 1 <1>  -0.9000 
 16 O       -1.3360    -4.4200    -2.3220 O.co2 1 <1>  -0.9000 
 17 C       -4.8970    -7.4220    -0.1400 C.3   1 <1>  -0.1600 
 18 C       -6.1160    -5.6440     1.1400 C.3   1 <1>  -0.1600 
 19 C       -6.2710    -6.9040     0.2830 C.3   1 <1>   0.2800 
 20 O       -6.8510    -7.8650     1.1010 O.3   1 <1>  -0.5600 
 21 C       -7.2410    -6.7110    -0.8920 C.3   1 <1>  -0.1600 
 22 C       -8.1090    -8.2660     0.6530 C.3   1 <1>   0.1200 
 23 C       -8.5590    -7.2050    -0.3360 C.3   1 <1>  -0.1600 
 24 H       -1.4750    -3.5540     1.3650 H     1 <1>   0.1500 
 25 H       -2.8370     0.3820     2.2340 H     1 <1>   0.1500 
 26 H       -4.4650     0.2520     0.3950 H     1 <1>   0.1500 
 27 H       -3.6460    -3.8240    -1.7020 H     1 <1>   0.0800 
 28 H       -3.4110    -5.3760     0.7470 H     1 <1>   0.4500 
 29 H       -5.7910    -1.0790    -2.7640 H     1 <1>   0.0800 
 30 H       -4.4420    -0.1230    -2.1590 H     1 <1>   0.0800 
 31 H       -5.9550    -0.2150    -1.2400 H     1 <1>   0.0800 
 32 H       -3.1310    -6.7230    -1.1180 H     1 <1>   0.0800 
 33 H       -4.6150    -6.1150    -1.8160 H     1 <1>   0.0800 
 34 H       -5.8710    -4.2100    -0.4370 H     1 <1>   0.0800 
 35 H       -5.1450    -3.7390     1.0770 H     1 <1>   0.0800 
 36 H       -4.3350    -7.7180     0.7280 H     1 <1>   0.0800 
 37 H       -5.0070    -8.2850    -0.7710 H     1 <1>   0.0800 
 38 H       -7.0830    -5.2500     1.3920 H     1 <1>   0.0800 
 39 H       -5.6090    -5.8920     2.0560 H     1 <1>   0.0800 
 40 H       -6.9500    -7.3350    -1.7190 H     1 <1>   0.0800 
 41 H       -7.3020    -5.6950    -1.2370 H     1 <1>   0.0800 
 42 H       -8.7730    -8.3560     1.4950 H     1 <1>   0.0800 
 43 H       -7.9950    -9.2210     0.1700 H     1 <1>   0.0800 
 44 H       -9.2090    -7.6090    -1.0930 H     1 <1>   0.0800 
 45 H       -9.0720    -6.4200     0.1920 H     1 <1>   0.0800 
@<TRIPOS>BOND
  1   1   2  1   
  2   2   3  ar  
  3   2   4  ar  
  4   3   5  ar  
  5   3  24  1   
  6   4   6  ar  
  7   4  25  1   
  8   5   7  ar  
  9   5   8  1   
 10   6   7  ar  
 11   6  26  1   
 12   7   9  1   
 13   8  10  1   
 14   8  11  1   
 15   8  27  1   
 16   9  12  1   
 17  10  13  1   
 18  10  14  1   
 19  10  28  1   
 20  11  15  ar  
 21  11  16  ar  
 22  12  29  1   
 23  12  30  1   
 24  12  31  1   
 25  13  17  1   
 26  13  32  1   
 27  13  33  1   
 28  14  18  1   
 29  14  34  1   
 30  14  35  1   
 31  17  19  1   
 32  17  36  1   
 33  17  37  1   
 34  18  19  1   
 35  18  38  1   
 36  18  39  1   
 37  19  20  1   
 38  19  21  1   
 39  20  22  1   
 40  21  23  1   
 41  21  40  1   
 42  21  41  1   
 43  22  23  1   
 44  22  42  1   
 45  22  43  1   
 46  23  44  1   
 47  23  45  1   
@<TRIPOS>SUBSTRUCTURE
  1 ****  10 GROUP 4 **** **** 0

# MOE 2024.06 (io_trps.svl 2023.06)
