@<TRIPOS>MOLECULE
NONAME
48 52 1 0 0 
SMALL
USER_CHARGES


@<TRIPOS>ATOM
  1 O        0.5520    -2.2480    -1.9030 O.2   1 <1>  -0.5700 
  2 C        1.0280    -2.3820    -0.7880 C.2   1 <1>   0.6900 
  3 N        2.1570    -1.7780    -0.3100 N.am  1 <1>  -0.4770 
  4 N        0.4950    -3.1730     0.1680 N.am  1 <1>  -0.5470 
  5 C        2.3330    -2.2200     1.0060 C.ar  1 <1>   0.1170 
  6 C        2.9850    -0.8460    -1.1070 C.3   1 <1>   0.2200 
  7 C        1.2920    -3.0890     1.2960 C.ar  1 <1>   0.1170 
  8 C        3.2950    -1.9490     1.9720 C.ar  1 <1>  -0.1500 
  9 C        4.3950    -1.4050    -1.3120 C.3   1 <1>  -0.1600 
 10 C        3.0180     0.5440    -0.4670 C.3   1 <1>  -0.1600 
 11 C        1.1830    -3.7010     2.5340 C.ar  1 <1>  -0.1500 
 12 C        3.1930    -2.5570     3.2120 C.ar  1 <1>  -0.1500 
 13 C        5.2630    -0.4010    -2.0700 C.3   1 <1>   0.1100 
 14 C        3.9400     1.4740    -1.2540 C.3   1 <1>   0.1100 
 15 C        2.1430    -3.4280     3.4930 C.ar  1 <1>  -0.1500 
 16 N        5.2850     0.8780    -1.3480 N.3   1 <1>  -0.8100 
 17 C        6.2510     1.8170    -1.9710 C.3   1 <1>   0.2900 
 18 C        6.4640     3.0920    -1.1600 C.2   1 <1>   0.2980 
 19 O        6.9710     3.0120     0.0360 O.3   1 <1>  -0.2800 
 20 N        6.1820     4.2740    -1.5470 N.2   1 <1>  -0.3380 
 21 C        6.9670     4.2780     0.3780 C.2   1 <1>   0.4250 
 22 N        6.5100     5.0540    -0.5450 N.2   1 <1>  -0.3380 
 23 C        7.4450     4.6730     1.6830 C.ar  1 <1>   0.0530 
 24 C        7.8480     3.7280     2.6290 C.ar  1 <1>   0.1600 
 25 C        7.5260     6.0080     2.0610 C.ar  1 <1>  -0.1500 
 26 N        8.2970     3.9880     3.8470 N.ar  1 <1>  -0.6200 
 27 C        7.9910     6.3020     3.3240 C.ar  1 <1>  -0.1500 
 28 C        8.3600     5.2690     4.1680 C.ar  1 <1>   0.1600 
 29 H       -0.3500    -3.7180     0.0210 H     1 <1>   0.3700 
 30 H        2.5330    -0.7440    -2.0800 H     1 <1>   0.0800 
 31 H        4.1080    -1.2790     1.7620 H     1 <1>   0.1500 
 32 H        4.3380    -2.3210    -1.8720 H     1 <1>   0.0800 
 33 H        4.8640    -1.6130    -0.3690 H     1 <1>   0.0800 
 34 H        3.3760     0.4920     0.5440 H     1 <1>   0.0800 
 35 H        2.0260     0.9560    -0.4550 H     1 <1>   0.0800 
 36 H        0.3670    -4.3710     2.7370 H     1 <1>   0.1500 
 37 H        3.9320    -2.3550     3.9690 H     1 <1>   0.1500 
 38 H        4.8760    -0.2570    -3.0650 H     1 <1>   0.0800 
 39 H        6.2630    -0.7940    -2.1450 H     1 <1>   0.0800 
 40 H        3.9870     2.4210    -0.7420 H     1 <1>   0.0800 
 41 H        3.5410     1.6430    -2.2410 H     1 <1>   0.0800 
 42 H        2.0810    -3.8900     4.4630 H     1 <1>   0.1500 
 43 H        5.9100     2.0830    -2.9570 H     1 <1>   0.0800 
 44 H        7.2040     1.3290    -2.0670 H     1 <1>   0.0800 
 45 H        7.7930     2.6860     2.3610 H     1 <1>   0.1500 
 46 H        7.2320     6.7920     1.3830 H     1 <1>   0.1500 
 47 H        8.0690     7.3220     3.6550 H     1 <1>   0.1500 
 48 H        8.7230     5.5080     5.1530 H     1 <1>   0.1500 
@<TRIPOS>BOND
  1   1   2  2   
  2   2   3  am  
  3   2   4  am  
  4   3   5  1   
  5   3   6  1   
  6   4   7  1   
  7   4  29  1   
  8   5   7  ar  
  9   5   8  ar  
 10   6   9  1   
 11   6  10  1   
 12   6  30  1   
 13   7  11  ar  
 14   8  12  ar  
 15   8  31  1   
 16   9  13  1   
 17   9  32  1   
 18   9  33  1   
 19  10  14  1   
 20  10  34  1   
 21  10  35  1   
 22  11  15  ar  
 23  11  36  1   
 24  12  15  ar  
 25  12  37  1   
 26  13  16  1   
 27  13  38  1   
 28  13  39  1   
 29  14  16  1   
 30  14  40  1   
 31  14  41  1   
 32  15  42  1   
 33  16  17  1   
 34  17  18  1   
 35  17  43  1   
 36  17  44  1   
 37  18  19  1   
 38  18  20  2   
 39  19  21  1   
 40  20  22  1   
 41  21  22  2   
 42  21  23  1   
 43  23  24  ar  
 44  23  25  ar  
 45  24  26  ar  
 46  24  45  1   
 47  25  27  ar  
 48  25  46  1   
 49  26  28  ar  
 50  27  28  ar  
 51  27  47  1   
 52  28  48  1   
@<TRIPOS>SUBSTRUCTURE
  1 ****  10 GROUP 4 **** **** 0

# MOE 2024.06 (io_trps.svl 2023.06)
