@<TRIPOS>MOLECULE
NONAME
44 46 1 0 0 
SMALL
USER_CHARGES


@<TRIPOS>ATOM
  1 CL      -1.1980     1.2960     2.9900 Cl    1 <1>  -0.1770 
  2 C       -2.1670     1.5050     1.5560 C.ar  1 <1>   0.1770 
  3 C       -1.7520     2.3980     0.5880 C.ar  1 <1>  -0.1500 
  4 C       -3.3320     0.7770     1.4130 C.ar  1 <1>  -0.1500 
  5 C       -2.5370     2.5420    -0.5380 C.ar  1 <1>   0.1770 
  6 C       -4.1340     0.9280     0.2820 C.ar  1 <1>   0.0860 
  7 CL      -2.0460     3.6600    -1.7820 Cl    1 <1>  -0.1770 
  8 C       -3.7050     1.8220    -0.7010 C.ar  1 <1>  -0.1500 
  9 C       -5.3630     0.1700     0.1380 C.2   1 <1>   0.5440 
 10 O       -5.3410    -1.0310     0.3280 O.2   1 <1>  -0.5700 
 11 N       -6.5580     0.7710    -0.1980 N.am  1 <1>  -0.6600 
 12 C       -6.7950     2.2390    -0.0780 C.3   1 <1>   0.1400 
 13 C       -7.7360    -0.0700    -0.5600 C.3   1 <1>   0.1400 
 14 C       -8.2180     2.4890     0.4190 C.3   1 <1>  -0.1600 
 15 C       -8.7500     0.7490    -1.3610 C.3   1 <1>  -0.1600 
 16 C       -9.2840     1.9780    -0.5850 C.3   1 <1>   0.2800 
 17 O       -9.4960     2.9520    -1.5710 O.3   1 <1>  -0.5600 
 18 C      -10.6290     1.6290     0.0980 C.3   1 <1>  -0.1600 
 19 C      -10.1880     4.1300    -1.2610 C.3   1 <1>   0.1200 
 20 C      -11.4810     2.8390     0.4870 C.3   1 <1>   0.2800 
 21 C      -11.5690     3.8060    -0.6910 C.3   1 <1>  -0.1600 
 22 O      -10.8790     3.4880     1.5370 O.3   1 <1>  -0.6800 
 23 C      -12.8650     2.4230     0.9800 C.3   1 <1>  -0.2400 
 24 H       -0.8450     2.9620     0.7080 H     1 <1>   0.1500 
 25 H       -3.6250     0.0820     2.1810 H     1 <1>   0.1500 
 26 H       -4.2850     1.9500    -1.5970 H     1 <1>   0.1500 
 27 H       -6.6600     2.7050    -1.0400 H     1 <1>   0.0800 
 28 H       -6.0960     2.6720     0.6170 H     1 <1>   0.0800 
 29 H       -8.1890    -0.4480     0.3400 H     1 <1>   0.0800 
 30 H       -7.4070    -0.9120    -1.1480 H     1 <1>   0.0800 
 31 H       -8.3300     3.5330     0.6250 H     1 <1>   0.0800 
 32 H       -8.3270     1.9710     1.3560 H     1 <1>   0.0800 
 33 H       -9.5530     0.1050    -1.6650 H     1 <1>   0.0800 
 34 H       -8.2570     1.0750    -2.2600 H     1 <1>   0.0800 
 35 H      -10.4630     1.0040     0.9570 H     1 <1>   0.0800 
 36 H      -11.2130     1.0500    -0.5930 H     1 <1>   0.0800 
 37 H      -10.2910     4.6910    -2.1740 H     1 <1>   0.0800 
 38 H       -9.6070     4.7180    -0.5750 H     1 <1>   0.0800 
 39 H      -12.1570     3.3620    -1.4740 H     1 <1>   0.0800 
 40 H      -12.0660     4.7110    -0.3890 H     1 <1>   0.0800 
 41 H       -9.9780     3.7420     1.2770 H     1 <1>   0.4000 
 42 H      -13.4010     1.9130     0.2010 H     1 <1>   0.0800 
 43 H      -13.4320     3.2890     1.2710 H     1 <1>   0.0800 
 44 H      -12.7760     1.7620     1.8230 H     1 <1>   0.0800 
@<TRIPOS>BOND
  1   1   2  1   
  2   2   3  ar  
  3   2   4  ar  
  4   3   5  ar  
  5   3  24  1   
  6   4   6  ar  
  7   4  25  1   
  8   5   7  1   
  9   5   8  ar  
 10   6   8  ar  
 11   6   9  1   
 12   8  26  1   
 13   9  10  2   
 14   9  11  am  
 15  11  12  1   
 16  11  13  1   
 17  12  14  1   
 18  12  27  1   
 19  12  28  1   
 20  13  15  1   
 21  13  29  1   
 22  13  30  1   
 23  14  16  1   
 24  14  31  1   
 25  14  32  1   
 26  15  16  1   
 27  15  33  1   
 28  15  34  1   
 29  16  17  1   
 30  16  18  1   
 31  17  19  1   
 32  18  20  1   
 33  18  35  1   
 34  18  36  1   
 35  19  21  1   
 36  19  37  1   
 37  19  38  1   
 38  20  21  1   
 39  20  22  1   
 40  20  23  1   
 41  21  39  1   
 42  21  40  1   
 43  22  41  1   
 44  23  42  1   
 45  23  43  1   
 46  23  44  1   
@<TRIPOS>SUBSTRUCTURE
  1 ****  12 GROUP 4 **** **** 0

# MOE 2024.06 (io_trps.svl 2023.06)
