@<TRIPOS>MOLECULE
NONAME
41 45 1 0 0 
SMALL
USER_CHARGES


@<TRIPOS>ATOM
  1 S        0.0710     0.1830     1.4860 S.3   1 <1>  -0.0800 
  2 C       -1.1930     1.0190     0.5960 C.2   1 <1>  -0.1400 
  3 C       -1.0190    -1.1490     1.8460 C.2   1 <1>  -0.1100 
  4 C       -2.3290     0.3090     0.6080 C.2   1 <1>  -0.1810 
  5 C       -0.9650     2.3640    -0.0870 C.3   1 <1>   0.4600 
  6 C       -2.2380    -0.9320     1.3140 C.2   1 <1>  -0.1500 
  7 C       -3.5510     0.8500    -0.0960 C.3   1 <1>   0.0210 
  8 O       -2.1270     2.6960    -0.8250 O.3   1 <1>  -0.5600 
  9 C       -0.7180     3.4740     0.9480 C.3   1 <1>  -0.1600 
 10 C        0.1670     2.2640    -1.1250 C.3   1 <1>  -0.1600 
 11 C       -3.3880     2.3710    -0.2850 C.3   1 <1>   0.1200 
 12 C       -0.0860     4.6940     0.2850 C.3   1 <1>   0.2090 
 13 C        1.4630     2.8980    -0.6240 C.3   1 <1>   0.2090 
 14 N        1.2390     4.3430    -0.3120 N.pl3 1 <1>  -0.8220 
 15 C        2.3510     5.0260     0.2130 C.2   1 <1>   0.2710 
 16 N        3.2930     4.4720     0.9210 N.2   1 <1>  -0.3380 
 17 N        2.5750     6.3440     0.0500 N.pl3 1 <1>   0.3340 
 18 N        4.1640     5.4240     1.2550 N.2   1 <1>  -0.3380 
 19 C        3.7330     6.5400     0.7350 C.2   1 <1>   0.1420 
 20 C        1.9380     7.3930    -0.6140 C.2   1 <1>  -0.1810 
 21 C        4.2850     7.8460     0.7920 C.2   1 <1>  -0.1050 
 22 C        2.4610     8.6450    -0.5660 C.2   1 <1>  -0.1500 
 23 C        3.6640     8.8800     0.1580 C.2   1 <1>  -0.1500 
 24 H       -0.6250    -1.9650     2.4240 H     1 <1>   0.1500 
 25 H       -3.0820    -1.5940     1.3890 H     1 <1>   0.1500 
 26 H       -4.4320     0.6560     0.4890 H     1 <1>   0.0800 
 27 H       -3.6630     0.3720    -1.0520 H     1 <1>   0.0800 
 28 H       -0.0450     3.1240     1.7090 H     1 <1>   0.0800 
 29 H       -1.6310     3.7470     1.4370 H     1 <1>   0.0800 
 30 H       -0.1150     2.7700    -2.0310 H     1 <1>   0.0800 
 31 H        0.3500     1.2350    -1.3700 H     1 <1>   0.0800 
 32 H       -3.4970     2.8750     0.6590 H     1 <1>   0.0800 
 33 H       -4.1380     2.7420    -0.9600 H     1 <1>   0.0800 
 34 H        0.0350     5.4740     1.0180 H     1 <1>   0.0800 
 35 H       -0.7350     5.0590    -0.4930 H     1 <1>   0.0800 
 36 H        2.2260     2.8160    -1.3790 H     1 <1>   0.0800 
 37 H        1.8080     2.3830     0.2580 H     1 <1>   0.0800 
 38 H        1.0400     7.1350    -1.1460 H     1 <1>   0.1500 
 39 H        5.1970     7.9750     1.3480 H     1 <1>   0.1500 
 40 H        1.9950     9.4780    -1.0660 H     1 <1>   0.1500 
 41 H        4.0610     9.8810     0.1850 H     1 <1>   0.1500 
@<TRIPOS>BOND
  1   1   2  1   
  2   1   3  1   
  3   2   4  2   
  4   2   5  1   
  5   3   6  2   
  6   3  24  1   
  7   4   6  1   
  8   4   7  1   
  9   5   8  1   
 10   5   9  1   
 11   5  10  1   
 12   6  25  1   
 13   7  11  1   
 14   7  26  1   
 15   7  27  1   
 16   8  11  1   
 17   9  12  1   
 18   9  28  1   
 19   9  29  1   
 20  10  13  1   
 21  10  30  1   
 22  10  31  1   
 23  11  32  1   
 24  11  33  1   
 25  12  14  1   
 26  12  34  1   
 27  12  35  1   
 28  13  14  1   
 29  13  36  1   
 30  13  37  1   
 31  14  15  1   
 32  15  16  2   
 33  15  17  1   
 34  16  18  1   
 35  17  19  1   
 36  17  20  1   
 37  18  19  2   
 38  19  21  1   
 39  20  22  2   
 40  20  38  1   
 41  21  23  2   
 42  21  39  1   
 43  22  23  1   
 44  22  40  1   
 45  23  41  1   
@<TRIPOS>SUBSTRUCTURE
  1 ****  14 GROUP 4 **** **** 0

# MOE 2024.06 (io_trps.svl 2023.06)
