@<TRIPOS>MOLECULE
NONAME
56 58 1 0 0 
SMALL
USER_CHARGES


@<TRIPOS>ATOM
  1 S       -0.4930     0.1910     1.9850 S.o2  1 <1>   1.4470 
  2 O       -0.9820     1.1410     2.9580 O.2   1 <1>  -0.6500 
  3 O       -0.3970    -1.2130     2.3390 O.2   1 <1>  -0.6500 
  4 N       -1.5870     0.2090     0.6840 N.am  1 <1>  -0.8490 
  5 C        1.0530     0.7680     1.2360 C.ar  1 <1>  -0.0090 
  6 C       -1.3760    -0.9260    -0.2400 C.3   1 <1>   0.1960 
  7 C       -2.9820     0.3690     1.1640 C.3   1 <1>   0.1960 
  8 C        1.0720     1.8670     0.3870 C.ar  1 <1>  -0.1500 
  9 C        2.2580     0.1250     1.4900 C.ar  1 <1>  -0.1500 
 10 C       -2.2970    -2.0910     0.1730 C.3   1 <1>   0.4230 
 11 C       -4.0090    -0.2310     0.1880 C.3   1 <1>  -0.1600 
 12 C        2.2480     2.2990    -0.2010 C.ar  1 <1>  -0.1500 
 13 C        3.4370     0.5540     0.9050 C.ar  1 <1>  -0.1500 
 14 N       -1.8830    -3.4920    -0.2160 N.4   1 <1>  -0.9590 
 15 C       -3.7760    -1.7430    -0.1300 C.3   1 <1>   0.0000 
 16 C        3.4430     1.6440     0.0500 C.ar  1 <1>  -0.1430 
 17 C       -2.9790    -4.4980     0.0030 C.3   1 <1>   0.3430 
 18 C       -1.2780    -3.6300    -1.5800 C.3   1 <1>   0.2630 
 19 C       -4.6290    -2.6590     0.7900 C.3   1 <1>  -0.1600 
 20 C       -4.1310    -1.9820    -1.6240 C.3   1 <1>   0.1200 
 21 C        4.7510     2.1070    -0.5890 C.3   1 <1>   0.0630 
 22 C       -3.9710    -4.0320     1.0810 C.3   1 <1>  -0.1600 
 23 O       -5.3980    -1.5080    -1.9220 O.3   1 <1>  -0.6800 
 24 C        5.0960     3.5350    -0.1550 C.3   1 <1>  -0.2400 
 25 C        4.6790     2.0040    -2.1160 C.3   1 <1>  -0.2400 
 26 H       -1.6120    -0.6050    -1.2390 H     1 <1>   0.0800 
 27 H       -0.3430    -1.2300    -0.2220 H     1 <1>   0.0800 
 28 H       -3.1010    -0.1170     2.1210 H     1 <1>   0.0800 
 29 H       -3.1820     1.4180     1.3130 H     1 <1>   0.0800 
 30 H        0.1550     2.3950     0.1830 H     1 <1>   0.1500 
 31 H        2.2800    -0.7210     2.1560 H     1 <1>   0.1500 
 32 H       -2.2390    -2.0870     1.2490 H     1 <1>   0.0800 
 33 H       -5.0010    -0.0810     0.5780 H     1 <1>   0.0800 
 34 H       -3.9530     0.3570    -0.7130 H     1 <1>   0.0800 
 35 H        2.2260     3.1540    -0.8550 H     1 <1>   0.1500 
 36 H        4.3540     0.0330     1.1230 H     1 <1>   0.1500 
 37 H       -1.1440    -3.7280     0.4680 H     1 <1>   0.4500 
 38 H       -3.5220    -4.6500    -0.9160 H     1 <1>   0.0800 
 39 H       -2.5530    -5.4470     0.2880 H     1 <1>   0.0800 
 40 H       -1.9950    -3.3730    -2.3420 H     1 <1>   0.0800 
 41 H       -0.9560    -4.6470    -1.7430 H     1 <1>   0.0800 
 42 H       -0.4200    -2.9850    -1.6810 H     1 <1>   0.0800 
 43 H       -4.7910    -2.1720     1.7380 H     1 <1>   0.0800 
 44 H       -5.6040    -2.8120     0.3600 H     1 <1>   0.0800 
 45 H       -4.1130    -3.0220    -1.8900 H     1 <1>   0.0800 
 46 H       -3.4480    -1.4530    -2.2660 H     1 <1>   0.0800 
 47 H        5.5470     1.4630    -0.2550 H     1 <1>   0.0800 
 48 H       -4.7430    -4.7750     1.1930 H     1 <1>   0.0800 
 49 H       -3.4500    -3.9870     2.0230 H     1 <1>   0.0800 
 50 H       -6.0980    -1.9790    -1.4290 H     1 <1>   0.4000 
 51 H        4.3590     4.2330    -0.5080 H     1 <1>   0.0800 
 52 H        6.0560     3.8210    -0.5470 H     1 <1>   0.0800 
 53 H        5.1350     3.5910     0.9180 H     1 <1>   0.0800 
 54 H        3.9310     2.6680    -2.5100 H     1 <1>   0.0800 
 55 H        4.4320     0.9980    -2.4040 H     1 <1>   0.0800 
 56 H        5.6280     2.2600    -2.5500 H     1 <1>   0.0800 
@<TRIPOS>BOND
  1   1   2  2   
  2   1   3  2   
  3   1   4  am  
  4   1   5  1   
  5   4   6  1   
  6   4   7  1   
  7   5   8  ar  
  8   5   9  ar  
  9   6  10  1   
 10   6  26  1   
 11   6  27  1   
 12   7  11  1   
 13   7  28  1   
 14   7  29  1   
 15   8  12  ar  
 16   8  30  1   
 17   9  13  ar  
 18   9  31  1   
 19  10  14  1   
 20  10  15  1   
 21  10  32  1   
 22  11  15  1   
 23  11  33  1   
 24  11  34  1   
 25  12  16  ar  
 26  12  35  1   
 27  13  16  ar  
 28  13  36  1   
 29  14  17  1   
 30  14  18  1   
 31  14  37  1   
 32  15  19  1   
 33  15  20  1   
 34  16  21  1   
 35  17  22  1   
 36  17  38  1   
 37  17  39  1   
 38  18  40  1   
 39  18  41  1   
 40  18  42  1   
 41  19  22  1   
 42  19  43  1   
 43  19  44  1   
 44  20  23  1   
 45  20  45  1   
 46  20  46  1   
 47  21  24  1   
 48  21  25  1   
 49  21  47  1   
 50  22  48  1   
 51  22  49  1   
 52  23  50  1   
 53  24  51  1   
 54  24  52  1   
 55  24  53  1   
 56  25  54  1   
 57  25  55  1   
 58  25  56  1   
@<TRIPOS>SUBSTRUCTURE
  1 ****   6 GROUP 4 **** **** 0

# MOE 2024.06 (io_trps.svl 2023.06)
