@<TRIPOS>MOLECULE
NONAME
50 52 1 0 0 
SMALL
USER_CHARGES


@<TRIPOS>ATOM
  1 CL       0.1640    -0.0250     0.8870 Cl    1 <1>  -0.1770 
  2 C        1.7140    -0.6850     0.4130 C.ar  1 <1>   0.1770 
  3 C        2.6740     0.1240    -0.1910 C.ar  1 <1>   0.0860 
  4 C        1.9500    -2.0200     0.6830 C.ar  1 <1>  -0.1500 
  5 C        2.4370     1.5180    -0.4770 C.2   1 <1>   0.5440 
  6 C        3.8960    -0.4650    -0.5070 C.ar  1 <1>  -0.1500 
  7 C        3.1730    -2.5750     0.3570 C.ar  1 <1>  -0.1500 
  8 O        1.5610     1.8670    -1.2420 O.2   1 <1>  -0.5700 
  9 N        3.2280     2.4670     0.0950 N.am  1 <1>  -0.7300 
 10 C        4.1630    -1.8010    -0.2400 C.ar  1 <1>   0.1000 
 11 C        3.1870     3.8950    -0.2310 C.3   1 <1>   0.4010 
 12 N        5.4050    -2.3350    -0.5720 N.pl3 1 <1>  -0.8380 
 13 C        4.6000     4.4270    -0.0660 C.2   1 <1>  -0.1810 
 14 C        2.1720     4.5930     0.6870 C.3   1 <1>  -0.1600 
 15 C        5.5300    -3.6620    -1.2320 C.3   1 <1>   0.2090 
 16 C        6.6370    -1.8040     0.0700 C.3   1 <1>   0.2090 
 17 C        5.2800     4.6350     1.1300 C.2   1 <1>   0.1390 
 18 C        5.4810     4.7940    -1.0210 C.2   1 <1>  -0.3020 
 19 C        2.0640     6.1030     0.4230 C.3   1 <1>  -0.2400 
 20 C        6.1140    -4.6910    -0.2570 C.3   1 <1>  -0.1600 
 21 C        7.1990    -2.8360     1.0530 C.3   1 <1>  -0.1600 
 22 N        6.4810     5.0880     0.9410 N.2   1 <1>  -0.7070 
 23 N        6.6050     5.1900    -0.3920 N.pl3 1 <1>   0.3140 
 24 C        7.4200    -4.1990     0.3830 C.3   1 <1>  -0.1600 
 25 C        7.8380     5.6840    -1.0130 C.3   1 <1>   0.0160 
 26 H        1.1840    -2.6140     1.1470 H     1 <1>   0.1500 
 27 H        4.6580     0.1230    -0.9850 H     1 <1>   0.1500 
 28 H        3.3690    -3.6090     0.5710 H     1 <1>   0.1500 
 29 H        4.0260     2.1960     0.6670 H     1 <1>   0.3700 
 30 H        2.8810     4.0160    -1.2570 H     1 <1>   0.0800 
 31 H        2.4420     4.4320     1.7150 H     1 <1>   0.0800 
 32 H        1.2070     4.1470     0.5210 H     1 <1>   0.0800 
 33 H        6.1800    -3.5620    -2.0850 H     1 <1>   0.0800 
 34 H        4.5670    -3.9890    -1.5860 H     1 <1>   0.0800 
 35 H        6.4160    -0.8890     0.5920 H     1 <1>   0.0800 
 36 H        7.3640    -1.5900    -0.6950 H     1 <1>   0.0800 
 37 H        4.8700     4.4460     2.1080 H     1 <1>   0.1500 
 38 H        5.3730     4.7950    -2.0900 H     1 <1>   0.1500 
 39 H        3.0010     6.5950     0.6200 H     1 <1>   0.0800 
 40 H        1.3140     6.5340     1.0630 H     1 <1>   0.0800 
 41 H        1.7860     6.2860    -0.6000 H     1 <1>   0.0800 
 42 H        6.2930    -5.6120    -0.7810 H     1 <1>   0.0800 
 43 H        5.3900    -4.8900     0.5130 H     1 <1>   0.0800 
 44 H        6.5080    -2.9410     1.8710 H     1 <1>   0.0800 
 45 H        8.1290    -2.4730     1.4520 H     1 <1>   0.0800 
 46 H        8.1780    -4.1070    -0.3760 H     1 <1>   0.0800 
 47 H        7.7600    -4.9130     1.1130 H     1 <1>   0.0800 
 48 H        7.8530     5.4140    -2.0520 H     1 <1>   0.0800 
 49 H        8.6800     5.2440    -0.5110 H     1 <1>   0.0800 
 50 H        7.8760     6.7520    -0.9100 H     1 <1>   0.0800 
@<TRIPOS>BOND
  1   1   2  1   
  2   2   3  ar  
  3   2   4  ar  
  4   3   5  1   
  5   3   6  ar  
  6   4   7  ar  
  7   4  26  1   
  8   5   8  2   
  9   5   9  am  
 10   6  10  ar  
 11   6  27  1   
 12   7  10  ar  
 13   7  28  1   
 14   9  11  1   
 15   9  29  1   
 16  10  12  1   
 17  11  13  1   
 18  11  14  1   
 19  11  30  1   
 20  12  15  1   
 21  12  16  1   
 22  13  17  1   
 23  13  18  2   
 24  14  19  1   
 25  14  31  1   
 26  14  32  1   
 27  15  20  1   
 28  15  33  1   
 29  15  34  1   
 30  16  21  1   
 31  16  35  1   
 32  16  36  1   
 33  17  22  2   
 34  17  37  1   
 35  18  23  1   
 36  18  38  1   
 37  19  39  1   
 38  19  40  1   
 39  19  41  1   
 40  20  24  1   
 41  20  42  1   
 42  20  43  1   
 43  21  24  1   
 44  21  44  1   
 45  21  45  1   
 46  22  23  1   
 47  23  25  1   
 48  24  46  1   
 49  24  47  1   
 50  25  48  1   
 51  25  49  1   
 52  25  50  1   
@<TRIPOS>SUBSTRUCTURE
  1 ****   6 GROUP 4 **** **** 0

# MOE 2024.06 (io_trps.svl 2023.06)
