@<TRIPOS>MOLECULE
NONAME
54 57 1 0 0 
SMALL
USER_CHARGES


@<TRIPOS>ATOM
  1 O        0.4460     1.7350    -0.5270 O.2   1 <1>  -0.5700 
  2 C       -0.0860     2.7870    -0.7980 C.2   1 <1>   0.5690 
  3 N       -0.9010     3.4710     0.0650 N.am  1 <1>  -0.5090 
  4 C        0.1660     3.3910    -2.1730 C.3   1 <1>   0.1810 
  5 C       -1.5550     4.7540    -0.3530 C.3   1 <1>   0.3640 
  6 C       -0.9800     3.1280     1.5070 C.3   1 <1>   0.0490 
  7 O        0.2450     4.7890    -2.0920 O.3   1 <1>  -0.5600 
  8 C       -3.0470     4.5250    -0.5990 C.ar  1 <1>  -0.1440 
  9 C       -0.9330     5.4260    -1.6150 C.3   1 <1>   0.2610 
 10 C       -1.4520     1.7630     1.8950 C.3   1 <1>  -0.2000 
 11 C       -2.3070     2.9530     2.1820 C.3   1 <1>  -0.2000 
 12 C       -3.9580     5.5020    -0.2170 C.ar  1 <1>   0.1600 
 13 C       -3.5300     3.3740    -1.1970 C.ar  1 <1>  -0.1500 
 14 C       -0.6640     6.9050    -1.3190 C.2   1 <1>   0.5690 
 15 N       -5.2690     5.4210    -0.3750 N.ar  1 <1>  -0.6200 
 16 C       -4.8940     3.2770    -1.3700 C.ar  1 <1>  -0.1500 
 17 O       -1.5390     7.5720    -0.8150 O.2   1 <1>  -0.5700 
 18 N        0.5520     7.4350    -1.6020 N.am  1 <1>  -0.7300 
 19 C       -5.7070     4.3130    -0.9470 C.ar  1 <1>   0.1600 
 20 C        1.0310     8.8010    -1.2640 C.3   1 <1>   0.1400 
 21 C        2.3180     8.7690    -0.4070 C.3   1 <1>   0.2800 
 22 O        3.2500     7.9810    -1.0600 O.3   1 <1>  -0.6800 
 23 C        2.9260    10.1810    -0.2590 C.3   1 <1>  -0.1600 
 24 C        2.0880     8.1280     0.9740 C.3   1 <1>  -0.1600 
 25 C        3.7400    10.4070     1.0340 C.3   1 <1>  -0.1600 
 26 C        3.3700     8.0180     1.8290 C.3   1 <1>  -0.1600 
 27 C        4.4040     9.1250     1.5450 C.3   1 <1>  -0.1600 
 28 H       -0.6210     3.1220    -2.8530 H     1 <1>   0.0800 
 29 H        1.1040     3.0310    -2.5560 H     1 <1>   0.0800 
 30 H       -1.4570     5.4350     0.4750 H     1 <1>   0.0800 
 31 H       -0.1670     3.5540     2.0720 H     1 <1>   0.1000 
 32 H       -1.6470     5.3930    -2.4180 H     1 <1>   0.0800 
 33 H       -1.7430     1.0830     1.1130 H     1 <1>   0.1000 
 34 H       -0.9650     1.2660     2.7140 H     1 <1>   0.1000 
 35 H       -2.4110     3.2610     3.2070 H     1 <1>   0.1000 
 36 H       -3.2280     3.0390     1.6350 H     1 <1>   0.1000 
 37 H       -3.5930     6.4060     0.2440 H     1 <1>   0.1500 
 38 H       -2.8840     2.5730    -1.5120 H     1 <1>   0.1500 
 39 H       -5.3270     2.4050    -1.8260 H     1 <1>   0.1500 
 40 H        1.2920     6.8090    -1.9470 H     1 <1>   0.3700 
 41 H       -6.7710     4.2260    -1.0850 H     1 <1>   0.1500 
 42 H        1.2310     9.3330    -2.1780 H     1 <1>   0.0800 
 43 H        0.2610     9.3350    -0.7350 H     1 <1>   0.0800 
 44 H        4.0300     7.9040    -0.4800 H     1 <1>   0.4000 
 45 H        3.5390    10.3920    -1.1190 H     1 <1>   0.0800 
 46 H        2.1330    10.9070    -0.2610 H     1 <1>   0.0800 
 47 H        1.3750     8.7360     1.5020 H     1 <1>   0.0800 
 48 H        1.6440     7.1540     0.8640 H     1 <1>   0.0800 
 49 H        4.4860    11.1640     0.8620 H     1 <1>   0.0800 
 50 H        3.0810    10.7750     1.8030 H     1 <1>   0.0800 
 51 H        3.0870     8.0540     2.8670 H     1 <1>   0.0800 
 52 H        3.8340     7.0610     1.6610 H     1 <1>   0.0800 
 53 H        4.9580     9.3350     2.4440 H     1 <1>   0.0800 
 54 H        5.1120     8.7840     0.8100 H     1 <1>   0.0800 
@<TRIPOS>BOND
  1   1   2  2   
  2   2   3  am  
  3   2   4  1   
  4   3   5  1   
  5   3   6  1   
  6   4   7  1   
  7   4  28  1   
  8   4  29  1   
  9   5   8  1   
 10   5   9  1   
 11   5  30  1   
 12   6  10  1   
 13   6  11  1   
 14   6  31  1   
 15   7   9  1   
 16   8  12  ar  
 17   8  13  ar  
 18   9  14  1   
 19   9  32  1   
 20  10  11  1   
 21  10  33  1   
 22  10  34  1   
 23  11  35  1   
 24  11  36  1   
 25  12  15  ar  
 26  12  37  1   
 27  13  16  ar  
 28  13  38  1   
 29  14  17  2   
 30  14  18  am  
 31  15  19  ar  
 32  16  19  ar  
 33  16  39  1   
 34  18  20  1   
 35  18  40  1   
 36  19  41  1   
 37  20  21  1   
 38  20  42  1   
 39  20  43  1   
 40  21  22  1   
 41  21  23  1   
 42  21  24  1   
 43  22  44  1   
 44  23  25  1   
 45  23  45  1   
 46  23  46  1   
 47  24  26  1   
 48  24  47  1   
 49  24  48  1   
 50  25  27  1   
 51  25  49  1   
 52  25  50  1   
 53  26  27  1   
 54  26  51  1   
 55  26  52  1   
 56  27  53  1   
 57  27  54  1   
@<TRIPOS>SUBSTRUCTURE
  1 ****   9 GROUP 4 **** **** 0

# MOE 2024.06 (io_trps.svl 2023.06)
