@<TRIPOS>MOLECULE
NONAME
44 47 1 0 0 
SMALL
USER_CHARGES


@<TRIPOS>ATOM
  1 F       -0.0510    -0.7230     0.3460 F     1 <1>  -0.1900 
  2 C       -0.7360    -1.8380     0.3010 C.ar  1 <1>   0.1900 
  3 C       -0.1970    -3.0190    -0.2210 C.ar  1 <1>   0.0820 
  4 C       -2.0230    -1.7900     0.8000 C.ar  1 <1>  -0.1500 
  5 O        1.0530    -3.1920    -0.7400 O.3   1 <1>  -0.3630 
  6 C       -1.0020    -4.1470    -0.2200 C.ar  1 <1>  -0.1500 
  7 C       -2.7970    -2.9350     0.7860 C.ar  1 <1>  -0.1500 
  8 C        1.9810    -2.1390    -0.8770 C.3   1 <1>   0.0400 
  9 C       -2.3100    -4.1400     0.2740 C.ar  1 <1>   0.0530 
 10 C       -3.1110    -5.3430     0.2520 C.2   1 <1>   0.0870 
 11 O       -2.5270    -6.5180     0.2190 O.3   1 <1>  -0.0190 
 12 C       -4.4490    -5.5750     0.2490 C.2   1 <1>  -0.2330 
 13 N       -3.3770    -7.5100     0.1960 N.2   1 <1>  -0.4100 
 14 C       -4.5460    -6.9650     0.2100 C.2   1 <1>   0.3720 
 15 C       -5.5440    -4.6610     0.2740 C.2   1 <1>   1.0330 
 16 N       -5.7430    -7.6910     0.1930 N.pl3 1 <1>  -0.8210 
 17 O       -6.1190    -4.3340    -0.7790 O.co2 1 <1>  -0.9000 
 18 O       -5.8930    -4.1170     1.3370 O.co2 1 <1>  -0.9000 
 19 C       -6.5930    -7.5310    -0.9950 C.3   1 <1>   0.2890 
 20 C       -5.7290    -9.1330     0.4530 C.3   1 <1>   0.2890 
 21 C       -8.0350    -7.6480    -0.4780 C.3   1 <1>  -0.1600 
 22 C       -6.1670    -8.6930    -1.8980 C.3   1 <1>  -0.1600 
 23 C       -7.0790    -9.4290     1.1310 C.3   1 <1>  -0.1600 
 24 C       -5.6000    -9.7530    -0.9420 C.3   1 <1>  -0.1600 
 25 C       -8.3000    -8.9400     0.3230 C.3   1 <1>   0.2000 
 26 O       -8.6570    -9.9370    -0.5640 O.3   1 <1>  -0.6800 
 27 H       -2.4180    -0.8720     1.1950 H     1 <1>   0.1500 
 28 H       -0.6000    -5.0590    -0.6220 H     1 <1>   0.1500 
 29 H       -3.7960    -2.8890     1.1830 H     1 <1>   0.1500 
 30 H        2.8680    -2.5320    -1.3400 H     1 <1>   0.0800 
 31 H        2.2200    -1.7550     0.0990 H     1 <1>   0.0800 
 32 H        1.5520    -1.3740    -1.4990 H     1 <1>   0.0800 
 33 H       -6.4380    -6.5870    -1.4870 H     1 <1>   0.0800 
 34 H       -4.9100    -9.4120     1.0960 H     1 <1>   0.0800 
 35 H       -8.7360    -7.5520    -1.2870 H     1 <1>   0.0800 
 36 H       -8.1940    -6.8070     0.1740 H     1 <1>   0.0800 
 37 H       -6.9800    -9.0480    -2.5030 H     1 <1>   0.0800 
 38 H       -5.3860    -8.3440    -2.5500 H     1 <1>   0.0800 
 39 H       -7.0740    -8.9050     2.0690 H     1 <1>   0.0800 
 40 H       -7.1710   -10.4760     1.3530 H     1 <1>   0.0800 
 41 H       -4.5560    -9.9050    -1.1530 H     1 <1>   0.0800 
 42 H       -6.1020   -10.7010    -1.0080 H     1 <1>   0.0800 
 43 H       -9.1410    -8.7970     0.9800 H     1 <1>   0.0800 
 44 H       -7.9310   -10.0460    -1.2050 H     1 <1>   0.4000 
@<TRIPOS>BOND
  1   1   2  1   
  2   2   3  ar  
  3   2   4  ar  
  4   3   5  1   
  5   3   6  ar  
  6   4   7  ar  
  7   4  27  1   
  8   5   8  1   
  9   6   9  ar  
 10   6  28  1   
 11   7   9  ar  
 12   7  29  1   
 13   8  30  1   
 14   8  31  1   
 15   8  32  1   
 16   9  10  1   
 17  10  11  1   
 18  10  12  2   
 19  11  13  1   
 20  12  14  1   
 21  12  15  1   
 22  13  14  2   
 23  14  16  1   
 24  15  17  ar  
 25  15  18  ar  
 26  16  19  1   
 27  16  20  1   
 28  19  21  1   
 29  19  22  1   
 30  19  33  1   
 31  20  23  1   
 32  20  24  1   
 33  20  34  1   
 34  21  25  1   
 35  21  35  1   
 36  21  36  1   
 37  22  24  1   
 38  22  37  1   
 39  22  38  1   
 40  23  25  1   
 41  23  39  1   
 42  23  40  1   
 43  24  41  1   
 44  24  42  1   
 45  25  26  1   
 46  25  43  1   
 47  26  44  1   
@<TRIPOS>SUBSTRUCTURE
  1 ****  12 GROUP 4 **** **** 0

# MOE 2024.06 (io_trps.svl 2023.06)
