@<TRIPOS>MOLECULE
NONAME
45 47 1 0 0 
SMALL
USER_CHARGES


@<TRIPOS>ATOM
  1 CL      -0.6500     0.3530    -0.5790 Cl    1 <1>  -0.1770 
  2 C       -1.9900    -0.7630    -0.4890 C.ar  1 <1>   0.1770 
  3 C       -1.9620    -1.7850     0.4410 C.ar  1 <1>  -0.1500 
  4 C       -3.0610    -0.6090    -1.3480 C.ar  1 <1>  -0.1500 
  5 C       -3.0280    -2.6660     0.5090 C.ar  1 <1>  -0.1500 
  6 C       -4.1210    -1.4960    -1.2730 C.ar  1 <1>  -0.1500 
  7 C       -4.1190    -2.5370    -0.3480 C.ar  1 <1>   0.1170 
  8 N       -5.2230    -3.3990    -0.3040 N.am  1 <1>  -0.5470 
  9 C       -5.3520    -4.6840     0.1390 C.2   1 <1>   0.6900 
 10 O       -4.3900    -5.3340     0.5050 O.2   1 <1>  -0.5700 
 11 N       -6.5980    -5.2460     0.1400 N.am  1 <1>  -0.6600 
 12 C       -7.8830    -4.5220     0.0160 C.3   1 <1>   0.1400 
 13 C       -6.8220    -6.6630     0.4890 C.3   1 <1>   0.1400 
 14 C       -8.9330    -5.4560     0.6350 C.3   1 <1>  -0.0800 
 15 C       -8.3400    -6.8670     0.4600 C.3   1 <1>  -0.0800 
 16 C      -10.3960    -5.2870     0.1180 C.3   1 <1>   0.2800 
 17 C       -8.8230    -7.5050    -0.8510 C.3   1 <1>  -0.1600 
 18 O      -10.3970    -4.7660    -1.1620 O.3   1 <1>  -0.6800 
 19 C      -11.0920    -6.6580     0.0320 C.3   1 <1>  -0.1600 
 20 C      -11.2320    -4.3270     0.9940 C.3   1 <1>  -0.1600 
 21 C      -10.3540    -7.6700    -0.8720 C.3   1 <1>  -0.1600 
 22 C      -10.7000    -2.8870     1.0990 C.3   1 <1>  -0.2400 
 23 H       -1.1190    -1.8890     1.1000 H     1 <1>   0.1500 
 24 H       -3.0600     0.1940    -2.0630 H     1 <1>   0.1500 
 25 H       -3.0090    -3.4590     1.2360 H     1 <1>   0.1500 
 26 H       -4.9550    -1.3810    -1.9420 H     1 <1>   0.1500 
 27 H       -6.0580    -3.0760    -0.7770 H     1 <1>   0.3700 
 28 H       -7.8480    -3.5790     0.5320 H     1 <1>   0.0800 
 29 H       -8.0660    -4.3550    -1.0310 H     1 <1>   0.0800 
 30 H       -6.3130    -7.3070    -0.2090 H     1 <1>   0.0800 
 31 H       -6.4380    -6.8420     1.4790 H     1 <1>   0.0800 
 32 H       -8.9340    -5.2680     1.6940 H     1 <1>   0.0800 
 33 H       -8.6270    -7.5050     1.2770 H     1 <1>   0.0800 
 34 H       -8.5300    -6.8720    -1.6720 H     1 <1>   0.0800 
 35 H       -8.3550    -8.4630    -0.9980 H     1 <1>   0.0800 
 36 H      -11.3080    -4.7640    -1.5060 H     1 <1>   0.4000 
 37 H      -11.1380    -7.0680     1.0260 H     1 <1>   0.0800 
 38 H      -12.1080    -6.5470    -0.3040 H     1 <1>   0.0800 
 39 H      -12.2370    -4.2920     0.6120 H     1 <1>   0.0800 
 40 H      -11.2940    -4.7350     1.9880 H     1 <1>   0.0800 
 41 H      -10.6130    -8.6660    -0.5550 H     1 <1>   0.0800 
 42 H      -10.6930    -7.5580    -1.8880 H     1 <1>   0.0800 
 43 H      -10.5770    -2.4530     0.1220 H     1 <1>   0.0800 
 44 H       -9.7560    -2.8620     1.6120 H     1 <1>   0.0800 
 45 H      -11.3950    -2.2810     1.6520 H     1 <1>   0.0800 
@<TRIPOS>BOND
  1   1   2  1   
  2   2   3  ar  
  3   2   4  ar  
  4   3   5  ar  
  5   3  23  1   
  6   4   6  ar  
  7   4  24  1   
  8   5   7  ar  
  9   5  25  1   
 10   6   7  ar  
 11   6  26  1   
 12   7   8  1   
 13   8   9  am  
 14   8  27  1   
 15   9  10  2   
 16   9  11  am  
 17  11  12  1   
 18  11  13  1   
 19  12  14  1   
 20  12  28  1   
 21  12  29  1   
 22  13  15  1   
 23  13  30  1   
 24  13  31  1   
 25  14  15  1   
 26  14  16  1   
 27  14  32  1   
 28  15  17  1   
 29  15  33  1   
 30  16  18  1   
 31  16  19  1   
 32  16  20  1   
 33  17  21  1   
 34  17  34  1   
 35  17  35  1   
 36  18  36  1   
 37  19  21  1   
 38  19  37  1   
 39  19  38  1   
 40  20  22  1   
 41  20  39  1   
 42  20  40  1   
 43  21  41  1   
 44  21  42  1   
 45  22  43  1   
 46  22  44  1   
 47  22  45  1   
@<TRIPOS>SUBSTRUCTURE
  1 ****  11 GROUP 4 **** **** 0

# MOE 2024.06 (io_trps.svl 2023.06)
