@<TRIPOS>MOLECULE
NONAME
57 60 1 0 0 
SMALL
USER_CHARGES


@<TRIPOS>ATOM
  1 O       -0.8670     0.3330     0.8040 O.2   1 <1>  -0.5700 
  2 C       -1.7800     0.8650     0.2160 C.2   1 <1>   0.5690 
  3 N       -2.7640     0.1340    -0.3910 N.am  1 <1>  -0.6600 
  4 C       -1.7780     2.4050     0.1770 C.3   1 <1>   0.4040 
  5 C       -4.0060     0.6460    -1.0330 C.3   1 <1>   0.1400 
  6 C       -2.8170    -1.3540    -0.3110 C.3   1 <1>   0.1400 
  7 N       -0.4140     3.0030     0.4460 N.4   1 <1>  -0.9590 
  8 C       -5.0130    -0.4870    -0.8580 C.3   1 <1>   0.2000 
  9 C       -4.1550    -1.7550    -0.9540 C.3   1 <1>  -0.0800 
 10 C       -0.5000     4.4060     0.9510 C.3   1 <1>   0.4230 
 11 C        0.5160     2.7800    -0.7100 C.3   1 <1>   0.2630 
 12 O       -5.5610    -0.3780     0.4120 O.3   1 <1>  -0.6800 
 13 C       -4.8040    -3.0150    -0.3380 C.3   1 <1>  -0.0170 
 14 C       -0.9690     5.3890    -0.1340 C.3   1 <1>  -0.1600 
 15 C        0.8710     4.9100     1.4080 C.3   1 <1>  -0.1600 
 16 C       -4.0670    -4.3450    -0.5400 C.ar  1 <1>  -0.1440 
 17 C        0.1690     6.3920    -0.3670 C.3   1 <1>  -0.1600 
 18 C        1.4120     5.7840     0.2770 C.3   1 <1>  -0.1600 
 19 C       -4.4930    -5.4950     0.1710 C.ar  1 <1>   0.0000 
 20 C       -3.0080    -4.5030    -1.3910 C.ar  1 <1>  -0.1500 
 21 C       -3.7790    -6.7030    -0.0270 C.ar  1 <1>   0.3100 
 22 C       -5.5930    -5.5230     1.0620 C.ar  1 <1>  -0.1500 
 23 C       -2.3770    -5.7460    -1.5180 C.ar  1 <1>   0.1600 
 24 N       -2.7260    -6.8110    -0.8730 N.ar  1 <1>  -0.6200 
 25 C       -4.1740    -7.8540     0.6740 C.ar  1 <1>  -0.1500 
 26 C       -5.9540    -6.6620     1.7290 C.ar  1 <1>  -0.1500 
 27 C       -5.2360    -7.8440     1.5370 C.ar  1 <1>  -0.1500 
 28 H       -2.4710     2.7450     0.9270 H     1 <1>   0.0800 
 29 H       -2.1370     2.7310    -0.7830 H     1 <1>   0.0800 
 30 H       -4.3640     1.5560    -0.5830 H     1 <1>   0.0800 
 31 H       -3.8220     0.8040    -2.0820 H     1 <1>   0.0800 
 32 H       -1.9800    -1.7890    -0.8300 H     1 <1>   0.0800 
 33 H       -2.7820    -1.6560     0.7230 H     1 <1>   0.0800 
 34 H       -0.0390     2.4210     1.2150 H     1 <1>   0.4500 
 35 H       -5.8140    -0.4550    -1.5780 H     1 <1>   0.0800 
 36 H       -3.9850    -1.9330    -2.0000 H     1 <1>   0.0800 
 37 H       -1.1780     4.4380     1.7890 H     1 <1>   0.0800 
 38 H        0.2010     3.3490    -1.5680 H     1 <1>   0.0800 
 39 H        0.5390     1.7340    -0.9730 H     1 <1>   0.0800 
 40 H        1.5170     3.0810    -0.4460 H     1 <1>   0.0800 
 41 H       -4.8550    -0.4530     1.0830 H     1 <1>   0.4000 
 42 H       -5.7940    -3.1210    -0.7480 H     1 <1>   0.0800 
 43 H       -4.9110    -2.8520     0.7190 H     1 <1>   0.0800 
 44 H       -1.2200     4.8970    -1.0550 H     1 <1>   0.0800 
 45 H       -1.8380     5.9210     0.2120 H     1 <1>   0.0800 
 46 H        0.7210     5.5380     2.2690 H     1 <1>   0.0800 
 47 H        1.5490     4.1220     1.6830 H     1 <1>   0.0800 
 48 H        0.3230     6.5960    -1.4130 H     1 <1>   0.0800 
 49 H       -0.0650     7.3190     0.1300 H     1 <1>   0.0800 
 50 H        2.0810     6.5450     0.6440 H     1 <1>   0.0800 
 51 H        1.9410     5.1860    -0.4450 H     1 <1>   0.0800 
 52 H       -2.6170    -3.7060    -1.9920 H     1 <1>   0.1500 
 53 H       -6.1690    -4.6320     1.2250 H     1 <1>   0.1500 
 54 H       -1.5460    -5.8210    -2.1990 H     1 <1>   0.1500 
 55 H       -3.6080    -8.7520     0.5070 H     1 <1>   0.1500 
 56 H       -6.7920    -6.6640     2.4050 H     1 <1>   0.1500 
 57 H       -5.5280    -8.7340     2.0670 H     1 <1>   0.1500 
@<TRIPOS>BOND
  1   1   2  2   
  2   2   3  am  
  3   2   4  1   
  4   3   5  1   
  5   3   6  1   
  6   4   7  1   
  7   4  28  1   
  8   4  29  1   
  9   5   8  1   
 10   5  30  1   
 11   5  31  1   
 12   6   9  1   
 13   6  32  1   
 14   6  33  1   
 15   7  10  1   
 16   7  11  1   
 17   7  34  1   
 18   8   9  1   
 19   8  12  1   
 20   8  35  1   
 21   9  13  1   
 22   9  36  1   
 23  10  14  1   
 24  10  15  1   
 25  10  37  1   
 26  11  38  1   
 27  11  39  1   
 28  11  40  1   
 29  12  41  1   
 30  13  16  1   
 31  13  42  1   
 32  13  43  1   
 33  14  17  1   
 34  14  44  1   
 35  14  45  1   
 36  15  18  1   
 37  15  46  1   
 38  15  47  1   
 39  16  19  ar  
 40  16  20  ar  
 41  17  18  1   
 42  17  48  1   
 43  17  49  1   
 44  18  50  1   
 45  18  51  1   
 46  19  21  ar  
 47  19  22  ar  
 48  20  23  ar  
 49  20  52  1   
 50  21  24  ar  
 51  21  25  ar  
 52  22  26  ar  
 53  22  53  1   
 54  23  24  ar  
 55  23  54  1   
 56  25  27  ar  
 57  25  55  1   
 58  26  27  ar  
 59  26  56  1   
 60  27  57  1   
@<TRIPOS>SUBSTRUCTURE
  1 ****   6 GROUP 4 **** **** 0

# MOE 2024.06 (io_trps.svl 2023.06)
