@<TRIPOS>MOLECULE
NONAME
56 59 1 0 0 
SMALL
USER_CHARGES


@<TRIPOS>ATOM
  1 O       -2.2570     0.7950    -2.1930 O.2   1 <1>  -0.5700 
  2 C       -2.3210     1.2860    -1.0880 C.2   1 <1>   0.5690 
  3 N       -2.8720     0.6020    -0.0430 N.am  1 <1>  -0.6600 
  4 C       -1.8630     2.7400    -0.8940 C.3   1 <1>   0.1710 
  5 C       -2.4360    -0.7830     0.3120 C.3   1 <1>   0.3640 
  6 C       -4.3140     0.8160     0.2430 C.3   1 <1>   0.1400 
  7 N       -0.6950     2.9220     0.0090 N.3   1 <1>  -0.8100 
  8 C       -0.9300    -0.9990     0.1010 C.ar  1 <1>  -0.1440 
  9 C       -3.3630    -1.8380    -0.3520 C.3   1 <1>   0.2000 
 10 C       -5.1460    -0.2870    -0.4330 C.3   1 <1>   0.1200 
 11 C        0.5140     2.2850    -0.5620 C.3   1 <1>   0.1100 
 12 C       -0.4160     4.3530     0.2530 C.3   1 <1>   0.1100 
 13 C       -0.3900    -1.3420    -1.1330 C.ar  1 <1>  -0.1500 
 14 C       -0.0730    -0.8530     1.1840 C.ar  1 <1>  -0.1500 
 15 O       -4.7050    -1.5520    -0.0270 O.3   1 <1>  -0.5600 
 16 C       -3.0970    -3.2750     0.1310 C.3   1 <1>   0.1200 
 17 C        1.7360     2.4140     0.3640 C.3   1 <1>   0.2090 
 18 C        0.7760     4.5590     1.2090 C.3   1 <1>   0.2090 
 19 C        0.9710    -1.5460    -1.2770 C.ar  1 <1>  -0.1500 
 20 C        1.2880    -1.0570     1.0430 C.ar  1 <1>  -0.1500 
 21 O       -1.9190    -3.7930    -0.3990 O.3   1 <1>  -0.6800 
 22 N        2.0000     3.8450     0.7230 N.pl3 1 <1>  -0.8380 
 23 C        1.8120    -1.4050    -0.1890 C.ar  1 <1>  -0.1500 
 24 C        3.2720     4.3660     0.8400 C.ar  1 <1>   0.7200 
 25 N        3.3760     5.6540     1.1700 N.ar  1 <1>  -0.6200 
 26 N        4.2930     3.5380     0.6170 N.ar  1 <1>  -0.6200 
 27 C        4.5900     6.1350     1.2780 C.ar  1 <1>   0.1600 
 28 C        5.4950     4.0450     0.7320 C.ar  1 <1>   0.1600 
 29 C        5.7030     5.3600     1.0660 C.ar  1 <1>  -0.1500 
 30 H       -2.6960     3.2890    -0.4940 H     1 <1>   0.0800 
 31 H       -1.6330     3.1520    -1.8600 H     1 <1>   0.0800 
 32 H       -2.5990    -0.8880     1.3700 H     1 <1>   0.0800 
 33 H       -4.4800     0.7970     1.3060 H     1 <1>   0.0800 
 34 H       -4.6260     1.7770    -0.1280 H     1 <1>   0.0800 
 35 H       -3.2710    -1.8000    -1.4240 H     1 <1>   0.0800 
 36 H       -5.0640    -0.2210    -1.5050 H     1 <1>   0.0800 
 37 H       -6.1820    -0.1960    -0.1580 H     1 <1>   0.0800 
 38 H        0.3310     1.2410    -0.7330 H     1 <1>   0.0800 
 39 H        0.7530     2.7340    -1.5110 H     1 <1>   0.0800 
 40 H       -0.1980     4.8480    -0.6770 H     1 <1>   0.0800 
 41 H       -1.2850     4.8160     0.6860 H     1 <1>   0.0800 
 42 H       -1.0260    -1.4490    -1.9970 H     1 <1>   0.1500 
 43 H       -0.4610    -0.5700     2.1480 H     1 <1>   0.1500 
 44 H       -3.8970    -3.9190    -0.1910 H     1 <1>   0.0800 
 45 H       -3.0250    -3.3080     1.2040 H     1 <1>   0.0800 
 46 H        2.5820     1.9760    -0.1340 H     1 <1>   0.0800 
 47 H        1.5540     1.8530     1.2630 H     1 <1>   0.0800 
 48 H        0.5160     4.1790     2.1810 H     1 <1>   0.0800 
 49 H        0.9560     5.6140     1.3050 H     1 <1>   0.0800 
 50 H        1.3740    -1.8110    -2.2390 H     1 <1>   0.1500 
 51 H        1.9410    -0.9410     1.8910 H     1 <1>   0.1500 
 52 H       -1.1590    -3.1930    -0.2280 H     1 <1>   0.4000 
 53 H        2.8710    -1.5630    -0.3000 H     1 <1>   0.1500 
 54 H        4.6990     7.1730     1.5430 H     1 <1>   0.1500 
 55 H        6.3350     3.3960     0.5560 H     1 <1>   0.1500 
 56 H        6.6930     5.7650     1.1570 H     1 <1>   0.1500 
@<TRIPOS>BOND
  1   1   2  2   
  2   2   3  am  
  3   2   4  1   
  4   3   5  1   
  5   3   6  1   
  6   4   7  1   
  7   4  30  1   
  8   4  31  1   
  9   5   8  1   
 10   5   9  1   
 11   5  32  1   
 12   6  10  1   
 13   6  33  1   
 14   6  34  1   
 15   7  11  1   
 16   7  12  1   
 17   8  13  ar  
 18   8  14  ar  
 19   9  15  1   
 20   9  16  1   
 21   9  35  1   
 22  10  15  1   
 23  10  36  1   
 24  10  37  1   
 25  11  17  1   
 26  11  38  1   
 27  11  39  1   
 28  12  18  1   
 29  12  40  1   
 30  12  41  1   
 31  13  19  ar  
 32  13  42  1   
 33  14  20  ar  
 34  14  43  1   
 35  16  21  1   
 36  16  44  1   
 37  16  45  1   
 38  17  22  1   
 39  17  46  1   
 40  17  47  1   
 41  18  22  1   
 42  18  48  1   
 43  18  49  1   
 44  19  23  ar  
 45  19  50  1   
 46  20  23  ar  
 47  20  51  1   
 48  21  52  1   
 49  22  24  1   
 50  23  53  1   
 51  24  25  ar  
 52  24  26  ar  
 53  25  27  ar  
 54  26  28  ar  
 55  27  29  ar  
 56  27  54  1   
 57  28  29  ar  
 58  28  55  1   
 59  29  56  1   
@<TRIPOS>SUBSTRUCTURE
  1 ****  11 GROUP 4 **** **** 0

# MOE 2024.06 (io_trps.svl 2023.06)
