@<TRIPOS>MOLECULE
NONAME
53 56 1 0 0 
SMALL
USER_CHARGES


@<TRIPOS>ATOM
  1 O       -3.4090    -0.6040     2.9110 O.3   1 <1>  -0.5600 
  2 C       -3.4230    -0.9030     1.5430 C.3   1 <1>   0.1200 
  3 C       -3.4920     0.7570     3.1970 C.3   1 <1>   0.1200 
  4 C       -4.6840    -0.3490     0.8550 C.3   1 <1>   0.2090 
  5 C       -4.7970     1.3370     2.6250 C.3   1 <1>   0.2090 
  6 N       -4.8970     1.1170     1.1330 N.pl3 1 <1>  -0.8380 
  7 C       -5.2700     2.0500     0.2180 C.ar  1 <1>   0.4610 
  8 N       -4.9750     3.3110     0.5470 N.ar  1 <1>  -0.1790 
  9 C       -5.9230     1.8730    -1.0560 C.ar  1 <1>  -0.1430 
 10 C       -5.2280     4.4400    -0.2030 C.ar  1 <1>   0.3610 
 11 C       -6.1900     2.9600    -1.8410 C.ar  1 <1>  -0.1500 
 12 C       -6.3860     0.5320    -1.6350 C.3   1 <1>   0.2530 
 13 C       -5.8530     4.2770    -1.4430 C.ar  1 <1>   0.0000 
 14 C       -4.8770     5.7210     0.2370 C.ar  1 <1>  -0.1500 
 15 N       -7.3280    -0.1830    -0.7640 N.3   1 <1>  -0.8100 
 16 C       -6.1150     5.4120    -2.2230 C.ar  1 <1>  -0.1500 
 17 C       -5.1420     6.8220    -0.5420 C.ar  1 <1>  -0.1500 
 18 C       -7.5310    -1.5650    -1.2700 C.3   1 <1>   0.2900 
 19 C       -8.6000     0.5250    -0.5000 C.3   1 <1>   0.1100 
 20 C       -5.7650     6.6640    -1.7790 C.ar  1 <1>  -0.1500 
 21 C       -6.7990    -2.5470    -0.3770 C.2   1 <1>   0.0060 
 22 C       -9.1930     0.1500     0.8730 C.3   1 <1>   0.1200 
 23 N       -5.6800    -3.1380    -0.6610 N.2   1 <1>  -0.5650 
 24 N       -7.2910    -2.8700     0.8360 N.pl3 1 <1>   0.0330 
 25 O       -9.6580    -1.1650     0.9090 O.3   1 <1>  -0.6800 
 26 C       -5.4390    -3.8990     0.4260 C.2   1 <1>   0.0770 
 27 C       -6.4090    -3.7430     1.3530 C.2   1 <1>  -0.3020 
 28 H       -3.3950    -1.9740     1.4410 H     1 <1>   0.0800 
 29 H       -2.5360    -0.4930     1.0920 H     1 <1>   0.0800 
 30 H       -2.6290     1.2500     2.7840 H     1 <1>   0.0800 
 31 H       -3.4740     0.8610     4.2680 H     1 <1>   0.0800 
 32 H       -5.5350    -0.8990     1.2100 H     1 <1>   0.0800 
 33 H       -4.5680    -0.5410    -0.1900 H     1 <1>   0.0800 
 34 H       -4.8690     2.3740     2.8900 H     1 <1>   0.0800 
 35 H       -5.6210     0.8320     3.1040 H     1 <1>   0.0800 
 36 H       -4.4560     3.4190     1.4070 H     1 <1>   0.4570 
 37 H       -6.6770     2.8600    -2.7990 H     1 <1>   0.1500 
 38 H       -5.5300    -0.0840    -1.8430 H     1 <1>   0.0800 
 39 H       -6.8690     0.6920    -2.5850 H     1 <1>   0.0800 
 40 H       -4.3960     5.8560     1.1900 H     1 <1>   0.1500 
 41 H       -6.5950     5.2980    -3.1810 H     1 <1>   0.1500 
 42 H       -4.8750     7.8140    -0.2120 H     1 <1>   0.1500 
 43 H       -7.1620    -1.6690    -2.2760 H     1 <1>   0.0800 
 44 H       -8.5740    -1.8240    -1.2860 H     1 <1>   0.0800 
 45 H       -9.3130     0.3420    -1.2860 H     1 <1>   0.0800 
 46 H       -8.4160     1.5840    -0.4770 H     1 <1>   0.0800 
 47 H       -5.9680     7.5350    -2.3820 H     1 <1>   0.1500 
 48 H      -10.0180     0.7970     1.1150 H     1 <1>   0.0800 
 49 H       -8.4370     0.2560     1.6320 H     1 <1>   0.0800 
 50 H       -8.1550    -2.4790     1.2420 H     1 <1>   0.2700 
 51 H      -10.5120    -1.2380     0.4360 H     1 <1>   0.4000 
 52 H       -4.5660    -4.5280     0.4860 H     1 <1>   0.1500 
 53 H       -6.5190    -4.1920     2.3230 H     1 <1>   0.1500 
@<TRIPOS>BOND
  1   1   2  1   
  2   1   3  1   
  3   2   4  1   
  4   2  28  1   
  5   2  29  1   
  6   3   5  1   
  7   3  30  1   
  8   3  31  1   
  9   4   6  1   
 10   4  32  1   
 11   4  33  1   
 12   5   6  1   
 13   5  34  1   
 14   5  35  1   
 15   6   7  1   
 16   7   8  ar  
 17   7   9  ar  
 18   8  10  ar  
 19   8  36  1   
 20   9  11  ar  
 21   9  12  1   
 22  10  13  ar  
 23  10  14  ar  
 24  11  13  ar  
 25  11  37  1   
 26  12  15  1   
 27  12  38  1   
 28  12  39  1   
 29  13  16  ar  
 30  14  17  ar  
 31  14  40  1   
 32  15  18  1   
 33  15  19  1   
 34  16  20  ar  
 35  16  41  1   
 36  17  20  ar  
 37  17  42  1   
 38  18  21  1   
 39  18  43  1   
 40  18  44  1   
 41  19  22  1   
 42  19  45  1   
 43  19  46  1   
 44  20  47  1   
 45  21  23  2   
 46  21  24  1   
 47  22  25  1   
 48  22  48  1   
 49  22  49  1   
 50  23  26  1   
 51  24  27  1   
 52  24  50  1   
 53  25  51  1   
 54  26  27  2   
 55  26  52  1   
 56  27  53  1   
@<TRIPOS>SUBSTRUCTURE
  1 ****   7 GROUP 4 **** **** 0

# MOE 2024.06 (io_trps.svl 2023.06)
