@<TRIPOS>MOLECULE
NONAME
36 36 1 0 0 
SMALL
USER_CHARGES


@<TRIPOS>ATOM
  1 O        0.0770    -0.3030     0.4820 O.2   1 <1>  -0.5700 
  2 C       -0.1600    -1.3940     0.0000 C.2   1 <1>   0.6900 
  3 N        0.8690    -2.2320    -0.3630 N.am  1 <1>  -0.6600 
  4 N       -1.4410    -1.8380    -0.1650 N.am  1 <1>  -0.5470 
  5 C        2.2710    -1.9410     0.0450 C.3   1 <1>   0.0600 
  6 C        0.7190    -3.3680    -1.3130 C.3   1 <1>   0.0600 
  7 C       -2.6910    -1.2430     0.0510 C.ar  1 <1>   0.1170 
  8 C       -3.8140    -2.0290     0.3450 C.ar  1 <1>  -0.1430 
  9 C       -2.8420     0.1370    -0.0510 C.ar  1 <1>  -0.1500 
 10 C       -5.0390    -1.4020     0.5320 C.ar  1 <1>  -0.1500 
 11 C       -3.7870    -3.5610     0.4810 C.3   1 <1>   0.0630 
 12 C       -4.0650     0.7510     0.1410 C.ar  1 <1>  -0.1430 
 13 C       -5.1680    -0.0290     0.4330 C.ar  1 <1>  -0.1500 
 14 C       -2.8670    -4.0440     1.6090 C.3   1 <1>  -0.2400 
 15 C       -3.4730    -4.2590    -0.8490 C.3   1 <1>  -0.2400 
 16 C       -4.1990     2.2580     0.0310 C.3   1 <1>  -0.0970 
 17 H       -1.4820    -2.8400    -0.2940 H     1 <1>   0.3700 
 18 H        2.2890    -1.2510     0.8720 H     1 <1>   0.0800 
 19 H        2.8040    -1.5030    -0.7810 H     1 <1>   0.0800 
 20 H        2.7620    -2.8480     0.3470 H     1 <1>   0.0800 
 21 H       -0.1570    -3.2400    -1.9250 H     1 <1>   0.0800 
 22 H        0.6440    -4.2920    -0.7660 H     1 <1>   0.0800 
 23 H        1.5750    -3.4160    -1.9640 H     1 <1>   0.0800 
 24 H       -1.9860     0.7410    -0.2870 H     1 <1>   0.1500 
 25 H       -5.9180    -1.9780     0.7600 H     1 <1>   0.1500 
 26 H       -4.7790    -3.8790     0.7560 H     1 <1>   0.0800 
 27 H       -6.1290     0.4290     0.5840 H     1 <1>   0.1500 
 28 H       -1.8300    -3.8860     1.3840 H     1 <1>   0.0800 
 29 H       -3.0170    -5.0950     1.7830 H     1 <1>   0.0800 
 30 H       -3.1000    -3.5140     2.5160 H     1 <1>   0.0800 
 31 H       -2.4670    -4.0800    -1.1710 H     1 <1>   0.0800 
 32 H       -4.1430    -3.9000    -1.6110 H     1 <1>   0.0800 
 33 H       -3.6140    -5.3210    -0.7490 H     1 <1>   0.0800 
 34 H       -3.2450     2.7330     0.1780 H     1 <1>   0.0800 
 35 H       -4.8800     2.6270     0.7760 H     1 <1>   0.0800 
 36 H       -4.5700     2.5200    -0.9440 H     1 <1>   0.0800 
@<TRIPOS>BOND
  1   1   2  2   
  2   2   3  am  
  3   2   4  am  
  4   3   5  1   
  5   3   6  1   
  6   4   7  1   
  7   4  17  1   
  8   5  18  1   
  9   5  19  1   
 10   5  20  1   
 11   6  21  1   
 12   6  22  1   
 13   6  23  1   
 14   7   8  ar  
 15   7   9  ar  
 16   8  10  ar  
 17   8  11  1   
 18   9  12  ar  
 19   9  24  1   
 20  10  13  ar  
 21  10  25  1   
 22  11  14  1   
 23  11  15  1   
 24  11  26  1   
 25  12  13  ar  
 26  12  16  1   
 27  13  27  1   
 28  14  28  1   
 29  14  29  1   
 30  14  30  1   
 31  15  31  1   
 32  15  32  1   
 33  15  33  1   
 34  16  34  1   
 35  16  35  1   
 36  16  36  1   
@<TRIPOS>SUBSTRUCTURE
  1 ****   7 GROUP 4 **** **** 0

# MOE 2024.06 (io_trps.svl 2023.06)
