@<TRIPOS>MOLECULE
NONAME
46 47 1 0 0 
SMALL
USER_CHARGES


@<TRIPOS>ATOM
  1 O        0.6070     0.0970     0.7910 O.2   1 <1>  -0.5700 
  2 C        1.2950    -0.5730     0.0390 C.2   1 <1>   0.7160 
  3 N        2.0280     0.0710    -0.9440 N.am  1 <1>  -0.6600 
  4 C        1.3420    -2.0140     0.1910 C.2   1 <1>  -0.0860 
  5 C        2.1960     1.5480    -0.9450 C.3   1 <1>   0.1400 
  6 C        2.6330    -0.6440    -2.1020 C.3   1 <1>   0.0600 
  7 C        0.3230    -2.9300     0.3070 C.2   1 <1>  -0.3320 
  8 C        2.5250    -2.7740     0.2600 C.2   1 <1>  -0.1500 
  9 C        3.4970     1.9090    -0.2270 C.3   1 <1>  -0.1600 
 10 N        0.8290    -4.1840     0.4330 N.pl3 1 <1>   0.0480 
 11 C       -1.1680    -2.6250     0.3020 C.3   1 <1>  -0.0600 
 12 C        2.1860    -4.0780     0.4000 C.2   1 <1>  -0.3320 
 13 C        3.7270     3.4290    -0.2270 C.3   1 <1>  -0.1600 
 14 C        0.0780    -5.4450     0.5900 C.3   1 <1>   0.0160 
 15 C        3.1280    -5.2640     0.5170 C.3   1 <1>  -0.0600 
 16 C        4.9780     3.8300     0.5600 C.3   1 <1>   0.2000 
 17 O        5.1090     5.2070     0.5050 O.3   1 <1>  -0.5600 
 18 C        6.2920     3.3080    -0.0050 C.3   1 <1>  -0.1600 
 19 C        6.4260     5.5810     0.7570 C.3   1 <1>   0.1200 
 20 C        7.2910     4.3640     0.4350 C.3   1 <1>  -0.1600 
 21 H        1.3640     2.0160    -0.4450 H     1 <1>   0.0800 
 22 H        2.2150     1.9120    -1.9580 H     1 <1>   0.0800 
 23 H        2.2050    -1.6260    -2.2120 H     1 <1>   0.0800 
 24 H        3.6940    -0.7400    -1.9550 H     1 <1>   0.0800 
 25 H        2.4490    -0.0970    -3.0100 H     1 <1>   0.0800 
 26 H        3.5140    -2.3530     0.2110 H     1 <1>   0.1500 
 27 H        4.3190     1.4180    -0.7170 H     1 <1>   0.0800 
 28 H        3.4390     1.5580     0.7890 H     1 <1>   0.0800 
 29 H       -1.3420    -1.5730     0.1620 H     1 <1>   0.0800 
 30 H       -1.6060    -2.9140     1.2400 H     1 <1>   0.0800 
 31 H       -1.6540    -3.1560    -0.4960 H     1 <1>   0.0800 
 32 H        2.8790     3.9130     0.2240 H     1 <1>   0.0800 
 33 H        3.8190     3.7810    -1.2400 H     1 <1>   0.0800 
 34 H       -0.9760    -5.2490     0.6270 H     1 <1>   0.0800 
 35 H        0.3820    -5.9220     1.5030 H     1 <1>   0.0800 
 36 H        0.2930    -6.0880    -0.2430 H     1 <1>   0.0800 
 37 H        4.1490    -4.9310     0.4630 H     1 <1>   0.0800 
 38 H        2.9520    -5.9580    -0.2850 H     1 <1>   0.0800 
 39 H        2.9810    -5.7630     1.4570 H     1 <1>   0.0800 
 40 H        4.8790     3.5560     1.5970 H     1 <1>   0.0800 
 41 H        6.2390     3.2750    -1.0790 H     1 <1>   0.0800 
 42 H        6.5300     2.3300     0.3730 H     1 <1>   0.0800 
 43 H        6.5050     5.8570     1.7950 H     1 <1>   0.0800 
 44 H        6.6630     6.4240     0.1310 H     1 <1>   0.0800 
 45 H        8.0060     4.5860    -0.3380 H     1 <1>   0.0800 
 46 H        7.8160     4.0530     1.3210 H     1 <1>   0.0800 
@<TRIPOS>BOND
  1   1   2  2   
  2   2   3  am  
  3   2   4  1   
  4   3   5  1   
  5   3   6  1   
  6   4   7  2   
  7   4   8  1   
  8   5   9  1   
  9   5  21  1   
 10   5  22  1   
 11   6  23  1   
 12   6  24  1   
 13   6  25  1   
 14   7  10  1   
 15   7  11  1   
 16   8  12  2   
 17   8  26  1   
 18   9  13  1   
 19   9  27  1   
 20   9  28  1   
 21  10  12  1   
 22  10  14  1   
 23  11  29  1   
 24  11  30  1   
 25  11  31  1   
 26  12  15  1   
 27  13  16  1   
 28  13  32  1   
 29  13  33  1   
 30  14  34  1   
 31  14  35  1   
 32  14  36  1   
 33  15  37  1   
 34  15  38  1   
 35  15  39  1   
 36  16  17  1   
 37  16  18  1   
 38  16  40  1   
 39  17  19  1   
 40  18  20  1   
 41  18  41  1   
 42  18  42  1   
 43  19  20  1   
 44  19  43  1   
 45  19  44  1   
 46  20  45  1   
 47  20  46  1   
@<TRIPOS>SUBSTRUCTURE
  1 ****   3 GROUP 4 **** **** 0

# MOE 2024.06 (io_trps.svl 2023.06)
