@<TRIPOS>MOLECULE
NONAME
51 55 1 0 0 
SMALL
USER_CHARGES


@<TRIPOS>ATOM
  1 N       -0.8490    -0.1460     0.3690 N.ar  1 <1>  -0.6200 
  2 C       -1.3590    -1.3460     0.3200 C.ar  1 <1>   0.4100 
  3 C        0.4910    -0.1070     0.5670 C.ar  1 <1>   0.3100 
  4 N       -2.7260    -1.4530     0.0920 N.pl3 1 <1>  -0.8380 
  5 C       -0.5520    -2.5100     0.4960 C.ar  1 <1>   0.1600 
  6 C        1.2780    -1.2770     0.7160 C.ar  1 <1>   0.3100 
  7 C        1.1310     1.1410     0.6220 C.ar  1 <1>  -0.1500 
  8 C       -3.6840    -0.3780     0.5220 C.3   1 <1>   0.2090 
  9 C       -3.3370    -2.5490    -0.7100 C.3   1 <1>   0.2090 
 10 N        0.7290    -2.5190     0.6830 N.ar  1 <1>  -0.6200 
 11 C        2.6600    -1.1440     0.9080 C.ar  1 <1>  -0.1500 
 12 C        2.4860     1.2440     0.8130 C.ar  1 <1>  -0.1500 
 13 C       -4.4390     0.2270    -0.6770 C.3   1 <1>   0.1440 
 14 C       -4.0920    -1.9690    -1.9120 C.3   1 <1>  -0.1600 
 15 C        3.2590     0.0900     0.9570 C.ar  1 <1>  -0.1500 
 16 C       -5.4340     1.2400    -0.1440 C.ar  1 <1>   0.1670 
 17 C       -5.1130    -0.8970    -1.4920 C.3   1 <1>  -0.1600 
 18 C       -3.5170     1.1100    -1.5600 C.3   1 <1>  -0.1600 
 19 N       -6.5600     0.9540     0.4630 N.ar  1 <1>  -0.6200 
 20 C       -5.0080     2.5160    -0.3540 C.ar  1 <1>  -0.1440 
 21 C       -3.6730     2.5540    -1.0550 C.3   1 <1>  -0.0170 
 22 C       -7.2790     2.0090     0.8550 C.ar  1 <1>   0.7200 
 23 C       -5.8110     3.5370     0.0860 C.ar  1 <1>   0.1600 
 24 N       -6.9500     3.2950     0.6910 N.ar  1 <1>  -0.6200 
 25 N       -8.4760     1.7450     1.4940 N.pl3 1 <1>  -0.8380 
 26 C       -8.8200     0.3890     2.0020 C.3   1 <1>   0.1290 
 27 C       -9.5020     2.8010     1.7160 C.3   1 <1>   0.1290 
 28 H       -1.0620    -3.4530     0.4820 H     1 <1>   0.1500 
 29 H        0.5200     2.0180     0.5100 H     1 <1>   0.1500 
 30 H       -3.1700     0.4010     1.0580 H     1 <1>   0.0800 
 31 H       -4.3990    -0.8110     1.1990 H     1 <1>   0.0800 
 32 H       -4.0180    -3.1020    -0.0840 H     1 <1>   0.0800 
 33 H       -2.5810    -3.2250    -1.0690 H     1 <1>   0.0800 
 34 H        3.2380    -2.0430     1.0180 H     1 <1>   0.1500 
 35 H        2.9650     2.2080     0.8530 H     1 <1>   0.1500 
 36 H       -4.6000    -2.7650    -2.4250 H     1 <1>   0.0800 
 37 H       -3.3760    -1.5470    -2.5960 H     1 <1>   0.0800 
 38 H        4.3220     0.1810     1.1050 H     1 <1>   0.1500 
 39 H       -5.6010    -0.4850    -2.3580 H     1 <1>   0.0800 
 40 H       -5.8720    -1.3590    -0.8850 H     1 <1>   0.0800 
 41 H       -3.8570     1.0760    -2.5790 H     1 <1>   0.0800 
 42 H       -2.4920     0.7880    -1.5390 H     1 <1>   0.0800 
 43 H       -3.6620     3.2610    -1.8660 H     1 <1>   0.0800 
 44 H       -2.8970     2.7910    -0.3470 H     1 <1>   0.0800 
 45 H       -5.5180     4.5620    -0.0580 H     1 <1>   0.1500 
 46 H       -7.9280    -0.1470     2.2800 H     1 <1>   0.0800 
 47 H       -9.3330    -0.1620     1.2330 H     1 <1>   0.0800 
 48 H       -9.4520     0.4660     2.8680 H     1 <1>   0.0800 
 49 H       -9.4480     3.5480     0.9430 H     1 <1>   0.0800 
 50 H       -9.3330     3.2710     2.6690 H     1 <1>   0.0800 
 51 H      -10.4870     2.3700     1.7000 H     1 <1>   0.0800 
@<TRIPOS>BOND
  1   1   2  ar  
  2   1   3  ar  
  3   2   4  1   
  4   2   5  ar  
  5   3   6  ar  
  6   3   7  ar  
  7   4   8  1   
  8   4   9  1   
  9   5  10  ar  
 10   5  28  1   
 11   6  10  ar  
 12   6  11  ar  
 13   7  12  ar  
 14   7  29  1   
 15   8  13  1   
 16   8  30  1   
 17   8  31  1   
 18   9  14  1   
 19   9  32  1   
 20   9  33  1   
 21  11  15  ar  
 22  11  34  1   
 23  12  15  ar  
 24  12  35  1   
 25  13  16  1   
 26  13  17  1   
 27  13  18  1   
 28  14  17  1   
 29  14  36  1   
 30  14  37  1   
 31  15  38  1   
 32  16  19  ar  
 33  16  20  ar  
 34  17  39  1   
 35  17  40  1   
 36  18  21  1   
 37  18  41  1   
 38  18  42  1   
 39  19  22  ar  
 40  20  21  1   
 41  20  23  ar  
 42  21  43  1   
 43  21  44  1   
 44  22  24  ar  
 45  22  25  1   
 46  23  24  ar  
 47  23  45  1   
 48  25  26  1   
 49  25  27  1   
 50  26  46  1   
 51  26  47  1   
 52  26  48  1   
 53  27  49  1   
 54  27  50  1   
 55  27  51  1   
@<TRIPOS>SUBSTRUCTURE
  1 ****   8 GROUP 4 **** **** 0

# MOE 2024.06 (io_trps.svl 2023.06)
