@<TRIPOS>MOLECULE
NONAME
45 47 1 0 0 
SMALL
USER_CHARGES


@<TRIPOS>ATOM
  1 S        0.0850    -0.0800    -0.3320 S.o2  1 <1>   1.0900 
  2 O        1.5110     0.1380    -0.4090 O.2   1 <1>  -0.6500 
  3 O       -0.8180     1.0200    -0.5750 O.2   1 <1>  -0.6500 
  4 C       -0.3200    -1.4270    -1.4500 C.3   1 <1>   0.0890 
  5 C       -0.2730    -0.7330     1.2900 C.3   1 <1>  -0.1350 
  6 C       -1.6720    -2.0710    -1.1730 C.ar  1 <1>  -0.1440 
  7 C       -1.7590    -3.3720    -0.7060 C.ar  1 <1>   0.1600 
  8 C       -2.8420    -1.3630    -1.3680 C.ar  1 <1>  -0.1500 
  9 N       -2.8840    -4.0010    -0.4210 N.ar  1 <1>  -0.6200 
 10 C       -4.0200    -2.0110    -1.0790 C.ar  1 <1>  -0.1500 
 11 C       -4.0130    -3.3270    -0.6160 C.ar  1 <1>   0.4100 
 12 N       -5.1970    -3.9920    -0.3220 N.pl3 1 <1>  -0.8380 
 13 C       -6.4890    -3.6380    -0.9720 C.3   1 <1>   0.2090 
 14 C       -5.2050    -5.4530    -0.0020 C.3   1 <1>   0.2090 
 15 C       -7.4560    -4.7340    -0.5260 C.3   1 <1>   0.2000 
 16 C       -6.5700    -5.9790    -0.4610 C.3   1 <1>  -0.0800 
 17 O       -7.9020    -4.4170     0.7490 O.3   1 <1>  -0.6800 
 18 C       -7.1170    -7.1320     0.4020 C.3   1 <1>  -0.0170 
 19 C       -6.2130    -8.3530     0.3200 C.ar  1 <1>  -0.1430 
 20 C       -6.3160    -9.2640    -0.7110 C.ar  1 <1>  -0.1500 
 21 C       -5.2450    -8.6120     1.2690 C.ar  1 <1>  -0.1500 
 22 C       -5.4680   -10.3590    -0.7440 C.ar  1 <1>   0.1600 
 23 C       -4.4460    -9.7370     1.1420 C.ar  1 <1>   0.1600 
 24 N       -4.5350   -10.6180     0.1580 N.ar  1 <1>  -0.6200 
 25 H       -0.3110    -1.0610    -2.4590 H     1 <1>   0.0800 
 26 H        0.4440    -2.1780    -1.3830 H     1 <1>   0.0800 
 27 H        0.3080    -1.6130     1.4830 H     1 <1>   0.0800 
 28 H       -1.3140    -0.9770     1.3800 H     1 <1>   0.0800 
 29 H       -0.0350     0.0000     2.0380 H     1 <1>   0.0800 
 30 H       -0.8550    -3.9360    -0.5530 H     1 <1>   0.1500 
 31 H       -2.8400    -0.3450    -1.7240 H     1 <1>   0.1500 
 32 H       -4.9490    -1.4930    -1.2040 H     1 <1>   0.1500 
 33 H       -6.8370    -2.6660    -0.6680 H     1 <1>   0.0800 
 34 H       -6.3660    -3.6650    -2.0410 H     1 <1>   0.0800 
 35 H       -4.4130    -5.9780    -0.5100 H     1 <1>   0.0800 
 36 H       -5.0810    -5.5720     1.0600 H     1 <1>   0.0800 
 37 H       -8.3070    -4.8420    -1.1750 H     1 <1>   0.0800 
 38 H       -6.4460    -6.3410    -1.4660 H     1 <1>   0.0800 
 39 H       -7.1230    -4.1290     1.2700 H     1 <1>   0.4000 
 40 H       -8.1030    -7.3950     0.0610 H     1 <1>   0.0800 
 41 H       -7.2060    -6.8210     1.4290 H     1 <1>   0.0800 
 42 H       -7.0460    -9.1340    -1.4880 H     1 <1>   0.1500 
 43 H       -5.1010    -7.9520     2.1040 H     1 <1>   0.1500 
 44 H       -5.5630   -11.0600    -1.5550 H     1 <1>   0.1500 
 45 H       -3.6940    -9.9210     1.8900 H     1 <1>   0.1500 
@<TRIPOS>BOND
  1   1   2  2   
  2   1   3  2   
  3   1   4  1   
  4   1   5  1   
  5   4   6  1   
  6   4  25  1   
  7   4  26  1   
  8   5  27  1   
  9   5  28  1   
 10   5  29  1   
 11   6   7  ar  
 12   6   8  ar  
 13   7   9  ar  
 14   7  30  1   
 15   8  10  ar  
 16   8  31  1   
 17   9  11  ar  
 18  10  11  ar  
 19  10  32  1   
 20  11  12  1   
 21  12  13  1   
 22  12  14  1   
 23  13  15  1   
 24  13  33  1   
 25  13  34  1   
 26  14  16  1   
 27  14  35  1   
 28  14  36  1   
 29  15  16  1   
 30  15  17  1   
 31  15  37  1   
 32  16  18  1   
 33  16  38  1   
 34  17  39  1   
 35  18  19  1   
 36  18  40  1   
 37  18  41  1   
 38  19  20  ar  
 39  19  21  ar  
 40  20  22  ar  
 41  20  42  1   
 42  21  23  ar  
 43  21  43  1   
 44  22  24  ar  
 45  22  44  1   
 46  23  24  ar  
 47  23  45  1   
@<TRIPOS>SUBSTRUCTURE
  1 ****   9 GROUP 4 **** **** 0

# MOE 2024.06 (io_trps.svl 2023.06)
