@<TRIPOS>MOLECULE
NONAME
47 50 1 0 0 
SMALL
USER_CHARGES


@<TRIPOS>ATOM
  1 F       -1.1300    -1.5730     0.4700 F     1 <1>  -0.3400 
  2 C       -2.3800    -1.2480     0.7650 C.3   1 <1>   1.1640 
  3 F       -2.6320    -1.7710     1.9600 F     1 <1>  -0.3400 
  4 F       -2.4020     0.0700     0.9240 F     1 <1>  -0.3400 
  5 C       -3.3730    -1.7510    -0.2960 C.ar  1 <1>  -0.1440 
  6 C       -3.7300    -3.0950    -0.3320 C.ar  1 <1>  -0.1500 
  7 C       -3.9290    -0.8920    -1.2380 C.ar  1 <1>  -0.1500 
  8 C       -4.6380    -3.6010    -1.2630 C.ar  1 <1>   0.0860 
  9 C       -4.8160    -1.3710    -2.1840 C.ar  1 <1>  -0.1500 
 10 C       -5.0350    -4.9990    -1.2600 C.2   1 <1>   0.5440 
 11 C       -5.1630    -2.7080    -2.1950 C.ar  1 <1>  -0.1500 
 12 O       -5.4200    -5.5420    -2.2770 O.2   1 <1>  -0.5700 
 13 N       -5.0790    -5.7430    -0.1020 N.am  1 <1>  -0.6600 
 14 C       -5.8360    -5.2450     1.0850 C.3   1 <1>   0.1400 
 15 C       -5.0460    -7.2320    -0.1930 C.3   1 <1>   0.1400 
 16 C       -7.2790    -5.8100     1.1040 C.3   1 <1>   0.4230 
 17 C       -6.4830    -7.7810    -0.2390 C.3   1 <1>   0.3430 
 18 N       -7.3070    -7.3230     0.9470 N.4   1 <1>  -0.9590 
 19 C       -8.1500    -5.1230     0.0250 C.3   1 <1>   0.1200 
 20 C       -8.7320    -7.7970     0.8810 C.3   1 <1>   0.5180 
 21 O       -9.4510    -5.6310     0.0640 O.3   1 <1>  -0.5600 
 22 C       -8.7570    -9.3280     0.6970 C.3   1 <1>  -0.1950 
 23 C       -9.5430    -7.0080    -0.1780 C.3   1 <1>   0.1200 
 24 C       -8.7280   -10.0330    -0.6290 C.3   1 <1>  -0.2000 
 25 C       -9.9690   -10.0700     0.2180 C.3   1 <1>  -0.2000 
 26 H       -3.2900    -3.7760     0.3780 H     1 <1>   0.1500 
 27 H       -3.6740     0.1560    -1.2470 H     1 <1>   0.1500 
 28 H       -5.2350    -0.6990    -2.9150 H     1 <1>   0.1500 
 29 H       -5.8510    -3.0690    -2.9420 H     1 <1>   0.1500 
 30 H       -5.3200    -5.5420     1.9820 H     1 <1>   0.0800 
 31 H       -5.8750    -4.1690     1.0790 H     1 <1>   0.0800 
 32 H       -4.5210    -7.5320    -1.0840 H     1 <1>   0.0800 
 33 H       -4.5160    -7.6380     0.6510 H     1 <1>   0.0800 
 34 H       -7.7120    -5.5510     2.0560 H     1 <1>   0.0800 
 35 H       -6.4410    -8.8570    -0.2670 H     1 <1>   0.0800 
 36 H       -6.9390    -7.4450    -1.1560 H     1 <1>   0.0800 
 37 H       -6.8930    -7.7380     1.7870 H     1 <1>   0.4500 
 38 H       -7.7530    -5.2710    -0.9640 H     1 <1>   0.0800 
 39 H       -8.2100    -4.0650     0.2110 H     1 <1>   0.0800 
 40 H       -9.2010    -7.5890     1.8300 H     1 <1>   0.0800 
 41 H       -8.2500    -9.8100     1.5150 H     1 <1>   0.1000 
 42 H      -10.5840    -7.2710    -0.1200 H     1 <1>   0.0800 
 43 H       -9.1940    -7.2070    -1.1760 H     1 <1>   0.0800 
 44 H       -8.7870    -9.4940    -1.5590 H     1 <1>   0.1000 
 45 H       -8.1660   -10.9470    -0.7300 H     1 <1>   0.1000 
 46 H      -10.2300   -11.0020     0.6930 H     1 <1>   0.1000 
 47 H      -10.8400    -9.5560    -0.1510 H     1 <1>   0.1000 
@<TRIPOS>BOND
  1   1   2  1   
  2   2   3  1   
  3   2   4  1   
  4   2   5  1   
  5   5   6  ar  
  6   5   7  ar  
  7   6   8  ar  
  8   6  26  1   
  9   7   9  ar  
 10   7  27  1   
 11   8  10  1   
 12   8  11  ar  
 13   9  11  ar  
 14   9  28  1   
 15  10  12  2   
 16  10  13  am  
 17  11  29  1   
 18  13  14  1   
 19  13  15  1   
 20  14  16  1   
 21  14  30  1   
 22  14  31  1   
 23  15  17  1   
 24  15  32  1   
 25  15  33  1   
 26  16  18  1   
 27  16  19  1   
 28  16  34  1   
 29  17  18  1   
 30  17  35  1   
 31  17  36  1   
 32  18  20  1   
 33  18  37  1   
 34  19  21  1   
 35  19  38  1   
 36  19  39  1   
 37  20  22  1   
 38  20  23  1   
 39  20  40  1   
 40  21  23  1   
 41  22  24  1   
 42  22  25  1   
 43  22  41  1   
 44  23  42  1   
 45  23  43  1   
 46  24  25  1   
 47  24  44  1   
 48  24  45  1   
 49  25  46  1   
 50  25  47  1   
@<TRIPOS>SUBSTRUCTURE
  1 ****  13 GROUP 4 **** **** 0

# MOE 2024.06 (io_trps.svl 2023.06)
