@<TRIPOS>MOLECULE
NONAME
40 42 1 0 0 
SMALL
USER_CHARGES


@<TRIPOS>ATOM
  1 O        0.4830     2.1800    -1.0140 O.2   1 <1>  -0.5700 
  2 C       -0.1160     3.1870    -0.7140 C.2   1 <1>   0.5690 
  3 N       -1.1310     3.2080     0.2100 N.am  1 <1>  -0.5090 
  4 C        0.3400     4.4860    -1.3880 C.3   1 <1>   0.1810 
  5 C       -1.7780     4.4940     0.6070 C.3   1 <1>   0.3640 
  6 C       -1.4830     2.0290     1.0400 C.3   1 <1>   0.0490 
  7 O       -0.4750     5.6130    -1.1300 O.3   1 <1>  -0.5600 
  8 C       -3.1780     4.5900     0.0030 C.ar  1 <1>  -0.1440 
  9 C       -0.9380     5.7300     0.2080 C.3   1 <1>   0.2610 
 10 C       -1.7920     0.7230     0.3770 C.3   1 <1>  -0.2000 
 11 C       -2.8870     1.5050     1.0280 C.3   1 <1>  -0.2000 
 12 C       -4.2600     4.8580     0.8290 C.ar  1 <1>   0.1600 
 13 C       -3.4100     4.4190    -1.3500 C.ar  1 <1>  -0.1500 
 14 C        0.2010     6.0140     1.1980 C.2   1 <1>   0.5690 
 15 N       -5.5150     4.9730     0.4280 N.ar  1 <1>  -0.6200 
 16 C       -4.7120     4.5320    -1.7860 C.ar  1 <1>  -0.1500 
 17 O        0.0970     5.6540     2.3470 O.2   1 <1>  -0.5700 
 18 N        1.2980     6.6920     0.7630 N.am  1 <1>  -0.7300 
 19 C       -5.7120     4.8060    -0.8700 C.ar  1 <1>   0.1600 
 20 C        2.4940     7.0080     1.5650 C.3   1 <1>   0.1400 
 21 C        3.7150     6.4360     0.8540 C.3   1 <1>  -0.2400 
 22 H        0.3570     4.3370    -2.4520 H     1 <1>   0.0800 
 23 H        1.3400     4.7080    -1.0650 H     1 <1>   0.0800 
 24 H       -1.8890     4.4900     1.6780 H     1 <1>   0.0800 
 25 H       -0.9300     2.0010     1.9640 H     1 <1>   0.1000 
 26 H       -1.5810     6.5900     0.2330 H     1 <1>   0.0800 
 27 H       -1.7540     0.6710    -0.6970 H     1 <1>   0.1000 
 28 H       -1.4530    -0.1820     0.8470 H     1 <1>   0.1000 
 29 H       -3.3070     1.1200     1.9400 H     1 <1>   0.1000 
 30 H       -3.6310     1.9340     0.3800 H     1 <1>   0.1000 
 31 H       -4.0920     4.9870     1.8850 H     1 <1>   0.1500 
 32 H       -2.6130     4.2050    -2.0410 H     1 <1>   0.1500 
 33 H       -4.9520     4.4080    -2.8260 H     1 <1>   0.1500 
 34 H        1.3220     6.9940    -0.2160 H     1 <1>   0.3700 
 35 H       -6.7260     4.8920    -1.2220 H     1 <1>   0.1500 
 36 H        2.5860     8.0760     1.6660 H     1 <1>   0.0800 
 37 H        2.4060     6.5780     2.5490 H     1 <1>   0.0800 
 38 H        3.8280     6.8770    -0.1200 H     1 <1>   0.0800 
 39 H        3.6240     5.3690     0.7610 H     1 <1>   0.0800 
 40 H        4.5980     6.6510     1.4290 H     1 <1>   0.0800 
@<TRIPOS>BOND
  1   1   2  2   
  2   2   3  am  
  3   2   4  1   
  4   3   5  1   
  5   3   6  1   
  6   4   7  1   
  7   4  22  1   
  8   4  23  1   
  9   5   8  1   
 10   5   9  1   
 11   5  24  1   
 12   6  10  1   
 13   6  11  1   
 14   6  25  1   
 15   7   9  1   
 16   8  12  ar  
 17   8  13  ar  
 18   9  14  1   
 19   9  26  1   
 20  10  11  1   
 21  10  27  1   
 22  10  28  1   
 23  11  29  1   
 24  11  30  1   
 25  12  15  ar  
 26  12  31  1   
 27  13  16  ar  
 28  13  32  1   
 29  14  17  2   
 30  14  18  am  
 31  15  19  ar  
 32  16  19  ar  
 33  16  33  1   
 34  18  20  1   
 35  18  34  1   
 36  19  35  1   
 37  20  21  1   
 38  20  36  1   
 39  20  37  1   
 40  21  38  1   
 41  21  39  1   
 42  21  40  1   
@<TRIPOS>SUBSTRUCTURE
  1 ****   5 GROUP 4 **** **** 0

# MOE 2024.06 (io_trps.svl 2023.06)
