@<TRIPOS>MOLECULE
NONAME
50 50 1 0 0 
SMALL
USER_CHARGES


@<TRIPOS>ATOM
  1 O        0.4430    -0.9770     1.1580 O.2   1 <1>  -0.5700 
  2 C        0.3100    -1.4820     0.0740 C.2   1 <1>   0.5690 
  3 N        1.3620    -1.4870    -0.7800 N.am  1 <1>  -0.8000 
  4 C       -1.0570    -2.1500    -0.2600 C.3   1 <1>   0.4840 
  5 N       -1.1590    -3.6040     0.1750 N.4   1 <1>  -0.9590 
  6 C       -1.3790    -2.0380    -1.7590 C.3   1 <1>  -0.2400 
  7 C       -2.5370    -4.1640    -0.0240 C.3   1 <1>   0.3430 
  8 C       -0.7220    -3.7620     1.5950 C.3   1 <1>   0.3430 
  9 C       -2.5690    -5.6890     0.1050 C.3   1 <1>  -0.0990 
 10 C        0.6000    -4.5170     1.6080 C.3   1 <1>  -0.2400 
 11 C       -3.9590    -6.1870    -0.2170 C.2   1 <1>   0.5690 
 12 O       -4.7650    -5.4030    -0.6530 O.2   1 <1>  -0.5700 
 13 N       -4.2450    -7.4930    -0.0040 N.am  1 <1>  -0.7300 
 14 C       -5.5520    -8.1270    -0.2660 C.3   1 <1>   0.2200 
 15 C       -6.0750    -8.6940     1.0610 C.3   1 <1>  -0.1600 
 16 C       -5.3510    -9.1640    -1.3760 C.3   1 <1>  -0.1600 
 17 C       -7.5610    -9.0800     0.9860 C.3   1 <1>  -0.1600 
 18 C       -6.6000    -9.9880    -1.7300 C.3   1 <1>  -0.1600 
 19 C       -7.8350   -10.5070     0.4870 C.3   1 <1>  -0.1600 
 20 C       -6.9440   -11.0260    -0.6510 C.3   1 <1>  -0.1600 
 21 H        2.2240    -1.0120    -0.4960 H     1 <1>   0.3700 
 22 H        1.3510    -1.8120    -1.7490 H     1 <1>   0.3700 
 23 H       -1.7980    -1.5830     0.2790 H     1 <1>   0.0800 
 24 H       -0.4990    -4.1330    -0.4050 H     1 <1>   0.4500 
 25 H       -0.7640    -2.7010    -2.3410 H     1 <1>   0.0800 
 26 H       -1.1920    -1.0300    -2.0880 H     1 <1>   0.0800 
 27 H       -2.4160    -2.2380    -1.9560 H     1 <1>   0.0800 
 28 H       -2.8980    -3.9180    -1.0090 H     1 <1>   0.0800 
 29 H       -3.2220    -3.7290     0.6870 H     1 <1>   0.0800 
 30 H       -1.4550    -4.3170     2.1570 H     1 <1>   0.0800 
 31 H       -0.6030    -2.8020     2.0740 H     1 <1>   0.0800 
 32 H       -2.3240    -5.9960     1.1040 H     1 <1>   0.0800 
 33 H       -1.8850    -6.1350    -0.5920 H     1 <1>   0.0800 
 34 H        0.4930    -5.4940     1.1700 H     1 <1>   0.0800 
 35 H        0.9200    -4.6430     2.6270 H     1 <1>   0.0800 
 36 H        1.3660    -3.9660     1.0920 H     1 <1>   0.0800 
 37 H       -3.5410    -8.1380     0.3530 H     1 <1>   0.3700 
 38 H       -6.2430    -7.3770    -0.6170 H     1 <1>   0.0800 
 39 H       -5.9860    -7.9210     1.8050 H     1 <1>   0.0800 
 40 H       -5.4850    -9.5340     1.3810 H     1 <1>   0.0800 
 41 H       -4.5550    -9.8350    -1.1070 H     1 <1>   0.0800 
 42 H       -5.0460    -8.6360    -2.2630 H     1 <1>   0.0800 
 43 H       -8.0810    -8.3760     0.3590 H     1 <1>   0.0800 
 44 H       -7.9900    -8.9890     1.9690 H     1 <1>   0.0800 
 45 H       -6.3900   -10.5200    -2.6420 H     1 <1>   0.0800 
 46 H       -7.4420    -9.3450    -1.9240 H     1 <1>   0.0800 
 47 H       -8.8630   -10.5510     0.1670 H     1 <1>   0.0800 
 48 H       -7.7400   -11.1870     1.3160 H     1 <1>   0.0800 
 49 H       -6.0350   -11.4300    -0.2390 H     1 <1>   0.0800 
 50 H       -7.4590   -11.8480    -1.1190 H     1 <1>   0.0800 
@<TRIPOS>BOND
  1   1   2  2   
  2   2   3  am  
  3   2   4  1   
  4   3  21  1   
  5   3  22  1   
  6   4   5  1   
  7   4   6  1   
  8   4  23  1   
  9   5   7  1   
 10   5   8  1   
 11   5  24  1   
 12   6  25  1   
 13   6  26  1   
 14   6  27  1   
 15   7   9  1   
 16   7  28  1   
 17   7  29  1   
 18   8  10  1   
 19   8  30  1   
 20   8  31  1   
 21   9  11  1   
 22   9  32  1   
 23   9  33  1   
 24  10  34  1   
 25  10  35  1   
 26  10  36  1   
 27  11  12  2   
 28  11  13  am  
 29  13  14  1   
 30  13  37  1   
 31  14  15  1   
 32  14  16  1   
 33  14  38  1   
 34  15  17  1   
 35  15  39  1   
 36  15  40  1   
 37  16  18  1   
 38  16  41  1   
 39  16  42  1   
 40  17  19  1   
 41  17  43  1   
 42  17  44  1   
 43  18  20  1   
 44  18  45  1   
 45  18  46  1   
 46  19  20  1   
 47  19  47  1   
 48  19  48  1   
 49  20  49  1   
 50  20  50  1   
@<TRIPOS>SUBSTRUCTURE
  1 ****   9 GROUP 4 **** **** 0

# MOE 2024.06 (io_trps.svl 2023.06)
