@<TRIPOS>MOLECULE
NONAME
43 44 1 0 0 
SMALL
USER_CHARGES


@<TRIPOS>ATOM
  1 CL       2.2230    -3.4980     1.6180 Cl    1 <1>  -0.1770 
  2 C        0.7010    -4.0410     0.9570 C.ar  1 <1>   0.1770 
  3 C       -0.4590    -3.8480     1.6830 C.ar  1 <1>  -0.1500 
  4 C        0.6800    -4.6530    -0.2800 C.ar  1 <1>  -0.1500 
  5 C       -1.6720    -4.2770     1.1660 C.ar  1 <1>  -0.1440 
  6 C       -0.5270    -5.0840    -0.8020 C.ar  1 <1>  -0.1500 
  7 C       -1.7080    -4.9040    -0.0800 C.ar  1 <1>   0.0830 
  8 C       -2.9480    -4.0540     1.9670 C.3   1 <1>  -0.0960 
  9 O       -2.9240    -5.3140    -0.5330 O.3   1 <1>  -0.3630 
 10 C       -3.0890    -6.0330    -1.7480 C.3   1 <1>   0.1810 
 11 C       -2.4990    -7.4480    -1.7170 C.2   1 <1>   0.5690 
 12 O       -1.7490    -7.7270    -2.6240 O.2   1 <1>  -0.5700 
 13 N       -2.8180    -8.3840    -0.7570 N.am  1 <1>  -0.6600 
 14 C       -2.1100    -9.7060    -0.7990 C.3   1 <1>   0.3200 
 15 C       -3.5930    -8.0620     0.4960 C.3   1 <1>   0.1400 
 16 C       -2.8660   -10.8310    -0.1090 C.2   1 <1>  -0.3320 
 17 C       -5.0890    -7.8230     0.2150 C.3   1 <1>   0.1200 
 18 N       -4.1780   -11.0950    -0.2650 N.pl3 1 <1>   0.0330 
 19 C       -2.4020   -11.7580     0.7580 C.2   1 <1>   0.0770 
 20 O       -5.5070    -8.5970    -0.8620 O.3   1 <1>  -0.6800 
 21 C       -4.4260   -12.1610     0.5230 C.2   1 <1>   0.0060 
 22 N       -3.3830   -12.5910     1.1510 N.2   1 <1>  -0.5650 
 23 C       -5.8030   -12.7730     0.6540 C.3   1 <1>  -0.0600 
 24 H       -0.4010    -3.3640     2.6410 H     1 <1>   0.1500 
 25 H        1.5970    -4.7870    -0.8250 H     1 <1>   0.1500 
 26 H       -0.5180    -5.5550    -1.7670 H     1 <1>   0.1500 
 27 H       -2.7510    -3.4910     2.8620 H     1 <1>   0.0800 
 28 H       -3.3770    -4.9990     2.2440 H     1 <1>   0.0800 
 29 H       -3.6600    -3.5090     1.3740 H     1 <1>   0.0800 
 30 H       -2.6390    -5.4600    -2.5380 H     1 <1>   0.0800 
 31 H       -4.1420    -6.0950    -1.9440 H     1 <1>   0.0800 
 32 H       -1.1430    -9.5930    -0.3390 H     1 <1>   0.0800 
 33 H       -1.9480    -9.9950    -1.8240 H     1 <1>   0.0800 
 34 H       -3.1720    -7.1980     0.9760 H     1 <1>   0.0800 
 35 H       -3.5030    -8.8590     1.2130 H     1 <1>   0.0800 
 36 H       -5.2620    -6.7900    -0.0290 H     1 <1>   0.0800 
 37 H       -5.6870    -8.0760     1.0740 H     1 <1>   0.0800 
 38 H       -4.8670   -10.5500    -0.8000 H     1 <1>   0.2700 
 39 H       -1.3960   -11.8770     1.1270 H     1 <1>   0.1500 
 40 H       -4.7920    -8.5830    -1.5340 H     1 <1>   0.4000 
 41 H       -6.5000   -12.0380     1.0140 H     1 <1>   0.0800 
 42 H       -5.7720   -13.5920     1.3510 H     1 <1>   0.0800 
 43 H       -6.1340   -13.1430    -0.2990 H     1 <1>   0.0800 
@<TRIPOS>BOND
  1   1   2  1   
  2   2   3  ar  
  3   2   4  ar  
  4   3   5  ar  
  5   3  24  1   
  6   4   6  ar  
  7   4  25  1   
  8   5   7  ar  
  9   5   8  1   
 10   6   7  ar  
 11   6  26  1   
 12   7   9  1   
 13   8  27  1   
 14   8  28  1   
 15   8  29  1   
 16   9  10  1   
 17  10  11  1   
 18  10  30  1   
 19  10  31  1   
 20  11  12  2   
 21  11  13  am  
 22  13  14  1   
 23  13  15  1   
 24  14  16  1   
 25  14  32  1   
 26  14  33  1   
 27  15  17  1   
 28  15  34  1   
 29  15  35  1   
 30  16  18  1   
 31  16  19  2   
 32  17  20  1   
 33  17  36  1   
 34  17  37  1   
 35  18  21  1   
 36  18  38  1   
 37  19  22  1   
 38  19  39  1   
 39  20  40  1   
 40  21  22  2   
 41  21  23  1   
 42  23  41  1   
 43  23  42  1   
 44  23  43  1   
@<TRIPOS>SUBSTRUCTURE
  1 ****  13 GROUP 4 **** **** 0

# MOE 2024.06 (io_trps.svl 2023.06)
