@<TRIPOS>MOLECULE
NONAME
51 53 1 0 0 
SMALL
USER_CHARGES


@<TRIPOS>ATOM
  1 O        1.3040    -0.0950     1.5120 O.2   1 <1>  -0.5700 
  2 C        2.3190     0.0470     0.8680 C.2   1 <1>   0.7150 
  3 N        2.9770    -1.1060     0.5810 N.am  1 <1>  -0.7300 
  4 C        2.7330     1.3610     0.4670 C.2   1 <1>  -0.2370 
  5 C        4.3640    -1.4180     0.1390 C.3   1 <1>   0.1400 
  6 N        3.6630     1.6680    -0.4670 N.pl3 1 <1>   0.3140 
  7 C        2.2720     2.5590     0.9100 C.2   1 <1>  -0.1500 
  8 C        5.2130    -0.2170    -0.3070 C.3   1 <1>   0.2000 
  9 N        3.8150     2.9860    -0.6280 N.2   1 <1>  -0.7070 
 10 C        4.4800     0.7320    -1.2520 C.3   1 <1>   0.0960 
 11 C        2.9630     3.5470     0.2150 C.2   1 <1>   0.2030 
 12 O        6.3390    -0.7070    -0.9580 O.3   1 <1>  -0.6800 
 13 C        2.7730     4.9790     0.3940 C.2   1 <1>   0.7160 
 14 O        1.9650     5.4300     1.1890 O.2   1 <1>  -0.5700 
 15 N        3.5220     5.8480    -0.3490 N.am  1 <1>  -0.7300 
 16 C        3.4810     7.3210    -0.3000 C.3   1 <1>   0.1400 
 17 C        4.8930     7.8560    -0.0650 C.3   1 <1>  -0.1600 
 18 C        4.8950     9.3860     0.0350 C.3   1 <1>  -0.0170 
 19 C        6.3060     9.9070     0.2560 C.ar  1 <1>  -0.1430 
 20 C        6.8220     9.9980     1.5400 C.ar  1 <1>  -0.1500 
 21 C        7.0900    10.2960    -0.8190 C.ar  1 <1>  -0.1500 
 22 C        8.1040    10.4760     1.7440 C.ar  1 <1>  -0.1500 
 23 C        8.3740    10.7740    -0.6180 C.ar  1 <1>  -0.1500 
 24 C        8.8890    10.8670     0.6720 C.ar  1 <1>   0.0830 
 25 O       10.1330    11.3250     0.9600 O.3   1 <1>  -0.3630 
 26 C       11.0060    11.7600    -0.0560 C.3   1 <1>   0.1200 
 27 C       12.3060    12.2130     0.6020 C.3   1 <1>  -0.2400 
 28 H        2.4670    -1.9150     0.9440 H     1 <1>   0.3700 
 29 H        4.2910    -2.1130    -0.6800 H     1 <1>   0.0800 
 30 H        4.8760    -1.9110     0.9480 H     1 <1>   0.0800 
 31 H        1.5130     2.7380     1.6530 H     1 <1>   0.1500 
 32 H        5.5700     0.3240     0.5540 H     1 <1>   0.0800 
 33 H        5.1930     1.3110    -1.8120 H     1 <1>   0.0800 
 34 H        3.8410     0.1960    -1.9270 H     1 <1>   0.0800 
 35 H        6.1090    -1.1750    -1.7840 H     1 <1>   0.4000 
 36 H        4.1880     5.4100    -0.9920 H     1 <1>   0.3700 
 37 H        2.8280     7.6430     0.4950 H     1 <1>   0.0800 
 38 H        3.0900     7.6940    -1.2320 H     1 <1>   0.0800 
 39 H        5.5330     7.5550    -0.8750 H     1 <1>   0.0800 
 40 H        5.2800     7.4440     0.8510 H     1 <1>   0.0800 
 41 H        4.2680     9.6980     0.8520 H     1 <1>   0.0800 
 42 H        4.4930     9.8120    -0.8680 H     1 <1>   0.0800 
 43 H        6.2280     9.6980     2.3850 H     1 <1>   0.1500 
 44 H        6.7030    10.2270    -1.8210 H     1 <1>   0.1500 
 45 H        8.5060    10.5480     2.7380 H     1 <1>   0.1500 
 46 H        8.9530    11.0680    -1.4720 H     1 <1>   0.1500 
 47 H       10.5400    12.5760    -0.5800 H     1 <1>   0.0800 
 48 H       11.1850    10.9370    -0.7260 H     1 <1>   0.0800 
 49 H       12.1120    13.0230     1.2820 H     1 <1>   0.0800 
 50 H       12.9960    12.5520    -0.1490 H     1 <1>   0.0800 
 51 H       12.7530    11.3940     1.1360 H     1 <1>   0.0800 
@<TRIPOS>BOND
  1   1   2  2   
  2   2   3  am  
  3   2   4  1   
  4   3   5  1   
  5   3  28  1   
  6   4   6  1   
  7   4   7  2   
  8   5   8  1   
  9   5  29  1   
 10   5  30  1   
 11   6   9  1   
 12   6  10  1   
 13   7  11  1   
 14   7  31  1   
 15   8  10  1   
 16   8  12  1   
 17   8  32  1   
 18   9  11  2   
 19  10  33  1   
 20  10  34  1   
 21  11  13  1   
 22  12  35  1   
 23  13  14  2   
 24  13  15  am  
 25  15  16  1   
 26  15  36  1   
 27  16  17  1   
 28  16  37  1   
 29  16  38  1   
 30  17  18  1   
 31  17  39  1   
 32  17  40  1   
 33  18  19  1   
 34  18  41  1   
 35  18  42  1   
 36  19  20  ar  
 37  19  21  ar  
 38  20  22  ar  
 39  20  43  1   
 40  21  23  ar  
 41  21  44  1   
 42  22  24  ar  
 43  22  45  1   
 44  23  24  ar  
 45  23  46  1   
 46  24  25  1   
 47  25  26  1   
 48  26  27  1   
 49  26  47  1   
 50  26  48  1   
 51  27  49  1   
 52  27  50  1   
 53  27  51  1   
@<TRIPOS>SUBSTRUCTURE
  1 ****  15 GROUP 4 **** **** 0

# MOE 2024.06 (io_trps.svl 2023.06)
