@<TRIPOS>MOLECULE
NONAME
37 39 1 0 0 
SMALL
USER_CHARGES


@<TRIPOS>ATOM
  1 CL      -1.0520    -1.2920    -2.8990 Cl    1 <1>  -0.1770 
  2 C       -1.3280    -2.1530    -1.4070 C.ar  1 <1>   0.1770 
  3 C       -2.6200    -2.2860    -0.9320 C.ar  1 <1>  -0.1500 
  4 C       -0.2520    -2.6890    -0.7260 C.ar  1 <1>  -0.1500 
  5 C       -2.8460    -2.9690     0.2540 C.ar  1 <1>  -0.1440 
  6 C       -0.4770    -3.3720     0.4570 C.ar  1 <1>  -0.1500 
  7 C       -1.7680    -3.5100     0.9420 C.ar  1 <1>  -0.1500 
  8 C       -4.2610    -3.1330     0.7920 C.3   1 <1>   0.1640 
  9 C       -4.8700    -4.4470     0.3360 C.2   1 <1>  -0.0400 
 10 O       -6.0780    -4.7690     0.7120 O.3   1 <1>  -0.2800 
 11 C       -4.4090    -5.4440    -0.4350 C.2   1 <1>   0.0770 
 12 C       -6.3160    -5.9370     0.1660 C.2   1 <1>   0.2980 
 13 N       -5.3520    -6.4060    -0.5390 N.2   1 <1>  -0.5650 
 14 C       -7.6540    -6.6080     0.4050 C.3   1 <1>   0.1000 
 15 C       -7.6000    -8.0300    -0.1770 C.3   1 <1>   0.3430 
 16 C       -8.8010    -5.8000    -0.2300 C.3   1 <1>  -0.1600 
 17 N       -8.9290    -8.7240    -0.0990 N.4   1 <1>  -0.9060 
 18 C      -10.1310    -6.5690    -0.1670 C.3   1 <1>  -0.1600 
 19 C      -10.0140    -7.9660    -0.7820 C.3   1 <1>   0.3430 
 20 H       -3.4310    -1.8590    -1.4940 H     1 <1>   0.1500 
 21 H        0.7420    -2.5720    -1.1170 H     1 <1>   0.1500 
 22 H        0.3520    -3.7960     1.0000 H     1 <1>   0.1500 
 23 H       -1.9280    -4.0470     1.8620 H     1 <1>   0.1500 
 24 H       -4.8790    -2.3220     0.4530 H     1 <1>   0.0800 
 25 H       -4.2460    -3.1060     1.8670 H     1 <1>   0.0800 
 26 H       -3.4510    -5.5290    -0.9230 H     1 <1>   0.1500 
 27 H       -7.8020    -6.6730     1.4680 H     1 <1>   0.0800 
 28 H       -6.8500    -8.5980     0.3510 H     1 <1>   0.0800 
 29 H       -7.2900    -7.9630    -1.2080 H     1 <1>   0.0800 
 30 H       -8.5580    -5.5880    -1.2580 H     1 <1>   0.0800 
 31 H       -8.9010    -4.8550     0.2790 H     1 <1>   0.0800 
 32 H       -9.1850    -8.8640     0.8860 H     1 <1>   0.4500 
 33 H       -8.8460    -9.6590    -0.5200 H     1 <1>   0.4500 
 34 H      -10.8830    -6.0150    -0.7030 H     1 <1>   0.0800 
 35 H      -10.4640    -6.6500     0.8530 H     1 <1>   0.0800 
 36 H      -10.9530    -8.4880    -0.6820 H     1 <1>   0.0800 
 37 H       -9.7890    -7.8760    -1.8340 H     1 <1>   0.0800 
@<TRIPOS>BOND
  1   1   2  1   
  2   2   3  ar  
  3   2   4  ar  
  4   3   5  ar  
  5   3  20  1   
  6   4   6  ar  
  7   4  21  1   
  8   5   7  ar  
  9   5   8  1   
 10   6   7  ar  
 11   6  22  1   
 12   7  23  1   
 13   8   9  1   
 14   8  24  1   
 15   8  25  1   
 16   9  10  1   
 17   9  11  2   
 18  10  12  1   
 19  11  13  1   
 20  11  26  1   
 21  12  13  2   
 22  12  14  1   
 23  14  15  1   
 24  14  16  1   
 25  14  27  1   
 26  15  17  1   
 27  15  28  1   
 28  15  29  1   
 29  16  18  1   
 30  16  30  1   
 31  16  31  1   
 32  17  19  1   
 33  17  32  1   
 34  17  33  1   
 35  18  19  1   
 36  18  34  1   
 37  18  35  1   
 38  19  36  1   
 39  19  37  1   
@<TRIPOS>SUBSTRUCTURE
  1 ****   9 GROUP 4 **** **** 0

# MOE 2024.06 (io_trps.svl 2023.06)
