@<TRIPOS>MOLECULE
NONAME
47 49 1 0 0 
SMALL
USER_CHARGES


@<TRIPOS>ATOM
  1 F       -3.9800     3.6030    -2.4790 F     1 <1>  -0.1900 
  2 C       -3.8210     2.8180    -1.4490 C.ar  1 <1>   0.1900 
  3 C       -4.7250     1.7920    -1.2530 C.ar  1 <1>  -0.1500 
  4 C       -2.7600     3.0430    -0.5940 C.ar  1 <1>  -0.1500 
  5 C       -4.5670     0.9580    -0.1540 C.ar  1 <1>  -0.1440 
  6 C       -2.6030     2.2060     0.4970 C.ar  1 <1>  -0.1500 
  7 C       -3.5000     1.1700     0.7140 C.ar  1 <1>  -0.1500 
  8 C       -5.5540    -0.1660     0.1050 C.3   1 <1>   0.4870 
  9 N       -6.8760     0.4250     0.4300 N.4   1 <1>  -0.9590 
 10 C       -6.8570     1.3530     1.5970 C.3   1 <1>   0.3430 
 11 C       -7.9800    -0.5570     0.5140 C.3   1 <1>   0.3430 
 12 C       -8.2580     1.9240     1.8640 C.3   1 <1>  -0.1600 
 13 C       -9.3210     0.1800     0.4260 C.3   1 <1>  -0.1600 
 14 C       -9.2430     1.6980     0.7040 C.3   1 <1>   0.2800 
 15 O       -8.6670     2.2700    -0.4480 O.3   1 <1>  -0.5600 
 16 C      -10.6350     2.3020     1.0190 C.3   1 <1>  -0.1600 
 17 C       -9.0830     3.5550    -0.8250 C.3   1 <1>   0.1200 
 18 C      -11.4420     2.6840    -0.2310 C.3   1 <1>   0.2800 
 19 C      -10.5770     3.5590    -1.1960 C.3   1 <1>   0.2000 
 20 O      -11.7740     1.5110    -0.8770 O.3   1 <1>  -0.6800 
 21 C      -12.7900     3.3010     0.1680 C.3   1 <1>  -0.2400 
 22 O      -10.9970     4.8890    -1.2290 O.3   1 <1>  -0.6800 
 23 H       -5.5280     1.6660    -1.9590 H     1 <1>   0.1500 
 24 H       -2.0760     3.8520    -0.7830 H     1 <1>   0.1500 
 25 H       -1.7790     2.3600     1.1740 H     1 <1>   0.1500 
 26 H       -3.3510     0.5320     1.5700 H     1 <1>   0.1500 
 27 H       -5.2090    -0.7780     0.9230 H     1 <1>   0.0800 
 28 H       -5.6300    -0.7820    -0.7760 H     1 <1>   0.0800 
 29 H       -7.1470     1.0460    -0.3560 H     1 <1>   0.4500 
 30 H       -6.4970     0.8440     2.4760 H     1 <1>   0.0800 
 31 H       -6.1850     2.1700     1.3840 H     1 <1>   0.0800 
 32 H       -7.9150    -1.2700    -0.2910 H     1 <1>   0.0800 
 33 H       -7.9190    -1.0900     1.4490 H     1 <1>   0.0800 
 34 H       -8.1720     2.9730     2.0820 H     1 <1>   0.0800 
 35 H       -8.6510     1.4580     2.7500 H     1 <1>   0.0800 
 36 H       -9.9930    -0.2840     1.1240 H     1 <1>   0.0800 
 37 H       -9.7400     0.0180    -0.5510 H     1 <1>   0.0800 
 38 H      -11.2080     1.6290     1.6320 H     1 <1>   0.0800 
 39 H      -10.4990     3.1930     1.6050 H     1 <1>   0.0800 
 40 H       -8.8850     4.2250    -0.0070 H     1 <1>   0.0800 
 41 H       -8.4970     3.8550    -1.6760 H     1 <1>   0.0800 
 42 H      -10.6810     3.1900    -2.2020 H     1 <1>   0.0800 
 43 H      -12.4170     1.7040    -1.5870 H     1 <1>   0.4000 
 44 H      -12.6410     4.1830     0.7640 H     1 <1>   0.0800 
 45 H      -13.3680     2.6040     0.7500 H     1 <1>   0.0800 
 46 H      -13.3520     3.5810    -0.7050 H     1 <1>   0.0800 
 47 H      -11.0440     5.2670    -0.3300 H     1 <1>   0.4000 
@<TRIPOS>BOND
  1   1   2  1   
  2   2   3  ar  
  3   2   4  ar  
  4   3   5  ar  
  5   3  23  1   
  6   4   6  ar  
  7   4  24  1   
  8   5   7  ar  
  9   5   8  1   
 10   6   7  ar  
 11   6  25  1   
 12   7  26  1   
 13   8   9  1   
 14   8  27  1   
 15   8  28  1   
 16   9  10  1   
 17   9  11  1   
 18   9  29  1   
 19  10  12  1   
 20  10  30  1   
 21  10  31  1   
 22  11  13  1   
 23  11  32  1   
 24  11  33  1   
 25  12  14  1   
 26  12  34  1   
 27  12  35  1   
 28  13  14  1   
 29  13  36  1   
 30  13  37  1   
 31  14  15  1   
 32  14  16  1   
 33  15  17  1   
 34  16  18  1   
 35  16  38  1   
 36  16  39  1   
 37  17  19  1   
 38  17  40  1   
 39  17  41  1   
 40  18  19  1   
 41  18  20  1   
 42  18  21  1   
 43  19  22  1   
 44  19  42  1   
 45  20  43  1   
 46  21  44  1   
 47  21  45  1   
 48  21  46  1   
 49  22  47  1   
@<TRIPOS>SUBSTRUCTURE
  1 ****  15 GROUP 4 **** **** 0

# MOE 2024.06 (io_trps.svl 2023.06)
