@<TRIPOS>MOLECULE
NONAME
52 55 1 0 0 
SMALL
USER_CHARGES


@<TRIPOS>ATOM
  1 N        0.0740    -2.0190     1.7880 N.ar  1 <1>  -0.6200 
  2 C        0.0270    -2.0640     0.4730 C.ar  1 <1>   0.4100 
  3 C        1.2380    -1.6860     2.3020 C.ar  1 <1>   0.4700 
  4 N       -1.1740    -2.4470    -0.0800 N.pl3 1 <1>  -0.8380 
  5 C        1.1400    -1.7660    -0.3090 C.ar  1 <1>  -0.1430 
  6 N        2.3610    -1.4000     1.6730 N.ar  1 <1>  -0.6200 
  7 C       -1.3130    -3.8900    -0.4490 C.3   1 <1>   0.2090 
  8 C       -2.4260    -1.8060     0.4390 C.3   1 <1>   0.2090 
  9 C        2.3040    -1.4480     0.3580 C.ar  1 <1>   0.1670 
 10 C        1.0530    -1.7920    -1.8370 C.3   1 <1>  -0.0960 
 11 C       -2.5070    -4.5640     0.2560 C.3   1 <1>   0.2090 
 12 C       -3.6900    -2.3930    -0.2210 C.3   1 <1>   0.2090 
 13 C        3.6050    -1.1260    -0.3540 C.3   1 <1>  -0.0960 
 14 N       -3.8270    -3.8900    -0.0510 N.pl3 1 <1>  -0.8380 
 15 C       -4.9790    -4.5690    -0.3090 C.ar  1 <1>   0.1000 
 16 C       -5.3120    -5.8450     0.2650 C.ar  1 <1>   0.0000 
 17 C       -5.8920    -4.0410    -1.2280 C.ar  1 <1>  -0.1500 
 18 C       -6.3590    -6.6100    -0.2930 C.ar  1 <1>   0.3610 
 19 C       -4.6980    -6.3760     1.4120 C.ar  1 <1>  -0.1500 
 20 C       -6.9530    -4.7700    -1.6890 C.ar  1 <1>   0.2110 
 21 N       -7.1500    -6.0260    -1.2560 N.ar  1 <1>  -0.1790 
 22 C       -6.6360    -7.9190     0.1580 C.ar  1 <1>  -0.1430 
 23 C       -4.9990    -7.6260     1.8800 C.ar  1 <1>  -0.1500 
 24 C       -5.9550    -8.4220     1.2480 C.ar  1 <1>  -0.1430 
 25 C       -7.7020    -8.7600    -0.5600 C.3   1 <1>  -0.0970 
 26 C       -6.1990    -9.8100     1.8320 C.3   1 <1>  -0.0970 
 27 H        1.2810    -1.6430     3.3770 H     1 <1>   0.1500 
 28 H       -0.4110    -4.4160    -0.1860 H     1 <1>   0.0800 
 29 H       -1.4430    -3.9700    -1.5140 H     1 <1>   0.0800 
 30 H       -2.3780    -0.7480     0.2500 H     1 <1>   0.0800 
 31 H       -2.4930    -1.9480     1.5040 H     1 <1>   0.0800 
 32 H        0.0560    -1.5620    -2.1660 H     1 <1>   0.0800 
 33 H        1.3180    -2.7680    -2.2000 H     1 <1>   0.0800 
 34 H        1.7070    -1.0630    -2.2770 H     1 <1>   0.0800 
 35 H       -2.3230    -4.5270     1.3160 H     1 <1>   0.0800 
 36 H       -2.5450    -5.5960    -0.0470 H     1 <1>   0.0800 
 37 H       -3.6510    -2.1580    -1.2700 H     1 <1>   0.0800 
 38 H       -4.5530    -1.9090     0.2020 H     1 <1>   0.0800 
 39 H        3.7290    -1.7390    -1.2270 H     1 <1>   0.0800 
 40 H        4.4390    -1.3080     0.3000 H     1 <1>   0.0800 
 41 H        3.6130    -0.0900    -0.6390 H     1 <1>   0.0800 
 42 H       -5.7450    -3.0510    -1.6180 H     1 <1>   0.1500 
 43 H       -3.9850    -5.7840     1.9530 H     1 <1>   0.1500 
 44 H       -7.6360    -4.3520    -2.4120 H     1 <1>   0.1500 
 45 H       -7.9300    -6.5840    -1.6040 H     1 <1>   0.4570 
 46 H       -4.4900    -7.9980     2.7540 H     1 <1>   0.1500 
 47 H       -7.5820    -8.7040    -1.6270 H     1 <1>   0.0800 
 48 H       -8.6880    -8.4240    -0.2890 H     1 <1>   0.0800 
 49 H       -7.6340    -9.8020    -0.3070 H     1 <1>   0.0800 
 50 H       -7.2460    -9.9550     2.0330 H     1 <1>   0.0800 
 51 H       -5.6690    -9.9440     2.7590 H     1 <1>   0.0800 
 52 H       -5.8620   -10.5660     1.1450 H     1 <1>   0.0800 
@<TRIPOS>BOND
  1   1   2  ar  
  2   1   3  ar  
  3   2   4  1   
  4   2   5  ar  
  5   3   6  ar  
  6   3  27  1   
  7   4   7  1   
  8   4   8  1   
  9   5   9  ar  
 10   5  10  1   
 11   6   9  ar  
 12   7  11  1   
 13   7  28  1   
 14   7  29  1   
 15   8  12  1   
 16   8  30  1   
 17   8  31  1   
 18   9  13  1   
 19  10  32  1   
 20  10  33  1   
 21  10  34  1   
 22  11  14  1   
 23  11  35  1   
 24  11  36  1   
 25  12  14  1   
 26  12  37  1   
 27  12  38  1   
 28  13  39  1   
 29  13  40  1   
 30  13  41  1   
 31  14  15  1   
 32  15  16  ar  
 33  15  17  ar  
 34  16  18  ar  
 35  16  19  ar  
 36  17  20  ar  
 37  17  42  1   
 38  18  21  ar  
 39  18  22  ar  
 40  19  23  ar  
 41  19  43  1   
 42  20  21  ar  
 43  20  44  1   
 44  21  45  1   
 45  22  24  ar  
 46  22  25  1   
 47  23  24  ar  
 48  23  46  1   
 49  24  26  1   
 50  25  47  1   
 51  25  48  1   
 52  25  49  1   
 53  26  50  1   
 54  26  51  1   
 55  26  52  1   
@<TRIPOS>SUBSTRUCTURE
  1 ****  11 GROUP 4 **** **** 0

# MOE 2024.06 (io_trps.svl 2023.06)
