@<TRIPOS>MOLECULE
NONAME
57 60 1 0 0 
SMALL
USER_CHARGES


@<TRIPOS>ATOM
  1 O       -0.3410     0.7170    -1.5540 O.2   1 <1>  -0.5700 
  2 C       -1.3190     1.1250    -0.9560 C.2   1 <1>   0.5440 
  3 N       -2.3520     0.2500    -0.6890 N.am  1 <1>  -0.6600 
  4 C       -1.3500     2.5000    -0.5360 C.ar  1 <1>   0.0860 
  5 C       -2.3760    -1.0950    -1.3390 C.3   1 <1>   0.1400 
  6 C       -3.3150     0.4760     0.4350 C.3   1 <1>   0.1400 
  7 C       -2.4590     3.3140    -0.6820 C.ar  1 <1>   0.1600 
  8 C       -0.2500     3.1110     0.0370 C.ar  1 <1>   0.1600 
  9 C       -3.8100    -1.6120    -1.5020 C.3   1 <1>  -0.1600 
 10 C       -3.9040    -0.8440     0.9370 C.3   1 <1>  -0.1600 
 11 N       -2.4970     4.5620    -0.2810 N.ar  1 <1>  -0.6200 
 12 N       -0.2490     4.3560     0.4500 N.ar  1 <1>  -0.6200 
 13 C       -4.6380    -1.5810    -0.1950 C.3   1 <1>   0.4240 
 14 C       -1.3850     5.0250     0.2730 C.ar  1 <1>   0.7200 
 15 O       -5.7460    -0.7460    -0.4500 O.3   1 <1>  -0.5600 
 16 C       -5.0800    -2.9980     0.2660 C.ar  1 <1>  -0.1430 
 17 N       -1.4560     6.3060     0.6780 N.pl3 1 <1>  -0.8690 
 18 C       -6.8590    -1.3230    -1.0540 C.3   1 <1>   0.1200 
 19 C       -4.1480    -3.9880     0.6010 C.ar  1 <1>   0.0830 
 20 C       -6.4350    -3.3150     0.3480 C.ar  1 <1>  -0.1430 
 21 C       -0.3880     7.1320     1.2390 C.3   1 <1>   0.2890 
 22 C       -7.4780    -2.2950    -0.0610 C.3   1 <1>  -0.0170 
 23 O       -2.8240    -3.7060     0.4750 O.3   1 <1>  -0.3620 
 24 C       -4.5810    -5.2380     1.0410 C.ar  1 <1>  -0.1500 
 25 C       -6.8540    -4.5600     0.7860 C.ar  1 <1>  -0.1500 
 26 C       -0.8900     7.7170     2.5530 C.3   1 <1>  -0.2400 
 27 C       -0.0630     8.2270     0.2310 C.3   1 <1>  -0.2400 
 28 C       -1.8130    -4.6400     0.7870 C.3   1 <1>   0.0400 
 29 C       -5.9280    -5.5200     1.1370 C.ar  1 <1>  -0.1500 
 30 H       -1.8000    -1.7760    -0.7370 H     1 <1>   0.0800 
 31 H       -1.9090    -1.0400    -2.3070 H     1 <1>   0.0800 
 32 H       -4.1150     1.1100     0.0930 H     1 <1>   0.0800 
 33 H       -2.8130     0.9710     1.2490 H     1 <1>   0.0800 
 34 H       -3.3400     2.9090    -1.1500 H     1 <1>   0.1500 
 35 H        0.6550     2.5380     0.1550 H     1 <1>   0.1500 
 36 H       -3.7630    -2.6190    -1.8730 H     1 <1>   0.0800 
 37 H       -4.2860    -1.0170    -2.2590 H     1 <1>   0.0800 
 38 H       -4.5960    -0.6570     1.7380 H     1 <1>   0.0800 
 39 H       -3.1090    -1.4370     1.3440 H     1 <1>   0.0800 
 40 H       -2.3370     6.7700     0.4760 H     1 <1>   0.4000 
 41 H       -6.5530    -1.8260    -1.9550 H     1 <1>   0.0800 
 42 H       -7.5500    -0.5360    -1.2980 H     1 <1>   0.0800 
 43 H        0.4930     6.5370     1.4240 H     1 <1>   0.0800 
 44 H       -8.3180    -2.7830    -0.5210 H     1 <1>   0.0800 
 45 H       -7.8260    -1.7580     0.8040 H     1 <1>   0.0800 
 46 H       -3.8870    -6.0090     1.3130 H     1 <1>   0.1500 
 47 H       -7.9040    -4.7870     0.8550 H     1 <1>   0.1500 
 48 H       -1.7670     8.3180     2.3920 H     1 <1>   0.0800 
 49 H       -0.1270     8.3310     2.9950 H     1 <1>   0.0800 
 50 H       -1.1230     6.9220     3.2380 H     1 <1>   0.0800 
 51 H       -0.9280     8.8340     0.0360 H     1 <1>   0.0800 
 52 H        0.2760     7.7830    -0.6880 H     1 <1>   0.0800 
 53 H        0.7210     8.8550     0.6130 H     1 <1>   0.0800 
 54 H       -0.8620    -4.1730     0.6070 H     1 <1>   0.0800 
 55 H       -1.9240    -5.5000     0.1510 H     1 <1>   0.0800 
 56 H       -1.8960    -4.9120     1.8240 H     1 <1>   0.0800 
 57 H       -6.2570    -6.4860     1.4790 H     1 <1>   0.1500 
@<TRIPOS>BOND
  1   1   2  2   
  2   2   3  am  
  3   2   4  1   
  4   3   5  1   
  5   3   6  1   
  6   4   7  ar  
  7   4   8  ar  
  8   5   9  1   
  9   5  30  1   
 10   5  31  1   
 11   6  10  1   
 12   6  32  1   
 13   6  33  1   
 14   7  11  ar  
 15   7  34  1   
 16   8  12  ar  
 17   8  35  1   
 18   9  13  1   
 19   9  36  1   
 20   9  37  1   
 21  10  13  1   
 22  10  38  1   
 23  10  39  1   
 24  11  14  ar  
 25  12  14  ar  
 26  13  15  1   
 27  13  16  1   
 28  14  17  1   
 29  15  18  1   
 30  16  19  ar  
 31  16  20  ar  
 32  17  21  1   
 33  17  40  1   
 34  18  22  1   
 35  18  41  1   
 36  18  42  1   
 37  19  23  1   
 38  19  24  ar  
 39  20  22  1   
 40  20  25  ar  
 41  21  26  1   
 42  21  27  1   
 43  21  43  1   
 44  22  44  1   
 45  22  45  1   
 46  23  28  1   
 47  24  29  ar  
 48  24  46  1   
 49  25  29  ar  
 50  25  47  1   
 51  26  48  1   
 52  26  49  1   
 53  26  50  1   
 54  27  51  1   
 55  27  52  1   
 56  27  53  1   
 57  28  54  1   
 58  28  55  1   
 59  28  56  1   
 60  29  57  1   
@<TRIPOS>SUBSTRUCTURE
  1 ****   6 GROUP 4 **** **** 0

# MOE 2024.06 (io_trps.svl 2023.06)
