@<TRIPOS>MOLECULE
NONAME
46 48 1 0 0 
SMALL
USER_CHARGES


@<TRIPOS>ATOM
  1 S       -0.5980    -0.7030     0.7010 S.3   1 <1>  -0.0800 
  2 C       -1.4500    -1.7110    -0.4210 C.2   1 <1>   0.4420 
  3 C       -1.1640     0.6590    -0.2070 C.2   1 <1>   0.1980 
  4 N       -2.0660    -1.0300    -1.3170 N.2   1 <1>  -0.3380 
  5 N       -1.3790    -3.0710    -0.2050 N.am  1 <1>  -0.4940 
  6 N       -1.8970     0.3210    -1.1900 N.2   1 <1>  -0.3380 
  7 C       -0.7660     2.0540     0.2450 C.3   1 <1>   0.3000 
  8 C       -1.9030    -4.0880    -0.9550 C.2   1 <1>   0.5690 
  9 O        0.6080     2.1100     0.5070 O.3   1 <1>  -0.5600 
 10 O       -2.4480    -3.9200    -2.0170 O.2   1 <1>  -0.5700 
 11 C       -1.8150    -5.5190    -0.4060 C.3   1 <1>   0.1710 
 12 C        1.0690     3.3720     0.8690 C.3   1 <1>   0.0400 
 13 N       -3.0690    -6.0490     0.2130 N.3   1 <1>  -0.8100 
 14 C       -4.1620    -6.1080    -0.7920 C.3   1 <1>   0.2780 
 15 C       -3.4550    -5.2810     1.4090 C.3   1 <1>   0.0300 
 16 C       -5.4040    -6.8450    -0.2830 C.2   1 <1>   0.1820 
 17 N       -5.3650    -8.1210     0.2570 N.pl3 1 <1>  -0.6290 
 18 C       -6.6900    -6.4310    -0.2670 C.2   1 <1>   0.1820 
 19 C       -6.6320    -8.4550     0.5870 C.cat 1 <1>   0.7910 
 20 C       -4.3240    -8.9860     0.5100 C.2   1 <1>   0.2290 
 21 N       -7.4450    -7.4340     0.2720 N.pl3 1 <1>  -0.7000 
 22 C       -7.3320    -5.1340    -0.7250 C.3   1 <1>  -0.0720 
 23 C       -6.9130    -9.7030     1.1680 C.2   1 <1>  -0.1410 
 24 C       -4.5740   -10.2020     1.0770 C.2   1 <1>  -0.1500 
 25 C       -5.8910   -10.5800     1.4140 C.2   1 <1>  -0.1500 
 26 H       -0.8700    -3.3360     0.6330 H     1 <1>   0.3700 
 27 H       -1.2970     2.3100     1.1440 H     1 <1>   0.0800 
 28 H       -0.9990     2.7620    -0.5300 H     1 <1>   0.0800 
 29 H       -1.0220    -5.5710     0.3180 H     1 <1>   0.0800 
 30 H       -1.5340    -6.1630    -1.2210 H     1 <1>   0.0800 
 31 H        2.1270     3.3010     1.0510 H     1 <1>   0.0800 
 32 H        0.5680     3.6920     1.7670 H     1 <1>   0.0800 
 33 H        0.8870     4.0630     0.0640 H     1 <1>   0.0800 
 34 H       -3.8050    -6.6230    -1.6680 H     1 <1>   0.0800 
 35 H       -4.4370    -5.1120    -1.0910 H     1 <1>   0.0800 
 36 H       -2.6330    -5.2430     2.1040 H     1 <1>   0.0800 
 37 H       -4.2830    -5.7580     1.9060 H     1 <1>   0.0800 
 38 H       -3.7390    -4.2750     1.1460 H     1 <1>   0.0800 
 39 H       -3.3240    -8.6700     0.2510 H     1 <1>   0.1500 
 40 H       -8.4560    -7.4280     0.4200 H     1 <1>   0.4500 
 41 H       -6.5980    -4.4580    -1.1260 H     1 <1>   0.0800 
 42 H       -7.8200    -4.6520     0.1040 H     1 <1>   0.0800 
 43 H       -8.0610    -5.3340    -1.4890 H     1 <1>   0.0800 
 44 H       -7.9310    -9.9420     1.4110 H     1 <1>   0.1500 
 45 H       -3.7700   -10.8900     1.2780 H     1 <1>   0.1500 
 46 H       -6.0650   -11.5480     1.8590 H     1 <1>   0.1500 
@<TRIPOS>BOND
  1   1   2  1   
  2   1   3  1   
  3   2   4  2   
  4   2   5  1   
  5   3   6  2   
  6   3   7  1   
  7   4   6  1   
  8   5   8  am  
  9   5  26  1   
 10   7   9  1   
 11   7  27  1   
 12   7  28  1   
 13   8  10  2   
 14   8  11  1   
 15   9  12  1   
 16  11  13  1   
 17  11  29  1   
 18  11  30  1   
 19  12  31  1   
 20  12  32  1   
 21  12  33  1   
 22  13  14  1   
 23  13  15  1   
 24  14  16  1   
 25  14  34  1   
 26  14  35  1   
 27  15  36  1   
 28  15  37  1   
 29  15  38  1   
 30  16  17  1   
 31  16  18  2   
 32  17  19  ar  
 33  17  20  1   
 34  18  21  1   
 35  18  22  1   
 36  19  21  ar  
 37  19  23  1   
 38  20  24  2   
 39  20  39  1   
 40  21  40  1   
 41  22  41  1   
 42  22  42  1   
 43  22  43  1   
 44  23  25  2   
 45  23  44  1   
 46  24  25  1   
 47  24  45  1   
 48  25  46  1   
@<TRIPOS>SUBSTRUCTURE
  1 ****  15 GROUP 4 **** **** 0

# MOE 2024.06 (io_trps.svl 2023.06)
