@<TRIPOS>MOLECULE
NONAME
49 52 1 0 0 
SMALL
USER_CHARGES


@<TRIPOS>ATOM
  1 S       -1.6940    -0.8120     0.0280 S.o2  1 <1>   1.3330 
  2 O       -1.6110    -1.3720     1.3510 O.2   1 <1>  -0.6500 
  3 O       -2.8810    -0.9700    -0.7780 O.2   1 <1>  -0.6500 
  4 N       -0.4090    -1.4660    -0.8190 N.am  1 <1>  -0.9140 
  5 C       -1.2700     0.9150     0.0920 C.3   1 <1>  -0.1350 
  6 C       -0.7260    -2.7720    -1.4300 C.3   1 <1>   0.2570 
  7 C       -0.8460    -3.9210    -0.4120 C.2   1 <1>   0.5690 
  8 O        0.2040    -4.3250     0.0380 O.2   1 <1>  -0.5700 
  9 N       -2.0490    -4.4630    -0.0160 N.am  1 <1>  -0.6600 
 10 C       -3.4010    -4.0460    -0.4890 C.3   1 <1>   0.1400 
 11 C       -2.1110    -5.4210     1.1260 C.3   1 <1>   0.1400 
 12 C       -4.1810    -5.2820    -0.9380 C.3   1 <1>  -0.1600 
 13 C       -2.8760    -6.6750     0.7010 C.3   1 <1>  -0.1600 
 14 C       -4.2730    -6.3300     0.1790 C.3   1 <1>   0.4600 
 15 O       -4.9800    -5.7840     1.2710 O.3   1 <1>  -0.5600 
 16 C       -4.9880    -7.5870    -0.3020 C.2   1 <1>  -0.3320 
 17 C       -6.3860    -5.7710     1.2140 C.3   1 <1>   0.1200 
 18 N       -4.5310    -8.4780    -1.2330 N.pl3 1 <1>   0.0330 
 19 C       -6.1940    -7.9900     0.1440 C.2   1 <1>  -0.1810 
 20 C       -6.9540    -7.2000     1.1800 C.3   1 <1>   0.0210 
 21 C       -5.4730    -9.4690    -1.3710 C.ar  1 <1>  -0.1520 
 22 C       -6.5340    -9.1910    -0.5140 C.ar  1 <1>   0.0000 
 23 C       -5.4880   -10.6050    -2.1850 C.ar  1 <1>  -0.1500 
 24 C       -7.6290   -10.0590    -0.4640 C.ar  1 <1>  -0.1500 
 25 C       -6.5730   -11.4490    -2.1270 C.ar  1 <1>  -0.1500 
 26 C       -7.6440   -11.1770    -1.2660 C.ar  1 <1>  -0.1500 
 27 H        0.2730    -1.6920    -0.0900 H     1 <1>   0.4200 
 28 H       -2.0240     1.4580     0.6250 H     1 <1>   0.0800 
 29 H       -1.1960     1.3120    -0.9020 H     1 <1>   0.0800 
 30 H       -0.3300     1.0490     0.5900 H     1 <1>   0.0800 
 31 H        0.0870    -3.0300    -2.0850 H     1 <1>   0.0800 
 32 H       -1.5980    -2.6940    -2.0490 H     1 <1>   0.0800 
 33 H       -3.3460    -3.3580    -1.3090 H     1 <1>   0.0800 
 34 H       -3.9190    -3.5560     0.3190 H     1 <1>   0.0800 
 35 H       -2.6130    -4.9470     1.9530 H     1 <1>   0.0800 
 36 H       -1.1240    -5.6970     1.4550 H     1 <1>   0.0800 
 37 H       -3.6800    -5.7120    -1.7850 H     1 <1>   0.0800 
 38 H       -5.1640    -5.0010    -1.2620 H     1 <1>   0.0800 
 39 H       -2.9680    -7.3470     1.5330 H     1 <1>   0.0800 
 40 H       -2.3110    -7.1750    -0.0630 H     1 <1>   0.0800 
 41 H       -6.6890    -5.2270     0.3370 H     1 <1>   0.0800 
 42 H       -6.7450    -5.2500     2.0840 H     1 <1>   0.0800 
 43 H       -3.6390    -8.4390    -1.7350 H     1 <1>   0.2700 
 44 H       -7.9990    -7.1690     0.9320 H     1 <1>   0.0800 
 45 H       -6.8400    -7.6630     2.1430 H     1 <1>   0.0800 
 46 H       -4.6620   -10.8080    -2.8420 H     1 <1>   0.1500 
 47 H       -8.4420    -9.8370     0.2020 H     1 <1>   0.1500 
 48 H       -6.6090   -12.3310    -2.7430 H     1 <1>   0.1500 
 49 H       -8.4790   -11.8530    -1.2390 H     1 <1>   0.1500 
@<TRIPOS>BOND
  1   1   2  2   
  2   1   3  2   
  3   1   4  am  
  4   1   5  1   
  5   4   6  1   
  6   4  27  1   
  7   5  28  1   
  8   5  29  1   
  9   5  30  1   
 10   6   7  1   
 11   6  31  1   
 12   6  32  1   
 13   7   8  2   
 14   7   9  am  
 15   9  10  1   
 16   9  11  1   
 17  10  12  1   
 18  10  33  1   
 19  10  34  1   
 20  11  13  1   
 21  11  35  1   
 22  11  36  1   
 23  12  14  1   
 24  12  37  1   
 25  12  38  1   
 26  13  14  1   
 27  13  39  1   
 28  13  40  1   
 29  14  15  1   
 30  14  16  1   
 31  15  17  1   
 32  16  18  1   
 33  16  19  2   
 34  17  20  1   
 35  17  41  1   
 36  17  42  1   
 37  18  21  1   
 38  18  43  1   
 39  19  20  1   
 40  19  22  1   
 41  20  44  1   
 42  20  45  1   
 43  21  22  ar  
 44  21  23  ar  
 45  22  24  ar  
 46  23  25  ar  
 47  23  46  1   
 48  24  26  ar  
 49  24  47  1   
 50  25  26  ar  
 51  25  48  1   
 52  26  49  1   
@<TRIPOS>SUBSTRUCTURE
  1 ****  14 GROUP 4 **** **** 0

# MOE 2024.06 (io_trps.svl 2023.06)
