@<TRIPOS>MOLECULE
NONAME
46 49 1 0 0 
SMALL
USER_CHARGES


@<TRIPOS>ATOM
  1 O       -0.4680     0.1160     1.0590 O.2   1 <1>  -0.5700 
  2 C       -1.4970     0.7620     1.0970 C.2   1 <1>   0.5440 
  3 N       -2.7010     0.0990     1.1840 N.am  1 <1>  -0.6600 
  4 C       -1.4420     2.2060     1.0310 C.ar  1 <1>   0.0860 
  5 C       -2.7900    -1.3920     1.3070 C.3   1 <1>   0.1400 
  6 C       -4.0260     0.7310     0.8980 C.3   1 <1>   0.1400 
  7 C       -1.1110     2.8830    -0.1470 C.ar  1 <1>   0.1660 
  8 C       -1.7430     2.9710     2.1500 C.ar  1 <1>  -0.1500 
  9 C       -3.5600    -1.9970     0.1180 C.3   1 <1>   0.3440 
 10 C       -4.7260     0.0140    -0.2740 C.3   1 <1>   0.2950 
 11 N       -1.0820     4.2010    -0.2770 N.ar  1 <1>  -0.6200 
 12 C       -0.7550     2.1040    -1.4020 C.3   1 <1>  -0.0970 
 13 C       -1.7050     4.3420     2.0280 C.ar  1 <1>  -0.1500 
 14 O       -4.8040    -1.3600    -0.0300 O.3   1 <1>  -0.5600 
 15 C       -3.7700    -3.4950     0.3230 C.ar  1 <1>  -0.1430 
 16 C       -6.1540     0.5300    -0.4740 C.3   1 <1>  -0.1950 
 17 C       -1.3740     4.9000     0.8070 C.ar  1 <1>   0.1600 
 18 C       -4.8940    -3.9900     0.9710 C.ar  1 <1>  -0.1500 
 19 C       -2.8110    -4.3870    -0.1350 C.ar  1 <1>  -0.1500 
 20 C       -6.8510     0.3900    -1.7900 C.3   1 <1>  -0.2000 
 21 C       -6.4250     1.7470    -1.3030 C.3   1 <1>  -0.2000 
 22 C       -5.0560    -5.3520     1.1590 C.ar  1 <1>  -0.1500 
 23 C       -2.9710    -5.7500     0.0520 C.ar  1 <1>  -0.1500 
 24 C       -4.0940    -6.2330     0.6990 C.ar  1 <1>  -0.1500 
 25 H       -1.8100    -1.8330     1.3510 H     1 <1>   0.0800 
 26 H       -3.3010    -1.6430     2.2190 H     1 <1>   0.0800 
 27 H       -4.6460     0.6640     1.7740 H     1 <1>   0.0800 
 28 H       -3.9160     1.7710     0.6500 H     1 <1>   0.0800 
 29 H       -1.9950     2.4970     3.0820 H     1 <1>   0.1500 
 30 H       -3.0010    -1.8420    -0.7880 H     1 <1>   0.0800 
 31 H       -4.1630     0.1620    -1.1790 H     1 <1>   0.0800 
 32 H       -1.5100     1.3720    -1.6190 H     1 <1>   0.0800 
 33 H        0.1880     1.6060    -1.2620 H     1 <1>   0.0800 
 34 H       -0.6690     2.7660    -2.2460 H     1 <1>   0.0800 
 35 H       -1.9280     4.9760     2.8680 H     1 <1>   0.1500 
 36 H       -6.7550     0.3980     0.4100 H     1 <1>   0.1000 
 37 H       -1.3470     5.9730     0.7150 H     1 <1>   0.1500 
 38 H       -5.6510    -3.3130     1.3300 H     1 <1>   0.1500 
 39 H       -1.9310    -4.0270    -0.6390 H     1 <1>   0.1500 
 40 H       -6.3200    -0.0660    -2.6080 H     1 <1>   0.1000 
 41 H       -7.8970     0.1360    -1.7890 H     1 <1>   0.1000 
 42 H       -7.1860     2.4370    -0.9800 H     1 <1>   0.1000 
 43 H       -5.6150     2.2380    -1.8140 H     1 <1>   0.1000 
 44 H       -5.9320    -5.7240     1.6610 H     1 <1>   0.1500 
 45 H       -2.2220    -6.4340    -0.3070 H     1 <1>   0.1500 
 46 H       -4.2190    -7.2910     0.8440 H     1 <1>   0.1500 
@<TRIPOS>BOND
  1   1   2  2   
  2   2   3  am  
  3   2   4  1   
  4   3   5  1   
  5   3   6  1   
  6   4   7  ar  
  7   4   8  ar  
  8   5   9  1   
  9   5  25  1   
 10   5  26  1   
 11   6  10  1   
 12   6  27  1   
 13   6  28  1   
 14   7  11  ar  
 15   7  12  1   
 16   8  13  ar  
 17   8  29  1   
 18   9  14  1   
 19   9  15  1   
 20   9  30  1   
 21  10  14  1   
 22  10  16  1   
 23  10  31  1   
 24  11  17  ar  
 25  12  32  1   
 26  12  33  1   
 27  12  34  1   
 28  13  17  ar  
 29  13  35  1   
 30  15  18  ar  
 31  15  19  ar  
 32  16  20  1   
 33  16  21  1   
 34  16  36  1   
 35  17  37  1   
 36  18  22  ar  
 37  18  38  1   
 38  19  23  ar  
 39  19  39  1   
 40  20  21  1   
 41  20  40  1   
 42  20  41  1   
 43  21  42  1   
 44  21  43  1   
 45  22  24  ar  
 46  22  44  1   
 47  23  24  ar  
 48  23  45  1   
 49  24  46  1   
@<TRIPOS>SUBSTRUCTURE
  1 ****   3 GROUP 4 **** **** 0

# MOE 2024.06 (io_trps.svl 2023.06)
