@<TRIPOS>MOLECULE
NONAME
54 56 1 0 0 
SMALL
USER_CHARGES


@<TRIPOS>ATOM
  1 O        1.0650    -1.5360    -1.8570 O.3   1 <1>  -0.6800 
  2 C        0.4120    -1.9900    -0.7190 C.3   1 <1>   0.1200 
  3 C        1.3410    -1.9600     0.5300 C.3   1 <1>   0.0000 
  4 C        2.7410    -2.5970     0.2890 C.3   1 <1>   0.4230 
  5 C        1.5310    -0.4890     0.9910 C.3   1 <1>  -0.1600 
  6 C        0.6380    -2.7390     1.6770 C.3   1 <1>  -0.1600 
  7 N        2.6740    -4.0650    -0.1330 N.4   1 <1>  -0.9590 
  8 C        3.6700    -1.6870    -0.5800 C.3   1 <1>   0.3430 
  9 C        2.3830     0.3590     0.0410 C.3   1 <1>   0.3430 
 10 C        1.1080    -4.2030     1.8160 C.3   1 <1>  -0.1600 
 11 C        1.5290    -4.8220     0.4820 C.3   1 <1>   0.3430 
 12 C        2.6630    -4.3010    -1.6180 C.3   1 <1>   0.2630 
 13 N        3.7370    -0.2550    -0.1120 N.4   1 <1>  -0.9590 
 14 C        4.5780     0.5750    -1.0260 C.3   1 <1>   0.4860 
 15 C        4.8830     1.8820    -0.3240 C.ar  1 <1>  -0.1430 
 16 C        5.8990     1.9870     0.6260 C.ar  1 <1>  -0.1430 
 17 C        4.1220     2.9990    -0.6440 C.ar  1 <1>  -0.1500 
 18 C        6.1110     3.2060     1.2520 C.ar  1 <1>  -0.1500 
 19 C        6.8230     0.8300     1.0030 C.3   1 <1>  -0.0170 
 20 C        4.3450     4.2070    -0.0110 C.ar  1 <1>  -0.1500 
 21 C        5.3390     4.3090     0.9420 C.ar  1 <1>  -0.1500 
 22 C        7.9890     0.7310     0.0170 C.3   1 <1>  -0.2400 
 23 H        0.4170    -1.4040    -2.5890 H     1 <1>   0.4000 
 24 H       -0.4510    -1.3640    -0.5590 H     1 <1>   0.0800 
 25 H        0.0590    -2.9860    -0.9240 H     1 <1>   0.0800 
 26 H        3.2030    -2.6000     1.2620 H     1 <1>   0.0800 
 27 H        1.9930    -0.4530     1.9630 H     1 <1>   0.0800 
 28 H        0.5690    -0.0160     1.0920 H     1 <1>   0.0800 
 29 H        0.8050    -2.2630     2.6290 H     1 <1>   0.0800 
 30 H       -0.4300    -2.7240     1.5270 H     1 <1>   0.0800 
 31 H        3.5230    -4.5220     0.2350 H     1 <1>   0.4500 
 32 H        3.3090    -1.6970    -1.5940 H     1 <1>   0.0800 
 33 H        4.6630    -2.1040    -0.5760 H     1 <1>   0.0800 
 34 H        2.4750     1.3560     0.4440 H     1 <1>   0.0800 
 35 H        1.8990     0.4320    -0.9190 H     1 <1>   0.0800 
 36 H        0.3090    -4.7890     2.2390 H     1 <1>   0.0800 
 37 H        1.9330    -4.2640     2.5050 H     1 <1>   0.0800 
 38 H        0.6800    -4.8060    -0.1830 H     1 <1>   0.0800 
 39 H        1.8070    -5.8540     0.6310 H     1 <1>   0.0800 
 40 H        1.7960    -3.8440    -2.0680 H     1 <1>   0.0800 
 41 H        2.6350    -5.3590    -1.8280 H     1 <1>   0.0800 
 42 H        3.5460    -3.8910    -2.0790 H     1 <1>   0.0800 
 43 H        4.2020    -0.1730     0.8030 H     1 <1>   0.4500 
 44 H        5.5040     0.0710    -1.2490 H     1 <1>   0.0800 
 45 H        4.0590     0.7630    -1.9520 H     1 <1>   0.0800 
 46 H        3.3480     2.9510    -1.3910 H     1 <1>   0.1500 
 47 H        6.8910     3.3130     1.9880 H     1 <1>   0.1500 
 48 H        7.2210     0.9960     1.9900 H     1 <1>   0.0800 
 49 H        6.2930    -0.1020     1.0350 H     1 <1>   0.0800 
 50 H        3.7520     5.0720    -0.2600 H     1 <1>   0.1500 
 51 H        5.5170     5.2490     1.4370 H     1 <1>   0.1500 
 52 H        8.5510     1.6490     0.0220 H     1 <1>   0.0800 
 53 H        7.6420     0.5540    -0.9840 H     1 <1>   0.0800 
 54 H        8.6510    -0.0690     0.3020 H     1 <1>   0.0800 
@<TRIPOS>BOND
  1   1   2  1   
  2   1  23  1   
  3   2   3  1   
  4   2  24  1   
  5   2  25  1   
  6   3   4  1   
  7   3   5  1   
  8   3   6  1   
  9   4   7  1   
 10   4   8  1   
 11   4  26  1   
 12   5   9  1   
 13   5  27  1   
 14   5  28  1   
 15   6  10  1   
 16   6  29  1   
 17   6  30  1   
 18   7  11  1   
 19   7  12  1   
 20   7  31  1   
 21   8  13  1   
 22   8  32  1   
 23   8  33  1   
 24   9  13  1   
 25   9  34  1   
 26   9  35  1   
 27  10  11  1   
 28  10  36  1   
 29  10  37  1   
 30  11  38  1   
 31  11  39  1   
 32  12  40  1   
 33  12  41  1   
 34  12  42  1   
 35  13  14  1   
 36  13  43  1   
 37  14  15  1   
 38  14  44  1   
 39  14  45  1   
 40  15  16  ar  
 41  15  17  ar  
 42  16  18  ar  
 43  16  19  1   
 44  17  20  ar  
 45  17  46  1   
 46  18  21  ar  
 47  18  47  1   
 48  19  22  1   
 49  19  48  1   
 50  19  49  1   
 51  20  21  ar  
 52  20  50  1   
 53  21  51  1   
 54  22  52  1   
 55  22  53  1   
 56  22  54  1   
@<TRIPOS>SUBSTRUCTURE
  1 ****  13 GROUP 4 **** **** 0

# MOE 2024.06 (io_trps.svl 2023.06)
