@<TRIPOS>MOLECULE
NONAME
44 46 1 0 0 
SMALL
USER_CHARGES


@<TRIPOS>ATOM
  1 S        0.3200    -0.8290     1.3110 S.3   1 <1>  -0.0800 
  2 C        0.6330    -1.3300    -0.3410 C.2   1 <1>  -0.0450 
  3 C        0.4870     0.8420     0.8440 C.2   1 <1>   0.1980 
  4 C        0.8280    -0.1970    -1.0600 C.2   1 <1>   0.0460 
  5 C        0.6300    -2.7390    -0.6450 C.2   1 <1>   0.7150 
  6 N        0.7430     1.0050    -0.3910 N.2   1 <1>  -0.5650 
  7 C        0.3110     1.8800     1.9400 C.3   1 <1>   0.0200 
  8 C        1.1340    -0.0840    -2.5410 C.3   1 <1>  -0.0590 
  9 O        0.7940    -3.1510    -1.7770 O.2   1 <1>  -0.5700 
 10 N        0.4230    -3.6560     0.3410 N.am  1 <1>  -0.7300 
 11 C        0.4690     3.3210     1.4350 C.3   1 <1>  -0.2400 
 12 C        0.4200    -5.1280     0.1810 C.3   1 <1>   0.2200 
 13 C       -0.9960    -5.6860     0.2430 C.3   1 <1>  -0.0800 
 14 C        1.0210    -5.7560     1.4300 C.3   1 <1>   0.1200 
 15 C       -1.2470    -5.8260     1.7490 C.3   1 <1>   0.1200 
 16 C       -2.0740    -4.8820    -0.5070 C.3   1 <1>  -0.0170 
 17 O       -0.0020    -5.7230     2.3780 O.3   1 <1>  -0.5600 
 18 C       -3.4180    -5.5890    -0.4440 C.ar  1 <1>  -0.1430 
 19 C       -3.7270    -6.6350    -1.2890 C.ar  1 <1>  -0.1500 
 20 C       -4.3980    -5.2250     0.4580 C.ar  1 <1>  -0.1500 
 21 C       -4.9620    -7.2540    -1.1900 C.ar  1 <1>   0.1600 
 22 C       -5.6010    -5.9100     0.4760 C.ar  1 <1>   0.1600 
 23 N       -5.9060    -6.9180    -0.3250 N.ar  1 <1>  -0.6200 
 24 H       -0.6680     1.7620     2.3700 H     1 <1>   0.0800 
 25 H        1.0390     1.6940     2.7090 H     1 <1>   0.0800 
 26 H        1.2040    -1.0450    -3.0120 H     1 <1>   0.0800 
 27 H        2.0670     0.4320    -2.6750 H     1 <1>   0.0800 
 28 H        0.3580     0.4800    -3.0250 H     1 <1>   0.0800 
 29 H        0.2650    -3.3330     1.2980 H     1 <1>   0.3700 
 30 H       -0.2620     3.5270     0.6730 H     1 <1>   0.0800 
 31 H        1.4490     3.4590     1.0140 H     1 <1>   0.0800 
 32 H        0.3360     4.0170     2.2430 H     1 <1>   0.0800 
 33 H        0.9440    -5.4180    -0.7150 H     1 <1>   0.0800 
 34 H       -0.9730    -6.6800    -0.1700 H     1 <1>   0.0800 
 35 H        1.8780    -5.2200     1.7990 H     1 <1>   0.0800 
 36 H        1.2780    -6.7870     1.2560 H     1 <1>   0.0800 
 37 H       -1.6860    -6.7780     1.9940 H     1 <1>   0.0800 
 38 H       -1.8670    -5.0310     2.1260 H     1 <1>   0.0800 
 39 H       -1.7800    -4.7640    -1.5360 H     1 <1>   0.0800 
 40 H       -2.1710    -3.8960    -0.0860 H     1 <1>   0.0800 
 41 H       -3.0200    -6.9750    -2.0230 H     1 <1>   0.1500 
 42 H       -4.2390    -4.4160     1.1480 H     1 <1>   0.1500 
 43 H       -5.1860    -8.0690    -1.8570 H     1 <1>   0.1500 
 44 H       -6.3530    -5.6130     1.1870 H     1 <1>   0.1500 
@<TRIPOS>BOND
  1   1   2  1   
  2   1   3  1   
  3   2   4  2   
  4   2   5  1   
  5   3   6  2   
  6   3   7  1   
  7   4   6  1   
  8   4   8  1   
  9   5   9  2   
 10   5  10  am  
 11   7  11  1   
 12   7  24  1   
 13   7  25  1   
 14   8  26  1   
 15   8  27  1   
 16   8  28  1   
 17  10  12  1   
 18  10  29  1   
 19  11  30  1   
 20  11  31  1   
 21  11  32  1   
 22  12  13  1   
 23  12  14  1   
 24  12  33  1   
 25  13  15  1   
 26  13  16  1   
 27  13  34  1   
 28  14  17  1   
 29  14  35  1   
 30  14  36  1   
 31  15  17  1   
 32  15  37  1   
 33  15  38  1   
 34  16  18  1   
 35  16  39  1   
 36  16  40  1   
 37  18  19  ar  
 38  18  20  ar  
 39  19  21  ar  
 40  19  41  1   
 41  20  22  ar  
 42  20  42  1   
 43  21  23  ar  
 44  21  43  1   
 45  22  23  ar  
 46  22  44  1   
@<TRIPOS>SUBSTRUCTURE
  1 ****  10 GROUP 4 **** **** 0

# MOE 2024.06 (io_trps.svl 2023.06)
