@<TRIPOS>MOLECULE
NONAME
40 42 1 0 0 
SMALL
USER_CHARGES


@<TRIPOS>ATOM
  1 S        2.2560     0.2000     0.3110 S.3   1 <1>  -0.0800 
  2 C        1.0260    -0.9710    -0.1070 C.2   1 <1>   0.1980 
  3 C        1.7130     1.1970    -1.0080 C.2   1 <1>  -0.1100 
  4 N        0.3040    -0.6480    -1.1080 N.2   1 <1>  -0.5650 
  5 C        0.9430    -2.2330     0.7440 C.3   1 <1>   0.5230 
  6 C        0.6920     0.5820    -1.6230 C.2   1 <1>   0.0770 
  7 N       -0.2920    -3.0060     0.3920 N.4   1 <1>  -0.9590 
  8 C       -1.5180    -2.3470     0.9260 C.3   1 <1>   0.3430 
  9 C       -0.2050    -4.4430     0.7600 C.3   1 <1>   0.3430 
 10 C       -2.7530    -3.0560     0.3740 C.3   1 <1>  -0.1600 
 11 C       -1.4250    -5.1880     0.2170 C.3   1 <1>  -0.1600 
 12 C       -2.7530    -4.5630     0.6840 C.3   1 <1>  -0.0800 
 13 C       -3.9690    -5.2260     0.0090 C.3   1 <1>  -0.1600 
 14 C       -4.1680    -6.7010     0.3990 C.3   1 <1>   0.0960 
 15 N       -5.2790    -7.2870    -0.3720 N.pl3 1 <1>   0.3140 
 16 N       -5.0970    -7.7460    -1.6230 N.2   1 <1>  -0.7070 
 17 C       -6.5590    -7.4350     0.0240 C.2   1 <1>  -0.3020 
 18 C       -6.2650    -8.1750    -1.9920 C.2   1 <1>   0.1390 
 19 C       -7.2240    -8.0070    -1.0010 C.2   1 <1>  -0.1500 
 20 H        2.2160     2.1320    -1.1820 H     1 <1>   0.1500 
 21 H        0.9340    -1.9690     1.7880 H     1 <1>   0.0800 
 22 H        1.8180    -2.8290     0.5470 H     1 <1>   0.0800 
 23 H        0.1560     0.9650    -2.4770 H     1 <1>   0.1500 
 24 H       -0.3630    -2.9240    -0.6360 H     1 <1>   0.4500 
 25 H       -1.5410    -1.3100     0.6270 H     1 <1>   0.0800 
 26 H       -1.5240    -2.3940     2.0030 H     1 <1>   0.0800 
 27 H       -0.1710    -4.5440     1.8330 H     1 <1>   0.0800 
 28 H        0.6920    -4.8780     0.3480 H     1 <1>   0.0800 
 29 H       -2.8000    -2.8950    -0.6900 H     1 <1>   0.0800 
 30 H       -3.6290    -2.6000     0.8030 H     1 <1>   0.0800 
 31 H       -1.3630    -6.2100     0.5470 H     1 <1>   0.0800 
 32 H       -1.3790    -5.1970    -0.8590 H     1 <1>   0.0800 
 33 H       -2.8420    -4.6890     1.7520 H     1 <1>   0.0800 
 34 H       -3.8600    -5.1640    -1.0620 H     1 <1>   0.0800 
 35 H       -4.8620    -4.6880     0.2780 H     1 <1>   0.0800 
 36 H       -4.3890    -6.7920     1.4460 H     1 <1>   0.0800 
 37 H       -3.2900    -7.2780     0.1770 H     1 <1>   0.0800 
 38 H       -6.9190    -7.1320     0.9890 H     1 <1>   0.1500 
 39 H       -6.4570    -8.6110    -2.9590 H     1 <1>   0.1500 
 40 H       -8.2610    -8.2830    -1.0690 H     1 <1>   0.1500 
@<TRIPOS>BOND
  1   1   2  1   
  2   1   3  1   
  3   2   4  2   
  4   2   5  1   
  5   3   6  2   
  6   3  20  1   
  7   4   6  1   
  8   5   7  1   
  9   5  21  1   
 10   5  22  1   
 11   6  23  1   
 12   7   8  1   
 13   7   9  1   
 14   7  24  1   
 15   8  10  1   
 16   8  25  1   
 17   8  26  1   
 18   9  11  1   
 19   9  27  1   
 20   9  28  1   
 21  10  12  1   
 22  10  29  1   
 23  10  30  1   
 24  11  12  1   
 25  11  31  1   
 26  11  32  1   
 27  12  13  1   
 28  12  33  1   
 29  13  14  1   
 30  13  34  1   
 31  13  35  1   
 32  14  15  1   
 33  14  36  1   
 34  14  37  1   
 35  15  16  1   
 36  15  17  1   
 37  16  18  2   
 38  17  19  2   
 39  17  38  1   
 40  18  19  1   
 41  18  39  1   
 42  19  40  1   
@<TRIPOS>SUBSTRUCTURE
  1 ****  10 GROUP 4 **** **** 0

# MOE 2024.06 (io_trps.svl 2023.06)
