@<TRIPOS>MOLECULE
NONAME
49 51 1 0 0 
SMALL
USER_CHARGES


@<TRIPOS>ATOM
  1 O       -0.0710     2.2610    -2.0590 O.2   1 <1>  -0.5700 
  2 C       -0.2170     3.3590    -1.5870 C.2   1 <1>   0.5690 
  3 N       -1.0160     3.5540    -0.5170 N.am  1 <1>  -0.7300 
  4 C        0.4770     4.5680    -2.2120 C.3   1 <1>   0.1810 
  5 C       -1.3060     4.8870     0.0700 C.3   1 <1>   0.3640 
  6 O        0.6370     5.6210    -1.2900 O.3   1 <1>  -0.5600 
  7 C       -2.8200     5.0920     0.0360 C.ar  1 <1>  -0.1440 
  8 C       -0.5670     6.0500    -0.6540 C.3   1 <1>   0.2610 
  9 C       -3.5560     4.8330    -1.1120 C.ar  1 <1>  -0.1500 
 10 C       -3.4870     5.5500     1.1600 C.ar  1 <1>  -0.1500 
 11 C       -0.2640     7.1770     0.3440 C.2   1 <1>   0.5690 
 12 C       -4.9270     5.0200    -1.1540 C.ar  1 <1>   0.0830 
 13 C       -4.8560     5.7520     1.1360 C.ar  1 <1>  -0.1500 
 14 O       -1.1370     7.5900     1.0710 O.2   1 <1>  -0.5700 
 15 N        0.9940     7.6840     0.3950 N.am  1 <1>  -0.7300 
 16 O       -5.5080     4.7110    -2.3480 O.3   1 <1>  -0.3630 
 17 C       -5.5960     5.5020    -0.0170 C.ar  1 <1>   0.0830 
 18 C        1.4780     8.7540     1.2790 C.3   1 <1>   0.2200 
 19 C       -6.8220     4.2020    -2.4110 C.3   1 <1>   0.0400 
 20 O       -6.9400     5.7340    -0.0580 O.3   1 <1>  -0.3630 
 21 C        2.1200     9.8400     0.4260 C.3   1 <1>  -0.1600 
 22 C        2.6420     8.2200     2.1020 C.3   1 <1>  -0.1600 
 23 C       -7.5910     6.5050     0.9280 C.3   1 <1>   0.0400 
 24 C        3.5370     9.3420     0.1130 C.3   1 <1>  -0.1600 
 25 C        3.8700     8.2980     1.1870 C.3   1 <1>  -0.1600 
 26 H       -1.5390     2.7590    -0.1460 H     1 <1>   0.3700 
 27 H       -0.0980     4.9250    -3.0470 H     1 <1>   0.0800 
 28 H        1.4530     4.2800    -2.5560 H     1 <1>   0.0800 
 29 H       -0.9810     4.8670     1.0960 H     1 <1>   0.0800 
 30 H       -1.2060     6.4540    -1.4180 H     1 <1>   0.0800 
 31 H       -3.0710     4.4720    -2.0020 H     1 <1>   0.1500 
 32 H       -2.9420     5.7670     2.0640 H     1 <1>   0.1500 
 33 H       -5.3230     6.1110     2.0330 H     1 <1>   0.1500 
 34 H        1.6970     7.2740    -0.2270 H     1 <1>   0.3700 
 35 H        0.6770     9.1330     1.8930 H     1 <1>   0.0800 
 36 H       -6.9420     3.7010    -3.3540 H     1 <1>   0.0800 
 37 H       -7.5140     5.0220    -2.3450 H     1 <1>   0.0800 
 38 H       -6.9710     3.5100    -1.6020 H     1 <1>   0.0800 
 39 H        1.5480    10.0540    -0.4600 H     1 <1>   0.0800 
 40 H        2.1890    10.7380     1.0150 H     1 <1>   0.0800 
 41 H        2.7920     8.8750     2.9430 H     1 <1>   0.0800 
 42 H        2.4590     7.2260     2.4710 H     1 <1>   0.0800 
 43 H       -8.6080     6.6590     0.6140 H     1 <1>   0.0800 
 44 H       -7.0900     7.4530     1.0190 H     1 <1>   0.0800 
 45 H       -7.5760     5.9680     1.8600 H     1 <1>   0.0800 
 46 H        3.5560     8.8810    -0.8590 H     1 <1>   0.0800 
 47 H        4.2400    10.1570     0.1250 H     1 <1>   0.0800 
 48 H        4.7480     8.5720     1.7450 H     1 <1>   0.0800 
 49 H        4.0390     7.3420     0.7210 H     1 <1>   0.0800 
@<TRIPOS>BOND
  1   1   2  2   
  2   2   3  am  
  3   2   4  1   
  4   3   5  1   
  5   3  26  1   
  6   4   6  1   
  7   4  27  1   
  8   4  28  1   
  9   5   7  1   
 10   5   8  1   
 11   5  29  1   
 12   6   8  1   
 13   7   9  ar  
 14   7  10  ar  
 15   8  11  1   
 16   8  30  1   
 17   9  12  ar  
 18   9  31  1   
 19  10  13  ar  
 20  10  32  1   
 21  11  14  2   
 22  11  15  am  
 23  12  16  1   
 24  12  17  ar  
 25  13  17  ar  
 26  13  33  1   
 27  15  18  1   
 28  15  34  1   
 29  16  19  1   
 30  17  20  1   
 31  18  21  1   
 32  18  22  1   
 33  18  35  1   
 34  19  36  1   
 35  19  37  1   
 36  19  38  1   
 37  20  23  1   
 38  21  24  1   
 39  21  39  1   
 40  21  40  1   
 41  22  25  1   
 42  22  41  1   
 43  22  42  1   
 44  23  43  1   
 45  23  44  1   
 46  23  45  1   
 47  24  25  1   
 48  24  46  1   
 49  24  47  1   
 50  25  48  1   
 51  25  49  1   
@<TRIPOS>SUBSTRUCTURE
  1 ****   8 GROUP 4 **** **** 0

# MOE 2024.06 (io_trps.svl 2023.06)
