@<TRIPOS>MOLECULE
NONAME
46 48 1 0 0 
SMALL
USER_CHARGES


@<TRIPOS>ATOM
  1 CL      -1.7570    -0.2060    -2.4630 Cl    1 <1>  -0.1770 
  2 C       -2.5020    -0.9440    -1.0610 C.ar  1 <1>   0.1770 
  3 C       -2.4420    -2.3220    -0.8140 C.ar  1 <1>   0.0820 
  4 C       -3.1910    -0.0970    -0.2140 C.ar  1 <1>  -0.1500 
  5 O       -1.7760    -3.2150    -1.5980 O.3   1 <1>  -0.3630 
  6 C       -3.1180    -2.8420     0.2900 C.ar  1 <1>  -0.1440 
  7 C       -3.8390    -0.6340     0.8800 C.ar  1 <1>   0.1770 
  8 C       -0.4620    -2.9330    -2.0410 C.3   1 <1>   0.0400 
  9 C       -3.8140    -1.9920     1.1380 C.ar  1 <1>  -0.1500 
 10 C       -3.1000    -4.3340     0.5700 C.3   1 <1>   0.4870 
 11 CL      -4.7180     0.4180     1.9560 Cl    1 <1>  -0.1770 
 12 N       -3.7410    -5.0450    -0.5660 N.4   1 <1>  -0.9590 
 13 C       -5.1990    -4.7300    -0.6600 C.3   1 <1>   0.3430 
 14 C       -3.6320    -6.5220    -0.3830 C.3   1 <1>   0.3430 
 15 C       -5.9030    -5.8310     0.1370 C.3   1 <1>   0.2000 
 16 C       -5.0540    -7.0640    -0.1810 C.3   1 <1>  -0.0800 
 17 O       -5.8120    -5.5180     1.4920 O.3   1 <1>  -0.6800 
 18 C       -5.1100    -8.2100     0.8470 C.3   1 <1>   0.0210 
 19 C       -4.2520    -9.3820     0.4090 C.2   1 <1>   0.1080 
 20 N       -2.9710    -9.2850     0.2170 N.2   1 <1>  -0.7070 
 21 C       -4.7240   -10.6680     0.1740 C.2   1 <1>  -0.1500 
 22 N       -2.5880   -10.5300    -0.1390 N.pl3 1 <1>   0.3000 
 23 C       -3.6340   -11.3800    -0.1770 C.2   1 <1>  -0.3320 
 24 C       -3.5250   -12.8490    -0.5460 C.3   1 <1>  -0.0600 
 25 H       -3.2290     0.9600    -0.4060 H     1 <1>   0.1500 
 26 H        0.0720    -3.8620    -2.1310 H     1 <1>   0.0800 
 27 H        0.0330    -2.2950    -1.3290 H     1 <1>   0.0800 
 28 H       -0.5110    -2.4580    -3.0050 H     1 <1>   0.0800 
 29 H       -4.3400    -2.3650     2.0010 H     1 <1>   0.1500 
 30 H       -3.6240    -4.5490     1.4870 H     1 <1>   0.0800 
 31 H       -2.0780    -4.6610     0.6750 H     1 <1>   0.0800 
 32 H       -3.2370    -4.7230    -1.4090 H     1 <1>   0.4500 
 33 H       -5.4370    -3.7520    -0.2750 H     1 <1>   0.0800 
 34 H       -5.5100    -4.7900    -1.6900 H     1 <1>   0.0800 
 35 H       -3.1770    -6.9910    -1.2410 H     1 <1>   0.0800 
 36 H       -3.0310    -6.7510     0.4830 H     1 <1>   0.0800 
 37 H       -6.9420    -5.9340    -0.1300 H     1 <1>   0.0800 
 38 H       -5.3770    -7.4560    -1.1300 H     1 <1>   0.0800 
 39 H       -6.4210    -6.0710     2.0260 H     1 <1>   0.4000 
 40 H       -6.1250    -8.5440     0.9680 H     1 <1>   0.0800 
 41 H       -4.7500    -7.8800     1.8060 H     1 <1>   0.0800 
 42 H       -5.7430   -11.0030     0.2620 H     1 <1>   0.1500 
 43 H       -1.6100   -10.7730    -0.3440 H     1 <1>   0.2700 
 44 H       -4.4940   -13.3150    -0.5010 H     1 <1>   0.0800 
 45 H       -2.8700   -13.3570     0.1390 H     1 <1>   0.0800 
 46 H       -3.1410   -12.9560    -1.5450 H     1 <1>   0.0800 
@<TRIPOS>BOND
  1   1   2  1   
  2   2   3  ar  
  3   2   4  ar  
  4   3   5  1   
  5   3   6  ar  
  6   4   7  ar  
  7   4  25  1   
  8   5   8  1   
  9   6   9  ar  
 10   6  10  1   
 11   7   9  ar  
 12   7  11  1   
 13   8  26  1   
 14   8  27  1   
 15   8  28  1   
 16   9  29  1   
 17  10  12  1   
 18  10  30  1   
 19  10  31  1   
 20  12  13  1   
 21  12  14  1   
 22  12  32  1   
 23  13  15  1   
 24  13  33  1   
 25  13  34  1   
 26  14  16  1   
 27  14  35  1   
 28  14  36  1   
 29  15  16  1   
 30  15  17  1   
 31  15  37  1   
 32  16  18  1   
 33  16  38  1   
 34  17  39  1   
 35  18  19  1   
 36  18  40  1   
 37  18  41  1   
 38  19  20  2   
 39  19  21  1   
 40  20  22  1   
 41  21  23  2   
 42  21  42  1   
 43  22  23  1   
 44  22  43  1   
 45  23  24  1   
 46  24  44  1   
 47  24  45  1   
 48  24  46  1   
@<TRIPOS>SUBSTRUCTURE
  1 ****  12 GROUP 4 **** **** 0

# MOE 2024.06 (io_trps.svl 2023.06)
