@<TRIPOS>MOLECULE
NONAME
46 48 1 0 0 
SMALL
USER_CHARGES


@<TRIPOS>ATOM
  1 O        0.3980     1.2570    -3.3910 O.2   1 <1>  -0.5700 
  2 C        0.2840     1.9060    -2.3750 C.2   1 <1>   0.5690 
  3 N       -0.8340     1.8300    -1.5860 N.am  1 <1>  -0.6600 
  4 C        1.4560     2.8120    -1.9630 C.3   1 <1>   0.1710 
  5 C       -0.9820     2.6740    -0.3610 C.3   1 <1>   0.1400 
  6 C       -1.9990     0.9850    -1.9550 C.3   1 <1>   0.2840 
  7 N        1.1350     3.8510    -0.9400 N.3   1 <1>  -0.8100 
  8 C        0.3630     3.2240     0.1500 C.3   1 <1>   0.1100 
  9 C       -2.2530    -0.0600    -0.8780 C.ar  1 <1>  -0.1440 
 10 C        2.3690     4.4940    -0.4530 C.3   1 <1>   0.1100 
 11 C       -3.4100    -0.0260    -0.1130 C.ar  1 <1>  -0.1500 
 12 C       -1.3200    -1.0610    -0.6540 C.ar  1 <1>  -0.1500 
 13 C        2.0700     5.8450     0.2040 C.3   1 <1>   0.1400 
 14 C       -3.6260    -0.9810     0.8640 C.ar  1 <1>  -0.1500 
 15 C       -1.5340    -2.0180     0.3230 C.ar  1 <1>  -0.1500 
 16 N        3.3290     6.4920     0.6310 N.am  1 <1>  -0.4690 
 17 C       -2.6950    -1.9820     1.0900 C.ar  1 <1>   0.0820 
 18 C        4.0630     6.1520     1.7280 C.2   1 <1>   0.6900 
 19 C        3.9690     7.5710     0.0280 C.2   1 <1>  -0.0410 
 20 O       -2.9850    -2.8780     2.0660 O.3   1 <1>  -0.3630 
 21 O        3.8190     5.2420     2.5100 O.2   1 <1>  -0.5700 
 22 N        5.1260     6.9830     1.8160 N.am  1 <1>  -0.5390 
 23 C        5.0630     7.8700     0.7490 C.2   1 <1>  -0.0410 
 24 C       -2.1170    -3.9510     2.3560 C.3   1 <1>   0.0400 
 25 H        1.8230     3.2980    -2.8490 H     1 <1>   0.0800 
 26 H        2.2350     2.1720    -1.5910 H     1 <1>   0.0800 
 27 H       -1.4350     2.0960     0.4250 H     1 <1>   0.0800 
 28 H       -1.6330     3.5000    -0.5870 H     1 <1>   0.0800 
 29 H       -1.8210     0.4860    -2.8930 H     1 <1>   0.0800 
 30 H       -2.8630     1.6130    -2.0790 H     1 <1>   0.0800 
 31 H        0.9310     2.4200     0.5890 H     1 <1>   0.0800 
 32 H        0.1610     3.9440     0.9230 H     1 <1>   0.0800 
 33 H        3.0270     4.6720    -1.2860 H     1 <1>   0.0800 
 34 H        2.8710     3.8470     0.2480 H     1 <1>   0.0800 
 35 H       -4.1470     0.7410    -0.2730 H     1 <1>   0.1500 
 36 H       -0.4200    -1.0890    -1.2450 H     1 <1>   0.1500 
 37 H        1.4490     5.7080     1.0700 H     1 <1>   0.0800 
 38 H        1.5620     6.4830    -0.4970 H     1 <1>   0.0800 
 39 H       -4.5210    -0.9590     1.4590 H     1 <1>   0.1500 
 40 H       -0.7910    -2.7780     0.4690 H     1 <1>   0.1500 
 41 H        3.5850     8.0330    -0.8660 H     1 <1>   0.1500 
 42 H        5.8100     6.9150     2.5690 H     1 <1>   0.3700 
 43 H        5.8040     8.6380     0.5960 H     1 <1>   0.1500 
 44 H       -2.5530    -4.5280     3.1510 H     1 <1>   0.0800 
 45 H       -1.1670    -3.5560     2.6690 H     1 <1>   0.0800 
 46 H       -2.0110    -4.5610     1.4760 H     1 <1>   0.0800 
@<TRIPOS>BOND
  1   1   2  2   
  2   2   3  am  
  3   2   4  1   
  4   3   5  1   
  5   3   6  1   
  6   4   7  1   
  7   4  25  1   
  8   4  26  1   
  9   5   8  1   
 10   5  27  1   
 11   5  28  1   
 12   6   9  1   
 13   6  29  1   
 14   6  30  1   
 15   7   8  1   
 16   7  10  1   
 17   8  31  1   
 18   8  32  1   
 19   9  11  ar  
 20   9  12  ar  
 21  10  13  1   
 22  10  33  1   
 23  10  34  1   
 24  11  14  ar  
 25  11  35  1   
 26  12  15  ar  
 27  12  36  1   
 28  13  16  1   
 29  13  37  1   
 30  13  38  1   
 31  14  17  ar  
 32  14  39  1   
 33  15  17  ar  
 34  15  40  1   
 35  16  18  am  
 36  16  19  1   
 37  17  20  1   
 38  18  21  2   
 39  18  22  am  
 40  19  23  2   
 41  19  41  1   
 42  20  24  1   
 43  22  23  1   
 44  22  42  1   
 45  23  43  1   
 46  24  44  1   
 47  24  45  1   
 48  24  46  1   
@<TRIPOS>SUBSTRUCTURE
  1 ****   8 GROUP 4 **** **** 0

# MOE 2024.06 (io_trps.svl 2023.06)
