@<TRIPOS>MOLECULE
NONAME
46 49 1 0 0 
SMALL
USER_CHARGES


@<TRIPOS>ATOM
  1 S       -1.1780    -0.3370    -0.3910 S.3   1 <1>  -0.0800 
  2 C       -0.4510     0.9190     0.6130 C.2   1 <1>   0.0410 
  3 C       -1.2190    -1.4890     0.9350 C.2   1 <1>  -0.1400 
  4 C       -0.1770     2.2060     0.0250 C.2   1 <1>   0.2880 
  5 C       -0.2650     0.4180     1.8600 C.2   1 <1>  -0.1500 
  6 C       -0.6940    -0.9310     2.0430 C.2   1 <1>  -0.1500 
  7 C       -1.7960    -2.8620     0.6630 C.3   1 <1>   0.5230 
  8 N       -0.5350     2.5650    -1.1850 N.2   1 <1>  -0.7070 
  9 C        0.5010     3.2480     0.6650 C.2   1 <1>  -0.1500 
 10 N       -3.2790    -2.7410     0.5410 N.4   1 <1>  -0.9590 
 11 N       -0.0900     3.8240    -1.3290 N.pl3 1 <1>   0.3000 
 12 C        0.5390     4.2610    -0.2230 C.2   1 <1>  -0.3020 
 13 C       -3.7060    -2.2740    -0.8230 C.3   1 <1>   0.3430 
 14 C       -3.9330    -4.0610     0.7780 C.3   1 <1>   0.3430 
 15 C       -4.7020    -3.3170    -1.3520 C.3   1 <1>   0.2000 
 16 C       -4.3360    -4.5930    -0.6000 C.3   1 <1>  -0.0800 
 17 O       -5.9990    -2.9520    -1.0120 O.3   1 <1>  -0.6800 
 18 C       -3.1910    -5.3400    -1.3210 C.3   1 <1>   0.0210 
 19 C       -2.4440    -6.2880    -0.4050 C.2   1 <1>   0.1080 
 20 N       -1.5090    -5.8900     0.4050 N.2   1 <1>  -0.7070 
 21 C       -2.6600    -7.6590    -0.3320 C.2   1 <1>  -0.1500 
 22 N       -1.0830    -7.0250     1.0080 N.pl3 1 <1>   0.3000 
 23 C       -1.7750    -8.1020     0.5830 C.2   1 <1>  -0.3320 
 24 C       -1.5350    -9.5180     1.0770 C.3   1 <1>  -0.0600 
 25 H        0.1680     0.9700     2.6760 H     1 <1>   0.1500 
 26 H       -0.5830    -1.4100     3.0020 H     1 <1>   0.1500 
 27 H       -1.5520    -3.5120     1.4870 H     1 <1>   0.0800 
 28 H       -1.3680    -3.2870    -0.2310 H     1 <1>   0.0800 
 29 H        0.9010     3.2170     1.6620 H     1 <1>   0.1500 
 30 H       -3.5690    -2.0550     1.2500 H     1 <1>   0.4500 
 31 H       -0.2320     4.3610    -2.1940 H     1 <1>   0.2700 
 32 H        0.9670     5.2430    -0.1360 H     1 <1>   0.1500 
 33 H       -4.1540    -1.2940    -0.7930 H     1 <1>   0.0800 
 34 H       -2.8510    -2.2430    -1.4790 H     1 <1>   0.0800 
 35 H       -3.2950    -4.7430     1.3150 H     1 <1>   0.0800 
 36 H       -4.8260    -3.9130     1.3620 H     1 <1>   0.0800 
 37 H       -4.6600    -3.4210    -2.4230 H     1 <1>   0.0800 
 38 H       -5.1750    -5.2620    -0.5130 H     1 <1>   0.0800 
 39 H       -6.1240    -2.8010    -0.0560 H     1 <1>   0.4000 
 40 H       -2.4710    -4.6500    -1.7240 H     1 <1>   0.0800 
 41 H       -3.5930    -5.8950    -2.1500 H     1 <1>   0.0800 
 42 H       -3.3800    -8.2260    -0.8980 H     1 <1>   0.1500 
 43 H       -0.3170    -7.0430     1.6950 H     1 <1>   0.2700 
 44 H       -2.2070   -10.2000     0.5870 H     1 <1>   0.0800 
 45 H       -1.7030    -9.5780     2.1380 H     1 <1>   0.0800 
 46 H       -0.5260    -9.8230     0.8640 H     1 <1>   0.0800 
@<TRIPOS>BOND
  1   1   2  1   
  2   1   3  1   
  3   2   4  1   
  4   2   5  2   
  5   3   6  2   
  6   3   7  1   
  7   4   8  2   
  8   4   9  1   
  9   5   6  1   
 10   5  25  1   
 11   6  26  1   
 12   7  10  1   
 13   7  27  1   
 14   7  28  1   
 15   8  11  1   
 16   9  12  2   
 17   9  29  1   
 18  10  13  1   
 19  10  14  1   
 20  10  30  1   
 21  11  12  1   
 22  11  31  1   
 23  12  32  1   
 24  13  15  1   
 25  13  33  1   
 26  13  34  1   
 27  14  16  1   
 28  14  35  1   
 29  14  36  1   
 30  15  16  1   
 31  15  17  1   
 32  15  37  1   
 33  16  18  1   
 34  16  38  1   
 35  17  39  1   
 36  18  19  1   
 37  18  40  1   
 38  18  41  1   
 39  19  20  2   
 40  19  21  1   
 41  20  22  1   
 42  21  23  2   
 43  21  42  1   
 44  22  23  1   
 45  22  43  1   
 46  23  24  1   
 47  24  44  1   
 48  24  45  1   
 49  24  46  1   
@<TRIPOS>SUBSTRUCTURE
  1 ****   7 GROUP 4 **** **** 0

# MOE 2024.06 (io_trps.svl 2023.06)
