@<TRIPOS>MOLECULE
NONAME
46 48 1 0 0 
SMALL
USER_CHARGES


@<TRIPOS>ATOM
  1 O       -0.7750     0.4240     0.2440 O.3   1 <1>  -0.5600 
  2 C       -1.4740     0.2730     1.4500 C.3   1 <1>   0.1200 
  3 C       -1.0300    -0.5220    -0.7530 C.3   1 <1>   0.1200 
  4 C       -2.9000     0.8700     1.3410 C.3   1 <1>   0.4230 
  5 C       -2.5320    -0.6550    -1.0980 C.3   1 <1>  -0.0800 
  6 N       -3.0530     1.5820     0.0150 N.4   1 <1>  -0.9590 
  7 C       -3.9980    -0.1790     1.6650 C.3   1 <1>   0.2090 
  8 C       -3.2580    -1.7140    -0.2410 C.3   1 <1>   0.2090 
  9 C       -3.2880     0.6870    -1.1650 C.3   1 <1>   0.3430 
 10 C       -4.0560     2.6810     0.0640 C.3   1 <1>   0.2630 
 11 N       -4.3810    -1.1310     0.5580 N.pl3 1 <1>  -0.8380 
 12 C       -5.6840    -1.3820     0.2850 C.ar  1 <1>   0.4100 
 13 N       -6.4540    -0.2900     0.1750 N.ar  1 <1>  -0.6200 
 14 C       -6.2330    -2.6750     0.1110 C.ar  1 <1>  -0.1430 
 15 C       -7.7030    -0.4460    -0.1440 C.ar  1 <1>   0.5280 
 16 C       -7.5510    -2.7820    -0.2560 C.ar  1 <1>   0.2180 
 17 C       -5.3970    -3.9320     0.3910 C.3   1 <1>  -0.0970 
 18 N       -8.2650    -1.6460    -0.3760 N.ar  1 <1>  -0.1790 
 19 C       -8.5780     0.7860    -0.2680 C.3   1 <1>  -0.0970 
 20 C       -8.2920    -4.0880    -0.5270 C.3   1 <1>  -0.0970 
 21 H       -1.4770    -0.7640     1.7380 H     1 <1>   0.0800 
 22 H       -0.9260     0.8150     2.2020 H     1 <1>   0.0800 
 23 H       -0.4880    -0.1970    -1.6250 H     1 <1>   0.0800 
 24 H       -0.6110    -1.4650    -0.4430 H     1 <1>   0.0800 
 25 H       -2.9590     1.6080     2.1230 H     1 <1>   0.0800 
 26 H       -2.5540    -1.0560    -2.0960 H     1 <1>   0.0800 
 27 H       -2.1020     1.9610    -0.1410 H     1 <1>   0.4500 
 28 H       -4.8710     0.3570     1.9950 H     1 <1>   0.0800 
 29 H       -3.6750    -0.7610     2.5110 H     1 <1>   0.0800 
 30 H       -2.5730    -2.2220     0.4170 H     1 <1>   0.0800 
 31 H       -3.6530    -2.4550    -0.9150 H     1 <1>   0.0800 
 32 H       -4.3420     0.4790    -1.2510 H     1 <1>   0.0800 
 33 H       -2.9860     1.2100    -2.0580 H     1 <1>   0.0800 
 34 H       -5.0410     2.2750     0.2280 H     1 <1>   0.0800 
 35 H       -4.0570     3.2270    -0.8660 H     1 <1>   0.0800 
 36 H       -3.8240     3.3660     0.8630 H     1 <1>   0.0800 
 37 H       -5.9950    -4.7070     0.8360 H     1 <1>   0.0800 
 38 H       -4.6080    -3.7230     1.0910 H     1 <1>   0.0800 
 39 H       -4.9660    -4.3120    -0.5180 H     1 <1>   0.0800 
 40 H       -9.2530    -1.6880    -0.6300 H     1 <1>   0.4570 
 41 H       -8.0090     1.6700    -0.0420 H     1 <1>   0.0800 
 42 H       -9.4000     0.7320     0.4230 H     1 <1>   0.0800 
 43 H       -8.9580     0.8770    -1.2690 H     1 <1>   0.0800 
 44 H       -7.6130    -4.8870    -0.7650 H     1 <1>   0.0800 
 45 H       -8.9590    -3.9820    -1.3640 H     1 <1>   0.0800 
 46 H       -8.8640    -4.3750     0.3380 H     1 <1>   0.0800 
@<TRIPOS>BOND
  1   1   2  1   
  2   1   3  1   
  3   2   4  1   
  4   2  21  1   
  5   2  22  1   
  6   3   5  1   
  7   3  23  1   
  8   3  24  1   
  9   4   6  1   
 10   4   7  1   
 11   4  25  1   
 12   5   8  1   
 13   5   9  1   
 14   5  26  1   
 15   6   9  1   
 16   6  10  1   
 17   6  27  1   
 18   7  11  1   
 19   7  28  1   
 20   7  29  1   
 21   8  11  1   
 22   8  30  1   
 23   8  31  1   
 24   9  32  1   
 25   9  33  1   
 26  10  34  1   
 27  10  35  1   
 28  10  36  1   
 29  11  12  1   
 30  12  13  ar  
 31  12  14  ar  
 32  13  15  ar  
 33  14  16  ar  
 34  14  17  1   
 35  15  18  ar  
 36  15  19  1   
 37  16  18  ar  
 38  16  20  1   
 39  17  37  1   
 40  17  38  1   
 41  17  39  1   
 42  18  40  1   
 43  19  41  1   
 44  19  42  1   
 45  19  43  1   
 46  20  44  1   
 47  20  45  1   
 48  20  46  1   
@<TRIPOS>SUBSTRUCTURE
  1 ****  11 GROUP 4 **** **** 0

# MOE 2024.06 (io_trps.svl 2023.06)
