@<TRIPOS>MOLECULE
NONAME
42 44 1 0 0 
SMALL
USER_CHARGES


@<TRIPOS>ATOM
  1 O        0.3510     0.2070    -0.1620 O.3   1 <1>  -0.5600 
  2 C        1.5950    -0.4380    -0.2620 C.3   1 <1>   0.3440 
  3 C        0.4400     1.6060    -0.1400 C.3   1 <1>   0.2000 
  4 C        1.3810    -1.9470    -0.3320 C.ar  1 <1>  -0.1440 
  5 C        2.4930    -0.0720     0.9400 C.3   1 <1>   0.2090 
  6 C       -0.9950     2.1770    -0.2160 C.3   1 <1>  -0.0800 
  7 C        1.2490     2.0690     1.0970 C.3   1 <1>   0.2090 
  8 C        2.2150    -2.7230    -1.1250 C.ar  1 <1>  -0.1500 
  9 C        0.3750    -2.5680     0.3950 C.ar  1 <1>  -0.1500 
 10 N        2.5900     1.4110     1.1550 N.pl3 1 <1>  -0.8380 
 11 C       -0.9980     3.7080    -0.3490 C.3   1 <1>  -0.2400 
 12 C       -1.8890     1.7590     0.9650 C.3   1 <1>  -0.2400 
 13 C        2.0480    -4.0960    -1.1880 C.ar  1 <1>  -0.1500 
 14 C        0.2060    -3.9400     0.3340 C.ar  1 <1>  -0.1500 
 15 C        3.6380     2.0930     0.5620 C.ar  1 <1>   0.4100 
 16 C        1.0430    -4.7060    -0.4580 C.ar  1 <1>  -0.1500 
 17 N        3.9600     1.7400    -0.6770 N.ar  1 <1>  -0.6200 
 18 C        4.3030     3.1240     1.2480 C.ar  1 <1>   0.1600 
 19 C        4.9550     2.4620    -1.1640 C.ar  1 <1>   0.1600 
 20 N        5.2920     3.8500     0.7600 N.ar  1 <1>  -0.6200 
 21 C        5.6000     3.4800    -0.4750 C.ar  1 <1>   0.1600 
 22 H        2.0640    -0.1060    -1.1720 H     1 <1>   0.0800 
 23 H        0.9710     1.9110    -1.0270 H     1 <1>   0.0800 
 24 H        3.4750    -0.4810     0.7800 H     1 <1>   0.0800 
 25 H        2.0910    -0.5300     1.8260 H     1 <1>   0.0800 
 26 H       -1.4340     1.7790    -1.1160 H     1 <1>   0.0800 
 27 H        0.7070     1.8300     1.9940 H     1 <1>   0.0800 
 28 H        1.3760     3.1360     1.0610 H     1 <1>   0.0800 
 29 H        3.0010    -2.2610    -1.6970 H     1 <1>   0.1500 
 30 H       -0.2840    -1.9780     1.0100 H     1 <1>   0.1500 
 31 H       -0.6400     4.1800     0.5480 H     1 <1>   0.0800 
 32 H       -1.9990     4.0580    -0.5360 H     1 <1>   0.0800 
 33 H       -0.3780     4.0130    -1.1740 H     1 <1>   0.0800 
 34 H       -1.5420     2.1830     1.8900 H     1 <1>   0.0800 
 35 H       -1.9020     0.6870     1.0610 H     1 <1>   0.0800 
 36 H       -2.8980     2.0900     0.7980 H     1 <1>   0.0800 
 37 H        2.6990    -4.6900    -1.8050 H     1 <1>   0.1500 
 38 H       -0.5790    -4.4100     0.9000 H     1 <1>   0.1500 
 39 H        0.9120    -5.7720    -0.5060 H     1 <1>   0.1500 
 40 H        3.9750     3.3320     2.2480 H     1 <1>   0.1500 
 41 H        5.2790     2.2350    -2.1650 H     1 <1>   0.1500 
 42 H        6.3990     4.0120    -0.9600 H     1 <1>   0.1500 
@<TRIPOS>BOND
  1   1   2  1   
  2   1   3  1   
  3   2   4  1   
  4   2   5  1   
  5   2  22  1   
  6   3   6  1   
  7   3   7  1   
  8   3  23  1   
  9   4   8  ar  
 10   4   9  ar  
 11   5  10  1   
 12   5  24  1   
 13   5  25  1   
 14   6  11  1   
 15   6  12  1   
 16   6  26  1   
 17   7  10  1   
 18   7  27  1   
 19   7  28  1   
 20   8  13  ar  
 21   8  29  1   
 22   9  14  ar  
 23   9  30  1   
 24  10  15  1   
 25  11  31  1   
 26  11  32  1   
 27  11  33  1   
 28  12  34  1   
 29  12  35  1   
 30  12  36  1   
 31  13  16  ar  
 32  13  37  1   
 33  14  16  ar  
 34  14  38  1   
 35  15  17  ar  
 36  15  18  ar  
 37  16  39  1   
 38  17  19  ar  
 39  18  20  ar  
 40  18  40  1   
 41  19  21  ar  
 42  19  41  1   
 43  20  21  ar  
 44  21  42  1   
@<TRIPOS>SUBSTRUCTURE
  1 ****   2 GROUP 4 **** **** 0

# MOE 2024.06 (io_trps.svl 2023.06)
