@<TRIPOS>MOLECULE
NONAME
44 46 1 0 0 
SMALL
USER_CHARGES


@<TRIPOS>ATOM
  1 O       -1.9400     0.5820    -2.1600 O.2   1 <1>  -0.5700 
  2 C       -1.9250     0.8950    -0.9860 C.2   1 <1>   0.5440 
  3 N       -2.0770    -0.0930    -0.0580 N.am  1 <1>  -0.7300 
  4 C       -1.7550     2.2820    -0.5870 C.ar  1 <1>   0.0860 
  5 C       -2.3040    -1.5220    -0.3660 C.3   1 <1>   0.2200 
  6 C       -2.0710     2.7610     0.6780 C.ar  1 <1>  -0.1500 
  7 C       -1.2620     3.2400    -1.4610 C.ar  1 <1>  -0.1500 
  8 C       -3.7880    -1.8210    -0.2430 C.3   1 <1>  -0.0800 
  9 C       -1.7240    -2.3820     0.7500 C.3   1 <1>   0.1200 
 10 C       -1.8810     4.0940     0.9930 C.ar  1 <1>   0.1670 
 11 C       -1.1060     4.5520    -1.0560 C.ar  1 <1>   0.1670 
 12 C       -3.9500    -2.1050     1.2560 C.3   1 <1>   0.1200 
 13 C       -4.1960    -3.0230    -1.1150 C.3   1 <1>  -0.0170 
 14 O       -2.6750    -2.3640     1.7710 O.3   1 <1>  -0.5600 
 15 N       -1.4040     4.9920     0.1520 N.ar  1 <1>  -0.6200 
 16 C       -2.2250     4.6110     2.3740 C.3   1 <1>  -0.0970 
 17 C       -0.5660     5.5880    -2.0190 C.3   1 <1>  -0.0970 
 18 C       -5.6900    -3.2910    -1.0220 C.ar  1 <1>  -0.1430 
 19 C       -6.2050    -4.3600    -0.3170 C.ar  1 <1>  -0.1500 
 20 C       -6.6110    -2.4720    -1.6430 C.ar  1 <1>  -0.1500 
 21 C       -7.5760    -4.5490    -0.2630 C.ar  1 <1>   0.1600 
 22 C       -7.9630    -2.7500    -1.5280 C.ar  1 <1>   0.1600 
 23 N       -8.4680    -3.7680    -0.8510 N.ar  1 <1>  -0.6200 
 24 H       -2.0600     0.1170     0.9410 H     1 <1>   0.3700 
 25 H       -1.8940    -1.7700    -1.3310 H     1 <1>   0.0800 
 26 H       -2.4720     2.0970     1.4190 H     1 <1>   0.1500 
 27 H       -1.0000     2.9480    -2.4620 H     1 <1>   0.1500 
 28 H       -4.3770    -0.9710    -0.5380 H     1 <1>   0.0800 
 29 H       -0.7850    -2.0080     1.1190 H     1 <1>   0.0800 
 30 H       -1.6080    -3.4010     0.4260 H     1 <1>   0.0800 
 31 H       -4.5830    -2.9510     1.4580 H     1 <1>   0.0800 
 32 H       -4.3370    -1.2410     1.7680 H     1 <1>   0.0800 
 33 H       -3.6500    -3.9030    -0.8200 H     1 <1>   0.0800 
 34 H       -3.9490    -2.8170    -2.1430 H     1 <1>   0.0800 
 35 H       -2.6080     3.8290     3.0020 H     1 <1>   0.0800 
 36 H       -2.9660     5.3860     2.2910 H     1 <1>   0.0800 
 37 H       -1.3450     5.0250     2.8300 H     1 <1>   0.0800 
 38 H       -0.3470     5.1540    -2.9770 H     1 <1>   0.0800 
 39 H        0.3350     6.0160    -1.6160 H     1 <1>   0.0800 
 40 H       -1.2910     6.3700    -2.1470 H     1 <1>   0.0800 
 41 H       -5.5550    -5.0480     0.1930 H     1 <1>   0.1500 
 42 H       -6.2900    -1.6210    -2.2160 H     1 <1>   0.1500 
 43 H       -7.9590    -5.3880     0.2920 H     1 <1>   0.1500 
 44 H       -8.6660    -2.0990    -2.0190 H     1 <1>   0.1500 
@<TRIPOS>BOND
  1   1   2  2   
  2   2   3  am  
  3   2   4  1   
  4   3   5  1   
  5   3  24  1   
  6   4   6  ar  
  7   4   7  ar  
  8   5   8  1   
  9   5   9  1   
 10   5  25  1   
 11   6  10  ar  
 12   6  26  1   
 13   7  11  ar  
 14   7  27  1   
 15   8  12  1   
 16   8  13  1   
 17   8  28  1   
 18   9  14  1   
 19   9  29  1   
 20   9  30  1   
 21  10  15  ar  
 22  10  16  1   
 23  11  15  ar  
 24  11  17  1   
 25  12  14  1   
 26  12  31  1   
 27  12  32  1   
 28  13  18  1   
 29  13  33  1   
 30  13  34  1   
 31  16  35  1   
 32  16  36  1   
 33  16  37  1   
 34  17  38  1   
 35  17  39  1   
 36  17  40  1   
 37  18  19  ar  
 38  18  20  ar  
 39  19  21  ar  
 40  19  41  1   
 41  20  22  ar  
 42  20  42  1   
 43  21  23  ar  
 44  21  43  1   
 45  22  23  ar  
 46  22  44  1   
@<TRIPOS>SUBSTRUCTURE
  1 ****   3 GROUP 4 **** **** 0

# MOE 2024.06 (io_trps.svl 2023.06)
