@<TRIPOS>MOLECULE
NONAME
58 61 1 0 0 
SMALL
USER_CHARGES


@<TRIPOS>ATOM
  1 S        0.7000    -0.3980     2.9140 S.3   1 <1>  -0.0800 
  2 C        1.5500    -0.8560     1.4470 C.2   1 <1>  -0.1400 
  3 C        1.1390     1.2840     2.7040 C.2   1 <1>  -0.1100 
  4 C        2.0940     0.2310     0.8630 C.2   1 <1>  -0.1500 
  5 C        1.5570    -2.3390     1.1110 C.3   1 <1>   0.5230 
  6 C        1.8660     1.4550     1.5830 C.2   1 <1>  -0.1810 
  7 N        0.1590    -2.8230     1.0260 N.4   1 <1>  -0.9590 
  8 C        2.4350     2.7880     1.1240 C.3   1 <1>   0.5240 
  9 C       -0.6340    -2.3190    -0.1200 C.3   1 <1>   0.3430 
 10 C        0.0170    -4.3050     0.9950 C.3   1 <1>   0.3430 
 11 N        1.6420     3.2910    -0.0270 N.4   1 <1>  -0.9590 
 12 C       -1.8620    -3.2290    -0.1190 C.3   1 <1>   0.2000 
 13 C       -1.2880    -4.6040     0.2330 C.3   1 <1>  -0.0800 
 14 C        2.3270     4.4390    -0.6880 C.3   1 <1>   0.3430 
 15 C        0.2480     3.6410     0.3810 C.3   1 <1>   0.3430 
 16 O       -2.6800    -2.8200     0.9270 O.3   1 <1>  -0.6800 
 17 C       -1.0200    -5.4450    -1.0290 C.3   1 <1>   0.0210 
 18 C        1.5540     4.8470    -1.9440 C.3   1 <1>  -0.1600 
 19 C       -0.5670     4.0340    -0.8520 C.3   1 <1>  -0.1600 
 20 C       -0.3970    -6.7830    -0.6820 C.2   1 <1>   0.1080 
 21 C        0.0910     5.1820    -1.6280 C.3   1 <1>  -0.1600 
 22 N        0.8230    -6.9000    -0.2550 N.2   1 <1>  -0.7070 
 23 C       -1.0410    -8.0100    -0.7820 C.2   1 <1>  -0.1500 
 24 N        0.9940    -8.2290    -0.0820 N.pl3 1 <1>   0.3000 
 25 C       -0.1240    -8.9170    -0.3890 C.2   1 <1>  -0.3320 
 26 C       -0.2470   -10.4270    -0.2940 C.3   1 <1>  -0.0600 
 27 H        0.8030     1.9670     3.4680 H     1 <1>   0.1500 
 28 H        2.6760     0.2180    -0.0450 H     1 <1>   0.1500 
 29 H        2.0780    -2.8710     1.8910 H     1 <1>   0.0800 
 30 H        2.0710    -2.5120     0.1790 H     1 <1>   0.0800 
 31 H       -0.3460    -2.4930     1.8640 H     1 <1>   0.4500 
 32 H        3.4660     2.6540     0.8400 H     1 <1>   0.0800 
 33 H        2.3960     3.4990     1.9340 H     1 <1>   0.0800 
 34 H       -0.9130    -1.2860     0.0020 H     1 <1>   0.0800 
 35 H       -0.0850    -2.4490    -1.0380 H     1 <1>   0.0800 
 36 H        0.8550    -4.7390     0.4750 H     1 <1>   0.0800 
 37 H       -0.0210    -4.7110     1.9930 H     1 <1>   0.0800 
 38 H        1.5740     2.5300    -0.7100 H     1 <1>   0.4500 
 39 H       -2.4210    -3.1920    -1.0390 H     1 <1>   0.0800 
 40 H       -1.9610    -5.1580     0.8640 H     1 <1>   0.0800 
 41 H        2.3740     5.2780    -0.0110 H     1 <1>   0.0800 
 42 H        3.3340     4.1670    -0.9630 H     1 <1>   0.0800 
 43 H       -0.2220     2.8000     0.8660 H     1 <1>   0.0800 
 44 H        0.2660     4.4660     1.0750 H     1 <1>   0.0800 
 45 H       -3.5370    -3.2980     0.9200 H     1 <1>   0.4000 
 46 H       -0.3550    -4.9290    -1.6990 H     1 <1>   0.0800 
 47 H       -1.9430    -5.6200    -1.5530 H     1 <1>   0.0800 
 48 H        2.0270     5.7090    -2.3840 H     1 <1>   0.0800 
 49 H        1.6010     4.0530    -2.6690 H     1 <1>   0.0800 
 50 H       -0.6840     3.1770    -1.4930 H     1 <1>   0.0800 
 51 H       -1.5530     4.3360    -0.5400 H     1 <1>   0.0800 
 52 H       -0.4490     5.3640    -2.5430 H     1 <1>   0.0800 
 53 H        0.0480     6.0840    -1.0400 H     1 <1>   0.0800 
 54 H       -2.0530    -8.1800    -1.1090 H     1 <1>   0.1500 
 55 H        1.8810    -8.6380     0.2390 H     1 <1>   0.2700 
 56 H       -1.2320   -10.7390    -0.5950 H     1 <1>   0.0800 
 57 H       -0.0800   -10.7540     0.7170 H     1 <1>   0.0800 
 58 H        0.4720   -10.9020    -0.9380 H     1 <1>   0.0800 
@<TRIPOS>BOND
  1   1   2  1   
  2   1   3  1   
  3   2   4  2   
  4   2   5  1   
  5   3   6  2   
  6   3  27  1   
  7   4   6  1   
  8   4  28  1   
  9   5   7  1   
 10   5  29  1   
 11   5  30  1   
 12   6   8  1   
 13   7   9  1   
 14   7  10  1   
 15   7  31  1   
 16   8  11  1   
 17   8  32  1   
 18   8  33  1   
 19   9  12  1   
 20   9  34  1   
 21   9  35  1   
 22  10  13  1   
 23  10  36  1   
 24  10  37  1   
 25  11  14  1   
 26  11  15  1   
 27  11  38  1   
 28  12  13  1   
 29  12  16  1   
 30  12  39  1   
 31  13  17  1   
 32  13  40  1   
 33  14  18  1   
 34  14  41  1   
 35  14  42  1   
 36  15  19  1   
 37  15  43  1   
 38  15  44  1   
 39  16  45  1   
 40  17  20  1   
 41  17  46  1   
 42  17  47  1   
 43  18  21  1   
 44  18  48  1   
 45  18  49  1   
 46  19  21  1   
 47  19  50  1   
 48  19  51  1   
 49  20  22  2   
 50  20  23  1   
 51  21  52  1   
 52  21  53  1   
 53  22  24  1   
 54  23  25  2   
 55  23  54  1   
 56  24  25  1   
 57  24  55  1   
 58  25  26  1   
 59  26  56  1   
 60  26  57  1   
 61  26  58  1   
@<TRIPOS>SUBSTRUCTURE
  1 ****   9 GROUP 4 **** **** 0

# MOE 2024.06 (io_trps.svl 2023.06)
