@<TRIPOS>MOLECULE
NONAME
41 43 1 0 0 
SMALL
USER_CHARGES


@<TRIPOS>ATOM
  1 S       -0.9730    -2.1940     1.7680 S.3   1 <1>  -0.2820 
  2 C       -0.6590    -0.4680     1.7080 C.2   1 <1>   0.7320 
  3 C       -2.0980    -1.9930     0.4500 C.2   1 <1>   0.6510 
  4 S        0.5270     0.1470     2.8930 S.3   1 <1>  -0.3710 
  5 N       -1.3000     0.1880     0.8340 N.2   1 <1>  -0.5120 
  6 N       -2.7670    -2.9780    -0.0630 N.2   1 <1>  -0.6210 
  7 N       -2.1360    -0.6680     0.0960 N.am  1 <1>  -0.0580 
  8 C        0.6010     1.9610     2.5390 C.3   1 <1>  -0.0100 
  9 C       -3.6040    -2.6530    -1.0960 C.2   1 <1>   0.0330 
 10 C       -2.9930    -0.3190    -0.9360 C.2   1 <1>   0.6160 
 11 C       -3.7330    -1.3720    -1.5340 C.2   1 <1>  -0.1360 
 12 C       -4.3790    -3.8150    -1.7210 C.3   1 <1>   0.4810 
 13 O       -3.1220     0.8350    -1.3160 O.2   1 <1>  -0.5700 
 14 N       -4.9890    -4.6440    -0.6430 N.4   1 <1>  -0.9590 
 15 C       -5.3660    -6.0230    -1.0900 C.3   1 <1>   0.3430 
 16 C       -6.0730    -3.9420     0.1060 C.3   1 <1>   0.2630 
 17 C       -5.3430    -7.0060     0.0950 C.3   1 <1>   0.2000 
 18 O       -4.2590    -6.6650     0.9250 O.3   1 <1>  -0.5600 
 19 C       -5.2090    -8.4670    -0.3750 C.3   1 <1>   0.1200 
 20 C       -4.0960    -7.5260     2.0220 C.3   1 <1>   0.1200 
 21 O       -5.0820    -9.3050     0.7310 O.3   1 <1>  -0.5600 
 22 C       -3.9950    -8.9890     1.5520 C.3   1 <1>   0.1200 
 23 H        1.3020     2.4020     3.2250 H     1 <1>   0.0800 
 24 H       -0.3840     2.3690     2.6810 H     1 <1>   0.0800 
 25 H        0.9260     2.0890     1.5220 H     1 <1>   0.0800 
 26 H       -4.3810    -1.0840    -2.3410 H     1 <1>   0.1500 
 27 H       -3.6850    -4.4160    -2.2850 H     1 <1>   0.0800 
 28 H       -5.1380    -3.4460    -2.3900 H     1 <1>   0.0800 
 29 H       -4.2130    -4.8000     0.0380 H     1 <1>   0.4500 
 30 H       -4.6490    -6.3700    -1.8150 H     1 <1>   0.0800 
 31 H       -6.3370    -6.0240    -1.5560 H     1 <1>   0.0800 
 32 H       -6.9180    -3.7560    -0.5370 H     1 <1>   0.0800 
 33 H       -5.7120    -3.0010     0.4880 H     1 <1>   0.0800 
 34 H       -6.3950    -4.5430     0.9410 H     1 <1>   0.0800 
 35 H       -6.2500    -6.9010     0.6660 H     1 <1>   0.0800 
 36 H       -4.3450    -8.5990    -1.0030 H     1 <1>   0.0800 
 37 H       -6.0850    -8.7780    -0.9170 H     1 <1>   0.0800 
 38 H       -4.9350    -7.4070     2.6860 H     1 <1>   0.0800 
 39 H       -3.2000    -7.2390     2.5430 H     1 <1>   0.0800 
 40 H       -4.0120    -9.6560     2.3960 H     1 <1>   0.0800 
 41 H       -3.0840    -9.1520     1.0020 H     1 <1>   0.0800 
@<TRIPOS>BOND
  1   1   2  1   
  2   1   3  1   
  3   2   4  1   
  4   2   5  2   
  5   3   6  2   
  6   3   7  1   
  7   4   8  1   
  8   5   7  1   
  9   6   9  1   
 10   7  10  am  
 11   8  23  1   
 12   8  24  1   
 13   8  25  1   
 14   9  11  2   
 15   9  12  1   
 16  10  11  1   
 17  10  13  2   
 18  11  26  1   
 19  12  14  1   
 20  12  27  1   
 21  12  28  1   
 22  14  15  1   
 23  14  16  1   
 24  14  29  1   
 25  15  17  1   
 26  15  30  1   
 27  15  31  1   
 28  16  32  1   
 29  16  33  1   
 30  16  34  1   
 31  17  18  1   
 32  17  19  1   
 33  17  35  1   
 34  18  20  1   
 35  19  21  1   
 36  19  36  1   
 37  19  37  1   
 38  20  22  1   
 39  20  38  1   
 40  20  39  1   
 41  21  22  1   
 42  22  40  1   
 43  22  41  1   
@<TRIPOS>SUBSTRUCTURE
  1 ****   6 GROUP 4 **** **** 0

# MOE 2024.06 (io_trps.svl 2023.06)
