@<TRIPOS>MOLECULE
NONAME
50 51 1 0 0 
SMALL
USER_CHARGES


@<TRIPOS>ATOM
  1 O        0.4060    -1.5920     1.2250 O.2   1 <1>  -0.5700 
  2 C        0.5360    -2.0340     0.1010 C.2   1 <1>   0.7800 
  3 O        1.7370    -2.3480    -0.3760 O.3   1 <1>  -0.4300 
  4 N       -0.5050    -2.2420    -0.7260 N.am  1 <1>  -0.7300 
  5 C        2.8980    -2.1730     0.4090 C.3   1 <1>   0.0400 
  6 C       -1.9330    -2.1690    -0.3330 C.3   1 <1>   0.2810 
  7 C       -2.7090    -3.4470    -0.7390 C.2   1 <1>   0.5690 
  8 C       -2.5160    -0.9130    -0.9860 C.3   1 <1>  -0.2400 
  9 O       -2.3230    -4.0340    -1.7290 O.2   1 <1>  -0.5700 
 10 N       -3.8020    -3.9060    -0.0310 N.am  1 <1>  -0.6600 
 11 C       -4.4530    -5.2030    -0.4000 C.3   1 <1>   0.1400 
 12 C       -4.4510    -3.1910     1.1050 C.3   1 <1>   0.1400 
 13 C       -5.8990    -5.0210    -0.8810 C.3   1 <1>   0.1400 
 14 C       -5.7090    -2.4730     0.6070 C.3   1 <1>  -0.1600 
 15 N       -6.8280    -4.7400     0.2590 N.am  1 <1>  -0.6600 
 16 C       -6.9880    -3.3180     0.6870 C.3   1 <1>   0.1400 
 17 C       -7.7140    -5.6930     0.7290 C.2   1 <1>   0.7160 
 18 O       -8.6520    -5.3310     1.4160 O.2   1 <1>  -0.5700 
 19 C       -7.5680    -7.0960     0.4120 C.2   1 <1>  -0.0860 
 20 C       -8.5630    -7.9260    -0.1160 C.2   1 <1>   0.1080 
 21 C       -6.5030    -7.9380     0.5320 C.2   1 <1>  -0.3020 
 22 N       -8.1550    -9.1370    -0.3170 N.2   1 <1>  -0.7070 
 23 C       -9.9780    -7.4940    -0.4330 C.3   1 <1>  -0.0590 
 24 N       -6.8800    -9.1460     0.0910 N.pl3 1 <1>   0.3140 
 25 C       -6.0750   -10.3700     0.0380 C.3   1 <1>   0.0160 
 26 H       -0.3340    -2.7730    -1.5820 H     1 <1>   0.3700 
 27 H        3.7490    -2.4860    -0.1670 H     1 <1>   0.0800 
 28 H        2.8090    -2.7730     1.2980 H     1 <1>   0.0800 
 29 H        2.9870    -1.1330     0.6700 H     1 <1>   0.0800 
 30 H       -1.9730    -2.0590     0.7340 H     1 <1>   0.0800 
 31 H       -2.4850    -1.0050    -2.0570 H     1 <1>   0.0800 
 32 H       -1.9560    -0.0470    -0.6840 H     1 <1>   0.0800 
 33 H       -3.5380    -0.7800    -0.6840 H     1 <1>   0.0800 
 34 H       -4.4320    -5.8620     0.4480 H     1 <1>   0.0800 
 35 H       -3.8980    -5.6830    -1.1870 H     1 <1>   0.0800 
 36 H       -3.7820    -2.4700     1.5340 H     1 <1>   0.0800 
 37 H       -4.7030    -3.8930     1.8840 H     1 <1>   0.0800 
 38 H       -6.2080    -5.9190    -1.3860 H     1 <1>   0.0800 
 39 H       -5.9440    -4.2250    -1.6040 H     1 <1>   0.0800 
 40 H       -5.5660    -2.1220    -0.3990 H     1 <1>   0.0800 
 41 H       -5.8670    -1.6030     1.2190 H     1 <1>   0.0800 
 42 H       -7.7590    -2.8600     0.0910 H     1 <1>   0.0800 
 43 H       -7.3280    -3.3070     1.7100 H     1 <1>   0.0800 
 44 H       -5.5220    -7.7370     0.9160 H     1 <1>   0.1500 
 45 H       -9.9660    -6.6160    -1.0520 H     1 <1>   0.0800 
 46 H      -10.5010    -7.2750     0.4800 H     1 <1>   0.0800 
 47 H      -10.4950    -8.2800    -0.9520 H     1 <1>   0.0800 
 48 H       -5.1050   -10.1860     0.4590 H     1 <1>   0.0800 
 49 H       -5.9790   -10.6780    -0.9860 H     1 <1>   0.0800 
 50 H       -6.5770   -11.1380     0.5980 H     1 <1>   0.0800 
@<TRIPOS>BOND
  1   1   2  2   
  2   2   3  1   
  3   2   4  am  
  4   3   5  1   
  5   4   6  1   
  6   4  26  1   
  7   5  27  1   
  8   5  28  1   
  9   5  29  1   
 10   6   7  1   
 11   6   8  1   
 12   6  30  1   
 13   7   9  2   
 14   7  10  am  
 15   8  31  1   
 16   8  32  1   
 17   8  33  1   
 18  10  11  1   
 19  10  12  1   
 20  11  13  1   
 21  11  34  1   
 22  11  35  1   
 23  12  14  1   
 24  12  36  1   
 25  12  37  1   
 26  13  15  1   
 27  13  38  1   
 28  13  39  1   
 29  14  16  1   
 30  14  40  1   
 31  14  41  1   
 32  15  16  1   
 33  15  17  am  
 34  16  42  1   
 35  16  43  1   
 36  17  18  2   
 37  17  19  1   
 38  19  20  1   
 39  19  21  2   
 40  20  22  2   
 41  20  23  1   
 42  21  24  1   
 43  21  44  1   
 44  22  24  1   
 45  23  45  1   
 46  23  46  1   
 47  23  47  1   
 48  24  25  1   
 49  25  48  1   
 50  25  49  1   
 51  25  50  1   
@<TRIPOS>SUBSTRUCTURE
  1 ****  11 GROUP 4 **** **** 0

# MOE 2024.06 (io_trps.svl 2023.06)
