@<TRIPOS>MOLECULE
NONAME
54 56 1 0 0 
SMALL
USER_CHARGES


@<TRIPOS>ATOM
  1 O       -0.2770     1.4870    -1.3550 O.2   1 <1>  -0.5700 
  2 C       -0.4830     2.6220    -0.9960 C.2   1 <1>   0.5690 
  3 N       -1.3880     2.9630    -0.0220 N.am  1 <1>  -0.6600 
  4 C        0.3080     3.7320    -1.6810 C.3   1 <1>   0.1810 
  5 C       -1.6000     4.4030     0.3530 C.3   1 <1>   0.3640 
  6 C       -2.1630     1.9870     0.7960 C.3   1 <1>   0.2200 
  7 O        0.5680     4.7980    -0.8060 O.3   1 <1>  -0.5600 
  8 C       -3.0310     4.8100    -0.0090 C.ar  1 <1>  -0.1440 
  9 C       -0.5990     5.4140    -0.2810 C.3   1 <1>   0.2610 
 10 C       -1.2140     1.1460     1.6490 C.3   1 <1>  -0.2400 
 11 C       -3.0680     1.1190    -0.0790 C.3   1 <1>  -0.2400 
 12 C       -3.5750     4.5060    -1.2510 C.ar  1 <1>  -0.1500 
 13 C       -3.8060     5.5030     0.9100 C.ar  1 <1>  -0.1500 
 14 C       -0.2110     6.4820     0.7510 C.2   1 <1>   0.5690 
 15 C       -4.8690     4.8830    -1.5650 C.ar  1 <1>  -0.1500 
 16 C       -5.1000     5.8820     0.5970 C.ar  1 <1>  -0.1500 
 17 O       -1.0680     7.0310     1.4040 O.2   1 <1>  -0.5700 
 18 N        1.0980     6.7950     0.9210 N.am  1 <1>  -0.7300 
 19 C       -5.6330     5.5720    -0.6410 C.ar  1 <1>  -0.1500 
 20 C        1.6300     7.8260     1.8250 C.3   1 <1>   0.2840 
 21 C        2.8370     8.4650     1.1630 C.ar  1 <1>  -0.1440 
 22 C        2.6690     9.5210     0.2800 C.ar  1 <1>  -0.1500 
 23 C        4.1140     7.9980     1.4310 C.ar  1 <1>  -0.1500 
 24 C        3.7640    10.1150    -0.3300 C.ar  1 <1>  -0.1440 
 25 C        5.2110     8.5850     0.8270 C.ar  1 <1>  -0.1500 
 26 C        5.0360     9.6400    -0.0500 C.ar  1 <1>  -0.1500 
 27 C        3.5790    11.2750    -1.2910 C.3   1 <1>   0.2630 
 28 O        4.0140    12.4180    -0.6510 O.3   1 <1>  -0.6800 
 29 H       -0.2370     4.1010    -2.5310 H     1 <1>   0.0800 
 30 H        1.2530     3.3410    -2.0120 H     1 <1>   0.0800 
 31 H       -1.4910     4.4670     1.4220 H     1 <1>   0.0800 
 32 H       -2.8040     2.5340     1.4680 H     1 <1>   0.0800 
 33 H       -1.0810     5.9190    -1.0970 H     1 <1>   0.0800 
 34 H       -0.5960     0.5210     1.0300 H     1 <1>   0.0800 
 35 H       -1.7810     0.5120     2.3050 H     1 <1>   0.0800 
 36 H       -0.5890     1.7840     2.2470 H     1 <1>   0.0800 
 37 H       -2.4930     0.4780    -0.7210 H     1 <1>   0.0800 
 38 H       -3.7120     1.7360    -0.6760 H     1 <1>   0.0800 
 39 H       -3.6830     0.4970     0.5450 H     1 <1>   0.0800 
 40 H       -2.9980     3.9650    -1.9800 H     1 <1>   0.1500 
 41 H       -3.4060     5.7620     1.8760 H     1 <1>   0.1500 
 42 H       -5.2820     4.6400    -2.5290 H     1 <1>   0.1500 
 43 H       -5.6910     6.4210     1.3180 H     1 <1>   0.1500 
 44 H        1.7890     6.3140     0.3360 H     1 <1>   0.3700 
 45 H       -6.6390     5.8660    -0.8840 H     1 <1>   0.1500 
 46 H        0.8750     8.5680     2.0240 H     1 <1>   0.0800 
 47 H        1.9130     7.3700     2.7580 H     1 <1>   0.0800 
 48 H        1.6760     9.8800     0.0680 H     1 <1>   0.1500 
 49 H        4.2620     7.1770     2.1110 H     1 <1>   0.1500 
 50 H        6.2030     8.2230     1.0380 H     1 <1>   0.1500 
 51 H        5.8940    10.0970    -0.5150 H     1 <1>   0.1500 
 52 H        2.5430    11.4080    -1.5510 H     1 <1>   0.0800 
 53 H        4.1620    11.1440    -2.1860 H     1 <1>   0.0800 
 54 H        3.8550    12.3100     0.3070 H     1 <1>   0.4000 
@<TRIPOS>BOND
  1   1   2  2   
  2   2   3  am  
  3   2   4  1   
  4   3   5  1   
  5   3   6  1   
  6   4   7  1   
  7   4  29  1   
  8   4  30  1   
  9   5   8  1   
 10   5   9  1   
 11   5  31  1   
 12   6  10  1   
 13   6  11  1   
 14   6  32  1   
 15   7   9  1   
 16   8  12  ar  
 17   8  13  ar  
 18   9  14  1   
 19   9  33  1   
 20  10  34  1   
 21  10  35  1   
 22  10  36  1   
 23  11  37  1   
 24  11  38  1   
 25  11  39  1   
 26  12  15  ar  
 27  12  40  1   
 28  13  16  ar  
 29  13  41  1   
 30  14  17  2   
 31  14  18  am  
 32  15  19  ar  
 33  15  42  1   
 34  16  19  ar  
 35  16  43  1   
 36  18  20  1   
 37  18  44  1   
 38  19  45  1   
 39  20  21  1   
 40  20  46  1   
 41  20  47  1   
 42  21  22  ar  
 43  21  23  ar  
 44  22  24  ar  
 45  22  48  1   
 46  23  25  ar  
 47  23  49  1   
 48  24  26  ar  
 49  24  27  1   
 50  25  26  ar  
 51  25  50  1   
 52  26  51  1   
 53  27  28  1   
 54  27  52  1   
 55  27  53  1   
 56  28  54  1   
@<TRIPOS>SUBSTRUCTURE
  1 ****   9 GROUP 4 **** **** 0

# MOE 2024.06 (io_trps.svl 2023.06)
