@<TRIPOS>MOLECULE
NONAME
63 65 1 0 0 
SMALL
USER_CHARGES


@<TRIPOS>ATOM
  1 O       -0.9490     0.8740    -1.4770 O.2   1 <1>  -0.5700 
  2 C       -1.8180     1.4400    -0.8420 C.2   1 <1>   0.5440 
  3 N       -2.8400     0.6850    -0.3020 N.am  1 <1>  -0.6600 
  4 C       -1.7390     2.8780    -0.6590 C.ar  1 <1>   0.0860 
  5 C       -3.1040    -0.7050    -0.7910 C.3   1 <1>   0.1400 
  6 C       -3.6270     1.1050     0.8910 C.3   1 <1>   0.1400 
  7 C       -0.5570     3.4800    -0.2420 C.ar  1 <1>  -0.1500 
  8 C       -2.8310     3.7090    -0.8990 C.ar  1 <1>  -0.1500 
  9 C       -4.6110    -0.9290    -1.0080 C.3   1 <1>   0.2000 
 10 C       -5.1230     0.9040     0.6200 C.3   1 <1>  -0.1600 
 11 C       -0.4510     4.8480    -0.0400 C.ar  1 <1>   0.1170 
 12 C       -2.7500     5.0740    -0.6970 C.ar  1 <1>  -0.1500 
 13 O       -4.8250    -2.2510    -1.3900 O.3   1 <1>  -0.6800 
 14 C       -5.4790    -0.5560     0.2310 C.3   1 <1>   0.0000 
 15 N        0.7820     5.3530     0.3950 N.am  1 <1>  -0.5470 
 16 C       -1.5720     5.6540    -0.2580 C.ar  1 <1>  -0.1430 
 17 C       -5.1530    -1.5260     1.4030 C.3   1 <1>   0.1200 
 18 C       -7.0000    -0.6720    -0.0830 C.3   1 <1>  -0.1600 
 19 C        1.5950     6.2640    -0.2210 C.2   1 <1>   0.5690 
 20 C       -1.5470     7.1610    -0.0320 C.3   1 <1>  -0.0970 
 21 O       -5.8310    -1.1800     2.5640 O.3   1 <1>  -0.6800 
 22 C       -7.5250     0.1170    -1.2980 C.3   1 <1>  -0.1600 
 23 O        1.3110     6.7940    -1.2680 O.2   1 <1>  -0.5700 
 24 C        2.9220     6.6030     0.4590 C.3   1 <1>  -0.0190 
 25 C       -9.0370    -0.0670    -1.4500 C.3   1 <1>  -0.2400 
 26 C        3.1250     8.0940     0.7330 C.3   1 <1>  -0.1600 
 27 C        4.1550     6.2250    -0.3630 C.3   1 <1>  -0.1600 
 28 C        4.6350     8.2580     0.9270 C.3   1 <1>  -0.1600 
 29 C        5.2940     7.0690     0.2150 C.3   1 <1>  -0.1600 
 30 H       -2.6000    -0.8640    -1.7290 H     1 <1>   0.0800 
 31 H       -2.7120    -1.4030    -0.0750 H     1 <1>   0.0800 
 32 H       -3.3140     0.5190     1.7380 H     1 <1>   0.0800 
 33 H       -3.4400     2.1360     1.1310 H     1 <1>   0.0800 
 34 H        0.3040     2.8550    -0.0830 H     1 <1>   0.1500 
 35 H       -3.7500     3.2760    -1.2520 H     1 <1>   0.1500 
 36 H       -4.8980    -0.3190    -1.8460 H     1 <1>   0.0800 
 37 H       -5.6850     1.2110     1.4830 H     1 <1>   0.0800 
 38 H       -5.3920     1.5730    -0.1770 H     1 <1>   0.0800 
 39 H       -3.6130     5.6880    -0.8880 H     1 <1>   0.1500 
 40 H       -4.5750    -2.8700    -0.6800 H     1 <1>   0.4000 
 41 H        1.1820     4.8850     1.2040 H     1 <1>   0.3700 
 42 H       -4.1030    -1.5370     1.6350 H     1 <1>   0.0800 
 43 H       -5.4530    -2.5300     1.1540 H     1 <1>   0.0800 
 44 H       -7.2370    -1.7110    -0.2410 H     1 <1>   0.0800 
 45 H       -7.5580    -0.3600     0.7840 H     1 <1>   0.0800 
 46 H       -2.5380     7.5400     0.1370 H     1 <1>   0.0800 
 47 H       -1.1380     7.6500    -0.8980 H     1 <1>   0.0800 
 48 H       -0.9450     7.4080     0.8220 H     1 <1>   0.0800 
 49 H       -5.6490    -0.2560     2.8140 H     1 <1>   0.4000 
 50 H       -7.3200     1.1670    -1.1900 H     1 <1>   0.0800 
 51 H       -7.0510    -0.2310    -2.1990 H     1 <1>   0.0800 
 52 H        2.9790     6.0860     1.4000 H     1 <1>   0.0800 
 53 H       -9.5520     0.2920    -0.5760 H     1 <1>   0.0800 
 54 H       -9.2760    -1.1070    -1.5900 H     1 <1>   0.0800 
 55 H       -9.3910     0.4820    -2.3050 H     1 <1>   0.0800 
 56 H        2.8190     8.6620    -0.1300 H     1 <1>   0.0800 
 57 H        2.5660     8.4300     1.5880 H     1 <1>   0.0800 
 58 H        4.3660     5.1700    -0.3160 H     1 <1>   0.0800 
 59 H        3.9970     6.5040    -1.3920 H     1 <1>   0.0800 
 60 H        4.9730     9.1960     0.5210 H     1 <1>   0.0800 
 61 H        4.8740     8.2280     1.9760 H     1 <1>   0.0800 
 62 H        5.8580     6.4900     0.9260 H     1 <1>   0.0800 
 63 H        5.9570     7.4000    -0.5660 H     1 <1>   0.0800 
@<TRIPOS>BOND
  1   1   2  2   
  2   2   3  am  
  3   2   4  1   
  4   3   5  1   
  5   3   6  1   
  6   4   7  ar  
  7   4   8  ar  
  8   5   9  1   
  9   5  30  1   
 10   5  31  1   
 11   6  10  1   
 12   6  32  1   
 13   6  33  1   
 14   7  11  ar  
 15   7  34  1   
 16   8  12  ar  
 17   8  35  1   
 18   9  13  1   
 19   9  14  1   
 20   9  36  1   
 21  10  14  1   
 22  10  37  1   
 23  10  38  1   
 24  11  15  1   
 25  11  16  ar  
 26  12  16  ar  
 27  12  39  1   
 28  13  40  1   
 29  14  17  1   
 30  14  18  1   
 31  15  19  am  
 32  15  41  1   
 33  16  20  1   
 34  17  21  1   
 35  17  42  1   
 36  17  43  1   
 37  18  22  1   
 38  18  44  1   
 39  18  45  1   
 40  19  23  2   
 41  19  24  1   
 42  20  46  1   
 43  20  47  1   
 44  20  48  1   
 45  21  49  1   
 46  22  25  1   
 47  22  50  1   
 48  22  51  1   
 49  24  26  1   
 50  24  27  1   
 51  24  52  1   
 52  25  53  1   
 53  25  54  1   
 54  25  55  1   
 55  26  28  1   
 56  26  56  1   
 57  26  57  1   
 58  27  29  1   
 59  27  58  1   
 60  27  59  1   
 61  28  29  1   
 62  28  60  1   
 63  28  61  1   
 64  29  62  1   
 65  29  63  1   
@<TRIPOS>SUBSTRUCTURE
  1 ****   4 GROUP 4 **** **** 0

# MOE 2024.06 (io_trps.svl 2023.06)
