@<TRIPOS>MOLECULE
NONAME
54 55 1 0 0 
SMALL
USER_CHARGES


@<TRIPOS>ATOM
  1 S        0.0970     0.1040     1.0250 S.o2  1 <1>   1.3330 
  2 O        1.0200     0.6340     2.0050 O.2   1 <1>  -0.6500 
  3 O       -0.7770    -0.9960     1.3500 O.2   1 <1>  -0.6500 
  4 N        1.0030    -0.3080    -0.3490 N.am  1 <1>  -0.8490 
  5 C       -0.8730     1.5050     0.4590 C.3   1 <1>  -0.0550 
  6 C        0.2270    -1.0800    -1.3320 C.3   1 <1>   0.1160 
  7 C        2.2000    -1.0810     0.0090 C.3   1 <1>   0.1160 
  8 C       -0.0140     2.6470    -0.1420 C.3   1 <1>  -0.0800 
  9 C       -0.7940     3.8750    -0.6050 C.3   1 <1>   0.2000 
 10 C        1.0670     3.2020     0.7990 C.3   1 <1>   0.3430 
 11 O       -1.7870     4.1920     0.3160 O.3   1 <1>  -0.6800 
 12 C        0.2660     4.9770    -0.6180 C.3   1 <1>   0.3430 
 13 N        1.1680     4.6750     0.5420 N.4   1 <1>  -0.9590 
 14 C        2.5780     5.1190     0.3460 C.3   1 <1>   0.3430 
 15 C        2.6490     6.6440     0.3080 C.3   1 <1>  -0.1600 
 16 C        4.0950     7.1250     0.1880 C.3   1 <1>   0.1200 
 17 O        4.0610     8.5290     0.1320 O.3   1 <1>  -0.3630 
 18 C        5.1870     9.2690     0.0200 C.ar  1 <1>   0.0820 
 19 C        5.0330    10.6440    -0.0230 C.ar  1 <1>  -0.1500 
 20 C        6.4680     8.7310    -0.0500 C.ar  1 <1>  -0.1500 
 21 C        6.1330    11.4730    -0.1380 C.ar  1 <1>  -0.1500 
 22 C        7.5630     9.5680    -0.1660 C.ar  1 <1>  -0.1500 
 23 C        7.4300    10.9580    -0.2200 C.ar  1 <1>   0.0860 
 24 C        8.5970    11.8130    -0.3530 C.2   1 <1>   0.5440 
 25 O        9.7100    11.4250    -0.0700 O.2   1 <1>  -0.5700 
 26 N        8.5160    13.0830    -0.8150 N.am  1 <1>  -0.8000 
 27 H       -1.5730     1.1710    -0.2820 H     1 <1>   0.0800 
 28 H       -1.4440     1.8730     1.2890 H     1 <1>   0.0800 
 29 H        0.8230    -1.2700    -2.2080 H     1 <1>   0.0800 
 30 H       -0.6500    -0.5340    -1.6330 H     1 <1>   0.0800 
 31 H       -0.0840    -2.0240    -0.9120 H     1 <1>   0.0800 
 32 H        2.7660    -1.3280    -0.8740 H     1 <1>   0.0800 
 33 H        1.9220    -1.9930     0.5140 H     1 <1>   0.0800 
 34 H        2.8330    -0.5070     0.6640 H     1 <1>   0.0800 
 35 H        0.5000     2.2530    -1.0020 H     1 <1>   0.0800 
 36 H       -1.2600     3.7440    -1.5680 H     1 <1>   0.0800 
 37 H        2.0050     2.7010     0.6160 H     1 <1>   0.0800 
 38 H        0.7890     3.0300     1.8280 H     1 <1>   0.0800 
 39 H       -1.4710     4.2140     1.2390 H     1 <1>   0.4000 
 40 H       -0.1830     5.9540    -0.5460 H     1 <1>   0.0800 
 41 H        0.8250     4.9100    -1.5370 H     1 <1>   0.0800 
 42 H        0.7950     5.1680     1.3660 H     1 <1>   0.4500 
 43 H        3.1840     4.7590     1.1630 H     1 <1>   0.0800 
 44 H        2.9700     4.7090    -0.5710 H     1 <1>   0.0800 
 45 H        2.2330     7.0490     1.2140 H     1 <1>   0.0800 
 46 H        2.1020     7.0200    -0.5380 H     1 <1>   0.0800 
 47 H        4.5550     6.7650    -0.7170 H     1 <1>   0.0800 
 48 H        4.6780     6.8370     1.0470 H     1 <1>   0.0800 
 49 H        4.0430    11.0610     0.0380 H     1 <1>   0.1500 
 50 H        6.6370     7.6720    -0.0150 H     1 <1>   0.1500 
 51 H        5.9810    12.5370    -0.1570 H     1 <1>   0.1500 
 52 H        8.5520     9.1440    -0.2180 H     1 <1>   0.1500 
 53 H        9.3800    13.6170    -0.9160 H     1 <1>   0.3700 
 54 H        7.6730    13.4900    -1.2160 H     1 <1>   0.3700 
@<TRIPOS>BOND
  1   1   2  2   
  2   1   3  2   
  3   1   4  am  
  4   1   5  1   
  5   4   6  1   
  6   4   7  1   
  7   5   8  1   
  8   5  27  1   
  9   5  28  1   
 10   6  29  1   
 11   6  30  1   
 12   6  31  1   
 13   7  32  1   
 14   7  33  1   
 15   7  34  1   
 16   8   9  1   
 17   8  10  1   
 18   8  35  1   
 19   9  11  1   
 20   9  12  1   
 21   9  36  1   
 22  10  13  1   
 23  10  37  1   
 24  10  38  1   
 25  11  39  1   
 26  12  13  1   
 27  12  40  1   
 28  12  41  1   
 29  13  14  1   
 30  13  42  1   
 31  14  15  1   
 32  14  43  1   
 33  14  44  1   
 34  15  16  1   
 35  15  45  1   
 36  15  46  1   
 37  16  17  1   
 38  16  47  1   
 39  16  48  1   
 40  17  18  1   
 41  18  19  ar  
 42  18  20  ar  
 43  19  21  ar  
 44  19  49  1   
 45  20  22  ar  
 46  20  50  1   
 47  21  23  ar  
 48  21  51  1   
 49  22  23  ar  
 50  22  52  1   
 51  23  24  1   
 52  24  25  2   
 53  24  26  am  
 54  26  53  1   
 55  26  54  1   
@<TRIPOS>SUBSTRUCTURE
  1 ****  14 GROUP 4 **** **** 0

# MOE 2024.06 (io_trps.svl 2023.06)
