@<TRIPOS>MOLECULE
NONAME
42 44 1 0 0 
SMALL
USER_CHARGES


@<TRIPOS>ATOM
  1 O        1.4650    -1.1870     1.5900 O.3   1 <1>  -0.5600 
  2 C        0.3620    -2.0390     1.6820 C.3   1 <1>   0.1200 
  3 C        1.5820    -0.4670     0.4090 C.3   1 <1>   0.1200 
  4 C        0.6340    -3.3640     0.9430 C.3   1 <1>   0.1900 
  5 C        1.8860    -1.3870    -0.7850 C.3   1 <1>  -0.0800 
  6 N        0.2780    -3.3490    -0.5210 N.3   1 <1>  -0.8100 
  7 C        2.1100    -3.7920     1.1270 C.3   1 <1>   0.3430 
  8 C        0.6160    -2.1210    -1.2700 C.3   1 <1>   0.1100 
  9 C        3.1450    -2.2530    -0.5460 C.3   1 <1>   0.3430 
 10 C       -1.0970    -3.8090    -0.8000 C.3   1 <1>   0.2540 
 11 N        2.8570    -3.6690    -0.1660 N.4   1 <1>  -0.9590 
 12 C       -1.2170    -5.2720    -0.4240 C.ar  1 <1>  -0.1440 
 13 C        4.0610    -4.5440    -0.2120 C.3   1 <1>   0.2630 
 14 C       -0.4050    -6.2200    -1.0010 C.ar  1 <1>   0.1600 
 15 C       -2.1170    -5.7160     0.5170 C.ar  1 <1>   0.1600 
 16 N       -0.4530    -7.4880    -0.6640 N.ar  1 <1>  -0.6200 
 17 N       -2.1910    -6.9790     0.8710 N.ar  1 <1>  -0.6200 
 18 C       -1.3540    -7.7980     0.2550 C.ar  1 <1>   0.4770 
 19 C       -1.4430    -9.2520     0.6510 C.3   1 <1>  -0.0970 
 20 H        0.2260    -2.2440     2.7300 H     1 <1>   0.0800 
 21 H       -0.5230    -1.5440     1.3200 H     1 <1>   0.0800 
 22 H        0.6790     0.1000     0.2570 H     1 <1>   0.0800 
 23 H        2.3910     0.2300     0.5500 H     1 <1>   0.0800 
 24 H        0.0390    -4.1090     1.4420 H     1 <1>   0.0800 
 25 H        2.1450    -0.7080    -1.5770 H     1 <1>   0.0800 
 26 H        2.1180    -4.8210     1.4470 H     1 <1>   0.0800 
 27 H        2.5800    -3.2030     1.8980 H     1 <1>   0.0800 
 28 H        0.7460    -2.3900    -2.3060 H     1 <1>   0.0800 
 29 H       -0.2160    -1.4350    -1.2270 H     1 <1>   0.0800 
 30 H        3.7520    -1.7900     0.2160 H     1 <1>   0.0800 
 31 H        3.7180    -2.2590    -1.4580 H     1 <1>   0.0800 
 32 H       -1.8070    -3.2110    -0.2520 H     1 <1>   0.0800 
 33 H       -1.3110    -3.7070    -1.8510 H     1 <1>   0.0800 
 34 H        2.1370    -3.9850    -0.8440 H     1 <1>   0.4500 
 35 H        4.7830    -4.2230     0.5220 H     1 <1>   0.0800 
 36 H        4.5170    -4.5010    -1.1880 H     1 <1>   0.0800 
 37 H        3.7870    -5.5660    -0.0060 H     1 <1>   0.0800 
 38 H        0.3070    -5.9300    -1.7540 H     1 <1>   0.1500 
 39 H       -2.7900    -5.0280     0.9990 H     1 <1>   0.1500 
 40 H       -0.7230    -9.8370     0.1100 H     1 <1>   0.0800 
 41 H       -2.4280    -9.6210     0.4340 H     1 <1>   0.0800 
 42 H       -1.2550    -9.3480     1.7040 H     1 <1>   0.0800 
@<TRIPOS>BOND
  1   1   2  1   
  2   1   3  1   
  3   2   4  1   
  4   2  20  1   
  5   2  21  1   
  6   3   5  1   
  7   3  22  1   
  8   3  23  1   
  9   4   6  1   
 10   4   7  1   
 11   4  24  1   
 12   5   8  1   
 13   5   9  1   
 14   5  25  1   
 15   6   8  1   
 16   6  10  1   
 17   7  11  1   
 18   7  26  1   
 19   7  27  1   
 20   8  28  1   
 21   8  29  1   
 22   9  11  1   
 23   9  30  1   
 24   9  31  1   
 25  10  12  1   
 26  10  32  1   
 27  10  33  1   
 28  11  13  1   
 29  11  34  1   
 30  12  14  ar  
 31  12  15  ar  
 32  13  35  1   
 33  13  36  1   
 34  13  37  1   
 35  14  16  ar  
 36  14  38  1   
 37  15  17  ar  
 38  15  39  1   
 39  16  18  ar  
 40  17  18  ar  
 41  18  19  1   
 42  19  40  1   
 43  19  41  1   
 44  19  42  1   
@<TRIPOS>SUBSTRUCTURE
  1 ****   6 GROUP 4 **** **** 0

# MOE 2024.06 (io_trps.svl 2023.06)
