@<TRIPOS>MOLECULE
NONAME
46 47 1 0 0 
SMALL
USER_CHARGES


@<TRIPOS>ATOM
  1 S        1.1360     1.5660    -1.0170 S.o2  1 <1>   1.3330 
  2 O        0.9780     2.5240    -2.0880 O.2   1 <1>  -0.6500 
  3 O        1.6950     0.2690    -1.3190 O.2   1 <1>  -0.6500 
  4 N        2.1270     2.2640     0.1710 N.am  1 <1>  -0.8490 
  5 C       -0.4780     1.3070    -0.2520 C.3   1 <1>  -0.0550 
  6 C        2.6030     1.3160     1.1820 C.3   1 <1>   0.1160 
  7 C        3.2680     2.9790    -0.4130 C.3   1 <1>   0.1160 
  8 C       -1.2720     2.4970     0.3500 C.3   1 <1>  -0.0800 
  9 C       -1.3480     3.7500    -0.5300 C.3   1 <1>   0.2000 
 10 C       -0.7070     3.0030     1.6810 C.3   1 <1>   0.1400 
 11 O       -2.5550     4.3750    -0.2550 O.3   1 <1>  -0.6800 
 12 C       -0.2200     4.6590    -0.0370 C.3   1 <1>   0.1400 
 13 N        0.0410     4.2440     1.3700 N.am  1 <1>  -0.6600 
 14 C        1.1700     4.5950     2.0950 C.2   1 <1>   0.7150 
 15 O        1.3010     4.0670     3.1910 O.2   1 <1>  -0.5700 
 16 C        2.1840     5.5270     1.6090 C.2   1 <1>   0.2930 
 17 S        3.6230     5.7420     2.6040 S.3   1 <1>  -0.0800 
 18 N        2.2410     6.2450     0.5310 N.2   1 <1>  -0.5650 
 19 C        4.2770     6.8480     1.4430 C.2   1 <1>  -0.1100 
 20 C        3.4070     6.9780     0.4300 C.2   1 <1>   0.0460 
 21 C        3.5690     7.8450    -0.8180 C.3   1 <1>   0.1010 
 22 C        3.7400     6.9630    -2.0620 C.3   1 <1>  -0.2400 
 23 C        4.7490     8.8220    -0.7070 C.3   1 <1>  -0.2400 
 24 H       -1.1050     0.8690    -1.0050 H     1 <1>   0.0800 
 25 H       -0.3710     0.5630     0.5120 H     1 <1>   0.0800 
 26 H        3.1350     1.8430     1.9570 H     1 <1>   0.0800 
 27 H        3.2600     0.5870     0.7370 H     1 <1>   0.0800 
 28 H        1.7730     0.8030     1.6340 H     1 <1>   0.0800 
 29 H        3.8710     3.4190     0.3630 H     1 <1>   0.0800 
 30 H        2.9200     3.7710    -1.0540 H     1 <1>   0.0800 
 31 H        3.8740     2.3050    -0.9940 H     1 <1>   0.0800 
 32 H       -2.2660     2.1230     0.5270 H     1 <1>   0.0800 
 33 H       -1.3070     3.5520    -1.5880 H     1 <1>   0.0800 
 34 H       -0.0710     2.2710     2.1490 H     1 <1>   0.0800 
 35 H       -1.5090     3.2480     2.3570 H     1 <1>   0.0800 
 36 H       -2.5180     4.7610     0.6430 H     1 <1>   0.4000 
 37 H       -0.4910     5.6990    -0.0950 H     1 <1>   0.0800 
 38 H        0.6630     4.5000    -0.6270 H     1 <1>   0.0800 
 39 H        5.2400     7.2790     1.6440 H     1 <1>   0.1500 
 40 H        2.6680     8.4240    -0.9310 H     1 <1>   0.0800 
 41 H        4.6200     6.3520    -1.9690 H     1 <1>   0.0800 
 42 H        3.8260     7.5700    -2.9450 H     1 <1>   0.0800 
 43 H        2.8860     6.3180    -2.1760 H     1 <1>   0.0800 
 44 H        5.6780     8.2870    -0.6250 H     1 <1>   0.0800 
 45 H        4.6280     9.4500     0.1580 H     1 <1>   0.0800 
 46 H        4.7910     9.4510    -1.5780 H     1 <1>   0.0800 
@<TRIPOS>BOND
  1   1   2  2   
  2   1   3  2   
  3   1   4  am  
  4   1   5  1   
  5   4   6  1   
  6   4   7  1   
  7   5   8  1   
  8   5  24  1   
  9   5  25  1   
 10   6  26  1   
 11   6  27  1   
 12   6  28  1   
 13   7  29  1   
 14   7  30  1   
 15   7  31  1   
 16   8   9  1   
 17   8  10  1   
 18   8  32  1   
 19   9  11  1   
 20   9  12  1   
 21   9  33  1   
 22  10  13  1   
 23  10  34  1   
 24  10  35  1   
 25  11  36  1   
 26  12  13  1   
 27  12  37  1   
 28  12  38  1   
 29  13  14  am  
 30  14  15  2   
 31  14  16  1   
 32  16  17  1   
 33  16  18  2   
 34  17  19  1   
 35  18  20  1   
 36  19  20  2   
 37  19  39  1   
 38  20  21  1   
 39  21  22  1   
 40  21  23  1   
 41  21  40  1   
 42  22  41  1   
 43  22  42  1   
 44  22  43  1   
 45  23  44  1   
 46  23  45  1   
 47  23  46  1   
@<TRIPOS>SUBSTRUCTURE
  1 ****  12 GROUP 4 **** **** 0

# MOE 2024.06 (io_trps.svl 2023.06)
