@<TRIPOS>MOLECULE
NONAME
54 56 1 0 0 
SMALL
USER_CHARGES


@<TRIPOS>ATOM
  1 O       -0.0110     1.1060     0.1550 O.2   1 <1>  -0.5700 
  2 C       -0.1580     2.2580    -0.1790 C.2   1 <1>   0.5690 
  3 N       -0.9930     3.1160     0.4850 N.am  1 <1>  -0.6600 
  4 C        0.6030     2.7570    -1.4060 C.3   1 <1>   0.1810 
  5 C       -1.1850     4.5310     0.0240 C.3   1 <1>   0.3640 
  6 C       -1.7220     2.7220     1.7250 C.3   1 <1>   0.0600 
  7 O        0.8160     4.1460    -1.3730 O.3   1 <1>  -0.5600 
  8 C       -2.6800     4.8520    -0.1480 C.ar  1 <1>  -0.1430 
  9 C       -0.3690     4.9200    -1.2390 C.3   1 <1>   0.2610 
 10 C       -3.5780     4.0940    -0.9090 C.ar  1 <1>  -0.1430 
 11 C       -3.1530     5.9810     0.5110 C.ar  1 <1>  -0.1500 
 12 C       -0.0080     6.4080    -1.1640 C.2   1 <1>   0.5690 
 13 C       -4.9090     4.4810    -0.9790 C.ar  1 <1>  -0.1500 
 14 C       -3.1860     2.8370    -1.6770 C.3   1 <1>  -0.0960 
 15 C       -4.4800     6.3580     0.4320 C.ar  1 <1>  -0.1500 
 16 O       -0.8630     7.2470    -1.3180 O.2   1 <1>  -0.5700 
 17 N        1.2780     6.7610    -0.8980 N.am  1 <1>  -0.7300 
 18 C       -5.3620     5.6040    -0.3140 C.ar  1 <1>  -0.1500 
 19 C        1.7890     8.1490    -0.8060 C.3   1 <1>   0.1400 
 20 C        1.4370     8.7550     0.5550 C.3   1 <1>   0.1400 
 21 N        1.9230    10.1590     0.6380 N.am  1 <1>  -0.6600 
 22 C        3.2260    10.4220     0.9720 C.2   1 <1>   0.5690 
 23 C        0.9470    11.1980     0.2050 C.3   1 <1>   0.1400 
 24 O        4.0210     9.5370     1.1860 O.2   1 <1>  -0.5700 
 25 C        3.7190    11.8550     1.0860 C.3   1 <1>  -0.0990 
 26 C        1.3720    12.6030     0.6440 C.3   1 <1>  -0.1600 
 27 C        2.8470    12.8620     0.3250 C.3   1 <1>  -0.1600 
 28 H        0.0590     2.5120    -2.3000 H     1 <1>   0.0800 
 29 H        1.5650     2.2800    -1.4430 H     1 <1>   0.0800 
 30 H       -0.8120     5.1480     0.8230 H     1 <1>   0.0800 
 31 H       -1.4970     3.4140     2.5180 H     1 <1>   0.0800 
 32 H       -1.4330     1.7340     2.0390 H     1 <1>   0.0800 
 33 H       -2.7830     2.7270     1.5450 H     1 <1>   0.0800 
 34 H       -0.9610     4.7710    -2.1210 H     1 <1>   0.0800 
 35 H       -2.4860     6.5930     1.0930 H     1 <1>   0.1500 
 36 H       -5.6120     3.9060    -1.5560 H     1 <1>   0.1500 
 37 H       -3.9710     2.5360    -2.3470 H     1 <1>   0.0800 
 38 H       -3.0090     2.0260    -0.9930 H     1 <1>   0.0800 
 39 H       -2.3060     3.0020    -2.2650 H     1 <1>   0.0800 
 40 H       -4.8250     7.2370     0.9480 H     1 <1>   0.1500 
 41 H        1.9700     6.0060    -0.8340 H     1 <1>   0.3700 
 42 H       -6.3970     5.8910    -0.3800 H     1 <1>   0.1500 
 43 H        2.8580     8.1450    -0.9360 H     1 <1>   0.0800 
 44 H        1.3430     8.7390    -1.5880 H     1 <1>   0.0800 
 45 H        1.9010     8.1730     1.3330 H     1 <1>   0.0800 
 46 H        0.3710     8.7300     0.6990 H     1 <1>   0.0800 
 47 H        0.8690    11.1660    -0.8690 H     1 <1>   0.0800 
 48 H       -0.0230    10.9780     0.6180 H     1 <1>   0.0800 
 49 H        3.7320    12.1090     2.1300 H     1 <1>   0.0800 
 50 H        4.7290    11.9050     0.7230 H     1 <1>   0.0800 
 51 H        0.7570    13.3290     0.1420 H     1 <1>   0.0800 
 52 H        1.2030    12.7080     1.7020 H     1 <1>   0.0800 
 53 H        3.1190    13.8660     0.6050 H     1 <1>   0.0800 
 54 H        3.0100    12.7510    -0.7340 H     1 <1>   0.0800 
@<TRIPOS>BOND
  1   1   2  2   
  2   2   3  am  
  3   2   4  1   
  4   3   5  1   
  5   3   6  1   
  6   4   7  1   
  7   4  28  1   
  8   4  29  1   
  9   5   8  1   
 10   5   9  1   
 11   5  30  1   
 12   6  31  1   
 13   6  32  1   
 14   6  33  1   
 15   7   9  1   
 16   8  10  ar  
 17   8  11  ar  
 18   9  12  1   
 19   9  34  1   
 20  10  13  ar  
 21  10  14  1   
 22  11  15  ar  
 23  11  35  1   
 24  12  16  2   
 25  12  17  am  
 26  13  18  ar  
 27  13  36  1   
 28  14  37  1   
 29  14  38  1   
 30  14  39  1   
 31  15  18  ar  
 32  15  40  1   
 33  17  19  1   
 34  17  41  1   
 35  18  42  1   
 36  19  20  1   
 37  19  43  1   
 38  19  44  1   
 39  20  21  1   
 40  20  45  1   
 41  20  46  1   
 42  21  22  am  
 43  21  23  1   
 44  22  24  2   
 45  22  25  1   
 46  23  26  1   
 47  23  47  1   
 48  23  48  1   
 49  25  27  1   
 50  25  49  1   
 51  25  50  1   
 52  26  27  1   
 53  26  51  1   
 54  26  52  1   
 55  27  53  1   
 56  27  54  1   
@<TRIPOS>SUBSTRUCTURE
  1 ****  12 GROUP 4 **** **** 0

# MOE 2024.06 (io_trps.svl 2023.06)
