@<TRIPOS>MOLECULE
NONAME
50 52 1 0 0 
SMALL
USER_CHARGES


@<TRIPOS>ATOM
  1 S       -0.5840    -0.3000    -0.5690 S.3   1 <1>  -0.0800 
  2 C       -1.2220    -1.2800     0.7110 C.2   1 <1>   0.4420 
  3 C       -0.5380     1.0130     0.5590 C.2   1 <1>   0.1980 
  4 N       -1.3520    -0.6230     1.8050 N.2   1 <1>  -0.3380 
  5 N       -1.4960    -2.5960     0.3980 N.am  1 <1>  -0.4940 
  6 N       -0.9600     0.6850     1.7100 N.2   1 <1>  -0.3380 
  7 C       -0.0280     2.3600     0.0820 C.3   1 <1>   0.0200 
  8 C       -2.0050    -3.5870     1.1890 C.2   1 <1>   0.5690 
  9 C        1.4930     2.3470    -0.1320 C.3   1 <1>  -0.1600 
 10 O       -2.3200    -3.4240     2.3390 O.2   1 <1>  -0.5700 
 11 C       -2.1680    -4.9670     0.5710 C.3   1 <1>  -0.0190 
 12 C        2.0090     3.7190    -0.5830 C.3   1 <1>  -0.1600 
 13 C       -3.6330    -5.4070     0.6630 C.3   1 <1>   0.2090 
 14 C       -1.2430    -6.0080     1.2350 C.3   1 <1>  -0.1600 
 15 C        3.5280     3.6960    -0.7920 C.3   1 <1>  -0.1600 
 16 N       -3.7770    -6.7480     0.0280 N.pl3 1 <1>  -0.8380 
 17 C       -1.4920    -7.4100     0.6520 C.3   1 <1>  -0.1600 
 18 C        4.0430     5.0650    -1.2420 C.3   1 <1>  -0.2400 
 19 C       -5.0230    -7.1240    -0.4370 C.ar  1 <1>   0.4100 
 20 C       -2.9750    -7.7940     0.7080 C.3   1 <1>   0.2090 
 21 N       -6.0840    -6.6550     0.2100 N.ar  1 <1>  -0.6200 
 22 C       -5.1160    -7.9700    -1.5390 C.ar  1 <1>  -0.1500 
 23 C       -7.2610    -7.0450    -0.2510 C.ar  1 <1>   0.1600 
 24 C       -6.3450    -8.3680    -2.0080 C.ar  1 <1>  -0.1500 
 25 C       -7.4480    -7.8850    -1.3340 C.ar  1 <1>  -0.1500 
 26 H       -1.2850    -2.8550    -0.5600 H     1 <1>   0.3700 
 27 H       -0.2790     3.0990     0.8220 H     1 <1>   0.0800 
 28 H       -0.5290     2.6210    -0.8330 H     1 <1>   0.0800 
 29 H        1.7450     1.6090    -0.8740 H     1 <1>   0.0800 
 30 H        1.9730     2.0680     0.7910 H     1 <1>   0.0800 
 31 H       -1.9220    -4.9090    -0.4730 H     1 <1>   0.0800 
 32 H        1.7650     4.4580     0.1620 H     1 <1>   0.0800 
 33 H        1.5280     4.0010    -1.5050 H     1 <1>   0.0800 
 34 H       -4.2640    -4.6960     0.1560 H     1 <1>   0.0800 
 35 H       -3.9460    -5.4600     1.6930 H     1 <1>   0.0800 
 36 H       -1.4380    -6.0280     2.2950 H     1 <1>   0.0800 
 37 H       -0.2130    -5.7310     1.0930 H     1 <1>   0.0800 
 38 H        3.7800     2.9610    -1.5380 H     1 <1>   0.0800 
 39 H        4.0160     3.4190     0.1270 H     1 <1>   0.0800 
 40 H       -0.9180    -8.1360     1.1990 H     1 <1>   0.0800 
 41 H       -1.1700    -7.4410    -0.3740 H     1 <1>   0.0800 
 42 H        3.5850     5.3530    -2.1720 H     1 <1>   0.0800 
 43 H        5.1090     5.0290    -1.3830 H     1 <1>   0.0800 
 44 H        3.8220     5.8130    -0.5010 H     1 <1>   0.0800 
 45 H       -3.1270    -8.7470     0.2310 H     1 <1>   0.0800 
 46 H       -3.2990    -7.8740     1.7330 H     1 <1>   0.0800 
 47 H       -4.2120    -8.2990    -2.0130 H     1 <1>   0.1500 
 48 H       -8.1280    -6.6730     0.2680 H     1 <1>   0.1500 
 49 H       -6.4440    -9.0220    -2.8570 H     1 <1>   0.1500 
 50 H       -8.4410    -8.1550    -1.6450 H     1 <1>   0.1500 
@<TRIPOS>BOND
  1   1   2  1   
  2   1   3  1   
  3   2   4  2   
  4   2   5  1   
  5   3   6  2   
  6   3   7  1   
  7   4   6  1   
  8   5   8  am  
  9   5  26  1   
 10   7   9  1   
 11   7  27  1   
 12   7  28  1   
 13   8  10  2   
 14   8  11  1   
 15   9  12  1   
 16   9  29  1   
 17   9  30  1   
 18  11  13  1   
 19  11  14  1   
 20  11  31  1   
 21  12  15  1   
 22  12  32  1   
 23  12  33  1   
 24  13  16  1   
 25  13  34  1   
 26  13  35  1   
 27  14  17  1   
 28  14  36  1   
 29  14  37  1   
 30  15  18  1   
 31  15  38  1   
 32  15  39  1   
 33  16  19  1   
 34  16  20  1   
 35  17  20  1   
 36  17  40  1   
 37  17  41  1   
 38  18  42  1   
 39  18  43  1   
 40  18  44  1   
 41  19  21  ar  
 42  19  22  ar  
 43  20  45  1   
 44  20  46  1   
 45  21  23  ar  
 46  22  24  ar  
 47  22  47  1   
 48  23  25  ar  
 49  23  48  1   
 50  24  25  ar  
 51  24  49  1   
 52  25  50  1   
@<TRIPOS>SUBSTRUCTURE
  1 ****   5 GROUP 4 **** **** 0

# MOE 2024.06 (io_trps.svl 2023.06)
