@<TRIPOS>MOLECULE
NONAME
53 56 1 0 0 
SMALL
USER_CHARGES


@<TRIPOS>ATOM
  1 CL       1.0610    -1.3260     1.9580 Cl    1 <1>  -0.1770 
  2 C        1.3170    -1.4970     0.2300 C.ar  1 <1>   0.1770 
  3 C        0.5910    -2.4390    -0.5100 C.ar  1 <1>   0.1000 
  4 C        2.2540    -0.6740    -0.3620 C.ar  1 <1>  -0.1500 
  5 N       -0.3700    -3.3010     0.0330 N.pl3 1 <1>  -0.8380 
  6 C        0.8470    -2.5180    -1.8730 C.ar  1 <1>  -0.1500 
  7 C        2.4900    -0.7730    -1.7230 C.ar  1 <1>  -0.1500 
  8 C       -1.6270    -2.6670     0.4870 C.3   1 <1>   0.2090 
  9 C        0.1440    -4.3680     0.9200 C.3   1 <1>   0.2090 
 10 C        1.7840    -1.6970    -2.4760 C.ar  1 <1>  -0.1500 
 11 C       -2.7070    -3.7450     0.5010 C.3   1 <1>  -0.1600 
 12 C       -0.8920    -5.4860     0.9330 C.3   1 <1>  -0.1600 
 13 C       -2.2530    -4.9270     1.3650 C.3   1 <1>   0.4230 
 14 N       -3.3030    -5.9800     1.3720 N.4   1 <1>  -0.9060 
 15 C       -3.5760    -6.6950     0.0910 C.3   1 <1>   0.4230 
 16 C       -5.0370    -7.1430     0.0930 C.3   1 <1>  -0.0800 
 17 C       -2.8760    -8.0500     0.1320 C.3   1 <1>   0.1200 
 18 C       -4.9850    -8.4920     0.8360 C.3   1 <1>   0.1200 
 19 C       -5.5880    -7.2900    -1.3390 C.3   1 <1>  -0.0170 
 20 O       -3.6300    -8.7570     1.0560 O.3   1 <1>  -0.5600 
 21 C       -7.0430    -7.7310    -1.3210 C.ar  1 <1>  -0.1430 
 22 C       -8.0690    -6.8510    -1.0360 C.ar  1 <1>  -0.1500 
 23 C       -7.4170    -9.0320    -1.5920 C.ar  1 <1>  -0.1500 
 24 C       -9.3780    -7.3040    -1.0230 C.ar  1 <1>   0.1600 
 25 C       -8.7570    -9.3840    -1.5520 C.ar  1 <1>   0.1600 
 26 N       -9.7430    -8.5510    -1.2690 N.ar  1 <1>  -0.6200 
 27 H        2.7940     0.0380     0.2360 H     1 <1>   0.1500 
 28 H        0.3020    -3.2330    -2.4610 H     1 <1>   0.1500 
 29 H        3.2190    -0.1350    -2.1950 H     1 <1>   0.1500 
 30 H       -1.4930    -2.2460     1.4700 H     1 <1>   0.0800 
 31 H       -1.8980    -1.8730    -0.1910 H     1 <1>   0.0800 
 32 H        1.0850    -4.7330     0.5400 H     1 <1>   0.0800 
 33 H        0.3040    -3.9790     1.9120 H     1 <1>   0.0800 
 34 H        1.9650    -1.7760    -3.5340 H     1 <1>   0.1500 
 35 H       -2.8760    -4.0460    -0.5160 H     1 <1>   0.0800 
 36 H       -3.6110    -3.3170     0.8940 H     1 <1>   0.0800 
 37 H       -0.5650    -6.2480     1.6170 H     1 <1>   0.0800 
 38 H       -0.9330    -5.8920    -0.0610 H     1 <1>   0.0800 
 39 H       -2.1380    -4.5580     2.3730 H     1 <1>   0.0800 
 40 H       -4.1750    -5.5680     1.7140 H     1 <1>   0.4500 
 41 H       -3.0620    -6.7220     2.0480 H     1 <1>   0.4500 
 42 H       -3.3150    -6.1030    -0.7700 H     1 <1>   0.0800 
 43 H       -5.6670    -6.4480     0.6210 H     1 <1>   0.0800 
 44 H       -1.8520    -8.0110     0.4560 H     1 <1>   0.0800 
 45 H       -2.9350    -8.5590    -0.8160 H     1 <1>   0.0800 
 46 H       -5.3950    -9.3020     0.2570 H     1 <1>   0.0800 
 47 H       -5.4830    -8.4520     1.7900 H     1 <1>   0.0800 
 48 H       -5.0090    -8.0030    -1.9010 H     1 <1>   0.0800 
 49 H       -5.5260    -6.3470    -1.8550 H     1 <1>   0.0800 
 50 H       -7.8730    -5.8160    -0.8270 H     1 <1>   0.1500 
 51 H       -6.6880    -9.7830    -1.8360 H     1 <1>   0.1500 
 52 H      -10.1670    -6.6060    -0.8000 H     1 <1>   0.1500 
 53 H       -9.0310   -10.4030    -1.7650 H     1 <1>   0.1500 
@<TRIPOS>BOND
  1   1   2  1   
  2   2   3  ar  
  3   2   4  ar  
  4   3   5  1   
  5   3   6  ar  
  6   4   7  ar  
  7   4  27  1   
  8   5   8  1   
  9   5   9  1   
 10   6  10  ar  
 11   6  28  1   
 12   7  10  ar  
 13   7  29  1   
 14   8  11  1   
 15   8  30  1   
 16   8  31  1   
 17   9  12  1   
 18   9  32  1   
 19   9  33  1   
 20  10  34  1   
 21  11  13  1   
 22  11  35  1   
 23  11  36  1   
 24  12  13  1   
 25  12  37  1   
 26  12  38  1   
 27  13  14  1   
 28  13  39  1   
 29  14  15  1   
 30  14  40  1   
 31  14  41  1   
 32  15  16  1   
 33  15  17  1   
 34  15  42  1   
 35  16  18  1   
 36  16  19  1   
 37  16  43  1   
 38  17  20  1   
 39  17  44  1   
 40  17  45  1   
 41  18  20  1   
 42  18  46  1   
 43  18  47  1   
 44  19  21  1   
 45  19  48  1   
 46  19  49  1   
 47  21  22  ar  
 48  21  23  ar  
 49  22  24  ar  
 50  22  50  1   
 51  23  25  ar  
 52  23  51  1   
 53  24  26  ar  
 54  24  52  1   
 55  25  26  ar  
 56  25  53  1   
@<TRIPOS>SUBSTRUCTURE
  1 ****  15 GROUP 4 **** **** 0

# MOE 2024.06 (io_trps.svl 2023.06)
