@<TRIPOS>MOLECULE
NONAME
54 57 1 0 0 
SMALL
USER_CHARGES


@<TRIPOS>ATOM
  1 O       -2.7800     2.5060    -0.8360 O.2   1 <1>  -0.5700 
  2 C       -2.4790     1.4680    -0.2740 C.2   1 <1>   0.5440 
  3 N       -3.1750     0.3200    -0.6080 N.am  1 <1>  -0.6600 
  4 C       -1.4180     1.4990     0.7110 C.ar  1 <1>   0.0860 
  5 C       -2.9540    -1.0080     0.0800 C.3   1 <1>   0.3640 
  6 C       -4.3420     0.4330    -1.5380 C.3   1 <1>   0.1400 
  7 C       -0.0700     1.7200     0.3120 C.ar  1 <1>   0.0000 
  8 C       -1.6990     1.3140     2.0490 C.ar  1 <1>  -0.1500 
  9 C       -1.4750    -1.3940    -0.0210 C.ar  1 <1>  -0.1440 
 10 C       -3.8140    -2.2060    -0.4390 C.3   1 <1>   0.2000 
 11 C       -4.7320    -0.9070    -2.1570 C.3   1 <1>   0.1200 
 12 C        0.9550     1.7050     1.2860 C.ar  1 <1>   0.3100 
 13 C        0.3200     1.9630    -1.0210 C.ar  1 <1>  -0.1500 
 14 C       -0.6890     1.2950     3.0100 C.ar  1 <1>  -0.1500 
 15 C       -0.7740    -1.7470     1.1240 C.ar  1 <1>  -0.1500 
 16 C       -0.8130    -1.3920    -1.2420 C.ar  1 <1>  -0.1500 
 17 O       -4.9650    -1.8200    -1.1380 O.3   1 <1>  -0.5600 
 18 C       -4.3040    -3.1220     0.6950 C.3   1 <1>   0.1200 
 19 N        2.2650     1.9170     0.9910 N.ar  1 <1>  -0.6200 
 20 C        0.6100     1.4800     2.6260 C.ar  1 <1>  -0.1500 
 21 C        1.6360     2.1800    -1.2920 C.ar  1 <1>  -0.1500 
 22 C        0.5650    -2.0880     1.0640 C.ar  1 <1>   0.0830 
 23 C        0.5300    -1.7200    -1.3130 C.ar  1 <1>  -0.1500 
 24 O       -3.2560    -3.5560     1.5000 O.3   1 <1>  -0.6800 
 25 C        2.5670     2.1510    -0.2480 C.ar  1 <1>   0.1600 
 26 O        1.1620    -2.4440     2.2300 O.3   1 <1>  -0.3630 
 27 C        1.2300    -2.0520    -0.1660 C.ar  1 <1>   0.0830 
 28 C        1.7420    -3.7280     2.2940 C.3   1 <1>   0.0400 
 29 O        2.5520    -2.3200    -0.2890 O.3   1 <1>  -0.3630 
 30 C        3.4190    -1.3380     0.2330 C.3   1 <1>   0.0400 
 31 H       -3.1980    -0.8690     1.1190 H     1 <1>   0.0800 
 32 H       -5.1830     0.8290    -0.9960 H     1 <1>   0.0800 
 33 H       -4.1090     1.1220    -2.3310 H     1 <1>   0.0800 
 34 H       -2.7170     1.1750     2.3670 H     1 <1>   0.1500 
 35 H       -3.2270    -2.7960    -1.1200 H     1 <1>   0.0800 
 36 H       -3.9580    -1.2800    -2.8060 H     1 <1>   0.0800 
 37 H       -5.6410    -0.8020    -2.7220 H     1 <1>   0.0800 
 38 H       -0.4150     1.9830    -1.8070 H     1 <1>   0.1500 
 39 H       -0.9400     1.1320     4.0450 H     1 <1>   0.1500 
 40 H       -1.2600    -1.7630     2.0830 H     1 <1>   0.1500 
 41 H       -1.3380    -1.1210    -2.1410 H     1 <1>   0.1500 
 42 H       -4.7950    -3.9890     0.2890 H     1 <1>   0.0800 
 43 H       -4.9930    -2.5870     1.3250 H     1 <1>   0.0800 
 44 H        1.4070     1.4620     3.3470 H     1 <1>   0.1500 
 45 H        1.9760     2.3760    -2.2920 H     1 <1>   0.1500 
 46 H        1.0460    -1.7090    -2.2560 H     1 <1>   0.1500 
 47 H       -2.6200    -4.1000     0.9930 H     1 <1>   0.4000 
 48 H        3.6000     2.3330    -0.4920 H     1 <1>   0.1500 
 49 H        1.9480    -3.9510     3.3250 H     1 <1>   0.0800 
 50 H        2.6560    -3.7350     1.7310 H     1 <1>   0.0800 
 51 H        1.0480    -4.4450     1.8930 H     1 <1>   0.0800 
 52 H        4.4260    -1.7080     0.1730 H     1 <1>   0.0800 
 53 H        3.1600    -1.1330     1.2570 H     1 <1>   0.0800 
 54 H        3.3180    -0.4460    -0.3570 H     1 <1>   0.0800 
@<TRIPOS>BOND
  1   1   2  2   
  2   2   3  am  
  3   2   4  1   
  4   3   5  1   
  5   3   6  1   
  6   4   7  ar  
  7   4   8  ar  
  8   5   9  1   
  9   5  10  1   
 10   5  31  1   
 11   6  11  1   
 12   6  32  1   
 13   6  33  1   
 14   7  12  ar  
 15   7  13  ar  
 16   8  14  ar  
 17   8  34  1   
 18   9  15  ar  
 19   9  16  ar  
 20  10  17  1   
 21  10  18  1   
 22  10  35  1   
 23  11  17  1   
 24  11  36  1   
 25  11  37  1   
 26  12  19  ar  
 27  12  20  ar  
 28  13  21  ar  
 29  13  38  1   
 30  14  20  ar  
 31  14  39  1   
 32  15  22  ar  
 33  15  40  1   
 34  16  23  ar  
 35  16  41  1   
 36  18  24  1   
 37  18  42  1   
 38  18  43  1   
 39  19  25  ar  
 40  20  44  1   
 41  21  25  ar  
 42  21  45  1   
 43  22  26  1   
 44  22  27  ar  
 45  23  27  ar  
 46  23  46  1   
 47  24  47  1   
 48  25  48  1   
 49  26  28  1   
 50  27  29  1   
 51  28  49  1   
 52  28  50  1   
 53  28  51  1   
 54  29  30  1   
 55  30  52  1   
 56  30  53  1   
 57  30  54  1   
@<TRIPOS>SUBSTRUCTURE
  1 ****   9 GROUP 4 **** **** 0

# MOE 2024.06 (io_trps.svl 2023.06)
