@<TRIPOS>MOLECULE
NONAME
52 55 1 0 0 
SMALL
USER_CHARGES


@<TRIPOS>ATOM
  1 O       -0.3440     0.1340     0.4920 O.2   1 <1>  -0.5700 
  2 C       -1.3530     0.7490     0.2390 C.2   1 <1>   0.5690 
  3 N       -2.5080     0.0750    -0.0800 N.am  1 <1>  -0.6600 
  4 C       -1.2380     2.2810     0.2850 C.3   1 <1>  -0.0190 
  5 C       -3.8560     0.6160    -0.3890 C.3   1 <1>   0.1400 
  6 C       -2.5200    -1.4090    -0.1810 C.3   1 <1>   0.1400 
  7 C       -2.1990     2.9750     1.2740 C.3   1 <1>  -0.1600 
  8 C       -1.2930     2.9360    -1.1110 C.3   1 <1>  -0.1600 
  9 C       -4.6670    -0.5850    -0.8740 C.3   1 <1>   0.2000 
 10 C       -3.9960    -1.8040    -0.2490 C.3   1 <1>  -0.0800 
 11 C       -1.9200     4.4840     1.3510 C.3   1 <1>  -0.1600 
 12 C       -1.0340     4.4490    -1.0300 C.3   1 <1>  -0.1600 
 13 O       -5.9890    -0.5060    -0.4670 O.3   1 <1>  -0.6800 
 14 C       -4.2610    -3.0980    -1.0370 C.3   1 <1>  -0.0170 
 15 C       -1.9900     5.1210    -0.0400 C.3   1 <1>   0.2000 
 16 C       -3.5740    -4.2880    -0.3900 C.ar  1 <1>   0.1670 
 17 O       -1.6360     6.4460     0.0730 O.3   1 <1>  -0.6800 
 18 N       -2.3540    -4.5430    -0.7520 N.ar  1 <1>  -0.6200 
 19 C       -4.2760    -5.0430     0.5630 C.ar  1 <1>  -0.1500 
 20 C       -1.7260    -5.5940    -0.1660 C.ar  1 <1>   0.3100 
 21 C       -3.6720    -6.1050     1.1640 C.ar  1 <1>  -0.1500 
 22 C       -2.3490    -6.4100     0.8030 C.ar  1 <1>   0.0000 
 23 C       -0.4020    -5.8840    -0.5330 C.ar  1 <1>  -0.1500 
 24 C       -1.6260    -7.4820     1.3630 C.ar  1 <1>  -0.1500 
 25 C        0.2840    -6.9310     0.0240 C.ar  1 <1>  -0.1500 
 26 C       -0.3360    -7.7380     0.9830 C.ar  1 <1>  -0.1500 
 27 H       -0.2470     2.4730     0.6600 H     1 <1>   0.0800 
 28 H       -4.2920     1.0120     0.5100 H     1 <1>   0.0800 
 29 H       -3.8110     1.3670    -1.1540 H     1 <1>   0.0800 
 30 H       -2.0010    -1.7020    -1.0790 H     1 <1>   0.0800 
 31 H       -2.0300    -1.8600     0.6660 H     1 <1>   0.0800 
 32 H       -3.2180     2.8410     0.9660 H     1 <1>   0.0800 
 33 H       -2.0850     2.5370     2.2510 H     1 <1>   0.0800 
 34 H       -0.5520     2.4810    -1.7460 H     1 <1>   0.0800 
 35 H       -2.2530     2.7730    -1.5630 H     1 <1>   0.0800 
 36 H       -4.6420    -0.6320    -1.9500 H     1 <1>   0.0800 
 37 H       -4.3380    -1.9240     0.7630 H     1 <1>   0.0800 
 38 H       -0.9420     4.6380     1.7740 H     1 <1>   0.0800 
 39 H       -2.6480     4.9500     1.9930 H     1 <1>   0.0800 
 40 H       -1.1640     4.8860    -2.0050 H     1 <1>   0.0800 
 41 H       -0.0170     4.6100    -0.7170 H     1 <1>   0.0800 
 42 H       -6.0470    -0.5090     0.5080 H     1 <1>   0.4000 
 43 H       -3.9020    -2.9930    -2.0460 H     1 <1>   0.0800 
 44 H       -5.3200    -3.2780    -1.0880 H     1 <1>   0.0800 
 45 H       -2.9990     5.0840    -0.4150 H     1 <1>   0.0800 
 46 H       -0.7240     6.5190     0.4070 H     1 <1>   0.4000 
 47 H       -5.2860    -4.7710     0.8100 H     1 <1>   0.1500 
 48 H       -4.1770    -6.7070     1.8980 H     1 <1>   0.1500 
 49 H        0.0560    -5.2500    -1.2690 H     1 <1>   0.1500 
 50 H       -2.1080    -8.0980     2.1000 H     1 <1>   0.1500 
 51 H        1.2990    -7.1410    -0.2660 H     1 <1>   0.1500 
 52 H        0.2150    -8.5570     1.4120 H     1 <1>   0.1500 
@<TRIPOS>BOND
  1   1   2  2   
  2   2   3  am  
  3   2   4  1   
  4   3   5  1   
  5   3   6  1   
  6   4   7  1   
  7   4   8  1   
  8   4  27  1   
  9   5   9  1   
 10   5  28  1   
 11   5  29  1   
 12   6  10  1   
 13   6  30  1   
 14   6  31  1   
 15   7  11  1   
 16   7  32  1   
 17   7  33  1   
 18   8  12  1   
 19   8  34  1   
 20   8  35  1   
 21   9  10  1   
 22   9  13  1   
 23   9  36  1   
 24  10  14  1   
 25  10  37  1   
 26  11  15  1   
 27  11  38  1   
 28  11  39  1   
 29  12  15  1   
 30  12  40  1   
 31  12  41  1   
 32  13  42  1   
 33  14  16  1   
 34  14  43  1   
 35  14  44  1   
 36  15  17  1   
 37  15  45  1   
 38  16  18  ar  
 39  16  19  ar  
 40  17  46  1   
 41  18  20  ar  
 42  19  21  ar  
 43  19  47  1   
 44  20  22  ar  
 45  20  23  ar  
 46  21  22  ar  
 47  21  48  1   
 48  22  24  ar  
 49  23  25  ar  
 50  23  49  1   
 51  24  26  ar  
 52  24  50  1   
 53  25  26  ar  
 54  25  51  1   
 55  26  52  1   
@<TRIPOS>SUBSTRUCTURE
  1 ****   6 GROUP 4 **** **** 0

# MOE 2024.06 (io_trps.svl 2023.06)
