@<TRIPOS>MOLECULE
NONAME
52 55 1 0 0 
SMALL
USER_CHARGES


@<TRIPOS>ATOM
  1 O        0.3320     0.4810    -0.4020 O.3   1 <1>  -0.5600 
  2 C        1.5330    -0.1670    -0.7130 C.3   1 <1>   0.3440 
  3 C        0.3340     1.8730    -0.5620 C.3   1 <1>   0.2950 
  4 C        1.3740    -1.6650    -0.5020 C.ar  1 <1>  -0.1440 
  5 C        2.6610     0.3590     0.2040 C.3   1 <1>   0.3430 
  6 C       -1.0590     2.4270    -0.2210 C.3   1 <1>  -0.1950 
  7 C        1.4000     2.4990     0.3670 C.3   1 <1>   0.3430 
  8 C        0.5870    -2.1670     0.5270 C.ar  1 <1>  -0.1500 
  9 C        2.0380    -2.5520    -1.3380 C.ar  1 <1>  -0.1500 
 10 N        2.7660     1.8650     0.2150 N.4   1 <1>  -0.9590 
 11 C       -1.8830     1.8880     0.9080 C.3   1 <1>  -0.2000 
 12 C       -2.3170     1.6700    -0.5150 C.3   1 <1>  -0.2000 
 13 C        0.4760    -3.5320     0.7230 C.ar  1 <1>  -0.1500 
 14 C        1.9260    -3.9180    -1.1410 C.ar  1 <1>  -0.1500 
 15 C        3.7100     2.3500     1.2530 C.3   1 <1>   0.5240 
 16 C        1.1470    -4.4080    -0.1090 C.ar  1 <1>  -0.1500 
 17 C        3.8860     3.8330     1.0380 C.2   1 <1>  -0.1810 
 18 C        3.3430     4.8340     1.8340 C.2   1 <1>   0.1390 
 19 C        4.5600     4.4930     0.0690 C.2   1 <1>  -0.3020 
 20 N        3.6320     6.0130     1.3900 N.2   1 <1>  -0.7070 
 21 N        4.4010     5.8150     0.3020 N.pl3 1 <1>   0.3140 
 22 C        4.9650     6.9550    -0.4750 C.3   1 <1>   0.1760 
 23 C        4.4210     6.9590    -1.9110 C.3   1 <1>  -0.2400 
 24 C        6.5000     6.9130    -0.4690 C.3   1 <1>  -0.2400 
 25 H        1.7610     0.0280    -1.7470 H     1 <1>   0.0800 
 26 H        0.5540     2.0940    -1.5920 H     1 <1>   0.0800 
 27 H        3.5950    -0.0770    -0.1090 H     1 <1>   0.0800 
 28 H        2.4560     0.0030     1.2000 H     1 <1>   0.0800 
 29 H       -1.1100     3.4900    -0.3880 H     1 <1>   0.1000 
 30 H        1.0560     2.3790     1.3810 H     1 <1>   0.0800 
 31 H        1.4600     3.5570     0.1680 H     1 <1>   0.0800 
 32 H        0.0480    -1.5020     1.1800 H     1 <1>   0.1500 
 33 H        2.6460    -2.1980    -2.1520 H     1 <1>   0.1500 
 34 H        3.1520     2.1880    -0.6820 H     1 <1>   0.4500 
 35 H       -1.5560     1.0240     1.4600 H     1 <1>   0.1000 
 36 H       -2.4590     2.5680     1.5140 H     1 <1>   0.1000 
 37 H       -3.1770     2.2050    -0.8780 H     1 <1>   0.1000 
 38 H       -2.2590     0.6710    -0.9140 H     1 <1>   0.1000 
 39 H       -0.1380    -3.9150     1.5210 H     1 <1>   0.1500 
 40 H        2.4420    -4.6030    -1.7920 H     1 <1>   0.1500 
 41 H        3.3240     2.1580     2.2410 H     1 <1>   0.0800 
 42 H        4.6650     1.8600     1.1510 H     1 <1>   0.0800 
 43 H        1.0590    -5.4710     0.0420 H     1 <1>   0.1500 
 44 H        2.7450     4.6800     2.7180 H     1 <1>   0.1500 
 45 H        5.1420     4.1260    -0.7580 H     1 <1>   0.1500 
 46 H        4.6470     7.8600     0.0140 H     1 <1>   0.0800 
 47 H        4.7330     6.0800    -2.4440 H     1 <1>   0.0800 
 48 H        4.7870     7.8230    -2.4370 H     1 <1>   0.0800 
 49 H        3.3460     7.0080    -1.8960 H     1 <1>   0.0800 
 50 H        6.8640     6.0330    -0.9680 H     1 <1>   0.0800 
 51 H        6.8630     6.9240     0.5430 H     1 <1>   0.0800 
 52 H        6.8910     7.7770    -0.9750 H     1 <1>   0.0800 
@<TRIPOS>BOND
  1   1   2  1   
  2   1   3  1   
  3   2   4  1   
  4   2   5  1   
  5   2  25  1   
  6   3   6  1   
  7   3   7  1   
  8   3  26  1   
  9   4   8  ar  
 10   4   9  ar  
 11   5  10  1   
 12   5  27  1   
 13   5  28  1   
 14   6  11  1   
 15   6  12  1   
 16   6  29  1   
 17   7  10  1   
 18   7  30  1   
 19   7  31  1   
 20   8  13  ar  
 21   8  32  1   
 22   9  14  ar  
 23   9  33  1   
 24  10  15  1   
 25  10  34  1   
 26  11  12  1   
 27  11  35  1   
 28  11  36  1   
 29  12  37  1   
 30  12  38  1   
 31  13  16  ar  
 32  13  39  1   
 33  14  16  ar  
 34  14  40  1   
 35  15  17  1   
 36  15  41  1   
 37  15  42  1   
 38  16  43  1   
 39  17  18  1   
 40  17  19  2   
 41  18  20  2   
 42  18  44  1   
 43  19  21  1   
 44  19  45  1   
 45  20  21  1   
 46  21  22  1   
 47  22  23  1   
 48  22  24  1   
 49  22  46  1   
 50  23  47  1   
 51  23  48  1   
 52  23  49  1   
 53  24  50  1   
 54  24  51  1   
 55  24  52  1   
@<TRIPOS>SUBSTRUCTURE
  1 ****  10 GROUP 4 **** **** 0

# MOE 2024.06 (io_trps.svl 2023.06)
