@<TRIPOS>MOLECULE
NONAME
52 54 1 0 0 
SMALL
USER_CHARGES


@<TRIPOS>ATOM
  1 O        0.6340     2.2940    -3.4540 O.2   1 <1>  -0.5700 
  2 C        0.2680     3.3750    -3.0560 C.2   1 <1>   0.5690 
  3 N        0.1260     3.6600    -1.7240 N.am  1 <1>  -0.6600 
  4 C       -0.0620     4.4510    -4.0880 C.3   1 <1>   0.1810 
  5 C       -0.3670     5.0000    -1.2540 C.3   1 <1>   0.3640 
  6 C        0.4950     2.6840    -0.6580 C.3   1 <1>   0.0600 
  7 O        0.0580     5.7490    -3.5610 O.3   1 <1>  -0.5600 
  8 C       -1.5630     4.7870    -0.3150 C.ar  1 <1>  -0.1430 
  9 C       -0.7400     5.9700    -2.4080 C.3   1 <1>   0.2610 
 10 C       -1.5900     5.2820     0.9890 C.ar  1 <1>  -0.1430 
 11 C       -2.6560     4.0650    -0.7830 C.ar  1 <1>  -0.1500 
 12 C       -0.5780     7.4170    -1.9340 C.2   1 <1>   0.5690 
 13 C       -2.7020     5.0530     1.7860 C.ar  1 <1>  -0.1500 
 14 C       -0.4350     6.0770     1.5840 C.3   1 <1>  -0.0960 
 15 C       -3.7600     3.8420     0.0180 C.ar  1 <1>  -0.1500 
 16 O       -1.4610     7.9500    -1.3050 O.2   1 <1>  -0.5700 
 17 N        0.5750     8.0740    -2.2230 N.am  1 <1>  -0.7300 
 18 C       -3.7830     4.3380     1.3060 C.ar  1 <1>  -0.1500 
 19 C        0.9400     9.4100    -1.7240 C.3   1 <1>   0.2840 
 20 C        1.7950     9.2330    -0.4860 C.ar  1 <1>  -0.1430 
 21 C        1.2020     9.2380     0.7640 C.ar  1 <1>   0.1600 
 22 C        3.1590     9.0500    -0.5720 C.ar  1 <1>  -0.1500 
 23 N        1.8470     9.0700     1.9050 N.ar  1 <1>  -0.6200 
 24 C        3.8570     8.8780     0.6060 C.ar  1 <1>  -0.1430 
 25 C        3.1550     8.8920     1.8110 C.ar  1 <1>   0.1670 
 26 C        5.3670     8.6830     0.5430 C.3   1 <1>  -0.0970 
 27 C        3.8640     8.7030     3.1390 C.3   1 <1>  -0.0970 
 28 H       -1.0650     4.3150    -4.4480 H     1 <1>   0.0800 
 29 H        0.6190     4.3690    -4.9160 H     1 <1>   0.0800 
 30 H        0.4440     5.4510    -0.7130 H     1 <1>   0.0800 
 31 H        1.1480     3.1520     0.0570 H     1 <1>   0.0800 
 32 H        1.0000     1.8320    -1.0790 H     1 <1>   0.0800 
 33 H       -0.3920     2.3410    -0.1530 H     1 <1>   0.0800 
 34 H       -1.7680     5.8280    -2.6890 H     1 <1>   0.0800 
 35 H       -2.6510     3.6620    -1.7810 H     1 <1>   0.1500 
 36 H       -2.7350     5.4340     2.7910 H     1 <1>   0.1500 
 37 H       -0.6640     6.4150     2.5790 H     1 <1>   0.0800 
 38 H       -0.2390     6.9430     0.9830 H     1 <1>   0.0800 
 39 H        0.4530     5.4720     1.6330 H     1 <1>   0.0800 
 40 H       -4.5970     3.2820    -0.3600 H     1 <1>   0.1500 
 41 H        1.2740     7.5840    -2.7880 H     1 <1>   0.3700 
 42 H       -4.6400     4.1690     1.9350 H     1 <1>   0.1500 
 43 H        1.4830     9.9450    -2.4840 H     1 <1>   0.0800 
 44 H        0.0510     9.9700    -1.4860 H     1 <1>   0.0800 
 45 H        0.1350     9.3790     0.8290 H     1 <1>   0.1500 
 46 H        3.6580     9.0400    -1.5250 H     1 <1>   0.1500 
 47 H        5.7390     8.8710    -0.4480 H     1 <1>   0.0800 
 48 H        5.6180     7.6730     0.8150 H     1 <1>   0.0800 
 49 H        5.8590     9.3610     1.2170 H     1 <1>   0.0800 
 50 H        4.6250     7.9500     3.0660 H     1 <1>   0.0800 
 51 H        3.1620     8.3960     3.8930 H     1 <1>   0.0800 
 52 H        4.3070     9.6330     3.4440 H     1 <1>   0.0800 
@<TRIPOS>BOND
  1   1   2  2   
  2   2   3  am  
  3   2   4  1   
  4   3   5  1   
  5   3   6  1   
  6   4   7  1   
  7   4  28  1   
  8   4  29  1   
  9   5   8  1   
 10   5   9  1   
 11   5  30  1   
 12   6  31  1   
 13   6  32  1   
 14   6  33  1   
 15   7   9  1   
 16   8  10  ar  
 17   8  11  ar  
 18   9  12  1   
 19   9  34  1   
 20  10  13  ar  
 21  10  14  1   
 22  11  15  ar  
 23  11  35  1   
 24  12  16  2   
 25  12  17  am  
 26  13  18  ar  
 27  13  36  1   
 28  14  37  1   
 29  14  38  1   
 30  14  39  1   
 31  15  18  ar  
 32  15  40  1   
 33  17  19  1   
 34  17  41  1   
 35  18  42  1   
 36  19  20  1   
 37  19  43  1   
 38  19  44  1   
 39  20  21  ar  
 40  20  22  ar  
 41  21  23  ar  
 42  21  45  1   
 43  22  24  ar  
 44  22  46  1   
 45  23  25  ar  
 46  24  25  ar  
 47  24  26  1   
 48  25  27  1   
 49  26  47  1   
 50  26  48  1   
 51  26  49  1   
 52  27  50  1   
 53  27  51  1   
 54  27  52  1   
@<TRIPOS>SUBSTRUCTURE
  1 ****   5 GROUP 4 **** **** 0

# MOE 2024.06 (io_trps.svl 2023.06)
