@<TRIPOS>MOLECULE
NONAME
48 50 1 0 0 
SMALL
USER_CHARGES


@<TRIPOS>ATOM
  1 F       -1.9300     1.1610    -0.0240 F     1 <1>  -0.1900 
  2 C       -1.1790     2.2250     0.0840 C.ar  1 <1>   0.1900 
  3 C       -1.6560     3.3140     0.7930 C.ar  1 <1>  -0.1440 
  4 C        0.0600     2.2220    -0.5240 C.ar  1 <1>  -0.1500 
  5 C       -0.8470     4.4380     0.8850 C.ar  1 <1>  -0.1500 
  6 C       -3.0240     3.2630     1.4470 C.3   1 <1>   0.4870 
  7 C        0.8520     3.3520    -0.4240 C.ar  1 <1>  -0.1500 
  8 C        0.4090     4.4730     0.2790 C.ar  1 <1>  -0.1440 
  9 N       -4.0680     3.1700     0.3950 N.4   1 <1>  -0.9590 
 10 C        1.2810     5.7380     0.4000 C.3   1 <1>   1.1630 
 11 C       -5.4090     2.8560     0.9760 C.3   1 <1>   0.3430 
 12 C       -4.1170     4.3880    -0.4650 C.3   1 <1>   0.3430 
 13 F        0.5850     6.8360     0.1320 F     1 <1>  -0.3400 
 14 F        1.7580     5.8890     1.6270 F     1 <1>  -0.3400 
 15 F        2.3240     5.7450    -0.4180 F     1 <1>  -0.3400 
 16 C       -6.4340     2.5590    -0.1290 C.3   1 <1>   0.0000 
 17 C       -5.0920     4.1620    -1.6210 C.3   1 <1>  -0.1600 
 18 C       -7.7930     2.2560     0.5200 C.3   1 <1>   0.2000 
 19 C       -6.4880     3.7550    -1.1210 C.3   1 <1>  -0.1600 
 20 C       -6.1640     1.2430    -0.8820 C.3   1 <1>  -0.1600 
 21 O       -8.4000     3.4320     0.9540 O.3   1 <1>  -0.5600 
 22 C       -8.5890     1.5220    -0.5590 C.3   1 <1>  -0.1600 
 23 C       -7.5360     0.7820    -1.3980 C.3   1 <1>  -0.1600 
 24 C       -9.5870     3.2630     1.6670 C.3   1 <1>   0.0400 
 25 H        0.3980     1.3540    -1.0640 H     1 <1>   0.1500 
 26 H       -1.1860     5.3020     1.4360 H     1 <1>   0.1500 
 27 H       -3.1810     4.1420     2.0510 H     1 <1>   0.0800 
 28 H       -3.0720     2.3970     2.0880 H     1 <1>   0.0800 
 29 H        1.8220     3.3480    -0.8980 H     1 <1>   0.1500 
 30 H       -3.8020     2.3800    -0.2110 H     1 <1>   0.4500 
 31 H       -5.3390     2.0010     1.6290 H     1 <1>   0.0800 
 32 H       -5.7630     3.6940     1.5550 H     1 <1>   0.0800 
 33 H       -4.4450     5.2340     0.1180 H     1 <1>   0.0800 
 34 H       -3.1380     4.6060    -0.8620 H     1 <1>   0.0800 
 35 H       -5.1760     5.0740    -2.1870 H     1 <1>   0.0800 
 36 H       -4.6940     3.4160    -2.2850 H     1 <1>   0.0800 
 37 H       -7.6570     1.6060     1.3690 H     1 <1>   0.0800 
 38 H       -7.1190     3.5260    -1.9630 H     1 <1>   0.0800 
 39 H       -6.9230     4.6090    -0.6300 H     1 <1>   0.0800 
 40 H       -5.4600     1.3420    -1.6890 H     1 <1>   0.0800 
 41 H       -5.7930     0.4990    -0.1970 H     1 <1>   0.0800 
 42 H       -9.2920     0.8340    -0.1240 H     1 <1>   0.0800 
 43 H       -9.1120     2.2310    -1.1780 H     1 <1>   0.0800 
 44 H       -7.6390    -0.2860    -1.2990 H     1 <1>   0.0800 
 45 H       -7.6540     1.0410    -2.4370 H     1 <1>   0.0800 
 46 H       -9.9170     4.2310     2.0020 H     1 <1>   0.0800 
 47 H       -9.4100     2.6280     2.5180 H     1 <1>   0.0800 
 48 H      -10.3360     2.8350     1.0240 H     1 <1>   0.0800 
@<TRIPOS>BOND
  1   1   2  1   
  2   2   3  ar  
  3   2   4  ar  
  4   3   5  ar  
  5   3   6  1   
  6   4   7  ar  
  7   4  25  1   
  8   5   8  ar  
  9   5  26  1   
 10   6   9  1   
 11   6  27  1   
 12   6  28  1   
 13   7   8  ar  
 14   7  29  1   
 15   8  10  1   
 16   9  11  1   
 17   9  12  1   
 18   9  30  1   
 19  10  13  1   
 20  10  14  1   
 21  10  15  1   
 22  11  16  1   
 23  11  31  1   
 24  11  32  1   
 25  12  17  1   
 26  12  33  1   
 27  12  34  1   
 28  16  18  1   
 29  16  19  1   
 30  16  20  1   
 31  17  19  1   
 32  17  35  1   
 33  17  36  1   
 34  18  21  1   
 35  18  22  1   
 36  18  37  1   
 37  19  38  1   
 38  19  39  1   
 39  20  23  1   
 40  20  40  1   
 41  20  41  1   
 42  21  24  1   
 43  22  23  1   
 44  22  42  1   
 45  22  43  1   
 46  23  44  1   
 47  23  45  1   
 48  24  46  1   
 49  24  47  1   
 50  24  48  1   
@<TRIPOS>SUBSTRUCTURE
  1 ****   9 GROUP 4 **** **** 0

# MOE 2024.06 (io_trps.svl 2023.06)
