@<TRIPOS>MOLECULE
NONAME
15 14 1 0 0 
SMALL
USER_CHARGES


@<TRIPOS>ATOM
  1 O       -5.2000     1.0380    -0.8200 O.co2 1 <1>  -0.8060 
  2 C       -5.8860     0.5820     0.1090 C.2   1 <1>   0.9130 
  3 O       -5.5790    -0.4250     0.7490 O.co2 1 <1>  -0.8060 
  4 C       -7.1400     1.3990     0.4830 C.3   1 <1>  -0.0080 
  5 N       -7.0410     2.7950    -0.0590 N.4   1 <1>  -0.8700 
  6 C       -8.4310     0.7670    -0.0740 C.3   1 <1>  -0.2000 
  7 C       -9.6680     1.6060     0.1660 C.2   1 <1>   0.8980 
  8 O       -9.6970     2.7460    -0.3280 O.co2 1 <1>  -0.8340 
  9 O      -10.5830     1.1630     0.8590 O.co2 1 <1>  -0.8340 
 10 H       -7.2120     1.4350     1.5550 H     1 <1>   0.0690 
 11 H       -6.4490     2.7120    -0.9020 H     1 <1>   0.4460 
 12 H       -6.6030     3.4350     0.5990 H     1 <1>   0.4460 
 13 H       -8.0020     3.1180    -0.3120 H     1 <1>   0.4460 
 14 H       -8.5760    -0.1910     0.3900 H     1 <1>   0.0690 
 15 H       -8.3330     0.6020    -1.1310 H     1 <1>   0.0690 
@<TRIPOS>BOND
  1   1   2  ar  
  2   2   3  ar  
  3   2   4  1   
  4   4   5  1   
  5   4   6  1   
  6   4  10  1   
  7   5  11  1   
  8   5  12  1   
  9   5  13  1   
 10   6   7  1   
 11   6  14  1   
 12   6  15  1   
 13   7   8  ar  
 14   7   9  ar  
@<TRIPOS>SUBSTRUCTURE
  1 ****   4 GROUP 4 **** **** 0

# MOE 2024.06 (io_trps.svl 2023.06)
