@<TRIPOS>MOLECULE
NONAME
51 52 1 0 0 
SMALL
USER_CHARGES


@<TRIPOS>ATOM
  1 S        0.1170     0.3390     0.6710 S.o2  1 <1>   1.3330 
  2 O       -0.2800     1.7080     0.9140 O.2   1 <1>  -0.6500 
  3 O        0.3860    -0.5400     1.7870 O.2   1 <1>  -0.6500 
  4 N       -1.0860    -0.3930    -0.2780 N.am  1 <1>  -0.8490 
  5 C        1.5180     0.3740    -0.4480 C.3   1 <1>  -0.0550 
  6 C       -1.0060    -1.8580    -0.2860 C.3   1 <1>   0.1160 
  7 C       -2.4340     0.0260     0.1180 C.3   1 <1>   0.1160 
  8 C        2.7800     1.0080     0.1630 C.3   1 <1>  -0.0800 
  9 C        3.8280     1.2930    -0.9170 C.3   1 <1>   0.2200 
 10 C        3.5120     0.0350     1.0900 C.3   1 <1>   0.1200 
 11 N        4.2220     2.7290    -0.9540 N.am  1 <1>  -0.7300 
 12 C        4.9820     0.3430    -0.5810 C.3   1 <1>   0.1200 
 13 O        4.4250    -0.6100     0.2670 O.3   1 <1>  -0.5600 
 14 C        4.7670     3.4730     0.0590 C.2   1 <1>   0.5440 
 15 O        5.0220     2.9330     1.1160 O.2   1 <1>  -0.5700 
 16 C        5.0100     4.8920    -0.1240 C.ar  1 <1>   0.0860 
 17 C        4.9560     5.7720     0.9590 C.ar  1 <1>  -0.1500 
 18 C        5.3000     5.4390    -1.3760 C.ar  1 <1>  -0.1500 
 19 C        5.1660     7.1310     0.8050 C.ar  1 <1>  -0.1500 
 20 C        5.5090     6.7960    -1.5370 C.ar  1 <1>  -0.1500 
 21 C        5.4420     7.6550    -0.4540 C.ar  1 <1>   0.0820 
 22 O        5.6560     8.9670    -0.7070 O.3   1 <1>  -0.3630 
 23 C        5.6780     9.9660     0.2890 C.3   1 <1>   0.2000 
 24 C        5.4330    11.3010    -0.4100 C.3   1 <1>  -0.2400 
 25 C        7.0440     9.9480     0.9790 C.3   1 <1>  -0.2400 
 26 H        1.7470    -0.6210    -0.7760 H     1 <1>   0.0800 
 27 H        1.2290     0.9450    -1.3090 H     1 <1>   0.0800 
 28 H       -1.7300    -2.2650    -0.9710 H     1 <1>   0.0800 
 29 H       -1.1960    -2.2520     0.7000 H     1 <1>   0.0800 
 30 H       -0.0260    -2.1770    -0.6000 H     1 <1>   0.0800 
 31 H       -3.1710    -0.4450    -0.5070 H     1 <1>   0.0800 
 32 H       -2.5350     1.0940     0.0100 H     1 <1>   0.0800 
 33 H       -2.6200    -0.2350     1.1470 H     1 <1>   0.0800 
 34 H        2.5110     1.8990     0.7050 H     1 <1>   0.0800 
 35 H        3.4500     1.0230    -1.8870 H     1 <1>   0.0800 
 36 H        2.8760    -0.6960     1.5550 H     1 <1>   0.0800 
 37 H        4.0650     0.5680     1.8470 H     1 <1>   0.0800 
 38 H        3.8870     3.2350    -1.7740 H     1 <1>   0.3700 
 39 H        5.7720     0.8400    -0.0460 H     1 <1>   0.0800 
 40 H        5.3710    -0.1530    -1.4510 H     1 <1>   0.0800 
 41 H        4.7440     5.3740     1.9370 H     1 <1>   0.1500 
 42 H        5.3730     4.7970    -2.2350 H     1 <1>   0.1500 
 43 H        5.1110     7.7600     1.6730 H     1 <1>   0.1500 
 44 H        5.7290     7.2030    -2.5080 H     1 <1>   0.1500 
 45 H        4.8790     9.7810     0.9870 H     1 <1>   0.0800 
 46 H        6.2020    11.4900    -1.1370 H     1 <1>   0.0800 
 47 H        5.4330    12.0990     0.3090 H     1 <1>   0.0800 
 48 H        4.4760    11.2850    -0.9000 H     1 <1>   0.0800 
 49 H        7.8250    10.1190     0.2600 H     1 <1>   0.0800 
 50 H        7.2130     9.0040     1.4630 H     1 <1>   0.0800 
 51 H        7.0890    10.7210     1.7240 H     1 <1>   0.0800 
@<TRIPOS>BOND
  1   1   2  2   
  2   1   3  2   
  3   1   4  am  
  4   1   5  1   
  5   4   6  1   
  6   4   7  1   
  7   5   8  1   
  8   5  26  1   
  9   5  27  1   
 10   6  28  1   
 11   6  29  1   
 12   6  30  1   
 13   7  31  1   
 14   7  32  1   
 15   7  33  1   
 16   8   9  1   
 17   8  10  1   
 18   8  34  1   
 19   9  11  1   
 20   9  12  1   
 21   9  35  1   
 22  10  13  1   
 23  10  36  1   
 24  10  37  1   
 25  11  14  am  
 26  11  38  1   
 27  12  13  1   
 28  12  39  1   
 29  12  40  1   
 30  14  15  2   
 31  14  16  1   
 32  16  17  ar  
 33  16  18  ar  
 34  17  19  ar  
 35  17  41  1   
 36  18  20  ar  
 37  18  42  1   
 38  19  21  ar  
 39  19  43  1   
 40  20  21  ar  
 41  20  44  1   
 42  21  22  1   
 43  22  23  1   
 44  23  24  1   
 45  23  25  1   
 46  23  45  1   
 47  24  46  1   
 48  24  47  1   
 49  24  48  1   
 50  25  49  1   
 51  25  50  1   
 52  25  51  1   
@<TRIPOS>SUBSTRUCTURE
  1 ****  14 GROUP 4 **** **** 0

# MOE 2024.06 (io_trps.svl 2023.06)
