@<TRIPOS>MOLECULE
NONAME
52 55 1 0 0 
SMALL
USER_CHARGES


@<TRIPOS>ATOM
  1 O       -0.3560    -0.0100    -0.2630 O.2   1 <1>  -0.5700 
  2 C        0.5760    -0.6860     0.1280 C.2   1 <1>   0.5440 
  3 N        1.7770    -0.0680     0.2990 N.am  1 <1>  -0.7300 
  4 C        0.4070    -2.0970     0.4210 C.ar  1 <1>   0.0860 
  5 C        2.0260     1.3550     0.0140 C.3   1 <1>   0.3640 
  6 C        1.4840    -2.9880     0.4390 C.ar  1 <1>  -0.1500 
  7 C       -0.8580    -2.6220     0.6960 C.ar  1 <1>  -0.1500 
  8 C        3.5100     1.5570    -0.0400 C.ar  1 <1>  -0.1430 
  9 C        1.6450     2.2420     1.2140 C.3   1 <1>   0.1200 
 10 C        1.3040    -4.3280     0.7250 C.ar  1 <1>  -0.1500 
 11 C       -1.0470    -3.9600     0.9820 C.ar  1 <1>  -0.1500 
 12 C        3.8940     2.2620     1.0720 C.ar  1 <1>   0.0830 
 13 C        4.4480     1.1460    -0.9700 C.ar  1 <1>  -0.1500 
 14 O        2.8620     2.5930     1.8660 O.3   1 <1>  -0.3630 
 15 C        0.0410    -4.8270     0.9960 C.ar  1 <1>   0.0830 
 16 C        5.2190     2.5780     1.3050 C.ar  1 <1>  -0.1500 
 17 C        5.7820     1.4590    -0.7530 C.ar  1 <1>  -0.1500 
 18 O       -0.0510    -6.1480     1.2540 O.3   1 <1>  -0.3630 
 19 C        6.1660     2.1700     0.3780 C.ar  1 <1>  -0.1500 
 20 C       -1.3070    -6.7810     1.4490 C.3   1 <1>   0.1810 
 21 C       -1.1520    -8.2910     1.6030 C.2   1 <1>   0.5690 
 22 O       -1.5040    -8.7670     2.6590 O.2   1 <1>  -0.5700 
 23 N       -0.6680    -9.0760     0.5810 N.am  1 <1>  -0.6600 
 24 C       -0.5240   -10.5510     0.7430 C.3   1 <1>   0.1400 
 25 C       -0.1980    -8.5660    -0.7390 C.3   1 <1>   0.1400 
 26 C       -1.2910   -11.2710    -0.3710 C.3   1 <1>  -0.1600 
 27 C       -0.9620    -9.2670    -1.8670 C.3   1 <1>  -0.1600 
 28 C       -0.8500   -10.7950    -1.7620 C.3   1 <1>  -0.1600 
 29 H        2.5490    -0.5310     0.7800 H     1 <1>   0.3700 
 30 H        1.5250     1.6620    -0.8890 H     1 <1>   0.0800 
 31 H        2.4750    -2.6330     0.2210 H     1 <1>   0.1500 
 32 H       -1.7070    -1.9580     0.6850 H     1 <1>   0.1500 
 33 H        1.0000     1.7370     1.9100 H     1 <1>   0.0800 
 34 H        1.1860     3.1530     0.8750 H     1 <1>   0.0800 
 35 H        2.1430    -5.0010     0.7370 H     1 <1>   0.1500 
 36 H       -2.0420    -4.3050     1.1920 H     1 <1>   0.1500 
 37 H        4.1470     0.5920    -1.8430 H     1 <1>   0.1500 
 38 H        5.4920     3.1300     2.1850 H     1 <1>   0.1500 
 39 H        6.5270     1.1490    -1.4660 H     1 <1>   0.1500 
 40 H        7.2040     2.4070     0.5360 H     1 <1>   0.1500 
 41 H       -1.9340    -6.5740     0.6020 H     1 <1>   0.0800 
 42 H       -1.7500    -6.3760     2.3400 H     1 <1>   0.0800 
 43 H       -0.9000   -10.8690     1.7000 H     1 <1>   0.0800 
 44 H        0.5200   -10.8070     0.6940 H     1 <1>   0.0800 
 45 H        0.8560    -8.7680    -0.8330 H     1 <1>   0.0800 
 46 H       -0.3380    -7.5040    -0.8250 H     1 <1>   0.0800 
 47 H       -2.3430   -11.0870    -0.2390 H     1 <1>   0.0800 
 48 H       -1.1310   -12.3310    -0.2840 H     1 <1>   0.0800 
 49 H       -0.5730    -8.9420    -2.8150 H     1 <1>   0.0800 
 50 H       -1.9970    -8.9760    -1.8190 H     1 <1>   0.0800 
 51 H       -1.4620   -11.2580    -2.5170 H     1 <1>   0.0800 
 52 H        0.1710   -11.0900    -1.9330 H     1 <1>   0.0800 
@<TRIPOS>BOND
  1   1   2  2   
  2   2   3  am  
  3   2   4  1   
  4   3   5  1   
  5   3  29  1   
  6   4   6  ar  
  7   4   7  ar  
  8   5   8  1   
  9   5   9  1   
 10   5  30  1   
 11   6  10  ar  
 12   6  31  1   
 13   7  11  ar  
 14   7  32  1   
 15   8  12  ar  
 16   8  13  ar  
 17   9  14  1   
 18   9  33  1   
 19   9  34  1   
 20  10  15  ar  
 21  10  35  1   
 22  11  15  ar  
 23  11  36  1   
 24  12  14  1   
 25  12  16  ar  
 26  13  17  ar  
 27  13  37  1   
 28  15  18  1   
 29  16  19  ar  
 30  16  38  1   
 31  17  19  ar  
 32  17  39  1   
 33  18  20  1   
 34  19  40  1   
 35  20  21  1   
 36  20  41  1   
 37  20  42  1   
 38  21  22  2   
 39  21  23  am  
 40  23  24  1   
 41  23  25  1   
 42  24  26  1   
 43  24  43  1   
 44  24  44  1   
 45  25  27  1   
 46  25  45  1   
 47  25  46  1   
 48  26  28  1   
 49  26  47  1   
 50  26  48  1   
 51  27  28  1   
 52  27  49  1   
 53  27  50  1   
 54  28  51  1   
 55  28  52  1   
@<TRIPOS>SUBSTRUCTURE
  1 ****   6 GROUP 4 **** **** 0

# MOE 2024.06 (io_trps.svl 2023.06)
