@<TRIPOS>MOLECULE
NONAME
35 36 1 0 0 
SMALL
USER_CHARGES


@<TRIPOS>ATOM
  1 F        0.8970    -1.6930    -1.6380 F     1 <1>  -0.3400 
  2 C        1.9350    -0.8750    -1.5900 C.3   1 <1>   1.0200 
  3 F        1.5020     0.3320    -1.9100 F     1 <1>  -0.3400 
  4 F        2.7540    -1.2540    -2.5650 F     1 <1>  -0.3400 
  5 C        2.6210    -0.9060    -0.2200 C.3   1 <1>  -0.0800 
  6 C        3.9120    -0.0580    -0.1330 C.3   1 <1>  -0.0800 
  7 C        3.1030    -2.3130     0.0770 C.3   1 <1>   0.3430 
  8 C        5.0310    -1.0010    -0.5900 C.3   1 <1>   0.3430 
  9 C        4.2170     0.4200     1.2970 C.3   1 <1>   0.1200 
 10 N        4.4830    -2.3870    -0.4900 N.4   1 <1>  -0.9590 
 11 O        3.1220     1.0990     1.7900 O.3   1 <1>  -0.6800 
 12 C        5.3620    -3.3450     0.2360 C.3   1 <1>   0.4870 
 13 C        4.7400    -4.7230     0.1380 C.ar  1 <1>  -0.1440 
 14 C        4.0870    -5.2740     1.2320 C.ar  1 <1>  -0.1500 
 15 C        4.8110    -5.4410    -1.0480 C.ar  1 <1>  -0.1500 
 16 C        3.5010    -6.5240     1.1360 C.ar  1 <1>  -0.1500 
 17 C        4.2230    -6.6900    -1.1410 C.ar  1 <1>  -0.1500 
 18 C        3.5670    -7.2310    -0.0500 C.ar  1 <1>  -0.1500 
 19 H        1.8800    -0.6150     0.5030 H     1 <1>   0.0800 
 20 H        3.8740     0.8050    -0.7760 H     1 <1>   0.0800 
 21 H        2.4580    -3.0690    -0.3470 H     1 <1>   0.0800 
 22 H        3.1420    -2.4510     1.1460 H     1 <1>   0.0800 
 23 H        5.9080    -0.8790     0.0250 H     1 <1>   0.0800 
 24 H        5.2930    -0.7880    -1.6150 H     1 <1>   0.0800 
 25 H        5.0680     1.0800     1.3270 H     1 <1>   0.0800 
 26 H        4.3960    -0.4130     1.9560 H     1 <1>   0.0800 
 27 H        4.3860    -2.7620    -1.4460 H     1 <1>   0.4500 
 28 H        3.1190     2.0420     1.5170 H     1 <1>   0.4000 
 29 H        6.3440    -3.3640    -0.2090 H     1 <1>   0.0800 
 30 H        5.4590    -3.0580     1.2710 H     1 <1>   0.0800 
 31 H        4.0280    -4.7480     2.1700 H     1 <1>   0.1500 
 32 H        5.3220    -5.0480    -1.9100 H     1 <1>   0.1500 
 33 H        2.9940    -6.9530     1.9850 H     1 <1>   0.1500 
 34 H        4.2770    -7.2490    -2.0610 H     1 <1>   0.1500 
 35 H        3.1110    -8.2040    -0.1240 H     1 <1>   0.1500 
@<TRIPOS>BOND
  1   1   2  1   
  2   2   3  1   
  3   2   4  1   
  4   2   5  1   
  5   5   6  1   
  6   5   7  1   
  7   5  19  1   
  8   6   8  1   
  9   6   9  1   
 10   6  20  1   
 11   7  10  1   
 12   7  21  1   
 13   7  22  1   
 14   8  10  1   
 15   8  23  1   
 16   8  24  1   
 17   9  11  1   
 18   9  25  1   
 19   9  26  1   
 20  10  12  1   
 21  10  27  1   
 22  11  28  1   
 23  12  13  1   
 24  12  29  1   
 25  12  30  1   
 26  13  14  ar  
 27  13  15  ar  
 28  14  16  ar  
 29  14  31  1   
 30  15  17  ar  
 31  15  32  1   
 32  16  18  ar  
 33  16  33  1   
 34  17  18  ar  
 35  17  34  1   
 36  18  35  1   
@<TRIPOS>SUBSTRUCTURE
  1 ****   7 GROUP 4 **** **** 0

# MOE 2024.06 (io_trps.svl 2023.06)
