@<TRIPOS>MOLECULE
NONAME
49 51 1 0 0 
SMALL
USER_CHARGES


@<TRIPOS>ATOM
  1 O       -0.9950     0.8860     0.5520 O.2   1 <1>  -0.5700 
  2 C       -0.7870     2.0580     0.3430 C.2   1 <1>   0.5690 
  3 N       -1.7250     3.0260     0.5820 N.am  1 <1>  -0.6600 
  4 C        0.5730     2.4580    -0.2290 C.3   1 <1>   0.1810 
  5 C       -1.4540     4.4680     0.2710 C.3   1 <1>   0.3640 
  6 C       -3.0400     2.7240     1.2190 C.3   1 <1>   0.0600 
  7 O        0.9050     3.7970     0.0520 O.3   1 <1>  -0.5600 
  8 C       -2.5910     5.0780    -0.5660 C.ar  1 <1>  -0.1430 
  9 C       -0.0700     4.7350    -0.3780 C.3   1 <1>   0.2610 
 10 C       -3.0840     4.5340    -1.7570 C.ar  1 <1>  -0.1430 
 11 C       -3.1530     6.2560    -0.0860 C.ar  1 <1>  -0.1500 
 12 C        0.3840     6.1570    -0.0320 C.2   1 <1>   0.5690 
 13 C       -4.1180     5.1770    -2.4230 C.ar  1 <1>  -0.1500 
 14 C       -2.5610     3.2450    -2.3820 C.3   1 <1>  -0.0960 
 15 C       -4.1820     6.8870    -0.7590 C.ar  1 <1>  -0.1500 
 16 O       -0.0890     7.1030    -0.6170 O.2   1 <1>  -0.5700 
 17 N        1.3270     6.3370     0.9320 N.am  1 <1>  -0.7300 
 18 C       -4.6670     6.3460    -1.9310 C.ar  1 <1>  -0.1500 
 19 C        1.8210     7.6560     1.3920 C.3   1 <1>   0.1400 
 20 C        2.8300     8.2270     0.3930 C.3   1 <1>   0.0200 
 21 C        2.8480     9.7400     0.4870 C.2   1 <1>   0.0060 
 22 N        3.7260    10.4110     1.1380 N.2   1 <1>  -0.5650 
 23 N        1.9420    10.5460    -0.0890 N.pl3 1 <1>   0.3140 
 24 C        3.3100    11.6660     0.9290 C.2   1 <1>   0.3660 
 25 N        2.2480    11.8000     0.2060 N.2   1 <1>  -0.7070 
 26 C        0.7670    10.2000    -0.9060 C.3   1 <1>   0.0160 
 27 H        0.5750     2.3180    -1.2940 H     1 <1>   0.0800 
 28 H        1.3350     1.8350     0.2030 H     1 <1>   0.0800 
 29 H       -1.4430     4.9730     1.2210 H     1 <1>   0.0800 
 30 H       -3.1740     3.3380     2.0920 H     1 <1>   0.0800 
 31 H       -3.0900     1.6900     1.5170 H     1 <1>   0.0800 
 32 H       -3.8390     2.9190     0.5250 H     1 <1>   0.0800 
 33 H       -0.1430     4.6690    -1.4460 H     1 <1>   0.0800 
 34 H       -2.7900     6.7040     0.8220 H     1 <1>   0.1500 
 35 H       -4.5110     4.7690    -3.3380 H     1 <1>   0.1500 
 36 H       -2.9180     3.1340    -3.3900 H     1 <1>   0.0800 
 37 H       -2.9020     2.3970    -1.8160 H     1 <1>   0.0800 
 38 H       -1.4900     3.2340    -2.4190 H     1 <1>   0.0800 
 39 H       -4.6020     7.7990    -0.3720 H     1 <1>   0.1500 
 40 H        1.7870     5.5000     1.3080 H     1 <1>   0.3700 
 41 H       -5.4680     6.8310    -2.4610 H     1 <1>   0.1500 
 42 H        0.9790     8.3220     1.4760 H     1 <1>   0.0800 
 43 H        2.2720     7.5680     2.3660 H     1 <1>   0.0800 
 44 H        2.5730     7.9450    -0.6120 H     1 <1>   0.0800 
 45 H        3.8100     7.8420     0.6120 H     1 <1>   0.0800 
 46 H        3.8460    12.5010     1.3500 H     1 <1>   0.1500 
 47 H        1.0460     9.4830    -1.6540 H     1 <1>   0.0800 
 48 H        0.3930    11.0870    -1.3810 H     1 <1>   0.0800 
 49 H        0.0050     9.7840    -0.2740 H     1 <1>   0.0800 
@<TRIPOS>BOND
  1   1   2  2   
  2   2   3  am  
  3   2   4  1   
  4   3   5  1   
  5   3   6  1   
  6   4   7  1   
  7   4  27  1   
  8   4  28  1   
  9   5   8  1   
 10   5   9  1   
 11   5  29  1   
 12   6  30  1   
 13   6  31  1   
 14   6  32  1   
 15   7   9  1   
 16   8  10  ar  
 17   8  11  ar  
 18   9  12  1   
 19   9  33  1   
 20  10  13  ar  
 21  10  14  1   
 22  11  15  ar  
 23  11  34  1   
 24  12  16  2   
 25  12  17  am  
 26  13  18  ar  
 27  13  35  1   
 28  14  36  1   
 29  14  37  1   
 30  14  38  1   
 31  15  18  ar  
 32  15  39  1   
 33  17  19  1   
 34  17  40  1   
 35  18  41  1   
 36  19  20  1   
 37  19  42  1   
 38  19  43  1   
 39  20  21  1   
 40  20  44  1   
 41  20  45  1   
 42  21  22  2   
 43  21  23  1   
 44  22  24  1   
 45  23  25  1   
 46  23  26  1   
 47  24  25  2   
 48  24  46  1   
 49  26  47  1   
 50  26  48  1   
 51  26  49  1   
@<TRIPOS>SUBSTRUCTURE
  1 ****  12 GROUP 4 **** **** 0

# MOE 2024.06 (io_trps.svl 2023.06)
