@<TRIPOS>MOLECULE
NONAME
44 46 1 0 0 
SMALL
USER_CHARGES


@<TRIPOS>ATOM
  1 CL       0.0920     1.2250     0.7130 Cl    1 <1>  -0.1770 
  2 C        1.5960     0.4760     0.2380 C.ar  1 <1>   0.1770 
  3 C        1.9550    -0.7430     0.7840 C.ar  1 <1>  -0.1440 
  4 C        2.4000     1.1200    -0.6850 C.ar  1 <1>  -0.1500 
  5 C        3.1580    -1.2910     0.3760 C.ar  1 <1>   0.1900 
  6 C        1.0840    -1.4590     1.7910 C.3   1 <1>   0.4860 
  7 C        3.5980     0.5430    -1.0790 C.ar  1 <1>  -0.1500 
  8 F        3.5130    -2.4410     0.8870 F     1 <1>  -0.1900 
  9 C        3.9930    -0.6770    -0.5480 C.ar  1 <1>  -0.1440 
 10 N        0.2990    -2.5020     1.0870 N.4   1 <1>  -0.9590 
 11 C        5.3120    -1.3110    -0.9690 C.3   1 <1>  -0.0970 
 12 C       -0.7480    -1.9980     0.1480 C.3   1 <1>   0.3430 
 13 C       -0.3420    -3.5260     1.9420 C.3   1 <1>   0.3430 
 14 C       -1.8300    -3.0860     0.0970 C.3   1 <1>   0.2000 
 15 C       -1.3570    -4.2130     1.0250 C.3   1 <1>  -0.0800 
 16 O       -3.0270    -2.5730     0.5850 O.3   1 <1>  -0.6800 
 17 C       -0.7590    -5.4170     0.2540 C.3   1 <1>  -0.0170 
 18 C        0.6640    -5.2410    -0.2740 C.ar  1 <1>   0.1670 
 19 N        0.8720    -4.2530    -1.1330 N.ar  1 <1>  -0.6200 
 20 C        1.6600    -6.1070     0.1570 C.ar  1 <1>  -0.1500 
 21 C        2.1060    -4.1460    -1.6080 C.ar  1 <1>   0.1600 
 22 C        2.9430    -5.9680    -0.3250 C.ar  1 <1>  -0.1500 
 23 C        3.1610    -4.9600    -1.2370 C.ar  1 <1>  -0.1500 
 24 H        2.0930     2.0680    -1.0930 H     1 <1>   0.1500 
 25 H        0.4260    -0.7620     2.2840 H     1 <1>   0.0800 
 26 H        1.7150    -1.9170     2.5350 H     1 <1>   0.0800 
 27 H        4.2200     1.0520    -1.7970 H     1 <1>   0.1500 
 28 H        0.9520    -3.0280     0.4680 H     1 <1>   0.4500 
 29 H        5.8330    -0.6880    -1.6750 H     1 <1>   0.0800 
 30 H        5.1340    -2.2680    -1.4260 H     1 <1>   0.0800 
 31 H        5.9440    -1.4510    -0.1100 H     1 <1>   0.0800 
 32 H       -1.1770    -1.0740     0.4990 H     1 <1>   0.0800 
 33 H       -0.3230    -1.8490    -0.8310 H     1 <1>   0.0800 
 34 H        0.3800    -4.2260     2.3320 H     1 <1>   0.0800 
 35 H       -0.8580    -3.0490     2.7590 H     1 <1>   0.0800 
 36 H       -2.0040    -3.4180    -0.9140 H     1 <1>   0.0800 
 37 H       -2.1830    -4.5880     1.6060 H     1 <1>   0.0800 
 38 H       -2.9850    -2.3190     1.5260 H     1 <1>   0.4000 
 39 H       -1.3990    -5.6630    -0.5760 H     1 <1>   0.0800 
 40 H       -0.7760    -6.2710     0.9080 H     1 <1>   0.0800 
 41 H        1.4440    -6.8950     0.8560 H     1 <1>   0.1500 
 42 H        2.2920    -3.3680    -2.3300 H     1 <1>   0.1500 
 43 H        3.7390    -6.6250    -0.0120 H     1 <1>   0.1500 
 44 H        4.1380    -4.8100    -1.6610 H     1 <1>   0.1500 
@<TRIPOS>BOND
  1   1   2  1   
  2   2   3  ar  
  3   2   4  ar  
  4   3   5  ar  
  5   3   6  1   
  6   4   7  ar  
  7   4  24  1   
  8   5   8  1   
  9   5   9  ar  
 10   6  10  1   
 11   6  25  1   
 12   6  26  1   
 13   7   9  ar  
 14   7  27  1   
 15   9  11  1   
 16  10  12  1   
 17  10  13  1   
 18  10  28  1   
 19  11  29  1   
 20  11  30  1   
 21  11  31  1   
 22  12  14  1   
 23  12  32  1   
 24  12  33  1   
 25  13  15  1   
 26  13  34  1   
 27  13  35  1   
 28  14  15  1   
 29  14  16  1   
 30  14  36  1   
 31  15  17  1   
 32  15  37  1   
 33  16  38  1   
 34  17  18  1   
 35  17  39  1   
 36  17  40  1   
 37  18  19  ar  
 38  18  20  ar  
 39  19  21  ar  
 40  20  22  ar  
 41  20  41  1   
 42  21  23  ar  
 43  21  42  1   
 44  22  23  ar  
 45  22  43  1   
 46  23  44  1   
@<TRIPOS>SUBSTRUCTURE
  1 ****  10 GROUP 4 **** **** 0

# MOE 2024.06 (io_trps.svl 2023.06)
