@<TRIPOS>MOLECULE
NONAME
52 54 1 0 0 
SMALL
USER_CHARGES


@<TRIPOS>ATOM
  1 O        0.2140    -0.1620    -1.5910 O.2   1 <1>  -0.5700 
  2 C       -0.5780     0.7560    -1.6120 C.2   1 <1>   0.5690 
  3 N       -1.8510     0.5500    -1.1220 N.am  1 <1>  -0.6600 
  4 C       -0.0920     2.1310    -2.1770 C.3   1 <1>   0.3410 
  5 C       -2.9990     1.4970    -1.0790 C.3   1 <1>   0.1400 
  6 C       -2.1700    -0.6530    -0.3130 C.3   1 <1>   0.1400 
  7 O       -0.3970     3.2170    -1.3050 O.3   1 <1>  -0.3630 
  8 C        1.4250     2.1970    -2.4530 C.3   1 <1>  -0.2400 
  9 C       -0.8080     2.4490    -3.5000 C.3   1 <1>  -0.2400 
 10 C       -3.7870     1.0950     0.1660 C.3   1 <1>   0.2000 
 11 C       -3.5720    -0.4190     0.2590 C.3   1 <1>  -0.0800 
 12 C       -0.3110     3.1910     0.0530 C.ar  1 <1>   0.0820 
 13 O       -3.2360     1.7280     1.2710 O.3   1 <1>  -0.6800 
 14 C       -3.7780    -1.0290     1.6580 C.3   1 <1>  -0.0170 
 15 C       -1.0400     4.1600     0.7240 C.ar  1 <1>  -0.1500 
 16 C        0.4190     2.2620     0.7900 C.ar  1 <1>  -0.1500 
 17 C       -3.6320    -2.5420     1.6190 C.ar  1 <1>  -0.1440 
 18 C       -1.0700     4.2000     2.1070 C.ar  1 <1>  -0.1440 
 19 C        0.3940     2.2990     2.1720 C.ar  1 <1>  -0.1500 
 20 C       -2.4490    -3.1720     1.9500 C.ar  1 <1>  -0.1500 
 21 C       -4.6760    -3.3630     1.2470 C.ar  1 <1>  -0.1500 
 22 C       -0.3510     3.2620     2.8300 C.ar  1 <1>  -0.1500 
 23 C       -1.8920     5.2530     2.8270 C.3   1 <1>  -0.0970 
 24 C       -2.3690    -4.5540     1.8880 C.ar  1 <1>   0.1600 
 25 C       -4.4920    -4.7360     1.2190 C.ar  1 <1>   0.1600 
 26 N       -3.3620    -5.3510     1.5290 N.ar  1 <1>  -0.6200 
 27 H       -2.7050     2.5290    -1.0370 H     1 <1>   0.0800 
 28 H       -3.6070     1.3380    -1.9520 H     1 <1>   0.0800 
 29 H       -2.1360    -1.5410    -0.9230 H     1 <1>   0.0800 
 30 H       -1.4440    -0.7400     0.4770 H     1 <1>   0.0800 
 31 H        1.6950     1.4610    -3.1890 H     1 <1>   0.0800 
 32 H        1.9940     1.9930    -1.5670 H     1 <1>   0.0800 
 33 H        1.6980     3.1680    -2.8240 H     1 <1>   0.0800 
 34 H       -0.6020     1.6760    -4.2190 H     1 <1>   0.0800 
 35 H       -0.4640     3.3860    -3.8990 H     1 <1>   0.0800 
 36 H       -1.8700     2.5010    -3.3610 H     1 <1>   0.0800 
 37 H       -4.8270     1.3660     0.1090 H     1 <1>   0.0800 
 38 H       -4.2680    -0.8850    -0.4160 H     1 <1>   0.0800 
 39 H       -2.2600     1.7930     1.1690 H     1 <1>   0.4000 
 40 H       -4.7590    -0.7740     2.0180 H     1 <1>   0.0800 
 41 H       -3.0660    -0.6180     2.3530 H     1 <1>   0.0800 
 42 H       -1.5950     4.8790     0.1500 H     1 <1>   0.1500 
 43 H        1.0110     1.5030     0.3180 H     1 <1>   0.1500 
 44 H        0.9570     1.5780     2.7390 H     1 <1>   0.1500 
 45 H       -1.5890    -2.6050     2.2530 H     1 <1>   0.1500 
 46 H       -5.6310    -2.9500     0.9780 H     1 <1>   0.1500 
 47 H       -0.3680     3.2800     3.9050 H     1 <1>   0.1500 
 48 H       -1.4220     5.5280     3.7540 H     1 <1>   0.0800 
 49 H       -2.8730     4.8640     3.0360 H     1 <1>   0.0800 
 50 H       -1.9900     6.1350     2.2200 H     1 <1>   0.0800 
 51 H       -1.4380    -5.0280     2.1470 H     1 <1>   0.1500 
 52 H       -5.3180    -5.3610     0.9260 H     1 <1>   0.1500 
@<TRIPOS>BOND
  1   1   2  2   
  2   2   3  am  
  3   2   4  1   
  4   3   5  1   
  5   3   6  1   
  6   4   7  1   
  7   4   8  1   
  8   4   9  1   
  9   5  10  1   
 10   5  27  1   
 11   5  28  1   
 12   6  11  1   
 13   6  29  1   
 14   6  30  1   
 15   7  12  1   
 16   8  31  1   
 17   8  32  1   
 18   8  33  1   
 19   9  34  1   
 20   9  35  1   
 21   9  36  1   
 22  10  11  1   
 23  10  13  1   
 24  10  37  1   
 25  11  14  1   
 26  11  38  1   
 27  12  15  ar  
 28  12  16  ar  
 29  13  39  1   
 30  14  17  1   
 31  14  40  1   
 32  14  41  1   
 33  15  18  ar  
 34  15  42  1   
 35  16  19  ar  
 36  16  43  1   
 37  17  20  ar  
 38  17  21  ar  
 39  18  22  ar  
 40  18  23  1   
 41  19  22  ar  
 42  19  44  1   
 43  20  24  ar  
 44  20  45  1   
 45  21  25  ar  
 46  21  46  1   
 47  22  47  1   
 48  23  48  1   
 49  23  49  1   
 50  23  50  1   
 51  24  26  ar  
 52  24  51  1   
 53  25  26  ar  
 54  25  52  1   
@<TRIPOS>SUBSTRUCTURE
  1 ****   6 GROUP 4 **** **** 0

# MOE 2024.06 (io_trps.svl 2023.06)
