@<TRIPOS>MOLECULE
NONAME
46 48 1 0 0 
SMALL
USER_CHARGES


@<TRIPOS>ATOM
  1 O       -2.1520    -0.8100    -0.7820 O.2   1 <1>  -0.5700 
  2 C       -2.3700     0.1490    -0.0470 C.2   1 <1>   0.6160 
  3 N       -1.9100     1.4160    -0.4200 N.am  1 <1>  -0.4690 
  4 C       -3.0950     0.0050     1.1770 C.2   1 <1>   0.0290 
  5 C       -2.1370     2.5100     0.3960 C.2   1 <1>  -0.0290 
  6 C       -1.1410     1.5740    -1.6950 C.3   1 <1>   0.0600 
  7 C       -3.5760    -1.2930     1.5560 C.2   1 <1>   0.6160 
  8 C       -3.2960     1.1050     1.9680 C.2   1 <1>  -0.1500 
  9 C       -2.8150     2.3640     1.5690 C.2   1 <1>  -0.1500 
 10 C       -1.6210     3.8810    -0.0190 C.3   1 <1>  -0.1020 
 11 O       -3.1550    -1.8090     2.5760 O.2   1 <1>  -0.5700 
 12 N       -4.5590    -1.9520     0.8540 N.am  1 <1>  -0.6600 
 13 C       -5.2440    -1.4580    -0.3700 C.3   1 <1>   0.1400 
 14 C       -4.9110    -3.3730     1.1050 C.3   1 <1>   0.1400 
 15 C       -6.2750    -2.5380    -0.6990 C.3   1 <1>   0.2000 
 16 C       -5.6550    -3.8280    -0.1570 C.3   1 <1>  -0.0800 
 17 O       -7.4290    -2.2730     0.0210 O.3   1 <1>  -0.6800 
 18 C       -4.6860    -4.4460    -1.1840 C.3   1 <1>   0.0210 
 19 C       -4.0770    -5.7340    -0.6660 C.2   1 <1>   0.1080 
 20 N       -4.7580    -6.8280    -0.5200 N.2   1 <1>  -0.7070 
 21 C       -2.7470    -5.8870    -0.2880 C.2   1 <1>  -0.1500 
 22 N       -3.8690    -7.7190    -0.0410 N.pl3 1 <1>   0.3000 
 23 C       -2.6440    -7.1730     0.1090 C.2   1 <1>  -0.3320 
 24 C       -1.4320    -7.9200     0.6330 C.3   1 <1>  -0.0600 
 25 H       -0.1420     1.9030    -1.4730 H     1 <1>   0.0800 
 26 H       -1.6260     2.3000    -2.3230 H     1 <1>   0.0800 
 27 H       -1.0770     0.6500    -2.2410 H     1 <1>   0.0800 
 28 H       -3.8200     1.0180     2.9050 H     1 <1>   0.1500 
 29 H       -2.9980     3.2020     2.2190 H     1 <1>   0.1500 
 30 H       -2.0640     4.1790    -0.9520 H     1 <1>   0.0800 
 31 H       -0.5510     3.8610    -0.1230 H     1 <1>   0.0800 
 32 H       -1.8690     4.6220     0.7190 H     1 <1>   0.0800 
 33 H       -5.7050    -0.4980    -0.2120 H     1 <1>   0.0800 
 34 H       -4.5330    -1.3900    -1.1740 H     1 <1>   0.0800 
 35 H       -4.0290    -3.9580     1.3030 H     1 <1>   0.0800 
 36 H       -5.5600    -3.4260     1.9620 H     1 <1>   0.0800 
 37 H       -6.5290    -2.5800    -1.7440 H     1 <1>   0.0800 
 38 H       -6.4100    -4.5590     0.0780 H     1 <1>   0.0800 
 39 H       -7.1940    -2.1690     0.9650 H     1 <1>   0.4000 
 40 H       -3.8970    -3.7560    -1.4230 H     1 <1>   0.0800 
 41 H       -5.2180    -4.6720    -2.0900 H     1 <1>   0.0800 
 42 H       -1.9900    -5.1230    -0.3150 H     1 <1>   0.1500 
 43 H       -4.1300    -8.6890     0.1730 H     1 <1>   0.2700 
 44 H       -0.5800    -7.2640     0.6650 H     1 <1>   0.0800 
 45 H       -1.2010    -8.7510    -0.0090 H     1 <1>   0.0800 
 46 H       -1.6210    -8.2840     1.6270 H     1 <1>   0.0800 
@<TRIPOS>BOND
  1   1   2  2   
  2   2   3  am  
  3   2   4  1   
  4   3   5  1   
  5   3   6  1   
  6   4   7  1   
  7   4   8  2   
  8   5   9  2   
  9   5  10  1   
 10   6  25  1   
 11   6  26  1   
 12   6  27  1   
 13   7  11  2   
 14   7  12  am  
 15   8   9  1   
 16   8  28  1   
 17   9  29  1   
 18  10  30  1   
 19  10  31  1   
 20  10  32  1   
 21  12  13  1   
 22  12  14  1   
 23  13  15  1   
 24  13  33  1   
 25  13  34  1   
 26  14  16  1   
 27  14  35  1   
 28  14  36  1   
 29  15  16  1   
 30  15  17  1   
 31  15  37  1   
 32  16  18  1   
 33  16  38  1   
 34  17  39  1   
 35  18  19  1   
 36  18  40  1   
 37  18  41  1   
 38  19  20  2   
 39  19  21  1   
 40  20  22  1   
 41  21  23  2   
 42  21  42  1   
 43  22  23  1   
 44  22  43  1   
 45  23  24  1   
 46  24  44  1   
 47  24  45  1   
 48  24  46  1   
@<TRIPOS>SUBSTRUCTURE
  1 ****  12 GROUP 4 **** **** 0

# MOE 2024.06 (io_trps.svl 2023.06)
