@<TRIPOS>MOLECULE
NONAME
46 48 1 0 0 
SMALL
USER_CHARGES


@<TRIPOS>ATOM
  1 O       -1.0100     1.0960     0.3620 O.2   1 <1>  -0.5700 
  2 C       -0.6100     2.2000     0.0930 C.2   1 <1>   0.5690 
  3 N       -0.9720     3.2680     0.8400 N.am  1 <1>  -0.7300 
  4 C        0.3000     2.4120    -1.1250 C.3   1 <1>   0.1810 
  5 C       -0.4780     4.6390     0.5830 C.3   1 <1>   0.3640 
  6 O        0.9400     3.6730    -1.1320 O.3   1 <1>  -0.5600 
  7 C       -1.5970     5.6250     0.8920 C.ar  1 <1>  -0.1440 
  8 C        0.0710     4.7610    -0.8580 C.3   1 <1>   0.2610 
  9 C       -1.4200     6.5670     1.8960 C.ar  1 <1>  -0.1500 
 10 C       -2.8000     5.5950     0.2000 C.ar  1 <1>  -0.1500 
 11 C        0.7890     6.0970    -1.0310 C.2   1 <1>   0.5690 
 12 C       -2.4290     7.4630     2.2050 C.ar  1 <1>  -0.1500 
 13 C       -3.8070     6.4950     0.5040 C.ar  1 <1>  -0.1500 
 14 O        0.2770     6.9630    -1.7010 O.2   1 <1>  -0.5700 
 15 N        1.9740     6.3060    -0.4020 N.am  1 <1>  -0.7300 
 16 C       -3.6230     7.4290     1.5080 C.ar  1 <1>  -0.1500 
 17 C        2.5590     7.6410    -0.1730 C.3   1 <1>   0.3200 
 18 C        1.8400     8.2950     0.9950 C.2   1 <1>   0.0060 
 19 N        2.0940     8.0120     2.2280 N.2   1 <1>  -0.3380 
 20 N        0.8670     9.2120     0.8880 N.pl3 1 <1>   0.0480 
 21 N        1.2810     8.7560     2.9770 N.2   1 <1>  -0.3380 
 22 C        0.5690     9.4580     2.1660 C.2   1 <1>   0.0360 
 23 C        0.2570     9.8430    -0.3150 C.3   1 <1>   0.1760 
 24 C        0.6080    11.3340    -0.3590 C.3   1 <1>  -0.2400 
 25 C       -1.2620     9.6410    -0.3260 C.3   1 <1>  -0.2400 
 26 H       -1.5870     3.1350     1.6440 H     1 <1>   0.3700 
 27 H       -0.2830     2.3240    -2.0230 H     1 <1>   0.0800 
 28 H        1.0640     1.6560    -1.1340 H     1 <1>   0.0800 
 29 H        0.3340     4.8260     1.2650 H     1 <1>   0.0800 
 30 H       -0.7390     4.7260    -1.5650 H     1 <1>   0.0800 
 31 H       -0.4960     6.6150     2.4500 H     1 <1>   0.1500 
 32 H       -2.9650     4.8680    -0.5770 H     1 <1>   0.1500 
 33 H       -2.2790     8.1840     2.9900 H     1 <1>   0.1500 
 34 H       -4.7360     6.4660    -0.0380 H     1 <1>   0.1500 
 35 H        2.3950     5.5500     0.1420 H     1 <1>   0.3700 
 36 H       -4.4070     8.1250     1.7480 H     1 <1>   0.1500 
 37 H        3.6030     7.5330     0.0660 H     1 <1>   0.0800 
 38 H        2.4780     8.2370    -1.0650 H     1 <1>   0.0800 
 39 H       -0.1830    10.1640     2.4660 H     1 <1>   0.1500 
 40 H        0.6610     9.3740    -1.1930 H     1 <1>   0.0800 
 41 H        0.1900    11.8520     0.4850 H     1 <1>   0.0800 
 42 H        0.2140    11.7750    -1.2570 H     1 <1>   0.0800 
 43 H        1.6760    11.4640    -0.3620 H     1 <1>   0.0800 
 44 H       -1.7270    10.1030     0.5260 H     1 <1>   0.0800 
 45 H       -1.4910     8.5890    -0.3290 H     1 <1>   0.0800 
 46 H       -1.6820    10.0690    -1.2180 H     1 <1>   0.0800 
@<TRIPOS>BOND
  1   1   2  2   
  2   2   3  am  
  3   2   4  1   
  4   3   5  1   
  5   3  26  1   
  6   4   6  1   
  7   4  27  1   
  8   4  28  1   
  9   5   7  1   
 10   5   8  1   
 11   5  29  1   
 12   6   8  1   
 13   7   9  ar  
 14   7  10  ar  
 15   8  11  1   
 16   8  30  1   
 17   9  12  ar  
 18   9  31  1   
 19  10  13  ar  
 20  10  32  1   
 21  11  14  2   
 22  11  15  am  
 23  12  16  ar  
 24  12  33  1   
 25  13  16  ar  
 26  13  34  1   
 27  15  17  1   
 28  15  35  1   
 29  16  36  1   
 30  17  18  1   
 31  17  37  1   
 32  17  38  1   
 33  18  19  2   
 34  18  20  1   
 35  19  21  1   
 36  20  22  1   
 37  20  23  1   
 38  21  22  2   
 39  22  39  1   
 40  23  24  1   
 41  23  25  1   
 42  23  40  1   
 43  24  41  1   
 44  24  42  1   
 45  24  43  1   
 46  25  44  1   
 47  25  45  1   
 48  25  46  1   
@<TRIPOS>SUBSTRUCTURE
  1 ****   7 GROUP 4 **** **** 0

# MOE 2024.06 (io_trps.svl 2023.06)
