@<TRIPOS>MOLECULE
NONAME
57 59 1 0 0 
SMALL
USER_CHARGES


@<TRIPOS>ATOM
  1 S        0.4490     0.0780     1.4150 S.o2  1 <1>   1.5760 
  2 O        0.6090    -1.2530     1.9500 O.2   1 <1>  -0.6500 
  3 O        0.2580     1.2180     2.2770 O.2   1 <1>  -0.6500 
  4 N        1.7180     0.3990     0.3540 N.am  1 <1>  -0.8490 
  5 N       -0.8410     0.0140     0.3270 N.am  1 <1>  -0.8490 
  6 C        3.0060     0.0940     0.9990 C.3   1 <1>   0.1960 
  7 C        1.6990     1.8030    -0.1000 C.3   1 <1>   0.1960 
  8 C       -2.1170     0.0520     1.0620 C.3   1 <1>   0.1960 
  9 C       -0.7570    -1.1760    -0.5410 C.3   1 <1>   0.1960 
 10 C        4.2070     0.3640     0.0680 C.3   1 <1>   0.2090 
 11 C        2.8520     2.1020    -1.0740 C.3   1 <1>   0.2090 
 12 C       -3.3340    -0.0170     0.1140 C.3   1 <1>   0.3430 
 13 C       -1.9470    -1.2560    -1.5210 C.3   1 <1>   0.3430 
 14 N        4.1890     1.7780    -0.4490 N.pl3 1 <1>  -0.8380 
 15 N       -3.2730    -1.2120    -0.8040 N.4   1 <1>  -0.9590 
 16 C        5.1430     2.7330    -0.2770 C.ar  1 <1>   0.7710 
 17 C       -4.4140    -1.2130    -1.7700 C.3   1 <1>   0.2630 
 18 N        4.8190     4.0030    -0.4430 N.ar  1 <1>  -0.6200 
 19 N        6.3910     2.3630     0.0550 N.ar  1 <1>  -0.1790 
 20 C        5.7480     4.9240    -0.2740 C.ar  1 <1>   0.4100 
 21 C        7.3690     3.2750     0.2690 C.ar  1 <1>   0.2110 
 22 N        5.3670     6.2070    -0.4950 N.pl3 1 <1>  -0.8380 
 23 C        7.0690     4.5880     0.1190 C.ar  1 <1>  -0.1440 
 24 C        6.0220     7.0760    -1.5120 C.3   1 <1>   0.1290 
 25 C        4.0460     6.7150    -0.0270 C.3   1 <1>   0.1290 
 26 C        8.1220     5.6580     0.4030 C.3   1 <1>  -0.0970 
 27 H        3.0240    -0.9440     1.2860 H     1 <1>   0.0800 
 28 H        3.1120     0.6840     1.8960 H     1 <1>   0.0800 
 29 H        1.7780     2.4740     0.7400 H     1 <1>   0.0800 
 30 H        0.7650     2.0080    -0.5960 H     1 <1>   0.0800 
 31 H       -2.1770     0.9710     1.6240 H     1 <1>   0.0800 
 32 H       -2.1610    -0.7620     1.7660 H     1 <1>   0.0800 
 33 H       -0.7320    -2.0750     0.0530 H     1 <1>   0.0800 
 34 H        0.1570    -1.1390    -1.1110 H     1 <1>   0.0800 
 35 H        4.1570    -0.3190    -0.7640 H     1 <1>   0.0800 
 36 H        5.1080     0.1570     0.6140 H     1 <1>   0.0800 
 37 H        2.7880     3.1310    -1.3800 H     1 <1>   0.0800 
 38 H        2.7220     1.5020    -1.9590 H     1 <1>   0.0800 
 39 H       -3.3550     0.8870    -0.4710 H     1 <1>   0.0800 
 40 H       -4.2360    -0.0510     0.7020 H     1 <1>   0.0800 
 41 H       -1.8710    -2.1650    -2.0950 H     1 <1>   0.0800 
 42 H       -1.8770    -0.4260    -2.2040 H     1 <1>   0.0800 
 43 H       -3.3350    -2.0580    -0.2180 H     1 <1>   0.4500 
 44 H       -4.3740    -0.3390    -2.4000 H     1 <1>   0.0800 
 45 H       -5.3540    -1.2130    -1.2410 H     1 <1>   0.0800 
 46 H       -4.3760    -2.0900    -2.3960 H     1 <1>   0.0800 
 47 H        6.5590     1.3670     0.1030 H     1 <1>   0.4570 
 48 H        8.3490     2.9310     0.5570 H     1 <1>   0.1500 
 49 H        6.7780     6.5270    -2.0460 H     1 <1>   0.0800 
 50 H        6.4730     7.9260    -1.0300 H     1 <1>   0.0800 
 51 H        5.2920     7.4220    -2.2230 H     1 <1>   0.0800 
 52 H        3.6610     6.0880     0.7590 H     1 <1>   0.0800 
 53 H        3.3440     6.7170    -0.8440 H     1 <1>   0.0800 
 54 H        4.1510     7.7160     0.3530 H     1 <1>   0.0800 
 55 H        7.6920     6.4500     0.9920 H     1 <1>   0.0800 
 56 H        8.4920     6.0760    -0.5160 H     1 <1>   0.0800 
 57 H        8.9550     5.2530     0.9490 H     1 <1>   0.0800 
@<TRIPOS>BOND
  1   1   2  2   
  2   1   3  2   
  3   1   4  am  
  4   1   5  am  
  5   4   6  1   
  6   4   7  1   
  7   5   8  1   
  8   5   9  1   
  9   6  10  1   
 10   6  27  1   
 11   6  28  1   
 12   7  11  1   
 13   7  29  1   
 14   7  30  1   
 15   8  12  1   
 16   8  31  1   
 17   8  32  1   
 18   9  13  1   
 19   9  33  1   
 20   9  34  1   
 21  10  14  1   
 22  10  35  1   
 23  10  36  1   
 24  11  14  1   
 25  11  37  1   
 26  11  38  1   
 27  12  15  1   
 28  12  39  1   
 29  12  40  1   
 30  13  15  1   
 31  13  41  1   
 32  13  42  1   
 33  14  16  1   
 34  15  17  1   
 35  15  43  1   
 36  16  18  ar  
 37  16  19  ar  
 38  17  44  1   
 39  17  45  1   
 40  17  46  1   
 41  18  20  ar  
 42  19  21  ar  
 43  19  47  1   
 44  20  22  1   
 45  20  23  ar  
 46  21  23  ar  
 47  21  48  1   
 48  22  24  1   
 49  22  25  1   
 50  23  26  1   
 51  24  49  1   
 52  24  50  1   
 53  24  51  1   
 54  25  52  1   
 55  25  53  1   
 56  25  54  1   
 57  26  55  1   
 58  26  56  1   
 59  26  57  1   
@<TRIPOS>SUBSTRUCTURE
  1 ****   7 GROUP 4 **** **** 0

# MOE 2024.06 (io_trps.svl 2023.06)
