@<TRIPOS>MOLECULE
NONAME
55 57 1 0 0 
SMALL
USER_CHARGES


@<TRIPOS>ATOM
  1 O       -2.3260     0.7450    -1.6790 O.2   1 <1>  -0.5700 
  2 C       -2.0050     0.9640    -0.5250 C.2   1 <1>   0.5440 
  3 N       -2.5380     0.1500     0.4400 N.am  1 <1>  -0.6600 
  4 C       -1.2330     2.1480    -0.2060 C.ar  1 <1>   0.0860 
  5 C       -2.5100    -1.3420     0.3280 C.3   1 <1>   0.3640 
  6 C       -3.7760     0.6190     1.1120 C.3   1 <1>   0.1400 
  7 C       -0.3180     2.2290     0.8570 C.ar  1 <1>   0.3920 
  8 C       -1.3960     3.2900    -0.9830 C.ar  1 <1>  -0.1500 
  9 C       -1.1890    -1.8730    -0.2450 C.ar  1 <1>  -0.1440 
 10 C       -3.8010    -1.8580    -0.3620 C.3   1 <1>   0.2000 
 11 C       -5.0050     0.0360     0.3910 C.3   1 <1>   0.1200 
 12 O       -0.0910     1.1300     1.6090 O.3   1 <1>  -0.3630 
 13 N        0.3660     3.3280     1.1860 N.ar  1 <1>  -0.6200 
 14 C       -0.6840     4.4220    -0.6580 C.ar  1 <1>  -0.1500 
 15 C       -0.2360    -2.3660     0.6360 C.ar  1 <1>  -0.1500 
 16 C       -0.9110    -1.9000    -1.6070 C.ar  1 <1>  -0.1500 
 17 O       -4.9260    -1.3620     0.3310 O.3   1 <1>  -0.5600 
 18 C       -3.9250    -3.3920    -0.3520 C.3   1 <1>   0.1200 
 19 C        0.8150     1.1470     2.6950 C.3   1 <1>   0.1200 
 20 C        0.1700     4.3890     0.4270 C.ar  1 <1>   0.1600 
 21 C        0.9700    -2.8700     0.1820 C.ar  1 <1>   0.0830 
 22 C        0.2980    -2.3880    -2.0740 C.ar  1 <1>  -0.1500 
 23 O       -3.0550    -3.9900    -1.2590 O.3   1 <1>  -0.6800 
 24 C        0.8820    -0.2510     3.3000 C.3   1 <1>  -0.2400 
 25 O        1.8260    -3.3630     1.1120 O.3   1 <1>  -0.3630 
 26 C        1.2510    -2.8570    -1.1880 C.ar  1 <1>   0.0830 
 27 C        2.1400    -4.7350     1.0190 C.3   1 <1>   0.0400 
 28 O        2.4340    -3.2750    -1.6990 O.3   1 <1>  -0.3630 
 29 C        3.5500    -2.4670    -1.4010 C.3   1 <1>   0.0400 
 30 H       -2.5600    -1.7170     1.3350 H     1 <1>   0.0800 
 31 H       -3.7710     0.3060     2.1410 H     1 <1>   0.0800 
 32 H       -3.8220     1.6940     1.0890 H     1 <1>   0.0800 
 33 H       -2.0690     3.2840    -1.8230 H     1 <1>   0.1500 
 34 H       -3.8550    -1.5020    -1.3760 H     1 <1>   0.0800 
 35 H       -5.0720     0.4200    -0.6130 H     1 <1>   0.0800 
 36 H       -5.9050     0.2910     0.9220 H     1 <1>   0.0800 
 37 H       -0.7880     5.3230    -1.2370 H     1 <1>   0.1500 
 38 H       -0.4220    -2.3670     1.6940 H     1 <1>   0.1500 
 39 H       -1.6310    -1.5350    -2.3210 H     1 <1>   0.1500 
 40 H       -4.9230    -3.6760    -0.6390 H     1 <1>   0.0800 
 41 H       -3.7110    -3.7830     0.6260 H     1 <1>   0.0800 
 42 H        1.7820     1.4490     2.3290 H     1 <1>   0.0800 
 43 H        0.4600     1.8620     3.4180 H     1 <1>   0.0800 
 44 H        0.7220     5.2790     0.6800 H     1 <1>   0.1500 
 45 H        0.5090    -2.3960    -3.1280 H     1 <1>   0.1500 
 46 H       -2.1330    -3.6750    -1.1270 H     1 <1>   0.4000 
 47 H        1.3070    -0.9360     2.5890 H     1 <1>   0.0800 
 48 H       -0.0990    -0.5810     3.5870 H     1 <1>   0.0800 
 49 H        1.5110    -0.2370     4.1710 H     1 <1>   0.0800 
 50 H        2.6850    -5.0150     1.9010 H     1 <1>   0.0800 
 51 H        2.7440    -4.9050     0.1470 H     1 <1>   0.0800 
 52 H        1.2250    -5.2980     0.9550 H     1 <1>   0.0800 
 53 H        4.4020    -2.8610    -1.9240 H     1 <1>   0.0800 
 54 H        3.7290    -2.4840    -0.3410 H     1 <1>   0.0800 
 55 H        3.3470    -1.4620    -1.7290 H     1 <1>   0.0800 
@<TRIPOS>BOND
  1   1   2  2   
  2   2   3  am  
  3   2   4  1   
  4   3   5  1   
  5   3   6  1   
  6   4   7  ar  
  7   4   8  ar  
  8   5   9  1   
  9   5  10  1   
 10   5  30  1   
 11   6  11  1   
 12   6  31  1   
 13   6  32  1   
 14   7  12  1   
 15   7  13  ar  
 16   8  14  ar  
 17   8  33  1   
 18   9  15  ar  
 19   9  16  ar  
 20  10  17  1   
 21  10  18  1   
 22  10  34  1   
 23  11  17  1   
 24  11  35  1   
 25  11  36  1   
 26  12  19  1   
 27  13  20  ar  
 28  14  20  ar  
 29  14  37  1   
 30  15  21  ar  
 31  15  38  1   
 32  16  22  ar  
 33  16  39  1   
 34  18  23  1   
 35  18  40  1   
 36  18  41  1   
 37  19  24  1   
 38  19  42  1   
 39  19  43  1   
 40  20  44  1   
 41  21  25  1   
 42  21  26  ar  
 43  22  26  ar  
 44  22  45  1   
 45  23  46  1   
 46  24  47  1   
 47  24  48  1   
 48  24  49  1   
 49  25  27  1   
 50  26  28  1   
 51  27  50  1   
 52  27  51  1   
 53  27  52  1   
 54  28  29  1   
 55  29  53  1   
 56  29  54  1   
 57  29  55  1   
@<TRIPOS>SUBSTRUCTURE
  1 ****   9 GROUP 4 **** **** 0

# MOE 2024.06 (io_trps.svl 2023.06)
