@<TRIPOS>MOLECULE
NONAME
45 47 1 0 0 
SMALL
USER_CHARGES


@<TRIPOS>ATOM
  1 F       -2.4830     4.4420     1.9410 F     1 <1>  -0.1900 
  2 C       -1.7610     4.3270     0.8540 C.ar  1 <1>   0.1900 
  3 C       -2.1320     3.4040    -0.1240 C.ar  1 <1>   0.0830 
  4 C       -0.6570     5.1460     0.7260 C.ar  1 <1>  -0.1500 
  5 O       -3.2370     2.6390     0.0880 O.3   1 <1>  -0.3630 
  6 C       -1.3520     3.3070    -1.2770 C.ar  1 <1>  -0.1500 
  7 C        0.0870     5.0200    -0.4300 C.ar  1 <1>   0.1900 
  8 C       -3.9000     1.9960    -0.9930 C.3   1 <1>   0.1810 
  9 C       -0.2380     4.1200    -1.4310 C.ar  1 <1>  -0.1500 
 10 F        1.1390     5.7800    -0.5870 F     1 <1>  -0.1900 
 11 C       -5.2100     1.3450    -0.5510 C.2   1 <1>   0.5690 
 12 O       -5.3150     0.1560    -0.7510 O.2   1 <1>  -0.5700 
 13 N       -6.2370     2.0750     0.0060 N.am  1 <1>  -0.6600 
 14 C       -6.1970     3.5370     0.2910 C.3   1 <1>   0.1400 
 15 C       -7.4890     1.4180     0.4780 C.3   1 <1>   0.1400 
 16 C       -7.3880     4.2150    -0.3870 C.3   1 <1>  -0.1600 
 17 C       -8.6960     2.0790    -0.1910 C.3   1 <1>  -0.1600 
 18 C       -8.7200     3.5910     0.0510 C.3   1 <1>   0.4180 
 19 O       -8.8850     3.7650     1.4370 O.3   1 <1>  -0.5600 
 20 C       -9.8910     4.2140    -0.7060 C.2   1 <1>  -0.2880 
 21 C       -9.3570     5.0060     1.8820 C.3   1 <1>   0.1200 
 22 C      -10.8370     4.9650    -0.1370 C.2   1 <1>  -0.2760 
 23 C      -10.7720     5.2690     1.3490 C.3   1 <1>  -0.0220 
 24 C      -12.0260     5.5560    -0.8720 C.3   1 <1>  -0.1020 
 25 H       -0.3880     5.8500     1.4910 H     1 <1>   0.1500 
 26 H       -1.5880     2.6060    -2.0560 H     1 <1>   0.1500 
 27 H       -3.2480     1.2350    -1.3800 H     1 <1>   0.0800 
 28 H       -4.1040     2.7250    -1.7540 H     1 <1>   0.0800 
 29 H        0.3760     4.0590    -2.3130 H     1 <1>   0.1500 
 30 H       -5.2870     3.9850    -0.0640 H     1 <1>   0.0800 
 31 H       -6.2460     3.6870     1.3570 H     1 <1>   0.0800 
 32 H       -7.5590     1.5230     1.5480 H     1 <1>   0.0800 
 33 H       -7.4810     0.3660     0.2480 H     1 <1>   0.0800 
 34 H       -7.2830     4.1070    -1.4510 H     1 <1>   0.0800 
 35 H       -7.3840     5.2670    -0.1750 H     1 <1>   0.0800 
 36 H       -9.6040     1.6470     0.1870 H     1 <1>   0.0800 
 37 H       -8.6530     1.8800    -1.2460 H     1 <1>   0.0800 
 38 H       -9.8810     3.9780    -1.7540 H     1 <1>   0.1500 
 39 H       -8.6800     5.7720     1.5500 H     1 <1>   0.0800 
 40 H       -9.3610     4.9900     2.9580 H     1 <1>   0.0800 
 41 H      -11.0190     6.2990     1.5300 H     1 <1>   0.0800 
 42 H      -11.4790     4.6550     1.8770 H     1 <1>   0.0800 
 43 H      -12.9430     5.1920    -0.4440 H     1 <1>   0.0800 
 44 H      -12.0020     5.2790    -1.9110 H     1 <1>   0.0800 
 45 H      -12.0110     6.6290    -0.8050 H     1 <1>   0.0800 
@<TRIPOS>BOND
  1   1   2  1   
  2   2   3  ar  
  3   2   4  ar  
  4   3   5  1   
  5   3   6  ar  
  6   4   7  ar  
  7   4  25  1   
  8   5   8  1   
  9   6   9  ar  
 10   6  26  1   
 11   7   9  ar  
 12   7  10  1   
 13   8  11  1   
 14   8  27  1   
 15   8  28  1   
 16   9  29  1   
 17  11  12  2   
 18  11  13  am  
 19  13  14  1   
 20  13  15  1   
 21  14  16  1   
 22  14  30  1   
 23  14  31  1   
 24  15  17  1   
 25  15  32  1   
 26  15  33  1   
 27  16  18  1   
 28  16  34  1   
 29  16  35  1   
 30  17  18  1   
 31  17  36  1   
 32  17  37  1   
 33  18  19  1   
 34  18  20  1   
 35  19  21  1   
 36  20  22  2   
 37  20  38  1   
 38  21  23  1   
 39  21  39  1   
 40  21  40  1   
 41  22  23  1   
 42  22  24  1   
 43  23  41  1   
 44  23  42  1   
 45  24  43  1   
 46  24  44  1   
 47  24  45  1   
@<TRIPOS>SUBSTRUCTURE
  1 ****  14 GROUP 4 **** **** 0

# MOE 2024.06 (io_trps.svl 2023.06)
