@<TRIPOS>MOLECULE
NONAME
42 44 1 0 0 
SMALL
USER_CHARGES


@<TRIPOS>ATOM
  1 O       -1.4530    -0.5380     0.9100 O.co2 1 <1>  -0.9000 
  2 C       -1.8730    -1.6010     1.4040 C.2   1 <1>   0.9790 
  3 O       -2.4080    -1.5660     2.5280 O.co2 1 <1>  -0.9000 
  4 C       -1.7030    -2.8510     0.7160 C.ar  1 <1>  -0.1790 
  5 C       -2.6590    -3.3150    -0.1990 C.ar  1 <1>   0.4100 
  6 C       -0.5830    -3.6330     0.9450 C.ar  1 <1>  -0.1500 
  7 N       -2.5480    -4.4610    -0.8650 N.ar  1 <1>  -0.6200 
  8 N       -3.8060    -2.6100    -0.4870 N.pl3 1 <1>  -0.8380 
  9 C       -0.4710    -4.8190     0.2570 C.ar  1 <1>  -0.1500 
 10 C       -1.4720    -5.1820    -0.6280 C.ar  1 <1>   0.1670 
 11 C       -4.8050    -2.4290     0.5990 C.3   1 <1>   0.2090 
 12 C       -3.6760    -1.4280    -1.3610 C.3   1 <1>   0.2090 
 13 C       -1.3730    -6.4810    -1.3970 C.3   1 <1>  -0.0970 
 14 C       -6.2160    -2.2000     0.0070 C.3   1 <1>   0.0000 
 15 C       -5.0330    -1.1610    -2.0210 C.3   1 <1>  -0.1600 
 16 C       -7.2050    -1.9930     1.1710 C.3   1 <1>   0.2000 
 17 C       -6.1540    -1.0000    -0.9760 C.3   1 <1>  -0.1600 
 18 C       -6.7300    -3.4930    -0.6610 C.3   1 <1>  -0.1600 
 19 O       -8.3960    -1.4580     0.7050 O.3   1 <1>  -0.6800 
 20 C       -7.5210    -3.4010     1.6700 C.3   1 <1>  -0.1600 
 21 C       -7.3940    -4.3230     0.4490 C.3   1 <1>  -0.1600 
 22 H        0.1670    -3.3050     1.6430 H     1 <1>   0.1500 
 23 H        0.3840    -5.4490     0.4090 H     1 <1>   0.1500 
 24 H       -4.7860    -3.2950     1.2370 H     1 <1>   0.0800 
 25 H       -4.5290    -1.5740     1.1920 H     1 <1>   0.0800 
 26 H       -3.3730    -0.5760    -0.7740 H     1 <1>   0.0800 
 27 H       -2.9230    -1.6130    -2.1080 H     1 <1>   0.0800 
 28 H       -0.4760    -7.0150    -1.1450 H     1 <1>   0.0800 
 29 H       -1.3720    -6.2690    -2.4510 H     1 <1>   0.0800 
 30 H       -2.2240    -7.0940    -1.1680 H     1 <1>   0.0800 
 31 H       -4.9620    -0.2700    -2.6170 H     1 <1>   0.0800 
 32 H       -5.2570    -1.9820    -2.6780 H     1 <1>   0.0800 
 33 H       -6.8220    -1.3470     1.9440 H     1 <1>   0.0800 
 34 H       -7.0940    -0.8730    -1.4820 H     1 <1>   0.0800 
 35 H       -5.9660    -0.1050    -0.4090 H     1 <1>   0.0800 
 36 H       -7.4630    -3.2520    -1.4090 H     1 <1>   0.0800 
 37 H       -5.9330    -4.0400    -1.1370 H     1 <1>   0.0800 
 38 H       -8.7120    -2.0230    -0.0250 H     1 <1>   0.4000 
 39 H       -6.7790    -3.6820     2.3980 H     1 <1>   0.0800 
 40 H       -8.4890    -3.4590     2.1370 H     1 <1>   0.0800 
 41 H       -6.7810    -5.1740     0.6930 H     1 <1>   0.0800 
 42 H       -8.3600    -4.6700     0.1270 H     1 <1>   0.0800 
@<TRIPOS>BOND
  1   1   2  ar  
  2   2   3  ar  
  3   2   4  1   
  4   4   5  ar  
  5   4   6  ar  
  6   5   7  ar  
  7   5   8  1   
  8   6   9  ar  
  9   6  22  1   
 10   7  10  ar  
 11   8  11  1   
 12   8  12  1   
 13   9  10  ar  
 14   9  23  1   
 15  10  13  1   
 16  11  14  1   
 17  11  24  1   
 18  11  25  1   
 19  12  15  1   
 20  12  26  1   
 21  12  27  1   
 22  13  28  1   
 23  13  29  1   
 24  13  30  1   
 25  14  16  1   
 26  14  17  1   
 27  14  18  1   
 28  15  17  1   
 29  15  31  1   
 30  15  32  1   
 31  16  19  1   
 32  16  20  1   
 33  16  33  1   
 34  17  34  1   
 35  17  35  1   
 36  18  21  1   
 37  18  36  1   
 38  18  37  1   
 39  19  38  1   
 40  20  21  1   
 41  20  39  1   
 42  20  40  1   
 43  21  41  1   
 44  21  42  1   
@<TRIPOS>SUBSTRUCTURE
  1 ****   8 GROUP 4 **** **** 0

# MOE 2024.06 (io_trps.svl 2023.06)
