@<TRIPOS>MOLECULE
NONAME
48 50 1 0 0 
SMALL
USER_CHARGES


@<TRIPOS>ATOM
  1 S        0.2820    -0.4150    -0.4400 S.o2  1 <1>   1.2040 
  2 O       -0.7020     0.3870    -1.1390 O.2   1 <1>  -0.6500 
  3 O        0.9290    -1.4950    -1.1450 O.2   1 <1>  -0.6500 
  4 C        1.4610     0.6020     0.4750 C.ar  1 <1>  -0.0090 
  5 C       -0.6510    -1.2160     0.8450 C.3   1 <1>  -0.0550 
  6 C        2.6840     0.0840     0.8840 C.ar  1 <1>  -0.1500 
  7 C        1.1580     1.9140     0.8220 C.ar  1 <1>  -0.1500 
  8 C       -1.6300    -2.1980     0.2040 C.3   1 <1>   0.3430 
  9 C        3.5730     0.8450     1.6230 C.ar  1 <1>  -0.1500 
 10 C        2.0420     2.6810     1.5610 C.ar  1 <1>  -0.1500 
 11 N       -2.6710    -1.5160    -0.6350 N.4   1 <1>  -0.9590 
 12 C        3.2510     2.1450     1.9630 C.ar  1 <1>  -0.1500 
 13 C       -3.7410    -0.8520     0.1760 C.3   1 <1>   0.4230 
 14 C       -3.1530    -2.4430    -1.7080 C.3   1 <1>   0.2630 
 15 C       -4.7390    -1.8390     0.7910 C.3   1 <1>  -0.1600 
 16 C       -4.5930     0.0790    -0.6870 C.3   1 <1>  -0.1600 
 17 C       -5.9280    -1.9330    -0.1790 C.3   1 <1>  -0.0800 
 18 C       -5.8450    -0.7120    -1.1020 C.3   1 <1>  -0.0800 
 19 C       -7.3170    -1.8990     0.4760 C.3   1 <1>  -0.1600 
 20 C       -7.1770     0.0380    -0.9570 C.3   1 <1>  -0.1600 
 21 C       -8.1480    -1.0190    -0.4500 C.3   1 <1>   0.2000 
 22 O       -9.1780    -0.4300     0.2470 O.3   1 <1>  -0.6800 
 23 H        0.0180    -1.7660     1.4780 H     1 <1>   0.0800 
 24 H       -1.1720    -0.5000     1.4500 H     1 <1>   0.0800 
 25 H        2.9550    -0.9250     0.6200 H     1 <1>   0.1500 
 26 H        0.2250     2.3510     0.5100 H     1 <1>   0.1500 
 27 H       -2.1090    -2.7860     0.9700 H     1 <1>   0.0800 
 28 H       -1.0610    -2.8730    -0.4180 H     1 <1>   0.0800 
 29 H        4.5180     0.4280     1.9300 H     1 <1>   0.1500 
 30 H        1.7940     3.6970     1.8200 H     1 <1>   0.1500 
 31 H       -2.1880    -0.7370    -1.1360 H     1 <1>   0.4500 
 32 H        3.9420     2.7400     2.5370 H     1 <1>   0.1500 
 33 H       -3.2760    -0.2730     0.9580 H     1 <1>   0.0800 
 34 H       -3.6790    -3.2790    -1.2760 H     1 <1>   0.0800 
 35 H       -2.3190    -2.8170    -2.2800 H     1 <1>   0.0800 
 36 H       -3.8170    -1.9250    -2.3800 H     1 <1>   0.0800 
 37 H       -4.3130    -2.8040     1.0010 H     1 <1>   0.0800 
 38 H       -5.0710    -1.4160     1.7220 H     1 <1>   0.0800 
 39 H       -4.8810     0.9120    -0.0710 H     1 <1>   0.0800 
 40 H       -4.0570     0.4680    -1.5350 H     1 <1>   0.0800 
 41 H       -5.8500    -2.8250    -0.7790 H     1 <1>   0.0800 
 42 H       -5.7490    -1.0520    -2.1200 H     1 <1>   0.0800 
 43 H       -7.2720    -1.4500     1.4520 H     1 <1>   0.0800 
 44 H       -7.7430    -2.8840     0.5550 H     1 <1>   0.0800 
 45 H       -7.5050     0.4470    -1.8970 H     1 <1>   0.0800 
 46 H       -7.0950     0.8290    -0.2320 H     1 <1>   0.0800 
 47 H       -8.5600    -1.5920    -1.2640 H     1 <1>   0.0800 
 48 H       -8.8300     0.1100     0.9800 H     1 <1>   0.4000 
@<TRIPOS>BOND
  1   1   2  2   
  2   1   3  2   
  3   1   4  1   
  4   1   5  1   
  5   4   6  ar  
  6   4   7  ar  
  7   5   8  1   
  8   5  23  1   
  9   5  24  1   
 10   6   9  ar  
 11   6  25  1   
 12   7  10  ar  
 13   7  26  1   
 14   8  11  1   
 15   8  27  1   
 16   8  28  1   
 17   9  12  ar  
 18   9  29  1   
 19  10  12  ar  
 20  10  30  1   
 21  11  13  1   
 22  11  14  1   
 23  11  31  1   
 24  12  32  1   
 25  13  15  1   
 26  13  16  1   
 27  13  33  1   
 28  14  34  1   
 29  14  35  1   
 30  14  36  1   
 31  15  17  1   
 32  15  37  1   
 33  15  38  1   
 34  16  18  1   
 35  16  39  1   
 36  16  40  1   
 37  17  18  1   
 38  17  19  1   
 39  17  41  1   
 40  18  20  1   
 41  18  42  1   
 42  19  21  1   
 43  19  43  1   
 44  19  44  1   
 45  20  21  1   
 46  20  45  1   
 47  20  46  1   
 48  21  22  1   
 49  21  47  1   
 50  22  48  1   
@<TRIPOS>SUBSTRUCTURE
  1 ****  11 GROUP 4 **** **** 0

# MOE 2024.06 (io_trps.svl 2023.06)
