@<TRIPOS>MOLECULE
NONAME
47 49 1 0 0 
SMALL
USER_CHARGES


@<TRIPOS>ATOM
  1 CL      -1.5100    -0.2400     2.7570 Cl    1 <1>  -0.1770 
  2 C       -2.6030    -0.6880     1.4750 C.ar  1 <1>   0.1770 
  3 C       -2.7480    -2.0210     1.1450 C.ar  1 <1>  -0.1500 
  4 C       -3.3090     0.3010     0.8090 C.ar  1 <1>  -0.1500 
  5 C       -3.6250    -2.3350     0.1270 C.ar  1 <1>   0.1900 
  6 C       -4.1830    -0.0420    -0.2130 C.ar  1 <1>  -0.1500 
  7 F       -3.7860    -3.5920    -0.1890 F     1 <1>  -0.1900 
  8 C       -4.3510    -1.3760    -0.5650 C.ar  1 <1>  -0.1440 
  9 C       -5.2930    -1.7880    -1.6800 C.3   1 <1>   0.4870 
 10 N       -6.6920    -1.7500    -1.1840 N.4   1 <1>  -0.9590 
 11 C       -6.9780    -2.7400    -0.1140 C.3   1 <1>   0.3430 
 12 C       -7.7000    -1.8230    -2.2770 C.3   1 <1>   0.3430 
 13 C       -8.2900    -2.3730     0.5870 C.3   1 <1>  -0.1600 
 14 C       -9.1280    -1.8510    -1.7160 C.3   1 <1>  -0.1600 
 15 C       -9.2190    -1.4490    -0.2300 C.3   1 <1>   0.2800 
 16 O       -8.6530    -0.1520    -0.1460 O.3   1 <1>  -0.5600 
 17 C      -10.6700    -1.5080     0.3410 C.3   1 <1>   0.2000 
 18 C       -9.4230     0.8940     0.3820 C.3   1 <1>   0.1200 
 19 O      -11.2640    -2.7470     0.0790 O.3   1 <1>  -0.6800 
 20 C      -11.5850    -0.3220    -0.0950 C.3   1 <1>   0.2800 
 21 C      -10.7610     0.9490    -0.3570 C.3   1 <1>  -0.1600 
 22 O      -12.4120    -0.0580     0.9770 O.3   1 <1>  -0.6800 
 23 C      -12.5320    -0.6020    -1.2720 C.3   1 <1>  -0.2400 
 24 H       -2.1950    -2.7820     1.6660 H     1 <1>   0.1500 
 25 H       -3.1670     1.3300     1.0930 H     1 <1>   0.1500 
 26 H       -4.7210     0.7410    -0.7240 H     1 <1>   0.1500 
 27 H       -5.0490    -2.7790    -2.0260 H     1 <1>   0.0800 
 28 H       -5.1790    -1.1040    -2.5050 H     1 <1>   0.0800 
 29 H       -6.8640    -0.8320    -0.7320 H     1 <1>   0.4500 
 30 H       -7.0600    -3.7240    -0.5470 H     1 <1>   0.0800 
 31 H       -6.1820    -2.7560     0.6130 H     1 <1>   0.0800 
 32 H       -7.5950    -0.9570    -2.9100 H     1 <1>   0.0800 
 33 H       -7.5360    -2.7020    -2.8790 H     1 <1>   0.0800 
 34 H       -8.0770    -1.9140     1.5360 H     1 <1>   0.0800 
 35 H       -8.7980    -3.2970     0.8030 H     1 <1>   0.0800 
 36 H       -9.5140    -2.8480    -1.8360 H     1 <1>   0.0800 
 37 H       -9.7460    -1.2100    -2.3150 H     1 <1>   0.0800 
 38 H      -10.5720    -1.4550     1.4130 H     1 <1>   0.0800 
 39 H       -9.5620     0.7340     1.4390 H     1 <1>   0.0800 
 40 H       -8.8760     1.8100     0.2390 H     1 <1>   0.0800 
 41 H      -12.1540    -2.7570     0.4900 H     1 <1>   0.4000 
 42 H      -10.5480     1.0470    -1.4060 H     1 <1>   0.0800 
 43 H      -11.3090     1.8260    -0.0600 H     1 <1>   0.0800 
 44 H      -13.0860     0.6010     0.7230 H     1 <1>   0.4000 
 45 H      -11.9780    -0.8990    -2.1420 H     1 <1>   0.0800 
 46 H      -13.0960     0.2780    -1.5240 H     1 <1>   0.0800 
 47 H      -13.2180    -1.3950    -1.0320 H     1 <1>   0.0800 
@<TRIPOS>BOND
  1   1   2  1   
  2   2   3  ar  
  3   2   4  ar  
  4   3   5  ar  
  5   3  24  1   
  6   4   6  ar  
  7   4  25  1   
  8   5   7  1   
  9   5   8  ar  
 10   6   8  ar  
 11   6  26  1   
 12   8   9  1   
 13   9  10  1   
 14   9  27  1   
 15   9  28  1   
 16  10  11  1   
 17  10  12  1   
 18  10  29  1   
 19  11  13  1   
 20  11  30  1   
 21  11  31  1   
 22  12  14  1   
 23  12  32  1   
 24  12  33  1   
 25  13  15  1   
 26  13  34  1   
 27  13  35  1   
 28  14  15  1   
 29  14  36  1   
 30  14  37  1   
 31  15  16  1   
 32  15  17  1   
 33  16  18  1   
 34  17  19  1   
 35  17  20  1   
 36  17  38  1   
 37  18  21  1   
 38  18  39  1   
 39  18  40  1   
 40  19  41  1   
 41  20  21  1   
 42  20  22  1   
 43  20  23  1   
 44  21  42  1   
 45  21  43  1   
 46  22  44  1   
 47  23  45  1   
 48  23  46  1   
 49  23  47  1   
@<TRIPOS>SUBSTRUCTURE
  1 ****  10 GROUP 4 **** **** 0

# MOE 2024.06 (io_trps.svl 2023.06)
