@<TRIPOS>MOLECULE
NONAME
49 51 1 0 0 
SMALL
USER_CHARGES


@<TRIPOS>ATOM
  1 O        0.0120    -1.2400     1.7500 O.3   1 <1>  -0.6800 
  2 C        0.5370    -2.2240     0.9320 C.3   1 <1>   0.2000 
  3 C        1.8880    -1.8310     0.3060 C.3   1 <1>   0.0000 
  4 C       -0.3980    -2.5090    -0.2400 C.3   1 <1>  -0.1600 
  5 C        3.0330    -2.0310     1.3180 C.3   1 <1>   0.2090 
  6 C        1.9160    -0.3650    -0.2120 C.3   1 <1>  -0.1600 
  7 C        1.9570    -2.8220    -0.8720 C.3   1 <1>  -0.1600 
  8 C        0.5180    -2.9610    -1.3870 C.3   1 <1>  -0.1600 
  9 N        4.3560    -1.6950     0.6930 N.pl3 1 <1>  -0.8380 
 10 C        3.3130     0.0620    -0.7010 C.3   1 <1>  -0.1600 
 11 C        5.3720    -2.5580     0.4420 C.ar  1 <1>   0.4100 
 12 C        4.4010    -0.2400     0.3350 C.3   1 <1>   0.2090 
 13 N        6.5100    -2.0470    -0.0540 N.ar  1 <1>  -0.6200 
 14 C        5.2880    -3.9400     0.6690 C.ar  1 <1>  -0.1500 
 15 C        7.5090    -2.8370    -0.3000 C.ar  1 <1>   0.5280 
 16 C        6.3540    -4.7460     0.4010 C.ar  1 <1>   0.2180 
 17 N        7.4680    -4.1680    -0.0870 N.ar  1 <1>  -0.1790 
 18 C        8.7910    -2.2330    -0.8560 C.3   1 <1>  -0.0170 
 19 C        6.3360    -6.2490     0.6250 C.3   1 <1>  -0.0970 
 20 C        9.9390    -2.2500     0.1680 C.3   1 <1>  -0.1600 
 21 C       11.2110    -1.6250    -0.4160 C.3   1 <1>  -0.2400 
 22 H       -0.9000    -1.4710     2.0100 H     1 <1>   0.4000 
 23 H        0.6510    -3.1200     1.5200 H     1 <1>   0.0800 
 24 H       -1.1100    -3.2750     0.0120 H     1 <1>   0.0800 
 25 H       -0.9150    -1.6120    -0.5330 H     1 <1>   0.0800 
 26 H        3.0120    -3.0300     1.7040 H     1 <1>   0.0800 
 27 H        2.8700    -1.3720     2.1550 H     1 <1>   0.0800 
 28 H        1.1990    -0.2240    -1.0000 H     1 <1>   0.0800 
 29 H        1.6400     0.2970     0.5910 H     1 <1>   0.0800 
 30 H        2.6310    -2.5080    -1.6480 H     1 <1>   0.0800 
 31 H        2.2860    -3.7810    -0.5130 H     1 <1>   0.0800 
 32 H        0.3130    -3.9770    -1.6780 H     1 <1>   0.0800 
 33 H        0.3690    -2.3220    -2.2410 H     1 <1>   0.0800 
 34 H        3.3090     1.1170    -0.9060 H     1 <1>   0.0800 
 35 H        3.5600    -0.4410    -1.6180 H     1 <1>   0.0800 
 36 H        4.2280     0.3460     1.2220 H     1 <1>   0.0800 
 37 H        5.3560     0.0530    -0.0630 H     1 <1>   0.0800 
 38 H        4.3830    -4.3650     1.0500 H     1 <1>   0.1500 
 39 H        8.2950    -4.7230    -0.3010 H     1 <1>   0.4570 
 40 H        9.0800    -2.7620    -1.7460 H     1 <1>   0.0800 
 41 H        8.5950    -1.2130    -1.1410 H     1 <1>   0.0800 
 42 H        5.3820    -6.5610     1.0150 H     1 <1>   0.0800 
 43 H        7.0950    -6.5340     1.3320 H     1 <1>   0.0800 
 44 H        6.5040    -6.7700    -0.3020 H     1 <1>   0.0800 
 45 H        9.6470    -1.6890     1.0410 H     1 <1>   0.0800 
 46 H       10.1600    -3.2560     0.4780 H     1 <1>   0.0800 
 47 H       11.0350    -0.6020    -0.7010 H     1 <1>   0.0800 
 48 H       11.5480    -2.1710    -1.2800 H     1 <1>   0.0800 
 49 H       11.9970    -1.6360     0.3190 H     1 <1>   0.0800 
@<TRIPOS>BOND
  1   1   2  1   
  2   1  22  1   
  3   2   3  1   
  4   2   4  1   
  5   2  23  1   
  6   3   5  1   
  7   3   6  1   
  8   3   7  1   
  9   4   8  1   
 10   4  24  1   
 11   4  25  1   
 12   5   9  1   
 13   5  26  1   
 14   5  27  1   
 15   6  10  1   
 16   6  28  1   
 17   6  29  1   
 18   7   8  1   
 19   7  30  1   
 20   7  31  1   
 21   8  32  1   
 22   8  33  1   
 23   9  11  1   
 24   9  12  1   
 25  10  12  1   
 26  10  34  1   
 27  10  35  1   
 28  11  13  ar  
 29  11  14  ar  
 30  12  36  1   
 31  12  37  1   
 32  13  15  ar  
 33  14  16  ar  
 34  14  38  1   
 35  15  17  ar  
 36  15  18  1   
 37  16  17  ar  
 38  16  19  1   
 39  17  39  1   
 40  18  20  1   
 41  18  40  1   
 42  18  41  1   
 43  19  42  1   
 44  19  43  1   
 45  19  44  1   
 46  20  21  1   
 47  20  45  1   
 48  20  46  1   
 49  21  47  1   
 50  21  48  1   
 51  21  49  1   
@<TRIPOS>SUBSTRUCTURE
  1 ****  11 GROUP 4 **** **** 0

# MOE 2024.06 (io_trps.svl 2023.06)
