@<TRIPOS>MOLECULE
NONAME
55 58 1 0 0 
SMALL
USER_CHARGES


@<TRIPOS>ATOM
  1 S        0.7270     0.1120    -1.7200 S.o2  1 <1>   1.4470 
  2 O        0.1860    -0.9030    -2.5990 O.2   1 <1>  -0.6500 
  3 O        1.6310     1.0870    -2.2950 O.2   1 <1>  -0.6500 
  4 N       -0.6040     0.9530    -1.0930 N.am  1 <1>  -0.8490 
  5 C        1.5050    -0.6850    -0.2890 C.ar  1 <1>  -0.0090 
  6 C       -1.6340     0.0790    -0.4690 C.3   1 <1>   0.1960 
  7 C       -1.2440     1.7960    -2.0820 C.3   1 <1>   0.1960 
  8 C        1.9650     0.0570     0.7940 C.ar  1 <1>   0.0830 
  9 C        1.6650    -2.0650    -0.2390 C.ar  1 <1>  -0.1500 
 10 C       -3.0680     0.6240     0.0380 C.3   1 <1>   0.0000 
 11 C       -2.2450     2.6880    -1.3500 C.3   1 <1>  -0.1600 
 12 O        1.8280     1.3970     0.8170 O.3   1 <1>  -0.3630 
 13 C        2.5490    -0.5610     1.8900 C.ar  1 <1>  -0.1500 
 14 C        2.2580    -2.7080     0.8460 C.ar  1 <1>  -0.0230 
 15 C       -4.5340     1.0960     0.4820 C.3   1 <1>   0.2000 
 16 C       -2.5710     2.1430     0.0540 C.3   1 <1>  -0.1600 
 17 C       -3.5960    -0.8830     0.1110 C.3   1 <1>  -0.1600 
 18 C        2.9690     2.1570     0.4910 C.3   1 <1>   0.0400 
 19 C        2.6950    -1.9330     1.9160 C.ar  1 <1>  -0.1500 
 20 N        2.4080    -4.1270     0.8560 N.pl3 1 <1>   0.5930 
 21 O       -4.5630     1.2080     1.8820 O.3   1 <1>  -0.5600 
 22 C       -5.6630     0.1550     0.0440 C.3   1 <1>  -0.1600 
 23 C       -4.9440    -1.0050    -0.5610 C.3   1 <1>  -0.1600 
 24 N        1.5160    -4.9760     0.2850 N.2   1 <1>  -0.7070 
 25 C        3.4250    -4.8380     1.4050 C.2   1 <1>  -0.3020 
 26 C       -5.4720     2.1340     2.3920 C.3   1 <1>   0.0400 
 27 C        1.9830    -6.1670     0.4900 C.2   1 <1>   0.1390 
 28 C        3.1820    -6.1470     1.1910 C.2   1 <1>  -0.1500 
 29 H       -1.8020    -0.6410    -1.2540 H     1 <1>   0.0800 
 30 H       -1.1660    -0.4320     0.3570 H     1 <1>   0.0800 
 31 H       -0.5130     2.4090    -2.5840 H     1 <1>   0.0800 
 32 H       -1.7430     1.1840    -2.8160 H     1 <1>   0.0800 
 33 H        1.3160    -2.6620    -1.0670 H     1 <1>   0.1500 
 34 H       -1.8180     3.6710    -1.2510 H     1 <1>   0.0800 
 35 H       -3.1400     2.7790    -1.9390 H     1 <1>   0.0800 
 36 H        2.8770     0.0400     2.7200 H     1 <1>   0.1500 
 37 H       -4.8340     2.0380     0.0500 H     1 <1>   0.0800 
 38 H       -3.1680     2.8960     0.5440 H     1 <1>   0.0800 
 39 H       -1.6870     2.2000     0.6730 H     1 <1>   0.0800 
 40 H       -3.0170    -1.7190    -0.2490 H     1 <1>   0.0800 
 41 H       -3.7190    -1.1230     1.1570 H     1 <1>   0.0800 
 42 H        2.6870     3.1940     0.4790 H     1 <1>   0.0800 
 43 H        3.3210     1.8630    -0.4830 H     1 <1>   0.0800 
 44 H        3.7280     1.9870     1.2330 H     1 <1>   0.0800 
 45 H        3.1420    -2.3990     2.7770 H     1 <1>   0.1500 
 46 H       -6.2490    -0.1680     0.8870 H     1 <1>   0.0800 
 47 H       -6.3010     0.6190    -0.6860 H     1 <1>   0.0800 
 48 H       -5.4280    -1.9410    -0.3410 H     1 <1>   0.0800 
 49 H       -4.8390    -0.8830    -1.6260 H     1 <1>   0.0800 
 50 H        4.2520    -4.3710     1.9050 H     1 <1>   0.1500 
 51 H       -5.4090     2.1040     3.4660 H     1 <1>   0.0800 
 52 H       -6.4680     1.8730     2.0810 H     1 <1>   0.0800 
 53 H       -5.2100     3.1170     2.0420 H     1 <1>   0.0800 
 54 H        1.4900    -7.0640     0.1510 H     1 <1>   0.1500 
 55 H        3.7630    -7.0060     1.4790 H     1 <1>   0.1500 
@<TRIPOS>BOND
  1   1   2  2   
  2   1   3  2   
  3   1   4  am  
  4   1   5  1   
  5   4   6  1   
  6   4   7  1   
  7   5   8  ar  
  8   5   9  ar  
  9   6  10  1   
 10   6  29  1   
 11   6  30  1   
 12   7  11  1   
 13   7  31  1   
 14   7  32  1   
 15   8  12  1   
 16   8  13  ar  
 17   9  14  ar  
 18   9  33  1   
 19  10  15  1   
 20  10  16  1   
 21  10  17  1   
 22  11  16  1   
 23  11  34  1   
 24  11  35  1   
 25  12  18  1   
 26  13  19  ar  
 27  13  36  1   
 28  14  19  ar  
 29  14  20  1   
 30  15  21  1   
 31  15  22  1   
 32  15  37  1   
 33  16  38  1   
 34  16  39  1   
 35  17  23  1   
 36  17  40  1   
 37  17  41  1   
 38  18  42  1   
 39  18  43  1   
 40  18  44  1   
 41  19  45  1   
 42  20  24  1   
 43  20  25  1   
 44  21  26  1   
 45  22  23  1   
 46  22  46  1   
 47  22  47  1   
 48  23  48  1   
 49  23  49  1   
 50  24  27  2   
 51  25  28  2   
 52  25  50  1   
 53  26  51  1   
 54  26  52  1   
 55  26  53  1   
 56  27  28  1   
 57  27  54  1   
 58  28  55  1   
@<TRIPOS>SUBSTRUCTURE
  1 ****   6 GROUP 4 **** **** 0

# MOE 2024.06 (io_trps.svl 2023.06)
