@<TRIPOS>MOLECULE
NONAME
53 56 1 0 0 
SMALL
USER_CHARGES


@<TRIPOS>ATOM
  1 F        0.7930     0.6480     1.3160 F     1 <1>  -0.1900 
  2 C        1.8010     1.2010     0.6940 C.ar  1 <1>   0.1900 
  3 C        3.0610     0.6670     0.8610 C.ar  1 <1>  -0.1500 
  4 C        1.5600     2.2970    -0.1090 C.ar  1 <1>  -0.1500 
  5 C        4.1590     1.2290     0.2070 C.ar  1 <1>   0.0860 
  6 C        2.6340     2.8780    -0.7560 C.ar  1 <1>  -0.1500 
  7 C        5.4660     0.6180     0.3690 C.2   1 <1>   0.5440 
  8 C        3.9150     2.3650    -0.5900 C.ar  1 <1>   0.0830 
  9 O        5.7550     0.0530     1.4050 O.2   1 <1>  -0.5700 
 10 N        6.3920     0.6370    -0.6370 N.am  1 <1>  -0.7300 
 11 O        4.9080     3.0110    -1.2330 O.3   1 <1>  -0.3630 
 12 C        7.6820    -0.0980    -0.6430 C.3   1 <1>   0.1400 
 13 C        5.7280     3.8480    -0.4450 C.3   1 <1>   0.1200 
 14 C        8.8730     0.8660    -0.5200 C.3   1 <1>  -0.0800 
 15 C        6.8360     4.4120    -1.3350 C.3   1 <1>   0.0960 
 16 C       10.2000     0.1070    -0.6360 C.3   1 <1>  -0.1600 
 17 C        8.8580     1.6470     0.8090 C.3   1 <1>  -0.1600 
 18 N        7.9520     4.9430    -0.5310 N.pl3 1 <1>   0.3140 
 19 C       11.3780     1.0850    -0.7170 C.3   1 <1>   0.1400 
 20 C       10.2350     2.1310     1.2940 C.3   1 <1>   0.1400 
 21 N        7.8450     5.3340     0.7450 N.2   1 <1>  -0.4180 
 22 C        9.2230     5.0390    -0.9170 C.2   1 <1>  -0.3020 
 23 N       11.2170     2.2750     0.1740 N.am  1 <1>  -0.6600 
 24 N        9.0150     5.6630     1.1700 N.2   1 <1>  -0.2270 
 25 C        9.8760     5.4890     0.1630 C.2   1 <1>   0.0460 
 26 C       12.0320     3.3620    -0.0390 C.2   1 <1>   0.5690 
 27 C       11.3570     5.7660     0.3090 C.3   1 <1>   0.0210 
 28 O       12.7680     3.4120    -0.9980 O.2   1 <1>  -0.5700 
 29 C       12.0960     4.5590     0.8980 C.3   1 <1>  -0.0990 
 30 H        3.1950    -0.1910     1.4970 H     1 <1>   0.1500 
 31 H        0.5600     2.6800    -0.2190 H     1 <1>   0.1500 
 32 H        2.4840     3.7360    -1.3880 H     1 <1>   0.1500 
 33 H        6.1520     1.1460    -1.4910 H     1 <1>   0.3700 
 34 H        7.7550    -0.6540    -1.5610 H     1 <1>   0.0800 
 35 H        7.7030    -0.8040     0.1710 H     1 <1>   0.0800 
 36 H        6.1400     3.2600     0.3560 H     1 <1>   0.0800 
 37 H        5.1230     4.6400    -0.0370 H     1 <1>   0.0800 
 38 H        8.8280     1.5670    -1.3360 H     1 <1>   0.0800 
 39 H        6.4490     5.2040    -1.9490 H     1 <1>   0.0800 
 40 H        7.2260     3.6300    -1.9590 H     1 <1>   0.0800 
 41 H       10.2060    -0.5100    -1.5180 H     1 <1>   0.0800 
 42 H       10.3300    -0.5400     0.2140 H     1 <1>   0.0800 
 43 H        8.4380     1.0350     1.5880 H     1 <1>   0.0800 
 44 H        8.2110     2.4950     0.7130 H     1 <1>   0.0800 
 45 H       11.4640     1.4330    -1.7340 H     1 <1>   0.0800 
 46 H       12.2940     0.5770    -0.4680 H     1 <1>   0.0800 
 47 H       10.6320     1.4150     1.9920 H     1 <1>   0.0800 
 48 H       10.0920     3.0570     1.8190 H     1 <1>   0.0800 
 49 H        9.5860     4.7800    -1.8940 H     1 <1>   0.1500 
 50 H       11.4940     6.6250     0.9420 H     1 <1>   0.0800 
 51 H       11.7690     5.9960    -0.6570 H     1 <1>   0.0800 
 52 H       13.1310     4.8200     1.0180 H     1 <1>   0.0800 
 53 H       11.7200     4.3280     1.8740 H     1 <1>   0.0800 
@<TRIPOS>BOND
  1   1   2  1   
  2   2   3  ar  
  3   2   4  ar  
  4   3   5  ar  
  5   3  30  1   
  6   4   6  ar  
  7   4  31  1   
  8   5   7  1   
  9   5   8  ar  
 10   6   8  ar  
 11   6  32  1   
 12   7   9  2   
 13   7  10  am  
 14   8  11  1   
 15  10  12  1   
 16  10  33  1   
 17  11  13  1   
 18  12  14  1   
 19  12  34  1   
 20  12  35  1   
 21  13  15  1   
 22  13  36  1   
 23  13  37  1   
 24  14  16  1   
 25  14  17  1   
 26  14  38  1   
 27  15  18  1   
 28  15  39  1   
 29  15  40  1   
 30  16  19  1   
 31  16  41  1   
 32  16  42  1   
 33  17  20  1   
 34  17  43  1   
 35  17  44  1   
 36  18  21  1   
 37  18  22  1   
 38  19  23  1   
 39  19  45  1   
 40  19  46  1   
 41  20  23  1   
 42  20  47  1   
 43  20  48  1   
 44  21  24  2   
 45  22  25  2   
 46  22  49  1   
 47  23  26  am  
 48  24  25  1   
 49  25  27  1   
 50  26  28  2   
 51  26  29  1   
 52  27  29  1   
 53  27  50  1   
 54  27  51  1   
 55  29  52  1   
 56  29  53  1   
@<TRIPOS>SUBSTRUCTURE
  1 ****  17 GROUP 4 **** **** 0

# MOE 2024.06 (io_trps.svl 2023.06)
