@<TRIPOS>MOLECULE
NONAME
51 53 1 0 0 
SMALL
USER_CHARGES


@<TRIPOS>ATOM
  1 O       -0.9390     0.8020     0.8880 O.2   1 <1>  -0.5700 
  2 C       -0.6680     1.9690     0.7680 C.2   1 <1>   0.5690 
  3 N       -1.6040     2.9210     0.9670 N.am  1 <1>  -0.7300 
  4 C        0.7400     2.3950     0.3490 C.3   1 <1>   0.1810 
  5 C       -1.3740     4.3710     0.7500 C.3   1 <1>   0.3640 
  6 O        1.0160     3.7400     0.6780 O.3   1 <1>  -0.5600 
  7 C       -2.4560     4.8810    -0.1990 C.ar  1 <1>  -0.1440 
  8 C        0.0500     4.6770     0.2070 C.3   1 <1>   0.2610 
  9 C       -3.1500     6.0440     0.1030 C.ar  1 <1>  -0.1500 
 10 C       -2.7620     4.2030    -1.3730 C.ar  1 <1>  -0.1500 
 11 C        0.4690     6.0980     0.6060 C.2   1 <1>   0.5690 
 12 C       -4.1290     6.5220    -0.7490 C.ar  1 <1>  -0.1500 
 13 C       -3.7410     4.6800    -2.2270 C.ar  1 <1>  -0.1500 
 14 O       -0.1520     7.0550     0.2050 O.2   1 <1>  -0.5700 
 15 N        1.5580     6.2700     1.4070 N.am  1 <1>  -0.7300 
 16 C       -4.4260     5.8400    -1.9150 C.ar  1 <1>  -0.1500 
 17 C        2.0340     7.5660     1.9210 C.3   1 <1>   0.1400 
 18 C        2.7990     8.2860     0.8090 C.3   1 <1>  -0.1600 
 19 C        3.0120     9.7540     1.1660 C.3   1 <1>   0.3430 
 20 N        3.4770    10.5080    -0.0300 N.4   1 <1>  -0.9590 
 21 C        4.8720    10.1270    -0.4580 C.3   1 <1>   0.3430 
 22 C        3.3920    11.9930     0.2020 C.3   1 <1>   0.3430 
 23 C        5.3680    11.0070    -1.6210 C.3   1 <1>   0.1200 
 24 C        3.9560    12.7870    -0.9930 C.3   1 <1>   0.1200 
 25 O        5.2540    12.3600    -1.2870 O.3   1 <1>  -0.5600 
 26 H       -2.5590     2.6320     1.1860 H     1 <1>   0.3700 
 27 H        0.8540     2.2720    -0.7120 H     1 <1>   0.0800 
 28 H        1.4620     1.7780     0.8520 H     1 <1>   0.0800 
 29 H       -1.4860     4.8630     1.7010 H     1 <1>   0.0800 
 30 H        0.0410     4.6220    -0.8660 H     1 <1>   0.0800 
 31 H       -2.9280     6.5950     1.0010 H     1 <1>   0.1500 
 32 H       -2.2430     3.2960    -1.6330 H     1 <1>   0.1500 
 33 H       -4.6590     7.4270    -0.5060 H     1 <1>   0.1500 
 34 H       -3.9710     4.1480    -3.1330 H     1 <1>   0.1500 
 35 H        2.0570     5.4180     1.6930 H     1 <1>   0.3700 
 36 H       -5.1870     6.2120    -2.5780 H     1 <1>   0.1500 
 37 H        1.1760     8.1480     2.2200 H     1 <1>   0.0800 
 38 H        2.6590     7.4070     2.7850 H     1 <1>   0.0800 
 39 H        2.2170     8.2340    -0.0950 H     1 <1>   0.0800 
 40 H        3.7400     7.7890     0.6580 H     1 <1>   0.0800 
 41 H        3.7260     9.8440     1.9700 H     1 <1>   0.0800 
 42 H        2.0730    10.1660     1.5010 H     1 <1>   0.0800 
 43 H        2.8410    10.2830    -0.8080 H     1 <1>   0.4500 
 44 H        5.5520    10.2460     0.3690 H     1 <1>   0.0800 
 45 H        4.8970     9.0940    -0.7620 H     1 <1>   0.0800 
 46 H        2.3670    12.2820     0.3680 H     1 <1>   0.0800 
 47 H        3.9580    12.2580     1.0790 H     1 <1>   0.0800 
 48 H        4.8040    10.8220    -2.5200 H     1 <1>   0.0800 
 49 H        6.4060    10.8070    -1.8220 H     1 <1>   0.0800 
 50 H        4.0040    13.8350    -0.7510 H     1 <1>   0.0800 
 51 H        3.3420    12.6650    -1.8690 H     1 <1>   0.0800 
@<TRIPOS>BOND
  1   1   2  2   
  2   2   3  am  
  3   2   4  1   
  4   3   5  1   
  5   3  26  1   
  6   4   6  1   
  7   4  27  1   
  8   4  28  1   
  9   5   7  1   
 10   5   8  1   
 11   5  29  1   
 12   6   8  1   
 13   7   9  ar  
 14   7  10  ar  
 15   8  11  1   
 16   8  30  1   
 17   9  12  ar  
 18   9  31  1   
 19  10  13  ar  
 20  10  32  1   
 21  11  14  2   
 22  11  15  am  
 23  12  16  ar  
 24  12  33  1   
 25  13  16  ar  
 26  13  34  1   
 27  15  17  1   
 28  15  35  1   
 29  16  36  1   
 30  17  18  1   
 31  17  37  1   
 32  17  38  1   
 33  18  19  1   
 34  18  39  1   
 35  18  40  1   
 36  19  20  1   
 37  19  41  1   
 38  19  42  1   
 39  20  21  1   
 40  20  22  1   
 41  20  43  1   
 42  21  23  1   
 43  21  44  1   
 44  21  45  1   
 45  22  24  1   
 46  22  46  1   
 47  22  47  1   
 48  23  25  1   
 49  23  48  1   
 50  23  49  1   
 51  24  25  1   
 52  24  50  1   
 53  24  51  1   
@<TRIPOS>SUBSTRUCTURE
  1 ****  14 GROUP 4 **** **** 0

# MOE 2024.06 (io_trps.svl 2023.06)
