@<TRIPOS>MOLECULE
NONAME
62 65 1 0 0 
SMALL
USER_CHARGES


@<TRIPOS>ATOM
  1 O        0.1620    -1.1880     1.0090 O.2   1 <1>  -0.5700 
  2 C        1.3370    -1.4720     0.8380 C.2   1 <1>   0.5440 
  3 N        1.8180    -2.5960     1.4940 N.am  1 <1>  -0.6600 
  4 C        2.1450    -0.6370    -0.0630 C.ar  1 <1>   0.3960 
  5 C        1.1210    -3.1720     2.6740 C.3   1 <1>   0.1400 
  6 C        3.0020    -3.3800     1.0520 C.3   1 <1>   0.1400 
  7 N        3.4500    -0.4180     0.1900 N.ar  1 <1>  -0.6200 
  8 C        1.5260    -0.0660    -1.1780 C.ar  1 <1>  -0.1500 
  9 C        0.6000    -4.5640     2.3190 C.3   1 <1>  -0.1600 
 10 C        2.5510    -4.7900     0.6600 C.3   1 <1>  -0.1600 
 11 C        4.1090     0.3520    -0.6560 C.ar  1 <1>   0.1600 
 12 C        2.2250     0.7320    -2.0560 C.ar  1 <1>  -0.1500 
 13 C        1.7290    -5.4680     1.7790 C.3   1 <1>  -0.0190 
 14 C        3.5560     0.9410    -1.7780 C.ar  1 <1>  -0.1500 
 15 C        1.2450    -6.8810     1.4250 C.2   1 <1>   0.5690 
 16 O        1.4610    -7.7450     2.2430 O.2   1 <1>  -0.5700 
 17 N        0.5820    -7.2060     0.2620 N.am  1 <1>  -0.6600 
 18 C        0.3350    -8.6380    -0.0610 C.3   1 <1>   0.1400 
 19 C       -0.2700    -6.2840    -0.5400 C.3   1 <1>   0.1400 
 20 C       -1.1260    -8.9820     0.3000 C.3   1 <1>   0.4230 
 21 C       -1.7370    -6.5840    -0.2010 C.3   1 <1>  -0.1600 
 22 N       -1.4530   -10.4670     0.2240 N.4   1 <1>  -0.9590 
 23 C       -2.1420    -8.0680    -0.4520 C.3   1 <1>   0.0000 
 24 C       -2.9200   -10.7690     0.1670 C.3   1 <1>   0.3430 
 25 C       -0.7280   -11.2360    -0.8410 C.3   1 <1>   0.2630 
 26 C       -3.5680    -8.3030     0.1310 C.3   1 <1>  -0.1600 
 27 C       -2.1220    -8.3820    -1.9750 C.3   1 <1>   0.1200 
 28 C       -3.7350    -9.6630     0.8370 C.3   1 <1>  -0.1600 
 29 O       -2.8410    -7.4490    -2.7020 O.3   1 <1>  -0.6800 
 30 H        1.8160    -3.2350     3.4940 H     1 <1>   0.0800 
 31 H        0.3040    -2.5410     2.9820 H     1 <1>   0.0800 
 32 H        3.4810    -2.9200     0.2070 H     1 <1>   0.0800 
 33 H        3.7150    -3.4240     1.8580 H     1 <1>   0.0800 
 34 H        0.4800    -0.2550    -1.3450 H     1 <1>   0.1500 
 35 H        0.1760    -5.0120     3.2000 H     1 <1>   0.0800 
 36 H       -0.1920    -4.4460     1.6060 H     1 <1>   0.0800 
 37 H        1.9880    -4.7140    -0.2490 H     1 <1>   0.0800 
 38 H        3.4200    -5.3870     0.4470 H     1 <1>   0.0800 
 39 H        5.1510     0.5270    -0.4450 H     1 <1>   0.1500 
 40 H        1.7510     1.1740    -2.9170 H     1 <1>   0.1500 
 41 H        2.4140    -5.5970     2.5990 H     1 <1>   0.0800 
 42 H        4.1610     1.5570    -2.4200 H     1 <1>   0.1500 
 43 H        0.5340    -8.7940    -1.1050 H     1 <1>   0.0800 
 44 H        1.0050    -9.2640     0.5020 H     1 <1>   0.0800 
 45 H       -0.0580    -5.2550    -0.3250 H     1 <1>   0.0800 
 46 H       -0.0850    -6.4360    -1.5900 H     1 <1>   0.0800 
 47 H       -1.2200    -8.7090     1.3390 H     1 <1>   0.0800 
 48 H       -1.8810    -6.3350     0.8370 H     1 <1>   0.0800 
 49 H       -2.3650    -5.9150    -0.7630 H     1 <1>   0.0800 
 50 H       -1.1230   -10.8390     1.1290 H     1 <1>   0.4500 
 51 H       -3.2360   -10.8490    -0.8600 H     1 <1>   0.0800 
 52 H       -3.1200   -11.7130     0.6500 H     1 <1>   0.0800 
 53 H       -0.9920   -10.8680    -1.8190 H     1 <1>   0.0800 
 54 H       -0.9870   -12.2810    -0.7870 H     1 <1>   0.0800 
 55 H        0.3390   -11.1470    -0.7130 H     1 <1>   0.0800 
 56 H       -3.8150    -7.5380     0.8480 H     1 <1>   0.0800 
 57 H       -4.3030    -8.2220    -0.6510 H     1 <1>   0.0800 
 58 H       -2.5470    -9.3470    -2.1860 H     1 <1>   0.0800 
 59 H       -1.1220    -8.3610    -2.3690 H     1 <1>   0.0800 
 60 H       -4.7760    -9.9360     0.8310 H     1 <1>   0.0800 
 61 H       -3.4380    -9.5830     1.8690 H     1 <1>   0.0800 
 62 H       -3.7880    -7.4370    -2.4590 H     1 <1>   0.4000 
@<TRIPOS>BOND
  1   1   2  2   
  2   2   3  am  
  3   2   4  1   
  4   3   5  1   
  5   3   6  1   
  6   4   7  ar  
  7   4   8  ar  
  8   5   9  1   
  9   5  30  1   
 10   5  31  1   
 11   6  10  1   
 12   6  32  1   
 13   6  33  1   
 14   7  11  ar  
 15   8  12  ar  
 16   8  34  1   
 17   9  13  1   
 18   9  35  1   
 19   9  36  1   
 20  10  13  1   
 21  10  37  1   
 22  10  38  1   
 23  11  14  ar  
 24  11  39  1   
 25  12  14  ar  
 26  12  40  1   
 27  13  15  1   
 28  13  41  1   
 29  14  42  1   
 30  15  16  2   
 31  15  17  am  
 32  17  18  1   
 33  17  19  1   
 34  18  20  1   
 35  18  43  1   
 36  18  44  1   
 37  19  21  1   
 38  19  45  1   
 39  19  46  1   
 40  20  22  1   
 41  20  23  1   
 42  20  47  1   
 43  21  23  1   
 44  21  48  1   
 45  21  49  1   
 46  22  24  1   
 47  22  25  1   
 48  22  50  1   
 49  23  26  1   
 50  23  27  1   
 51  24  28  1   
 52  24  51  1   
 53  24  52  1   
 54  25  53  1   
 55  25  54  1   
 56  25  55  1   
 57  26  28  1   
 58  26  56  1   
 59  26  57  1   
 60  27  29  1   
 61  27  58  1   
 62  27  59  1   
 63  28  60  1   
 64  28  61  1   
 65  29  62  1   
@<TRIPOS>SUBSTRUCTURE
  1 ****  19 GROUP 4 **** **** 0

# MOE 2024.06 (io_trps.svl 2023.06)
