@<TRIPOS>MOLECULE
NONAME
47 50 1 0 0 
SMALL
USER_CHARGES


@<TRIPOS>ATOM
  1 O        1.2550    -0.5040    -1.9170 O.2   1 <1>  -0.5700 
  2 C        1.9570    -0.8290    -0.9750 C.2   1 <1>   0.5440 
  3 N        2.8470     0.1240    -0.5000 N.am  1 <1>  -0.6600 
  4 C        1.8310    -2.1830    -0.4270 C.ar  1 <1>   0.3960 
  5 C        3.4880     0.0250     0.8680 C.3   1 <1>   0.2200 
  6 C        3.2230     1.2730    -1.3870 C.3   1 <1>   0.1400 
  7 N        2.9490    -2.8220     0.0420 N.ar  1 <1>  -0.6200 
  8 C        0.6070    -2.8110    -0.4010 C.ar  1 <1>  -0.1500 
  9 C        3.4080     1.3460     1.6510 C.3   1 <1>   0.1200 
 10 C        4.9440    -0.4900     0.7740 C.3   1 <1>   0.3430 
 11 C        4.5580     1.9640    -1.0460 C.3   1 <1>  -0.0800 
 12 C        2.8100    -4.0240     0.5150 C.ar  1 <1>   0.1600 
 13 C        0.4410    -4.1050     0.1120 C.ar  1 <1>   0.0000 
 14 O        4.4900     2.1780     1.3660 O.3   1 <1>  -0.5600 
 15 N        5.4910    -0.3730    -0.6200 N.4   1 <1>  -0.9590 
 16 C        4.4320     2.8870     0.1750 C.3   1 <1>   0.1200 
 17 C        5.7990     1.0480    -0.9650 C.3   1 <1>   0.3430 
 18 C        1.5960    -4.7380     0.5920 C.ar  1 <1>   0.0000 
 19 C       -0.7910    -4.7830     0.1680 C.ar  1 <1>  -0.1500 
 20 C        6.7600    -1.2050    -0.7140 C.3   1 <1>   0.2370 
 21 C        1.4850    -6.0400     1.1210 C.ar  1 <1>  -0.1500 
 22 C       -0.8730    -6.0470     0.6860 C.ar  1 <1>  -0.1500 
 23 C        7.8690    -0.7830     0.2540 C.2   1 <1>   0.9060 
 24 C        0.2760    -6.6820     1.1680 C.ar  1 <1>  -0.1500 
 25 O        8.6380     0.1130    -0.1050 O.co2 1 <1>  -0.9000 
 26 O        7.8590    -1.2700     1.3880 O.co2 1 <1>  -0.9000 
 27 H        2.9310    -0.6820     1.4550 H     1 <1>   0.0800 
 28 H        3.2780     0.9130    -2.4010 H     1 <1>   0.0800 
 29 H        2.4260     1.9970    -1.3570 H     1 <1>   0.0800 
 30 H       -0.2580    -2.3020    -0.7860 H     1 <1>   0.1500 
 31 H        3.4680     1.1290     2.7040 H     1 <1>   0.0800 
 32 H        2.4830     1.8650     1.4660 H     1 <1>   0.0800 
 33 H        4.9550    -1.5260     1.0680 H     1 <1>   0.0800 
 34 H        5.5760     0.0410     1.4690 H     1 <1>   0.0800 
 35 H        4.7500     2.6350    -1.8640 H     1 <1>   0.0800 
 36 H        3.6890    -4.5270     0.8810 H     1 <1>   0.1500 
 37 H        4.7580    -0.7310    -1.2440 H     1 <1>   0.4500 
 38 H        3.5190     3.4580     0.1520 H     1 <1>   0.0800 
 39 H        5.2580     3.5780     0.1910 H     1 <1>   0.0800 
 40 H        6.4950     1.4490    -0.2420 H     1 <1>   0.0800 
 41 H        6.2970     1.0630    -1.9200 H     1 <1>   0.0800 
 42 H       -1.6710    -4.2900    -0.2060 H     1 <1>   0.1500 
 43 H        6.5340    -2.2340    -0.5040 H     1 <1>   0.0800 
 44 H        7.1650    -1.1420    -1.7070 H     1 <1>   0.0800 
 45 H        2.3690    -6.5290     1.4900 H     1 <1>   0.1500 
 46 H       -1.8160    -6.5660     0.7290 H     1 <1>   0.1500 
 47 H        0.1930    -7.6760     1.5730 H     1 <1>   0.1500 
@<TRIPOS>BOND
  1   1   2  2   
  2   2   3  am  
  3   2   4  1   
  4   3   5  1   
  5   3   6  1   
  6   4   7  ar  
  7   4   8  ar  
  8   5   9  1   
  9   5  10  1   
 10   5  27  1   
 11   6  11  1   
 12   6  28  1   
 13   6  29  1   
 14   7  12  ar  
 15   8  13  ar  
 16   8  30  1   
 17   9  14  1   
 18   9  31  1   
 19   9  32  1   
 20  10  15  1   
 21  10  33  1   
 22  10  34  1   
 23  11  16  1   
 24  11  17  1   
 25  11  35  1   
 26  12  18  ar  
 27  12  36  1   
 28  13  18  ar  
 29  13  19  ar  
 30  14  16  1   
 31  15  17  1   
 32  15  20  1   
 33  15  37  1   
 34  16  38  1   
 35  16  39  1   
 36  17  40  1   
 37  17  41  1   
 38  18  21  ar  
 39  19  22  ar  
 40  19  42  1   
 41  20  23  1   
 42  20  43  1   
 43  20  44  1   
 44  21  24  ar  
 45  21  45  1   
 46  22  24  ar  
 47  22  46  1   
 48  23  25  ar  
 49  23  26  ar  
 50  24  47  1   
@<TRIPOS>SUBSTRUCTURE
  1 ****   7 GROUP 4 **** **** 0

# MOE 2024.06 (io_trps.svl 2023.06)
