@<TRIPOS>MOLECULE
NONAME
38 40 1 0 0 
SMALL
USER_CHARGES


@<TRIPOS>ATOM
  1 S       -0.5240     1.7990    -1.5490 S.3   1 <1>  -0.0800 
  2 C        0.0700     1.9960     0.0930 C.2   1 <1>  -0.0450 
  3 C       -2.1710     1.5950    -0.9800 C.2   1 <1>  -0.1100 
  4 C       -0.9470     1.9060     0.9720 C.2   1 <1>  -0.1500 
  5 C        1.5640     2.2290     0.2680 C.3   1 <1>   0.0850 
  6 C       -2.2220     1.6770     0.3620 C.2   1 <1>  -0.1500 
  7 C        1.9720     3.6000    -0.2860 C.2   1 <1>   0.6300 
  8 C        2.5110     1.0570     0.3080 C.3   1 <1>  -0.1900 
  9 C        2.1950     1.7870     1.5720 C.3   1 <1>  -0.2000 
 10 O        2.5120     3.7000    -1.3640 O.2   1 <1>  -0.5700 
 11 N        1.7140     4.7030     0.4680 N.am  1 <1>  -0.7300 
 12 C        3.9350     1.1800    -0.2550 C.3   1 <1>  -0.1450 
 13 C        1.9700    -0.3700     0.1380 C.3   1 <1>  -0.1450 
 14 C        1.9220     6.0990     0.0110 C.3   1 <1>   0.1400 
 15 C        3.4160     6.4140    -0.0890 C.3   1 <1>   0.0960 
 16 N        3.5950     7.7850    -0.5850 N.pl3 1 <1>   0.3140 
 17 N        3.3570     8.8560     0.1600 N.2   1 <1>  -0.7070 
 18 C        3.9860     8.1860    -1.7970 C.2   1 <1>   0.0370 
 19 C        3.6270     9.8240    -0.6530 C.2   1 <1>   0.3660 
 20 N        4.0210     9.4670    -1.8820 N.2   1 <1>  -0.5650 
 21 H       -2.9340     1.4330    -1.7210 H     1 <1>   0.1500 
 22 H       -0.8590     1.9880     2.0400 H     1 <1>   0.1500 
 23 H       -3.1130     1.5850     0.9600 H     1 <1>   0.1500 
 24 H        1.5890     1.2910     2.3100 H     1 <1>   0.1000 
 25 H        2.9570     2.4030     2.0150 H     1 <1>   0.1000 
 26 H        1.1910     4.5820     1.3380 H     1 <1>   0.3700 
 27 H        4.3540     2.1500    -0.0550 H     1 <1>   0.0800 
 28 H        3.9200     1.0330    -1.3200 H     1 <1>   0.0800 
 29 H        4.5780     0.4400     0.1880 H     1 <1>   0.0800 
 30 H        1.0090    -0.4850     0.6070 H     1 <1>   0.0800 
 31 H        2.6450    -1.0810     0.5810 H     1 <1>   0.0800 
 32 H        1.8650    -0.6000    -0.9080 H     1 <1>   0.0800 
 33 H        1.4530     6.7760     0.7060 H     1 <1>   0.0800 
 34 H        1.4620     6.2190    -0.9560 H     1 <1>   0.0800 
 35 H        3.8990     5.7370    -0.7680 H     1 <1>   0.0800 
 36 H        3.8750     6.3410     0.8790 H     1 <1>   0.0800 
 37 H        4.2350     7.5030    -2.5900 H     1 <1>   0.1500 
 38 H        3.5460    10.8650    -0.3820 H     1 <1>   0.1500 
@<TRIPOS>BOND
  1   1   2  1   
  2   1   3  1   
  3   2   4  2   
  4   2   5  1   
  5   3   6  2   
  6   3  21  1   
  7   4   6  1   
  8   4  22  1   
  9   5   7  1   
 10   5   8  1   
 11   5   9  1   
 12   6  23  1   
 13   7  10  2   
 14   7  11  am  
 15   8   9  1   
 16   8  12  1   
 17   8  13  1   
 18   9  24  1   
 19   9  25  1   
 20  11  14  1   
 21  11  26  1   
 22  12  27  1   
 23  12  28  1   
 24  12  29  1   
 25  13  30  1   
 26  13  31  1   
 27  13  32  1   
 28  14  15  1   
 29  14  33  1   
 30  14  34  1   
 31  15  16  1   
 32  15  35  1   
 33  15  36  1   
 34  16  17  1   
 35  16  18  1   
 36  17  19  2   
 37  18  20  2   
 38  18  37  1   
 39  19  20  1   
 40  19  38  1   
@<TRIPOS>SUBSTRUCTURE
  1 ****   7 GROUP 4 **** **** 0

# MOE 2024.06 (io_trps.svl 2023.06)
