@<TRIPOS>MOLECULE
NONAME
46 48 1 0 0 
SMALL
USER_CHARGES


@<TRIPOS>ATOM
  1 CL       2.9610     0.6770    -1.8580 Cl    1 <1>  -0.1770 
  2 C        1.7290     1.8700    -1.5090 C.ar  1 <1>   0.1770 
  3 C        1.6210     2.4660    -0.2560 C.ar  1 <1>  -0.1440 
  4 C        0.8720     2.2010    -2.5430 C.ar  1 <1>  -0.1500 
  5 C        0.6290     3.4210    -0.0720 C.ar  1 <1>  -0.1500 
  6 C        2.5390     2.1380     0.9210 C.3   1 <1>   0.3640 
  7 C       -0.1140     3.1500    -2.3390 C.ar  1 <1>  -0.1500 
  8 C       -0.2320     3.7590    -1.1030 C.ar  1 <1>  -0.1500 
  9 N        2.4570     0.6950     1.2410 N.am  1 <1>  -0.7300 
 10 C        3.9980     2.5900     0.6710 C.3   1 <1>   0.2610 
 11 C        3.5280    -0.0310     1.6350 C.2   1 <1>   0.5690 
 12 O        4.8630     2.0410     1.6520 O.3   1 <1>  -0.5600 
 13 C        4.0760     4.1260     0.6360 C.2   1 <1>   0.5690 
 14 O        3.4030    -1.1870     1.9500 O.2   1 <1>  -0.5700 
 15 C        4.9130     0.6280     1.6570 C.3   1 <1>   0.1810 
 16 O        3.4410     4.7400     1.4670 O.2   1 <1>  -0.5700 
 17 N        4.8140     4.7970    -0.3160 N.am  1 <1>  -0.6600 
 18 C        4.8700     6.2890    -0.3030 C.3   1 <1>   0.2840 
 19 C        5.6100     4.1490    -1.3970 C.3   1 <1>   0.1400 
 20 C        6.2200     6.7590     0.2090 C.ar  1 <1>  -0.1430 
 21 C        6.9290     3.6110    -0.8440 C.3   1 <1>  -0.2400 
 22 C        7.1160     7.4000    -0.6330 C.ar  1 <1>   0.1600 
 23 C        6.5780     6.5500     1.5260 C.ar  1 <1>  -0.1500 
 24 N        8.3140     7.8350    -0.2770 N.ar  1 <1>  -0.6200 
 25 C        7.8210     6.9990     1.9170 C.ar  1 <1>  -0.1500 
 26 C        8.6370     7.6250     0.9900 C.ar  1 <1>   0.1600 
 27 H        0.9770     1.7190    -3.4980 H     1 <1>   0.1500 
 28 H        0.5190     3.9150     0.8800 H     1 <1>   0.1500 
 29 H        2.1800     2.6660     1.7890 H     1 <1>   0.0800 
 30 H       -0.7860     3.4130    -3.1380 H     1 <1>   0.1500 
 31 H       -0.9970     4.5000    -0.9410 H     1 <1>   0.1500 
 32 H        1.5380     0.2510     1.2270 H     1 <1>   0.3700 
 33 H        4.3200     2.2040    -0.2720 H     1 <1>   0.0800 
 34 H        5.4720     0.3070     0.7980 H     1 <1>   0.0800 
 35 H        5.4370     0.3230     2.5440 H     1 <1>   0.0800 
 36 H        4.6940     6.6610    -1.2970 H     1 <1>   0.0800 
 37 H        4.0980     6.6960     0.3280 H     1 <1>   0.0800 
 38 H        5.0430     3.3540    -1.8490 H     1 <1>   0.0800 
 39 H        5.8210     4.8670    -2.1730 H     1 <1>   0.0800 
 40 H        6.7590     2.8880    -0.0690 H     1 <1>   0.0800 
 41 H        7.5280     4.4120    -0.4490 H     1 <1>   0.0800 
 42 H        7.4840     3.1380    -1.6330 H     1 <1>   0.0800 
 43 H        6.8380     7.5630    -1.6590 H     1 <1>   0.1500 
 44 H        5.9140     6.0530     2.2150 H     1 <1>   0.1500 
 45 H        8.1560     6.8640     2.9290 H     1 <1>   0.1500 
 46 H        9.6060     7.9700     1.3070 H     1 <1>   0.1500 
@<TRIPOS>BOND
  1   1   2  1   
  2   2   3  ar  
  3   2   4  ar  
  4   3   5  ar  
  5   3   6  1   
  6   4   7  ar  
  7   4  27  1   
  8   5   8  ar  
  9   5  28  1   
 10   6   9  1   
 11   6  10  1   
 12   6  29  1   
 13   7   8  ar  
 14   7  30  1   
 15   8  31  1   
 16   9  11  am  
 17   9  32  1   
 18  10  12  1   
 19  10  13  1   
 20  10  33  1   
 21  11  14  2   
 22  11  15  1   
 23  12  15  1   
 24  13  16  2   
 25  13  17  am  
 26  15  34  1   
 27  15  35  1   
 28  17  18  1   
 29  17  19  1   
 30  18  20  1   
 31  18  36  1   
 32  18  37  1   
 33  19  21  1   
 34  19  38  1   
 35  19  39  1   
 36  20  22  ar  
 37  20  23  ar  
 38  21  40  1   
 39  21  41  1   
 40  21  42  1   
 41  22  24  ar  
 42  22  43  1   
 43  23  25  ar  
 44  23  44  1   
 45  24  26  ar  
 46  25  26  ar  
 47  25  45  1   
 48  26  46  1   
@<TRIPOS>SUBSTRUCTURE
  1 ****  13 GROUP 4 **** **** 0

# MOE 2024.06 (io_trps.svl 2023.06)
