@<TRIPOS>MOLECULE
NONAME
53 56 1 0 0 
SMALL
USER_CHARGES


@<TRIPOS>ATOM
  1 O        1.6430     0.6020     0.2430 O.3   1 <1>  -0.6800 
  2 C        2.3610    -0.0710    -0.7410 C.3   1 <1>   0.2000 
  3 C        2.9430    -1.3460    -0.1270 C.3   1 <1>  -0.0800 
  4 C        3.5970     0.7570    -1.1010 C.3   1 <1>   0.3430 
  5 C        4.3630    -0.9690     0.3370 C.3   1 <1>   0.3430 
  6 C        2.9770    -2.5040    -1.1430 C.3   1 <1>   0.0210 
  7 N        4.5990     0.4620    -0.0280 N.4   1 <1>  -0.9590 
  8 C        3.5170    -3.7750    -0.5160 C.2   1 <1>   0.1080 
  9 C        4.4230     1.3380     1.1720 C.3   1 <1>   0.4860 
 10 N        4.7240    -3.8750    -0.0490 N.2   1 <1>  -0.7070 
 11 C        2.7980    -4.9560    -0.3750 C.2   1 <1>  -0.1500 
 12 C        4.5610     2.7930     0.7860 C.ar  1 <1>  -0.1430 
 13 N        4.8100    -5.1480     0.3970 N.pl3 1 <1>   0.3000 
 14 C        3.6530    -5.8160     0.2140 C.2   1 <1>  -0.3320 
 15 C        5.7830     3.3770     0.5560 C.ar  1 <1>   0.1600 
 16 C        3.4550     3.5970     0.6490 C.ar  1 <1>   0.1600 
 17 C        3.4340    -7.2640     0.6150 C.3   1 <1>  -0.0600 
 18 N        5.8990     4.6310     0.2010 N.ar  1 <1>  -0.6200 
 19 N        3.5490     4.8530     0.2930 N.ar  1 <1>  -0.6200 
 20 C        4.7740     5.3460     0.0800 C.ar  1 <1>   0.6200 
 21 C        4.8910     6.7450    -0.3140 C.ar  1 <1>   0.0000 
 22 C        6.0670     7.4720    -0.1030 C.ar  1 <1>  -0.1500 
 23 C        3.8330     7.4270    -0.9240 C.ar  1 <1>  -0.1500 
 24 C        6.1900     8.8000    -0.4740 C.ar  1 <1>  -0.1430 
 25 C        3.9440     8.7530    -1.3010 C.ar  1 <1>  -0.1500 
 26 C        5.1220     9.4400    -1.0780 C.ar  1 <1>  -0.1500 
 27 C        7.4850     9.5530    -0.2290 C.3   1 <1>  -0.0970 
 28 H        0.7640     0.1860     0.3850 H     1 <1>   0.4000 
 29 H        1.7140    -0.2360    -1.5870 H     1 <1>   0.0800 
 30 H        2.3590    -1.6700     0.7180 H     1 <1>   0.0800 
 31 H        3.3610     1.8050    -1.1790 H     1 <1>   0.0800 
 32 H        3.9800     0.4150    -2.0480 H     1 <1>   0.0800 
 33 H        5.0840    -1.5900    -0.1700 H     1 <1>   0.0800 
 34 H        4.4700    -1.1300     1.3980 H     1 <1>   0.0800 
 35 H        3.5940    -2.2540    -1.9870 H     1 <1>   0.0800 
 36 H        1.9830    -2.6980    -1.5060 H     1 <1>   0.0800 
 37 H        5.5510     0.5840    -0.3950 H     1 <1>   0.4500 
 38 H        3.4500     1.1760     1.6070 H     1 <1>   0.0800 
 39 H        5.1640     1.0940     1.9160 H     1 <1>   0.0800 
 40 H        1.7810    -5.1300    -0.6800 H     1 <1>   0.1500 
 41 H        5.6660    -5.5350     0.8140 H     1 <1>   0.2700 
 42 H        6.6950     2.8120     0.6610 H     1 <1>   0.1500 
 43 H        2.4660     3.2060     0.8290 H     1 <1>   0.1500 
 44 H        2.4340    -7.5710     0.3640 H     1 <1>   0.0800 
 45 H        3.5720    -7.3840     1.6750 H     1 <1>   0.0800 
 46 H        4.1270    -7.9030     0.0960 H     1 <1>   0.0800 
 47 H        6.9040     6.9840     0.3650 H     1 <1>   0.1500 
 48 H        2.9060     6.9140    -1.1070 H     1 <1>   0.1500 
 49 H        3.1130     9.2500    -1.7680 H     1 <1>   0.1500 
 50 H        5.2030    10.4710    -1.3740 H     1 <1>   0.1500 
 51 H        7.2760    10.5640     0.0730 H     1 <1>   0.0800 
 52 H        8.0690     9.5730    -1.1310 H     1 <1>   0.0800 
 53 H        8.0590     9.0800     0.5460 H     1 <1>   0.0800 
@<TRIPOS>BOND
  1   1   2  1   
  2   1  28  1   
  3   2   3  1   
  4   2   4  1   
  5   2  29  1   
  6   3   5  1   
  7   3   6  1   
  8   3  30  1   
  9   4   7  1   
 10   4  31  1   
 11   4  32  1   
 12   5   7  1   
 13   5  33  1   
 14   5  34  1   
 15   6   8  1   
 16   6  35  1   
 17   6  36  1   
 18   7   9  1   
 19   7  37  1   
 20   8  10  2   
 21   8  11  1   
 22   9  12  1   
 23   9  38  1   
 24   9  39  1   
 25  10  13  1   
 26  11  14  2   
 27  11  40  1   
 28  12  15  ar  
 29  12  16  ar  
 30  13  14  1   
 31  13  41  1   
 32  14  17  1   
 33  15  18  ar  
 34  15  42  1   
 35  16  19  ar  
 36  16  43  1   
 37  17  44  1   
 38  17  45  1   
 39  17  46  1   
 40  18  20  ar  
 41  19  20  ar  
 42  20  21  1   
 43  21  22  ar  
 44  21  23  ar  
 45  22  24  ar  
 46  22  47  1   
 47  23  25  ar  
 48  23  48  1   
 49  24  26  ar  
 50  24  27  1   
 51  25  26  ar  
 52  25  49  1   
 53  26  50  1   
 54  27  51  1   
 55  27  52  1   
 56  27  53  1   
@<TRIPOS>SUBSTRUCTURE
  1 ****  12 GROUP 4 **** **** 0

# MOE 2024.06 (io_trps.svl 2023.06)
