@<TRIPOS>MOLECULE
NONAME
54 56 1 0 0 
SMALL
USER_CHARGES


@<TRIPOS>ATOM
  1 O        0.5860    -0.8280     1.3200 O.3   1 <1>  -0.5600 
  2 C        0.4470    -1.1720    -0.0250 C.3   1 <1>   0.2000 
  3 C       -0.5580    -0.2820     1.9030 C.3   1 <1>   0.0400 
  4 C        1.8290    -1.4010    -0.6540 C.3   1 <1>   0.0000 
  5 C       -0.3080    -2.4950    -0.1880 C.3   1 <1>  -0.1600 
  6 C        2.7440    -2.1640     0.3420 C.3   1 <1>   0.3430 
  7 C        2.4670    -0.0710    -1.1110 C.3   1 <1>  -0.1600 
  8 C        1.4940    -2.3170    -1.8420 C.3   1 <1>  -0.1600 
  9 C        0.3800    -3.2410    -1.3400 C.3   1 <1>  -0.1600 
 10 N        4.1410    -1.6270     0.3800 N.4   1 <1>  -0.9590 
 11 C        3.8870    -0.2770    -1.6750 C.3   1 <1>  -0.1600 
 12 C        4.6870    -1.3890    -0.9840 C.3   1 <1>   0.3430 
 13 C        5.0310    -2.4680     1.2180 C.3   1 <1>   0.5240 
 14 C        6.3630    -1.7670     1.3480 C.2   1 <1>  -0.1810 
 15 C        7.5510    -2.0250     0.7510 C.2   1 <1>  -0.3320 
 16 C        6.5990    -0.6560     2.1480 C.2   1 <1>   0.1390 
 17 N        8.4210    -1.0850     1.1980 N.pl3 1 <1>   0.3140 
 18 C        7.9260    -3.1300    -0.2270 C.3   1 <1>  -0.0600 
 19 N        7.8190    -0.2410     2.0530 N.2   1 <1>  -0.7070 
 20 C        9.8520    -0.9260     0.8550 C.3   1 <1>   0.0960 
 21 C       10.0250    -0.0470    -0.3920 C.3   1 <1>  -0.1600 
 22 C       11.5050     0.1100    -0.7600 C.3   1 <1>  -0.2400 
 23 H       -0.0670    -0.3810    -0.5480 H     1 <1>   0.0800 
 24 H       -0.3350    -0.0500     2.9290 H     1 <1>   0.0800 
 25 H       -1.3620    -0.9970     1.8620 H     1 <1>   0.0800 
 26 H       -0.8290     0.6200     1.3810 H     1 <1>   0.0800 
 27 H       -0.2520    -3.0810     0.7130 H     1 <1>   0.0800 
 28 H       -1.3410    -2.3060    -0.4250 H     1 <1>   0.0800 
 29 H        2.7600    -3.2040     0.0640 H     1 <1>   0.0800 
 30 H        2.3270    -2.1090     1.3340 H     1 <1>   0.0800 
 31 H        1.8500     0.4160    -1.8480 H     1 <1>   0.0800 
 32 H        2.5210     0.5900    -0.2620 H     1 <1>   0.0800 
 33 H        1.1040    -1.7270    -2.6550 H     1 <1>   0.0800 
 34 H        2.3410    -2.8730    -2.2040 H     1 <1>   0.0800 
 35 H        0.7960    -4.1660    -0.9760 H     1 <1>   0.0800 
 36 H       -0.3160    -3.4690    -2.1300 H     1 <1>   0.0800 
 37 H        4.0950    -0.7050     0.8280 H     1 <1>   0.4500 
 38 H        4.4330     0.6480    -1.6000 H     1 <1>   0.0800 
 39 H        3.8270    -0.5140    -2.7230 H     1 <1>   0.0800 
 40 H        5.7250    -1.1000    -0.9340 H     1 <1>   0.0800 
 41 H        4.6160    -2.2960    -1.5600 H     1 <1>   0.0800 
 42 H        4.6020    -2.6070     2.1970 H     1 <1>   0.0800 
 43 H        5.1700    -3.4330     0.7610 H     1 <1>   0.0800 
 44 H        5.8730    -0.1740     2.7820 H     1 <1>   0.1500 
 45 H        7.0820    -3.7580    -0.4470 H     1 <1>   0.0800 
 46 H        8.7020    -3.7460     0.1930 H     1 <1>   0.0800 
 47 H        8.2860    -2.7070    -1.1490 H     1 <1>   0.0800 
 48 H       10.3450    -0.4710     1.6950 H     1 <1>   0.0800 
 49 H       10.2810    -1.8970     0.6960 H     1 <1>   0.0800 
 50 H        9.5010    -0.4860    -1.2220 H     1 <1>   0.0800 
 51 H        9.6060     0.9250    -0.1970 H     1 <1>   0.0800 
 52 H       11.9470    -0.8460    -0.9760 H     1 <1>   0.0800 
 53 H       12.0470     0.5700     0.0490 H     1 <1>   0.0800 
 54 H       11.6020     0.7350    -1.6300 H     1 <1>   0.0800 
@<TRIPOS>BOND
  1   1   2  1   
  2   1   3  1   
  3   2   4  1   
  4   2   5  1   
  5   2  23  1   
  6   3  24  1   
  7   3  25  1   
  8   3  26  1   
  9   4   6  1   
 10   4   7  1   
 11   4   8  1   
 12   5   9  1   
 13   5  27  1   
 14   5  28  1   
 15   6  10  1   
 16   6  29  1   
 17   6  30  1   
 18   7  11  1   
 19   7  31  1   
 20   7  32  1   
 21   8   9  1   
 22   8  33  1   
 23   8  34  1   
 24   9  35  1   
 25   9  36  1   
 26  10  12  1   
 27  10  13  1   
 28  10  37  1   
 29  11  12  1   
 30  11  38  1   
 31  11  39  1   
 32  12  40  1   
 33  12  41  1   
 34  13  14  1   
 35  13  42  1   
 36  13  43  1   
 37  14  15  2   
 38  14  16  1   
 39  15  17  1   
 40  15  18  1   
 41  16  19  2   
 42  16  44  1   
 43  17  19  1   
 44  17  20  1   
 45  18  45  1   
 46  18  46  1   
 47  18  47  1   
 48  20  21  1   
 49  20  48  1   
 50  20  49  1   
 51  21  22  1   
 52  21  50  1   
 53  21  51  1   
 54  22  52  1   
 55  22  53  1   
 56  22  54  1   
@<TRIPOS>SUBSTRUCTURE
  1 ****  10 GROUP 4 **** **** 0

# MOE 2024.06 (io_trps.svl 2023.06)
