@<TRIPOS>MOLECULE
NONAME
73 78 1 0 0 
SMALL
USER_CHARGES


@<TRIPOS>ATOM
  1 O       -0.1300    -0.2290    -0.8810 O.3   1 <1>  -0.5600 
  2 C       -0.9640    -0.5140     0.2170 C.3   1 <1>   0.5600 
  3 C        1.2180     0.0500    -0.6380 C.3   1 <1>   0.1200 
  4 O       -1.3990    -1.8120    -0.0030 O.3   1 <1>  -0.5600 
  5 C       -2.2400     0.3570     0.1660 C.3   1 <1>  -0.0800 
  6 C       -0.2250    -0.4630     1.5680 C.3   1 <1>  -0.1600 
  7 C        1.8690    -1.0450     0.2310 C.3   1 <1>  -0.0800 
  8 C       -2.4210    -1.7800    -0.9380 C.3   1 <1>   0.2000 
  9 C       -3.2320    -0.5210    -0.6140 C.3   1 <1>  -0.0800 
 10 C       -2.0700     1.7520    -0.4680 C.3   1 <1>  -0.2400 
 11 C        1.0810    -1.2750     1.5380 C.3   1 <1>  -0.1600 
 12 C        2.0130    -2.3520    -0.5640 C.3   1 <1>  -0.2400 
 13 C       -3.3500    -2.9900    -0.7800 C.3   1 <1>  -0.1600 
 14 C       -4.5160    -1.0550     0.0740 C.3   1 <1>   0.0000 
 15 C       -4.7370    -2.3460    -0.7210 C.3   1 <1>  -0.0800 
 16 C       -5.7590    -0.1800    -0.1420 C.3   1 <1>  -0.1600 
 17 C       -4.3100    -1.3170     1.5940 C.3   1 <1>  -0.2400 
 18 C       -5.9420    -3.1830    -0.2520 C.3   1 <1>  -0.0800 
 19 C       -7.0460    -0.9040     0.3080 C.3   1 <1>  -0.1600 
 20 C       -7.2470    -2.3310    -0.2960 C.3   1 <1>  -0.0800 
 21 C       -6.0790    -4.4300    -1.1380 C.3   1 <1>  -0.0220 
 22 C       -8.4960    -3.1260     0.2520 C.3   1 <1>   0.1380 
 23 C       -7.4170    -5.1050    -0.9450 C.2   1 <1>  -0.2880 
 24 C       -8.4740    -4.5590    -0.3340 C.2   1 <1>  -0.2760 
 25 C       -9.8260    -2.4200    -0.1970 C.3   1 <1>   0.2000 
 26 C       -8.4400    -3.2860     1.7920 C.3   1 <1>  -0.2400 
 27 C       -9.7580    -5.3720    -0.1830 C.3   1 <1>  -0.0220 
 28 O      -10.0670    -1.2540     0.5150 O.3   1 <1>  -0.6800 
 29 C      -11.1030    -3.2550    -0.0450 C.3   1 <1>  -0.1600 
 30 C      -10.9480    -4.5990    -0.7440 C.3   1 <1>   0.2000 
 31 O      -12.1010    -5.3320    -0.5390 O.3   1 <1>  -0.6800 
 32 H        1.7130     0.1210    -1.5900 H     1 <1>   0.0800 
 33 H        1.2790     1.0090    -0.1520 H     1 <1>   0.0800 
 34 H       -2.5730     0.5140     1.1710 H     1 <1>   0.0800 
 35 H       -0.0100     0.5630     1.8020 H     1 <1>   0.0800 
 36 H       -0.8720    -0.8380     2.3400 H     1 <1>   0.0800 
 37 H        2.8600    -0.7110     0.4860 H     1 <1>   0.0800 
 38 H       -1.9830    -1.7260    -1.9210 H     1 <1>   0.0800 
 39 H       -3.4960    -0.0620    -1.5510 H     1 <1>   0.0800 
 40 H       -1.7580     1.6700    -1.4950 H     1 <1>   0.0800 
 41 H       -1.3280     2.3150     0.0700 H     1 <1>   0.0800 
 42 H       -3.0010     2.2890    -0.4350 H     1 <1>   0.0800 
 43 H        0.8310    -2.3190     1.6360 H     1 <1>   0.0800 
 44 H        1.6870    -1.0090     2.3860 H     1 <1>   0.0800 
 45 H        1.0440    -2.7270    -0.8450 H     1 <1>   0.0800 
 46 H        2.5120    -3.0990     0.0280 H     1 <1>   0.0800 
 47 H        2.5860    -2.1870    -1.4580 H     1 <1>   0.0800 
 48 H       -3.2600    -3.6550    -1.6190 H     1 <1>   0.0800 
 49 H       -3.1330    -3.5200     0.1310 H     1 <1>   0.0800 
 50 H       -4.9610    -2.0550    -1.7350 H     1 <1>   0.0800 
 51 H       -5.6540     0.7440     0.4000 H     1 <1>   0.0800 
 52 H       -5.8530     0.0680    -1.1850 H     1 <1>   0.0800 
 53 H       -5.1000    -1.9030     2.0190 H     1 <1>   0.0800 
 54 H       -4.2910    -0.3910     2.1360 H     1 <1>   0.0800 
 55 H       -3.3890    -1.8370     1.7810 H     1 <1>   0.0800 
 56 H       -5.7690    -3.5240     0.7500 H     1 <1>   0.0800 
 57 H       -7.8680    -0.2740     0.0220 H     1 <1>   0.0800 
 58 H       -7.0440    -0.9480     1.3790 H     1 <1>   0.0800 
 59 H       -7.4390    -2.1660    -1.3420 H     1 <1>   0.0800 
 60 H       -5.2940    -5.1240    -0.8920 H     1 <1>   0.0800 
 61 H       -5.9800    -4.1680    -2.1770 H     1 <1>   0.0800 
 62 H       -7.4320    -6.0980    -1.3620 H     1 <1>   0.1500 
 63 H       -9.7320    -2.1410    -1.2330 H     1 <1>   0.0800 
 64 H       -7.5590    -3.8300     2.0780 H     1 <1>   0.0800 
 65 H       -9.2880    -3.8330     2.1560 H     1 <1>   0.0800 
 66 H       -8.4280    -2.3400     2.2950 H     1 <1>   0.0800 
 67 H       -9.9200    -5.6000     0.8540 H     1 <1>   0.0800 
 68 H       -9.6690    -6.3020    -0.7170 H     1 <1>   0.0800 
 69 H      -10.0720    -1.4500     1.4700 H     1 <1>   0.4000 
 70 H      -11.3130    -3.4140     0.9970 H     1 <1>   0.0800 
 71 H      -11.9220    -2.7230    -0.4950 H     1 <1>   0.0800 
 72 H      -10.8300    -4.4610    -1.8060 H     1 <1>   0.0800 
 73 H      -12.2710    -5.4360     0.4150 H     1 <1>   0.4000 
@<TRIPOS>BOND
  1   1   2  1   
  2   1   3  1   
  3   2   4  1   
  4   2   5  1   
  5   2   6  1   
  6   3   7  1   
  7   3  32  1   
  8   3  33  1   
  9   4   8  1   
 10   5   9  1   
 11   5  10  1   
 12   5  34  1   
 13   6  11  1   
 14   6  35  1   
 15   6  36  1   
 16   7  11  1   
 17   7  12  1   
 18   7  37  1   
 19   8   9  1   
 20   8  13  1   
 21   8  38  1   
 22   9  14  1   
 23   9  39  1   
 24  10  40  1   
 25  10  41  1   
 26  10  42  1   
 27  11  43  1   
 28  11  44  1   
 29  12  45  1   
 30  12  46  1   
 31  12  47  1   
 32  13  15  1   
 33  13  48  1   
 34  13  49  1   
 35  14  15  1   
 36  14  16  1   
 37  14  17  1   
 38  15  18  1   
 39  15  50  1   
 40  16  19  1   
 41  16  51  1   
 42  16  52  1   
 43  17  53  1   
 44  17  54  1   
 45  17  55  1   
 46  18  20  1   
 47  18  21  1   
 48  18  56  1   
 49  19  20  1   
 50  19  57  1   
 51  19  58  1   
 52  20  22  1   
 53  20  59  1   
 54  21  23  1   
 55  21  60  1   
 56  21  61  1   
 57  22  24  1   
 58  22  25  1   
 59  22  26  1   
 60  23  24  2   
 61  23  62  1   
 62  24  27  1   
 63  25  28  1   
 64  25  29  1   
 65  25  63  1   
 66  26  64  1   
 67  26  65  1   
 68  26  66  1   
 69  27  30  1   
 70  27  67  1   
 71  27  68  1   
 72  28  69  1   
 73  29  30  1   
 74  29  70  1   
 75  29  71  1   
 76  30  31  1   
 77  30  72  1   
 78  31  73  1   
@<TRIPOS>SUBSTRUCTURE
  1 ****  15 GROUP 4 **** **** 0

# MOE 2024.06 (io_trps.svl 2023.06)
