@<TRIPOS>MOLECULE
NONAME
51 54 1 0 0 
SMALL
USER_CHARGES


@<TRIPOS>ATOM
  1 O       -1.3550     0.4180     0.6670 O.2   1 <1>  -0.5700 
  2 C       -2.2240     1.2590     0.8620 C.2   1 <1>   0.7160 
  3 N       -3.4910     0.7780     1.1450 N.am  1 <1>  -0.6600 
  4 C       -1.8860     2.6790     0.7610 C.2   1 <1>   0.2030 
  5 C       -3.6970    -0.6400     1.5580 C.3   1 <1>   0.1400 
  6 C       -4.7350     1.4160     0.6280 C.3   1 <1>   0.1400 
  7 N       -2.6100     3.7120     1.1620 N.2   1 <1>  -0.7070 
  8 C       -0.6840     3.1380     0.2140 C.2   1 <1>  -0.1500 
  9 C       -4.1130    -1.4560     0.3130 C.3   1 <1>   0.4230 
 10 C       -5.2270     0.6130    -0.5870 C.3   1 <1>  -0.1600 
 11 N       -1.8760     4.7930     0.8710 N.pl3 1 <1>   0.3000 
 12 C       -0.6960     4.4900     0.2870 C.2   1 <1>  -0.2050 
 13 N       -4.2280    -2.9360     0.5470 N.4   1 <1>  -0.9590 
 14 C       -5.4330    -0.8960    -0.2620 C.3   1 <1>  -0.1060 
 15 C        0.2850     5.4630    -0.1240 C.ar  1 <1>   0.0530 
 16 C       -4.5070    -3.6760    -0.7090 C.3   1 <1>   0.3430 
 17 C       -3.1180    -3.5410     1.3300 C.3   1 <1>   0.2630 
 18 C       -6.5490    -1.0820     0.7840 C.2   1 <1>   0.9060 
 19 C       -5.7840    -1.6450    -1.5700 C.3   1 <1>  -0.1600 
 20 C       -0.0850     6.6870    -0.6780 C.ar  1 <1>  -0.1500 
 21 C        1.6450     5.2020     0.0250 C.ar  1 <1>  -0.1500 
 22 C       -5.7960    -3.1670    -1.3580 C.3   1 <1>  -0.1600 
 23 O       -6.4850    -2.0440     1.5680 O.co2 1 <1>  -0.9000 
 24 O       -7.4810    -0.2810     0.8250 O.co2 1 <1>  -0.9000 
 25 C        0.8640     7.6170    -1.0600 C.ar  1 <1>  -0.1500 
 26 C        2.5990     6.1280    -0.3560 C.ar  1 <1>  -0.1500 
 27 C        2.2100     7.3390    -0.8990 C.ar  1 <1>  -0.1500 
 28 H       -2.7840    -1.0200     1.9760 H     1 <1>   0.0800 
 29 H       -4.4570    -0.6790     2.3190 H     1 <1>   0.0800 
 30 H       -5.4860     1.4220     1.4020 H     1 <1>   0.0800 
 31 H       -4.5610     2.4340     0.3320 H     1 <1>   0.0800 
 32 H        0.0900     2.5060    -0.1850 H     1 <1>   0.1500 
 33 H       -3.3400    -1.3020    -0.4210 H     1 <1>   0.0800 
 34 H       -6.1570     1.0390    -0.9230 H     1 <1>   0.0800 
 35 H       -4.5150     0.7330    -1.3840 H     1 <1>   0.0800 
 36 H       -2.1860     5.7460     1.0940 H     1 <1>   0.2700 
 37 H       -5.1180    -2.9720     1.1160 H     1 <1>   0.4500 
 38 H       -3.6850    -3.5450    -1.3930 H     1 <1>   0.0800 
 39 H       -4.6120    -4.7270    -0.4970 H     1 <1>   0.0800 
 40 H       -2.1810    -3.4010     0.8180 H     1 <1>   0.0800 
 41 H       -3.2920    -4.5960     1.4630 H     1 <1>   0.0800 
 42 H       -3.0580    -3.0840     2.3030 H     1 <1>   0.0800 
 43 H       -6.7530    -1.3230    -1.9150 H     1 <1>   0.0800 
 44 H       -5.0650    -1.4030    -2.3340 H     1 <1>   0.0800 
 45 H       -1.1250     6.9140    -0.8230 H     1 <1>   0.1500 
 46 H        1.9550     4.2640     0.4480 H     1 <1>   0.1500 
 47 H       -5.9330    -3.6580    -2.3050 H     1 <1>   0.0800 
 48 H       -6.6320    -3.4400    -0.7360 H     1 <1>   0.0800 
 49 H        0.5600     8.5570    -1.4860 H     1 <1>   0.1500 
 50 H        3.6450     5.9060    -0.2310 H     1 <1>   0.1500 
 51 H        2.9510     8.0620    -1.1950 H     1 <1>   0.1500 
@<TRIPOS>BOND
  1   1   2  2   
  2   2   3  am  
  3   2   4  1   
  4   3   5  1   
  5   3   6  1   
  6   4   7  2   
  7   4   8  1   
  8   5   9  1   
  9   5  28  1   
 10   5  29  1   
 11   6  10  1   
 12   6  30  1   
 13   6  31  1   
 14   7  11  1   
 15   8  12  2   
 16   8  32  1   
 17   9  13  1   
 18   9  14  1   
 19   9  33  1   
 20  10  14  1   
 21  10  34  1   
 22  10  35  1   
 23  11  12  1   
 24  11  36  1   
 25  12  15  1   
 26  13  16  1   
 27  13  17  1   
 28  13  37  1   
 29  14  18  1   
 30  14  19  1   
 31  15  20  ar  
 32  15  21  ar  
 33  16  22  1   
 34  16  38  1   
 35  16  39  1   
 36  17  40  1   
 37  17  41  1   
 38  17  42  1   
 39  18  23  ar  
 40  18  24  ar  
 41  19  22  1   
 42  19  43  1   
 43  19  44  1   
 44  20  25  ar  
 45  20  45  1   
 46  21  26  ar  
 47  21  46  1   
 48  22  47  1   
 49  22  48  1   
 50  25  27  ar  
 51  25  49  1   
 52  26  27  ar  
 53  26  50  1   
 54  27  51  1   
@<TRIPOS>SUBSTRUCTURE
  1 ****   2 GROUP 4 **** **** 0

# MOE 2024.06 (io_trps.svl 2023.06)
