@<TRIPOS>MOLECULE
NONAME
52 54 1 0 0 
SMALL
USER_CHARGES


@<TRIPOS>ATOM
  1 CL       0.9910     1.1930     1.1080 Cl    1 <1>  -0.1770 
  2 C        1.9060    -0.2860     0.9650 C.ar  1 <1>   0.1770 
  3 C        1.5910    -1.1830    -0.0390 C.ar  1 <1>  -0.1500 
  4 C        2.9310    -0.5380     1.8530 C.ar  1 <1>  -0.1500 
  5 C        2.3120    -2.3620    -0.1780 C.ar  1 <1>  -0.1440 
  6 C        3.6490    -1.7130     1.7280 C.ar  1 <1>  -0.1500 
  7 C        3.3550    -2.6260     0.7240 C.ar  1 <1>   0.0830 
  8 C        1.9080    -3.2720    -1.3280 C.3   1 <1>   0.4870 
  9 O        4.1030    -3.7600     0.7620 O.3   1 <1>  -0.3630 
 10 N        0.9050    -4.3010    -0.9420 N.4   1 <1>  -0.9590 
 11 C        4.7850    -4.3300    -0.3610 C.3   1 <1>   0.0140 
 12 C        1.2930    -5.0320     0.3200 C.3   1 <1>   0.3430 
 13 C        0.6850    -5.2280    -2.0860 C.3   1 <1>   0.3430 
 14 C        4.1160    -5.6080    -0.8570 C.2   1 <1>   0.9060 
 15 C        0.8450    -6.5240     0.3680 C.3   1 <1>   0.4230 
 16 C       -0.4130    -6.2590    -1.7740 C.3   1 <1>  -0.1600 
 17 O        3.8090    -6.5080    -0.0610 O.co2 1 <1>  -0.9000 
 18 O        3.7090    -5.6420    -2.0210 O.co2 1 <1>  -0.9000 
 19 N        0.8400    -7.0830     1.7620 N.4   1 <1>  -0.9590 
 20 C       -0.5570    -6.6180    -0.2620 C.3   1 <1>  -0.1060 
 21 C        0.4470    -8.5100     1.7730 C.3   1 <1>   0.3430 
 22 C        2.1570    -6.8810     2.4380 C.3   1 <1>   0.2630 
 23 C       -1.3700    -5.5520     0.4970 C.2   1 <1>   0.9060 
 24 C       -1.1530    -8.0470    -0.1430 C.3   1 <1>  -0.1600 
 25 C       -0.9860    -8.6510     1.2590 C.3   1 <1>  -0.1600 
 26 O       -1.6800    -4.5060    -0.0870 O.co2 1 <1>  -0.9000 
 27 O       -1.4510    -5.6500     1.7270 O.co2 1 <1>  -0.9000 
 28 H        0.7770    -0.9430    -0.7010 H     1 <1>   0.1500 
 29 H        3.1580     0.1730     2.6270 H     1 <1>   0.1500 
 30 H        4.4460    -1.9310     2.4160 H     1 <1>   0.1500 
 31 H        2.7830    -3.7400    -1.7330 H     1 <1>   0.0800 
 32 H        1.4930    -2.6660    -2.1160 H     1 <1>   0.0800 
 33 H       -0.0360    -3.8880    -0.7260 H     1 <1>   0.4500 
 34 H        4.8370    -3.6050    -1.1500 H     1 <1>   0.0800 
 35 H        5.7800    -4.5740    -0.0440 H     1 <1>   0.0800 
 36 H        2.3480    -4.9950     0.4660 H     1 <1>   0.0800 
 37 H        0.8400    -4.5160     1.1500 H     1 <1>   0.0800 
 38 H        0.4150    -4.6730    -2.9690 H     1 <1>   0.0800 
 39 H        1.5990    -5.7570    -2.2970 H     1 <1>   0.0800 
 40 H        1.5410    -7.0950    -0.2250 H     1 <1>   0.0800 
 41 H       -1.3550    -5.8960    -2.1520 H     1 <1>   0.0800 
 42 H       -0.1760    -7.1340    -2.3510 H     1 <1>   0.0800 
 43 H        0.0580    -6.5510     2.2260 H     1 <1>   0.4500 
 44 H        1.1200    -9.0750     1.1480 H     1 <1>   0.0800 
 45 H        0.5040    -8.8970     2.7770 H     1 <1>   0.0800 
 46 H        2.9380    -7.3810     1.8860 H     1 <1>   0.0800 
 47 H        2.1290    -7.2750     3.4400 H     1 <1>   0.0800 
 48 H        2.4020    -5.8330     2.4890 H     1 <1>   0.0800 
 49 H       -2.1990    -8.0230    -0.4020 H     1 <1>   0.0800 
 50 H       -0.6600    -8.7050    -0.8380 H     1 <1>   0.0800 
 51 H       -1.2490    -9.6930     1.2320 H     1 <1>   0.0800 
 52 H       -1.6580    -8.1730     1.9510 H     1 <1>   0.0800 
@<TRIPOS>BOND
  1   1   2  1   
  2   2   3  ar  
  3   2   4  ar  
  4   3   5  ar  
  5   3  28  1   
  6   4   6  ar  
  7   4  29  1   
  8   5   7  ar  
  9   5   8  1   
 10   6   7  ar  
 11   6  30  1   
 12   7   9  1   
 13   8  10  1   
 14   8  31  1   
 15   8  32  1   
 16   9  11  1   
 17  10  12  1   
 18  10  13  1   
 19  10  33  1   
 20  11  14  1   
 21  11  34  1   
 22  11  35  1   
 23  12  15  1   
 24  12  36  1   
 25  12  37  1   
 26  13  16  1   
 27  13  38  1   
 28  13  39  1   
 29  14  17  ar  
 30  14  18  ar  
 31  15  19  1   
 32  15  20  1   
 33  15  40  1   
 34  16  20  1   
 35  16  41  1   
 36  16  42  1   
 37  19  21  1   
 38  19  22  1   
 39  19  43  1   
 40  20  23  1   
 41  20  24  1   
 42  21  25  1   
 43  21  44  1   
 44  21  45  1   
 45  22  46  1   
 46  22  47  1   
 47  22  48  1   
 48  23  26  ar  
 49  23  27  ar  
 50  24  25  1   
 51  24  49  1   
 52  24  50  1   
 53  25  51  1   
 54  25  52  1   
@<TRIPOS>SUBSTRUCTURE
  1 ****  12 GROUP 4 **** **** 0

# MOE 2024.06 (io_trps.svl 2023.06)
