@<TRIPOS>MOLECULE
NONAME
53 56 1 0 0 
SMALL
USER_CHARGES


@<TRIPOS>ATOM
  1 O        3.5420    -1.4330    -2.6240 O.2   1 <1>  -0.5700 
  2 C        3.2310    -1.1440    -1.4900 C.2   1 <1>   0.5690 
  3 N        3.4720     0.1310    -1.0180 N.am  1 <1>  -0.6600 
  4 C        2.5930    -2.2340    -0.5940 C.3   1 <1>   0.2610 
  5 C        3.2640     0.5590     0.3970 C.3   1 <1>   0.1400 
  6 C        4.1580     1.1350    -1.8720 C.3   1 <1>   0.1400 
  7 O        3.2450    -2.3710     0.6490 O.3   1 <1>  -0.5600 
  8 C        2.6090    -3.6500    -1.1630 C.3   1 <1>  -0.1600 
  9 C        4.5290     0.3380     1.2540 C.3   1 <1>   0.3430 
 10 C        5.6760     0.9200    -1.8270 C.3   1 <1>  -0.1600 
 11 C        2.9770    -3.6240     1.2070 C.3   1 <1>   0.1200 
 12 C        2.4680    -4.5140     0.0770 C.3   1 <1>  -0.1600 
 13 N        5.7800     0.9390     0.6680 N.4   1 <1>  -0.9590 
 14 C        6.2000     0.2150    -0.5730 C.3   1 <1>   0.3430 
 15 C        6.8670     0.9670     1.6660 C.3   1 <1>   0.5230 
 16 C        7.5370     2.3080     1.5290 C.2   1 <1>  -0.3320 
 17 N        8.5880     2.5360     0.6970 N.pl3 1 <1>   0.5930 
 18 C        7.2560     3.4690     2.1600 C.2   1 <1>  -0.1500 
 19 N        8.9480     3.8350     0.7630 N.2   1 <1>  -0.7070 
 20 C        9.1800     1.6060    -0.1990 C.ar  1 <1>  -0.0230 
 21 C        8.1680     4.3790     1.6410 C.2   1 <1>   0.1390 
 22 C        9.1160     1.8210    -1.5720 C.ar  1 <1>  -0.1500 
 23 C        9.8020     0.4520     0.2720 C.ar  1 <1>  -0.1500 
 24 C        9.6160     0.8830    -2.4560 C.ar  1 <1>  -0.1500 
 25 C       10.3020    -0.4860    -0.6130 C.ar  1 <1>  -0.1500 
 26 C       10.2030    -0.2740    -1.9770 C.ar  1 <1>  -0.1500 
 27 H        1.5760    -1.9520    -0.3880 H     1 <1>   0.0800 
 28 H        2.4450     0.0110     0.8300 H     1 <1>   0.0800 
 29 H        2.9860     1.5980     0.4230 H     1 <1>   0.0800 
 30 H        3.9120     2.1270    -1.5340 H     1 <1>   0.0800 
 31 H        3.8090     1.0480    -2.8890 H     1 <1>   0.0800 
 32 H        3.5550    -3.8400    -1.6400 H     1 <1>   0.0800 
 33 H        1.8180    -3.8050    -1.8750 H     1 <1>   0.0800 
 34 H        4.6690    -0.7220     1.3880 H     1 <1>   0.0800 
 35 H        4.3470     0.7630     2.2280 H     1 <1>   0.0800 
 36 H        6.1770     1.8600    -1.9660 H     1 <1>   0.0800 
 37 H        5.9410     0.3060    -2.6700 H     1 <1>   0.0800 
 38 H        2.2330    -3.5060     1.9770 H     1 <1>   0.0800 
 39 H        3.8890    -4.0070     1.6330 H     1 <1>   0.0800 
 40 H        3.0370    -5.4240     0.0000 H     1 <1>   0.0800 
 41 H        1.4360    -4.7630     0.2530 H     1 <1>   0.0800 
 42 H        5.6010     1.9180     0.4180 H     1 <1>   0.4500 
 43 H        7.2730     0.1570    -0.6360 H     1 <1>   0.0800 
 44 H        5.8210    -0.7960    -0.5510 H     1 <1>   0.0800 
 45 H        7.5600     0.1560     1.5130 H     1 <1>   0.0800 
 46 H        6.4570     0.8850     2.6600 H     1 <1>   0.0800 
 47 H        6.5100     3.7000     2.9020 H     1 <1>   0.1500 
 48 H        8.2280     5.4190     1.9250 H     1 <1>   0.1500 
 49 H        8.6770     2.7310    -1.9500 H     1 <1>   0.1500 
 50 H        9.9080     0.2850     1.3300 H     1 <1>   0.1500 
 51 H        9.5590     1.0550    -3.5180 H     1 <1>   0.1500 
 52 H       10.7810    -1.3790    -0.2460 H     1 <1>   0.1500 
 53 H       10.5950    -1.0040    -2.6660 H     1 <1>   0.1500 
@<TRIPOS>BOND
  1   1   2  2   
  2   2   3  am  
  3   2   4  1   
  4   3   5  1   
  5   3   6  1   
  6   4   7  1   
  7   4   8  1   
  8   4  27  1   
  9   5   9  1   
 10   5  28  1   
 11   5  29  1   
 12   6  10  1   
 13   6  30  1   
 14   6  31  1   
 15   7  11  1   
 16   8  12  1   
 17   8  32  1   
 18   8  33  1   
 19   9  13  1   
 20   9  34  1   
 21   9  35  1   
 22  10  14  1   
 23  10  36  1   
 24  10  37  1   
 25  11  12  1   
 26  11  38  1   
 27  11  39  1   
 28  12  40  1   
 29  12  41  1   
 30  13  14  1   
 31  13  15  1   
 32  13  42  1   
 33  14  43  1   
 34  14  44  1   
 35  15  16  1   
 36  15  45  1   
 37  15  46  1   
 38  16  17  1   
 39  16  18  2   
 40  17  19  1   
 41  17  20  1   
 42  18  21  1   
 43  18  47  1   
 44  19  21  2   
 45  20  22  ar  
 46  20  23  ar  
 47  21  48  1   
 48  22  24  ar  
 49  22  49  1   
 50  23  25  ar  
 51  23  50  1   
 52  24  26  ar  
 53  24  51  1   
 54  25  26  ar  
 55  25  52  1   
 56  26  53  1   
@<TRIPOS>SUBSTRUCTURE
  1 ****  14 GROUP 4 **** **** 0

# MOE 2024.06 (io_trps.svl 2023.06)
