@<TRIPOS>MOLECULE
NONAME
62 65 1 0 0 
SMALL
USER_CHARGES


@<TRIPOS>ATOM
  1 O        2.2970    -0.6500     1.3910 O.2   1 <1>  -0.5700 
  2 C        1.8260    -0.8190     0.2900 C.2   1 <1>   0.6300 
  3 N        1.6230     0.2240    -0.5590 N.am  1 <1>  -0.7300 
  4 C        1.4550    -2.2240    -0.1890 C.3   1 <1>   0.0320 
  5 C        1.7570     1.6490    -0.1850 C.3   1 <1>   0.1400 
  6 C       -0.0150    -2.5360     0.0670 C.ar  1 <1>  -0.0320 
  7 C        2.4440    -3.3560    -0.1080 C.3   1 <1>  -0.1900 
  8 C        2.1220    -2.7600    -1.4380 C.3   1 <1>  -0.2000 
  9 C        3.1320     2.2080    -0.5960 C.3   1 <1>  -0.0800 
 10 C       -0.4330    -2.8030     1.3610 C.ar  1 <1>  -0.1500 
 11 C       -0.9450    -2.5490    -0.9620 C.ar  1 <1>  -0.1500 
 12 C        2.0620    -4.8140     0.1200 C.3   1 <1>  -0.0650 
 13 C        3.8750    -3.2140     0.4060 C.3   1 <1>  -0.0650 
 14 C        4.2920     1.4430     0.0730 C.3   1 <1>  -0.1600 
 15 C        3.2210     3.7010    -0.2310 C.3   1 <1>  -0.1600 
 16 C       -1.7620    -3.0860     1.6260 C.ar  1 <1>  -0.1500 
 17 C       -2.2750    -2.8320    -0.7010 C.ar  1 <1>  -0.1500 
 18 C        3.3660    -5.5670    -0.1300 C.3   1 <1>  -0.1600 
 19 C        4.4940    -4.6110     0.2800 C.3   1 <1>  -0.1600 
 20 C        5.6510     2.0790    -0.2030 C.3   1 <1>   0.3430 
 21 C        4.6080     4.2830    -0.5090 C.3   1 <1>   0.3430 
 22 C       -2.6840    -3.1010     0.5940 C.ar  1 <1>  -0.1500 
 23 N        5.6380     3.5020     0.2370 N.4   1 <1>  -0.9590 
 24 C        7.0110     4.0910     0.0990 C.3   1 <1>   0.3430 
 25 C        7.1580     5.4510     0.7940 C.3   1 <1>   0.1200 
 26 O        8.4690     5.8640     0.6100 O.3   1 <1>  -0.5600 
 27 C        8.7790     7.0860     1.2040 C.3   1 <1>   0.0400 
 28 H        1.1660     0.0250    -1.4510 H     1 <1>   0.3700 
 29 H        1.6270     1.7460     0.8810 H     1 <1>   0.0800 
 30 H        0.9700     2.2080    -0.6630 H     1 <1>   0.0800 
 31 H        2.8640    -2.1560    -1.9300 H     1 <1>   0.1000 
 32 H        1.5510    -3.3480    -2.1340 H     1 <1>   0.1000 
 33 H        3.2240     2.1140    -1.6650 H     1 <1>   0.0800 
 34 H        0.2830    -2.7870     2.1640 H     1 <1>   0.1500 
 35 H       -0.6390    -2.3400    -1.9710 H     1 <1>   0.1500 
 36 H        1.2680    -5.1490    -0.5250 H     1 <1>   0.0800 
 37 H        1.7610    -4.9440     1.1450 H     1 <1>   0.0800 
 38 H        3.8460    -2.9330     1.4450 H     1 <1>   0.0800 
 39 H        4.4370    -2.4760    -0.1370 H     1 <1>   0.0800 
 40 H        4.3160     0.4320    -0.2940 H     1 <1>   0.0800 
 41 H        4.1340     1.3870     1.1370 H     1 <1>   0.0800 
 42 H        2.9830     3.8430     0.8090 H     1 <1>   0.0800 
 43 H        2.4950     4.2520    -0.8040 H     1 <1>   0.0800 
 44 H       -2.0760    -3.2920     2.6340 H     1 <1>   0.1500 
 45 H       -2.9910    -2.8420    -1.5030 H     1 <1>   0.1500 
 46 H        3.4490    -5.7800    -1.1820 H     1 <1>   0.0800 
 47 H        3.4010    -6.4920     0.4180 H     1 <1>   0.0800 
 48 H        4.9110    -4.9090     1.2270 H     1 <1>   0.0800 
 49 H        5.2750    -4.6190    -0.4600 H     1 <1>   0.0800 
 50 H        5.8670     2.0230    -1.2580 H     1 <1>   0.0800 
 51 H        6.4140     1.5330     0.3290 H     1 <1>   0.0800 
 52 H        4.6270     5.3160    -0.2010 H     1 <1>   0.0800 
 53 H        4.8130     4.2410    -1.5670 H     1 <1>   0.0800 
 54 H       -3.7170    -3.3210     0.7980 H     1 <1>   0.1500 
 55 H        5.3790     3.5000     1.2330 H     1 <1>   0.4500 
 56 H        7.2530     4.2090    -0.9450 H     1 <1>   0.0800 
 57 H        7.7320     3.4200     0.5360 H     1 <1>   0.0800 
 58 H        6.9750     5.3620     1.8510 H     1 <1>   0.0800 
 59 H        6.5090     6.1880     0.3550 H     1 <1>   0.0800 
 60 H        9.8130     7.3060     0.9980 H     1 <1>   0.0800 
 61 H        8.6330     7.0170     2.2680 H     1 <1>   0.0800 
 62 H        8.1580     7.8590     0.7840 H     1 <1>   0.0800 
@<TRIPOS>BOND
  1   1   2  2   
  2   2   3  am  
  3   2   4  1   
  4   3   5  1   
  5   3  28  1   
  6   4   6  1   
  7   4   7  1   
  8   4   8  1   
  9   5   9  1   
 10   5  29  1   
 11   5  30  1   
 12   6  10  ar  
 13   6  11  ar  
 14   7   8  1   
 15   7  12  1   
 16   7  13  1   
 17   8  31  1   
 18   8  32  1   
 19   9  14  1   
 20   9  15  1   
 21   9  33  1   
 22  10  16  ar  
 23  10  34  1   
 24  11  17  ar  
 25  11  35  1   
 26  12  18  1   
 27  12  36  1   
 28  12  37  1   
 29  13  19  1   
 30  13  38  1   
 31  13  39  1   
 32  14  20  1   
 33  14  40  1   
 34  14  41  1   
 35  15  21  1   
 36  15  42  1   
 37  15  43  1   
 38  16  22  ar  
 39  16  44  1   
 40  17  22  ar  
 41  17  45  1   
 42  18  19  1   
 43  18  46  1   
 44  18  47  1   
 45  19  48  1   
 46  19  49  1   
 47  20  23  1   
 48  20  50  1   
 49  20  51  1   
 50  21  23  1   
 51  21  52  1   
 52  21  53  1   
 53  22  54  1   
 54  23  24  1   
 55  23  55  1   
 56  24  25  1   
 57  24  56  1   
 58  24  57  1   
 59  25  26  1   
 60  25  58  1   
 61  25  59  1   
 62  26  27  1   
 63  27  60  1   
 64  27  61  1   
 65  27  62  1   
@<TRIPOS>SUBSTRUCTURE
  1 ****   2 GROUP 4 **** **** 0

# MOE 2024.06 (io_trps.svl 2023.06)
