@<TRIPOS>MOLECULE
NONAME
55 59 1 0 0 
SMALL
USER_CHARGES


@<TRIPOS>ATOM
  1 F        2.2270    -3.8140    -1.1470 F     1 <1>  -0.1900 
  2 C        1.8220    -3.9250     0.0900 C.ar  1 <1>   0.1900 
  3 C        0.6940    -3.2350     0.5140 C.ar  1 <1>  -0.0320 
  4 C        2.5630    -4.7350     0.9300 C.ar  1 <1>  -0.1500 
  5 C        0.3230    -3.3770     1.8460 C.ar  1 <1>  -0.1500 
  6 C       -0.1100    -2.3540    -0.4440 C.3   1 <1>   0.0320 
  7 C        2.1690    -4.8690     2.2500 C.ar  1 <1>  -0.1500 
  8 C        1.0500    -4.1890     2.7030 C.ar  1 <1>  -0.1500 
  9 C       -0.8610    -3.1590    -1.5200 C.2   1 <1>   0.6300 
 10 C        0.5220    -1.0420    -0.8280 C.3   1 <1>  -0.2000 
 11 C       -0.6950    -1.0490     0.0360 C.3   1 <1>  -0.2000 
 12 O       -0.4330    -3.1250    -2.6530 O.2   1 <1>  -0.5700 
 13 N       -1.9850    -3.8890    -1.2070 N.am  1 <1>  -0.6600 
 14 C       -2.5760    -4.8550    -2.1720 C.3   1 <1>   0.1400 
 15 C       -2.6550    -3.9170     0.1170 C.3   1 <1>   0.1400 
 16 C       -2.4180    -6.2730    -1.6120 C.3   1 <1>  -0.1600 
 17 C       -2.4820    -5.3070     0.7310 C.3   1 <1>  -0.1600 
 18 C       -3.0190    -6.4140    -0.2000 C.3   1 <1>   0.4240 
 19 O       -4.3920    -6.1460    -0.3930 O.3   1 <1>  -0.5600 
 20 C       -2.7860    -7.8400     0.3790 C.ar  1 <1>  -0.1430 
 21 C       -5.2890    -6.6220     0.5560 C.3   1 <1>   0.1200 
 22 C       -1.5010    -8.3510     0.6080 C.ar  1 <1>   0.0830 
 23 C       -3.8770    -8.6510     0.6890 C.ar  1 <1>  -0.1430 
 24 C       -5.2890    -8.1410     0.4870 C.3   1 <1>  -0.0160 
 25 O       -0.4250    -7.5700     0.3300 O.3   1 <1>  -0.3630 
 26 C       -1.3360    -9.6370     1.1170 C.ar  1 <1>  -0.1500 
 27 C       -3.7020    -9.9300     1.1910 C.ar  1 <1>  -0.1500 
 28 C        0.9000    -8.0490     0.3560 C.3   1 <1>   0.0400 
 29 C       -2.4320   -10.4250     1.4050 C.ar  1 <1>  -0.1500 
 30 H        3.4300    -5.2460     0.5530 H     1 <1>   0.1500 
 31 H       -0.5380    -2.8580     2.2260 H     1 <1>   0.1500 
 32 H        2.7290    -5.4960     2.9220 H     1 <1>   0.1500 
 33 H        0.7440    -4.2910     3.7310 H     1 <1>   0.1500 
 34 H        0.4400    -0.7210    -1.8520 H     1 <1>   0.1000 
 35 H        1.4740    -0.7910    -0.3940 H     1 <1>   0.1000 
 36 H       -0.5800    -0.7500     1.0620 H     1 <1>   0.1000 
 37 H       -1.6240    -0.7150    -0.3920 H     1 <1>   0.1000 
 38 H       -2.0880    -4.7900    -3.1290 H     1 <1>   0.0800 
 39 H       -3.6180    -4.6240    -2.3120 H     1 <1>   0.0800 
 40 H       -3.7020    -3.7040    -0.0180 H     1 <1>   0.0800 
 41 H       -2.2540    -3.1690     0.7730 H     1 <1>   0.0800 
 42 H       -1.3720    -6.5000    -1.6090 H     1 <1>   0.0800 
 43 H       -2.8940    -6.9780    -2.2670 H     1 <1>   0.0800 
 44 H       -2.9730    -5.3570     1.6830 H     1 <1>   0.0800 
 45 H       -1.4370    -5.4530     0.9140 H     1 <1>   0.0800 
 46 H       -6.2620    -6.2330     0.3140 H     1 <1>   0.0800 
 47 H       -4.9980    -6.2750     1.5310 H     1 <1>   0.0800 
 48 H       -5.6580    -8.4590    -0.4720 H     1 <1>   0.0800 
 49 H       -5.9400    -8.5290     1.2490 H     1 <1>   0.0800 
 50 H       -0.3620   -10.0460     1.3000 H     1 <1>   0.1500 
 51 H       -4.5530   -10.5470     1.4190 H     1 <1>   0.1500 
 52 H        1.5430    -7.2640     0.0020 H     1 <1>   0.0800 
 53 H        0.9760    -8.9030    -0.2930 H     1 <1>   0.0800 
 54 H        1.1590    -8.3050     1.3680 H     1 <1>   0.0800 
 55 H       -2.2990   -11.4180     1.7950 H     1 <1>   0.1500 
@<TRIPOS>BOND
  1   1   2  1   
  2   2   3  ar  
  3   2   4  ar  
  4   3   5  ar  
  5   3   6  1   
  6   4   7  ar  
  7   4  30  1   
  8   5   8  ar  
  9   5  31  1   
 10   6   9  1   
 11   6  10  1   
 12   6  11  1   
 13   7   8  ar  
 14   7  32  1   
 15   8  33  1   
 16   9  12  2   
 17   9  13  am  
 18  10  11  1   
 19  10  34  1   
 20  10  35  1   
 21  11  36  1   
 22  11  37  1   
 23  13  14  1   
 24  13  15  1   
 25  14  16  1   
 26  14  38  1   
 27  14  39  1   
 28  15  17  1   
 29  15  40  1   
 30  15  41  1   
 31  16  18  1   
 32  16  42  1   
 33  16  43  1   
 34  17  18  1   
 35  17  44  1   
 36  17  45  1   
 37  18  19  1   
 38  18  20  1   
 39  19  21  1   
 40  20  22  ar  
 41  20  23  ar  
 42  21  24  1   
 43  21  46  1   
 44  21  47  1   
 45  22  25  1   
 46  22  26  ar  
 47  23  24  1   
 48  23  27  ar  
 49  24  48  1   
 50  24  49  1   
 51  25  28  1   
 52  26  29  ar  
 53  26  50  1   
 54  27  29  ar  
 55  27  51  1   
 56  28  52  1   
 57  28  53  1   
 58  28  54  1   
 59  29  55  1   
@<TRIPOS>SUBSTRUCTURE
  1 ****  17 GROUP 4 **** **** 0

# MOE 2024.06 (io_trps.svl 2023.06)
