@<TRIPOS>MOLECULE
NONAME
52 54 1 0 0 
SMALL
USER_CHARGES


@<TRIPOS>ATOM
  1 O        0.0530     1.1610     1.6280 O.2   1 <1>  -0.5700 
  2 C       -0.0780     1.6990     0.5460 C.2   1 <1>   0.5440 
  3 N       -1.3300     1.7090    -0.0040 N.am  1 <1>  -0.7300 
  4 C        1.0580     2.2730    -0.1550 C.ar  1 <1>   0.0860 
  5 C       -2.5670     1.2540     0.6790 C.3   1 <1>   0.2200 
  6 C        0.9170     3.3510    -1.0320 C.ar  1 <1>  -0.1500 
  7 C        2.3420     1.7580     0.0260 C.ar  1 <1>  -0.1500 
  8 C       -2.6740    -0.2870     0.6940 C.3   1 <1>   0.2000 
  9 C       -3.7680     1.8930    -0.0230 C.3   1 <1>  -0.1600 
 10 C        2.0040     3.8770    -1.7070 C.ar  1 <1>  -0.1500 
 11 C        3.4320     2.2790    -0.6460 C.ar  1 <1>  -0.1500 
 12 O       -1.7480    -0.8150     1.5740 O.3   1 <1>  -0.6800 
 13 C       -4.0510    -0.7620     1.1730 C.3   1 <1>   0.3430 
 14 C       -5.0840     1.4220     0.5940 C.3   1 <1>   0.3430 
 15 C        3.2640     3.3400    -1.5170 C.ar  1 <1>  -0.1500 
 16 N       -5.1930    -0.0610     0.4780 N.4   1 <1>  -0.9590 
 17 C       -6.5150    -0.5490     0.9780 C.3   1 <1>   0.4860 
 18 C       -6.6500    -2.0200     0.6640 C.ar  1 <1>  -0.1430 
 19 C       -6.4780    -2.9820     1.6350 C.ar  1 <1>   0.1600 
 20 C       -6.9390    -2.4640    -0.6070 C.ar  1 <1>   0.1600 
 21 N       -6.5440    -4.2590     1.3670 N.ar  1 <1>  -0.6200 
 22 N       -7.0070    -3.7350    -0.9000 N.ar  1 <1>  -0.6200 
 23 C       -6.7940    -4.5770     0.1060 C.ar  1 <1>   0.7200 
 24 N       -6.8260    -5.9020    -0.1440 N.pl3 1 <1>  -0.8690 
 25 C       -7.4000    -6.5140    -1.3520 C.3   1 <1>   0.2090 
 26 C       -7.0980    -8.0060    -1.3220 C.3   1 <1>  -0.2400 
 27 H       -1.4230     2.0450    -0.9650 H     1 <1>   0.3700 
 28 H       -2.5440     1.6020     1.7000 H     1 <1>   0.0800 
 29 H       -0.0490     3.7960    -1.1840 H     1 <1>   0.1500 
 30 H        2.4840     0.9340     0.7050 H     1 <1>   0.1500 
 31 H       -2.4640    -0.6870    -0.2830 H     1 <1>   0.0800 
 32 H       -3.7050     2.9630     0.0820 H     1 <1>   0.0800 
 33 H       -3.7610     1.6580    -1.0730 H     1 <1>   0.0800 
 34 H        1.8750     4.7080    -2.3800 H     1 <1>   0.1500 
 35 H        4.4120     1.8610    -0.4910 H     1 <1>   0.1500 
 36 H       -0.9440    -0.2240     1.6130 H     1 <1>   0.4000 
 37 H       -4.1140    -0.5800     2.2340 H     1 <1>   0.0800 
 38 H       -4.1150    -1.8260     1.0100 H     1 <1>   0.0800 
 39 H       -5.9070     1.8960     0.0830 H     1 <1>   0.0800 
 40 H       -5.1180     1.7140     1.6330 H     1 <1>   0.0800 
 41 H        4.1110     3.7470    -2.0420 H     1 <1>   0.1500 
 42 H       -5.1360    -0.3150    -0.5180 H     1 <1>   0.4500 
 43 H       -6.5910    -0.3920     2.0420 H     1 <1>   0.0800 
 44 H       -7.3160    -0.0100     0.4980 H     1 <1>   0.0800 
 45 H       -6.2740    -2.7090     2.6580 H     1 <1>   0.1500 
 46 H       -7.1150    -1.7700    -1.4120 H     1 <1>   0.1500 
 47 H       -6.8220    -6.4750     0.6980 H     1 <1>   0.4000 
 48 H       -8.4650    -6.3460    -1.3710 H     1 <1>   0.0800 
 49 H       -6.9630    -6.0650    -2.2290 H     1 <1>   0.0800 
 50 H       -7.5530    -8.4640    -0.4630 H     1 <1>   0.0800 
 51 H       -6.0350    -8.1670    -1.2980 H     1 <1>   0.0800 
 52 H       -7.4940    -8.4710    -2.2060 H     1 <1>   0.0800 
@<TRIPOS>BOND
  1   1   2  2   
  2   2   3  am  
  3   2   4  1   
  4   3   5  1   
  5   3  27  1   
  6   4   6  ar  
  7   4   7  ar  
  8   5   8  1   
  9   5   9  1   
 10   5  28  1   
 11   6  10  ar  
 12   6  29  1   
 13   7  11  ar  
 14   7  30  1   
 15   8  12  1   
 16   8  13  1   
 17   8  31  1   
 18   9  14  1   
 19   9  32  1   
 20   9  33  1   
 21  10  15  ar  
 22  10  34  1   
 23  11  15  ar  
 24  11  35  1   
 25  12  36  1   
 26  13  16  1   
 27  13  37  1   
 28  13  38  1   
 29  14  16  1   
 30  14  39  1   
 31  14  40  1   
 32  15  41  1   
 33  16  17  1   
 34  16  42  1   
 35  17  18  1   
 36  17  43  1   
 37  17  44  1   
 38  18  19  ar  
 39  18  20  ar  
 40  19  21  ar  
 41  19  45  1   
 42  20  22  ar  
 43  20  46  1   
 44  21  23  ar  
 45  22  23  ar  
 46  23  24  1   
 47  24  25  1   
 48  24  47  1   
 49  25  26  1   
 50  25  48  1   
 51  25  49  1   
 52  26  50  1   
 53  26  51  1   
 54  26  52  1   
@<TRIPOS>SUBSTRUCTURE
  1 ****   8 GROUP 4 **** **** 0

# MOE 2024.06 (io_trps.svl 2023.06)
