@<TRIPOS>MOLECULE
NONAME
47 50 1 0 0 
SMALL
USER_CHARGES


@<TRIPOS>ATOM
  1 CL      -0.0310    -0.2060    -0.2460 Cl    1 <1>  -0.1770 
  2 C       -0.8350    -1.6890     0.2040 C.ar  1 <1>   0.1770 
  3 C       -0.3320    -2.8930    -0.2250 C.ar  1 <1>  -0.1500 
  4 C       -1.9830    -1.6090     1.0000 C.ar  1 <1>  -0.1500 
  5 C       -0.9970    -4.0670     0.1500 C.ar  1 <1>  -0.1520 
  6 C       -2.6350    -2.7610     1.3710 C.ar  1 <1>  -0.1500 
  7 N       -0.7350    -5.3890    -0.1220 N.pl3 1 <1>   0.0480 
  8 C       -2.1390    -4.0010     0.9430 C.ar  1 <1>   0.0000 
  9 C       -1.7010    -6.1660     0.4880 C.2   1 <1>  -0.2370 
 10 C        0.4030    -5.8850    -0.9250 C.3   1 <1>   0.0160 
 11 C       -2.5550    -5.3250     1.1450 C.2   1 <1>  -0.1500 
 12 C       -1.7320    -7.6080     0.4150 C.2   1 <1>   0.7150 
 13 O       -0.6960    -8.2470     0.4210 O.2   1 <1>  -0.5700 
 14 N       -2.9220    -8.2880     0.3200 N.am  1 <1>  -0.6600 
 15 C       -4.1980    -7.6960    -0.1530 C.3   1 <1>   0.1400 
 16 C       -2.9850    -9.7700     0.2670 C.3   1 <1>   0.1400 
 17 C       -4.9650    -8.8650    -0.7670 C.3   1 <1>   0.2000 
 18 C       -4.4450   -10.1040    -0.0450 C.3   1 <1>  -0.0800 
 19 O       -6.3320    -8.7360    -0.5790 O.3   1 <1>  -0.6800 
 20 C       -4.6210   -11.3980    -0.8530 C.3   1 <1>   0.0210 
 21 C       -3.9730   -12.5750    -0.1480 C.2   1 <1>   0.1080 
 22 N       -4.2810   -12.9270     1.0610 N.2   1 <1>  -0.7070 
 23 C       -2.9880   -13.3870    -0.6980 C.2   1 <1>  -0.1500 
 24 N       -3.4920   -13.9880     1.3170 N.pl3 1 <1>   0.3000 
 25 C       -2.6980   -14.2840     0.2670 C.2   1 <1>  -0.3320 
 26 C       -1.6960   -15.4240     0.2500 C.3   1 <1>  -0.0600 
 27 H        0.5520    -2.9250    -0.8330 H     1 <1>   0.1500 
 28 H       -2.3350    -0.6420     1.3100 H     1 <1>   0.1500 
 29 H       -3.5180    -2.7330     1.9830 H     1 <1>   0.1500 
 30 H        0.0570    -6.6390    -1.6080 H     1 <1>   0.0800 
 31 H        1.1360    -6.3140    -0.2670 H     1 <1>   0.0800 
 32 H        0.8440    -5.0810    -1.4820 H     1 <1>   0.0800 
 33 H       -3.4080    -5.5950     1.7400 H     1 <1>   0.1500 
 34 H       -4.7320    -7.2930     0.6890 H     1 <1>   0.0800 
 35 H       -4.0160    -6.9270    -0.8850 H     1 <1>   0.0800 
 36 H       -2.3320   -10.1250    -0.5130 H     1 <1>   0.0800 
 37 H       -2.6790   -10.2000     1.2070 H     1 <1>   0.0800 
 38 H       -4.7700    -8.9110    -1.8250 H     1 <1>   0.0800 
 39 H       -4.9500   -10.2100     0.9000 H     1 <1>   0.0800 
 40 H       -6.5550    -8.8510     0.3660 H     1 <1>   0.4000 
 41 H       -4.1860   -11.2860    -1.8300 H     1 <1>   0.0800 
 42 H       -5.6690   -11.6050    -0.9750 H     1 <1>   0.0800 
 43 H       -2.5650   -13.2970    -1.6830 H     1 <1>   0.1500 
 44 H       -3.5180   -14.4840     2.2160 H     1 <1>   0.2700 
 45 H       -1.1880   -15.4560    -0.6970 H     1 <1>   0.0800 
 46 H       -2.1980   -16.3630     0.4010 H     1 <1>   0.0800 
 47 H       -0.9650   -15.2880     1.0270 H     1 <1>   0.0800 
@<TRIPOS>BOND
  1   1   2  1   
  2   2   3  ar  
  3   2   4  ar  
  4   3   5  ar  
  5   3  27  1   
  6   4   6  ar  
  7   4  28  1   
  8   5   7  1   
  9   5   8  ar  
 10   6   8  ar  
 11   6  29  1   
 12   7   9  1   
 13   7  10  1   
 14   8  11  1   
 15   9  11  2   
 16   9  12  1   
 17  10  30  1   
 18  10  31  1   
 19  10  32  1   
 20  11  33  1   
 21  12  13  2   
 22  12  14  am  
 23  14  15  1   
 24  14  16  1   
 25  15  17  1   
 26  15  34  1   
 27  15  35  1   
 28  16  18  1   
 29  16  36  1   
 30  16  37  1   
 31  17  18  1   
 32  17  19  1   
 33  17  38  1   
 34  18  20  1   
 35  18  39  1   
 36  19  40  1   
 37  20  21  1   
 38  20  41  1   
 39  20  42  1   
 40  21  22  2   
 41  21  23  1   
 42  22  24  1   
 43  23  25  2   
 44  23  43  1   
 45  24  25  1   
 46  24  44  1   
 47  25  26  1   
 48  26  45  1   
 49  26  46  1   
 50  26  47  1   
@<TRIPOS>SUBSTRUCTURE
  1 ****  14 GROUP 4 **** **** 0

# MOE 2024.06 (io_trps.svl 2023.06)
