@<TRIPOS>MOLECULE
NONAME
55 58 1 0 0 
SMALL
USER_CHARGES


@<TRIPOS>ATOM
  1 O       -1.4460     1.6600    -2.5610 O.2   1 <1>  -0.5700 
  2 C       -2.1300     1.8120    -1.5660 C.2   1 <1>   0.5440 
  3 N       -3.2230     0.9910    -1.3680 N.am  1 <1>  -0.6600 
  4 C       -1.7820     2.8650    -0.6370 C.ar  1 <1>   0.0860 
  5 C       -4.0850     1.0310    -0.1540 C.3   1 <1>   0.1400 
  6 C       -3.6580    -0.0170    -2.3770 C.3   1 <1>   0.1400 
  7 C       -1.2410     2.6400     0.6400 C.ar  1 <1>   0.0820 
  8 C       -2.0190     4.1880    -1.0130 C.ar  1 <1>  -0.1500 
  9 C       -4.0820    -0.3460     0.5130 C.3   1 <1>  -0.1600 
 10 C       -3.6730    -1.4090    -1.7400 C.3   1 <1>  -0.1600 
 11 O       -0.9300     1.4160     1.1240 O.3   1 <1>  -0.3620 
 12 C       -1.0030     3.7030     1.4980 C.ar  1 <1>  -0.1500 
 13 C       -1.7660     5.2450    -0.1600 C.ar  1 <1>  -0.1500 
 14 C       -4.5290    -1.4540    -0.4600 C.3   1 <1>   0.4240 
 15 C       -0.2270     0.4850     0.3290 C.3   1 <1>   0.1200 
 16 C       -1.2610     5.0020     1.1050 C.ar  1 <1>  -0.1500 
 17 O       -5.8220    -1.1090    -0.9100 O.3   1 <1>  -0.5600 
 18 C       -4.5150    -2.8610     0.2040 C.ar  1 <1>  -0.1430 
 19 C        0.6300    -0.3660     1.2610 C.3   1 <1>  -0.2400 
 20 C       -6.9030    -1.4410    -0.1020 C.3   1 <1>   0.1200 
 21 C       -3.3330    -3.4650     0.6540 C.ar  1 <1>   0.0820 
 22 C       -5.7100    -3.5610     0.3740 C.ar  1 <1>  -0.1430 
 23 C       -7.0240    -2.9560    -0.0760 C.3   1 <1>  -0.0160 
 24 O       -2.1500    -2.8140     0.5110 O.3   1 <1>  -0.3620 
 25 C       -3.3670    -4.7230     1.2500 C.ar  1 <1>  -0.1500 
 26 C       -5.7300    -4.8170     0.9570 C.ar  1 <1>  -0.1500 
 27 C       -0.9460    -3.5320     0.3540 C.3   1 <1>   0.0400 
 28 C       -4.5600    -5.3990     1.3970 C.ar  1 <1>  -0.1500 
 29 H       -5.0870     1.2960    -0.4470 H     1 <1>   0.0800 
 30 H       -3.7410     1.7690     0.5480 H     1 <1>   0.0800 
 31 H       -2.9980    -0.0180    -3.2270 H     1 <1>   0.0800 
 32 H       -4.6440     0.2400    -2.7250 H     1 <1>   0.0800 
 33 H       -2.4130     4.3790    -1.9970 H     1 <1>   0.1500 
 34 H       -4.7130    -0.3380     1.3790 H     1 <1>   0.0800 
 35 H       -3.0870    -0.5420     0.8620 H     1 <1>   0.0800 
 36 H       -2.6570    -1.6750    -1.5350 H     1 <1>   0.0800 
 37 H       -4.0550    -2.1270    -2.4410 H     1 <1>   0.0800 
 38 H       -0.6050     3.5030     2.4770 H     1 <1>   0.1500 
 39 H       -1.9610     6.2550    -0.4770 H     1 <1>   0.1500 
 40 H        0.3900     1.0200    -0.3740 H     1 <1>   0.0800 
 41 H       -0.9390    -0.1260    -0.1980 H     1 <1>   0.0800 
 42 H       -1.0680     5.8200     1.7770 H     1 <1>   0.1500 
 43 H        1.3010     0.2620     1.8190 H     1 <1>   0.0800 
 44 H        1.2100    -1.0620     0.6850 H     1 <1>   0.0800 
 45 H        0.0000    -0.9140     1.9390 H     1 <1>   0.0800 
 46 H       -7.7850    -0.9980    -0.5300 H     1 <1>   0.0800 
 47 H       -6.7500    -1.0440     0.8860 H     1 <1>   0.0800 
 48 H       -7.2710    -3.3140    -1.0600 H     1 <1>   0.0800 
 49 H       -7.8150    -3.2350     0.5960 H     1 <1>   0.0800 
 50 H       -2.4710    -5.1880     1.6140 H     1 <1>   0.1500 
 51 H       -6.6590    -5.3480     1.0740 H     1 <1>   0.1500 
 52 H       -0.2070    -2.8620    -0.0440 H     1 <1>   0.0800 
 53 H       -1.1070    -4.3430    -0.3350 H     1 <1>   0.0800 
 54 H       -0.6300    -3.8990     1.3140 H     1 <1>   0.0800 
 55 H       -4.5790    -6.3730     1.8550 H     1 <1>   0.1500 
@<TRIPOS>BOND
  1   1   2  2   
  2   2   3  am  
  3   2   4  1   
  4   3   5  1   
  5   3   6  1   
  6   4   7  ar  
  7   4   8  ar  
  8   5   9  1   
  9   5  29  1   
 10   5  30  1   
 11   6  10  1   
 12   6  31  1   
 13   6  32  1   
 14   7  11  1   
 15   7  12  ar  
 16   8  13  ar  
 17   8  33  1   
 18   9  14  1   
 19   9  34  1   
 20   9  35  1   
 21  10  14  1   
 22  10  36  1   
 23  10  37  1   
 24  11  15  1   
 25  12  16  ar  
 26  12  38  1   
 27  13  16  ar  
 28  13  39  1   
 29  14  17  1   
 30  14  18  1   
 31  15  19  1   
 32  15  40  1   
 33  15  41  1   
 34  16  42  1   
 35  17  20  1   
 36  18  21  ar  
 37  18  22  ar  
 38  19  43  1   
 39  19  44  1   
 40  19  45  1   
 41  20  23  1   
 42  20  46  1   
 43  20  47  1   
 44  21  24  1   
 45  21  25  ar  
 46  22  23  1   
 47  22  26  ar  
 48  23  48  1   
 49  23  49  1   
 50  24  27  1   
 51  25  28  ar  
 52  25  50  1   
 53  26  28  ar  
 54  26  51  1   
 55  27  52  1   
 56  27  53  1   
 57  27  54  1   
 58  28  55  1   
@<TRIPOS>SUBSTRUCTURE
  1 ****   9 GROUP 4 **** **** 0

# MOE 2024.06 (io_trps.svl 2023.06)
