@<TRIPOS>MOLECULE
NONAME
23 23 1 0 0 
SMALL
USER_CHARGES


@<TRIPOS>ATOM
  1 O        7.3710    -0.9050    -0.6350 O.3   1 <1>  -0.5600 
  2 C        7.2380     0.3370    -0.0030 C.3   1 <1>   0.1200 
  3 C        6.6540    -1.9700    -0.0870 C.3   1 <1>   0.1200 
  4 C        5.7760     0.7780    -0.1430 C.3   1 <1>   0.2000 
  5 C        5.1520    -1.6660    -0.1800 C.3   1 <1>  -0.1600 
  6 O        5.4780     1.9690     0.5340 O.3   1 <1>  -0.5600 
  7 C        4.8890    -0.3120     0.4710 C.3   1 <1>   0.4230 
  8 C        6.0710     3.1240     0.0130 C.3   1 <1>   0.0400 
  9 N        3.4680     0.0850     0.3810 N.4   1 <1>  -0.8530 
 10 H        7.5330     0.2360     1.0280 H     1 <1>   0.0800 
 11 H        7.8980     1.0220    -0.5040 H     1 <1>   0.0800 
 12 H        6.9000    -2.8550    -0.6510 H     1 <1>   0.0800 
 13 H        6.9750    -2.1100     0.9330 H     1 <1>   0.0800 
 14 H        5.5460     0.9100    -1.1870 H     1 <1>   0.0800 
 15 H        4.8690    -1.6590    -1.2180 H     1 <1>   0.0800 
 16 H        4.6080    -2.4430     0.3260 H     1 <1>   0.0800 
 17 H        5.1650    -0.3880     1.5110 H     1 <1>   0.0800 
 18 H        5.6880     3.9730     0.5530 H     1 <1>   0.0800 
 19 H        5.8250     3.2210    -1.0310 H     1 <1>   0.0800 
 20 H        7.1390     3.0760     0.1450 H     1 <1>   0.0800 
 21 H        3.1270     0.0400    -0.5830 H     1 <1>   0.4500 
 22 H        3.4330     1.0710     0.6830 H     1 <1>   0.4500 
 23 H        2.8700    -0.4750     0.9930 H     1 <1>   0.4500 
@<TRIPOS>BOND
  1   1   2  1   
  2   1   3  1   
  3   2   4  1   
  4   2  10  1   
  5   2  11  1   
  6   3   5  1   
  7   3  12  1   
  8   3  13  1   
  9   4   6  1   
 10   4   7  1   
 11   4  14  1   
 12   5   7  1   
 13   5  15  1   
 14   5  16  1   
 15   6   8  1   
 16   7   9  1   
 17   7  17  1   
 18   8  18  1   
 19   8  19  1   
 20   8  20  1   
 21   9  21  1   
 22   9  22  1   
 23   9  23  1   
@<TRIPOS>SUBSTRUCTURE
  1 ****   4 GROUP 4 **** **** 0

# MOE 2024.06 (io_trps.svl 2023.06)
