@<TRIPOS>MOLECULE
NONAME
47 48 1 0 0 
SMALL
USER_CHARGES


@<TRIPOS>ATOM
  1 S       -0.6200    -0.3240     0.1820 S.o2  1 <1>   1.3330 
  2 O        0.4970     0.5010    -0.2010 O.2   1 <1>  -0.6500 
  3 O       -0.7620    -0.7650     1.5480 O.2   1 <1>  -0.6500 
  4 N       -1.9750     0.5850    -0.1960 N.am  1 <1>  -0.9140 
  5 C       -0.7360    -1.7090    -0.9290 C.3   1 <1>  -0.1350 
  6 C       -3.1920     0.1730     0.4920 C.3   1 <1>   0.1960 
  7 C       -4.3570     1.0240    -0.0120 C.3   1 <1>  -0.0990 
  8 C       -5.6790     0.6250     0.6220 C.2   1 <1>   0.5690 
  9 O       -5.7240    -0.4070     1.2510 O.2   1 <1>  -0.5700 
 10 N       -6.7780     1.4260     0.4650 N.am  1 <1>  -0.6600 
 11 C       -8.0870     1.0590     1.0820 C.3   1 <1>   0.1400 
 12 C       -6.8190     2.6400    -0.4090 C.3   1 <1>   0.1400 
 13 C       -9.1210     0.7130    -0.0110 C.3   1 <1>   0.0000 
 14 C       -8.2480     2.9710    -0.8730 C.3   1 <1>  -0.1600 
 15 C      -10.5290     0.6640     0.6100 C.3   1 <1>   0.2000 
 16 C       -9.0280     1.6940    -1.2230 C.3   1 <1>  -0.1600 
 17 C       -8.9690    -0.7340    -0.5080 C.3   1 <1>  -0.1600 
 18 O      -11.0810     1.9420     0.7330 O.3   1 <1>  -0.5600 
 19 C      -11.3590    -0.2310    -0.3180 C.3   1 <1>  -0.1600 
 20 C      -10.3470    -1.1170    -1.0590 C.3   1 <1>  -0.1600 
 21 C      -12.2140     2.0170     1.5380 C.3   1 <1>   0.0400 
 22 H       -1.7240     1.5190     0.1250 H     1 <1>   0.4200 
 23 H       -0.7610    -1.3650    -1.9440 H     1 <1>   0.0800 
 24 H       -1.6260    -2.2720    -0.7300 H     1 <1>   0.0800 
 25 H        0.1140    -2.3510    -0.8030 H     1 <1>   0.0800 
 26 H       -3.3920    -0.8670     0.2880 H     1 <1>   0.0800 
 27 H       -3.0820     0.2950     1.5580 H     1 <1>   0.0800 
 28 H       -4.4450     0.9020    -1.0750 H     1 <1>   0.0800 
 29 H       -4.1620     2.0540     0.2150 H     1 <1>   0.0800 
 30 H       -7.9750     0.2360     1.7650 H     1 <1>   0.0800 
 31 H       -8.4410     1.9000     1.6530 H     1 <1>   0.0800 
 32 H       -6.4100     3.4800     0.1250 H     1 <1>   0.0800 
 33 H       -6.2150     2.4650    -1.2820 H     1 <1>   0.0800 
 34 H       -8.7670     3.5030    -0.0940 H     1 <1>   0.0800 
 35 H       -8.2050     3.6210    -1.7280 H     1 <1>   0.0800 
 36 H      -10.4670     0.2150     1.5870 H     1 <1>   0.0800 
 37 H       -8.5170     1.2210    -2.0430 H     1 <1>   0.0800 
 38 H      -10.0080     1.9590    -1.5800 H     1 <1>   0.0800 
 39 H       -8.1870    -0.8480    -1.2380 H     1 <1>   0.0800 
 40 H       -8.7390    -1.3780     0.3240 H     1 <1>   0.0800 
 41 H      -12.0450    -0.8300     0.2540 H     1 <1>   0.0800 
 42 H      -11.9020     0.3680    -1.0280 H     1 <1>   0.0800 
 43 H      -10.5460    -2.1640    -0.9080 H     1 <1>   0.0800 
 44 H      -10.3880    -0.9040    -2.1140 H     1 <1>   0.0800 
 45 H      -12.5290     3.0450     1.5740 H     1 <1>   0.0800 
 46 H      -11.9690     1.6800     2.5300 H     1 <1>   0.0800 
 47 H      -12.9980     1.4150     1.1140 H     1 <1>   0.0800 
@<TRIPOS>BOND
  1   1   2  2   
  2   1   3  2   
  3   1   4  am  
  4   1   5  1   
  5   4   6  1   
  6   4  22  1   
  7   5  23  1   
  8   5  24  1   
  9   5  25  1   
 10   6   7  1   
 11   6  26  1   
 12   6  27  1   
 13   7   8  1   
 14   7  28  1   
 15   7  29  1   
 16   8   9  2   
 17   8  10  am  
 18  10  11  1   
 19  10  12  1   
 20  11  13  1   
 21  11  30  1   
 22  11  31  1   
 23  12  14  1   
 24  12  32  1   
 25  12  33  1   
 26  13  15  1   
 27  13  16  1   
 28  13  17  1   
 29  14  16  1   
 30  14  34  1   
 31  14  35  1   
 32  15  18  1   
 33  15  19  1   
 34  15  36  1   
 35  16  37  1   
 36  16  38  1   
 37  17  20  1   
 38  17  39  1   
 39  17  40  1   
 40  18  21  1   
 41  19  20  1   
 42  19  41  1   
 43  19  42  1   
 44  20  43  1   
 45  20  44  1   
 46  21  45  1   
 47  21  46  1   
 48  21  47  1   
@<TRIPOS>SUBSTRUCTURE
  1 ****   8 GROUP 4 **** **** 0

# MOE 2024.06 (io_trps.svl 2023.06)
