@<TRIPOS>MOLECULE
NONAME
56 58 1 0 0 
SMALL
USER_CHARGES


@<TRIPOS>ATOM
  1 O        1.4860    -0.7360     1.6840 O.co2 1 <1>  -0.9000 
  2 C        1.3650     0.3020     1.0150 C.2   1 <1>   0.9060 
  3 O        0.6050     1.2050     1.3590 O.co2 1 <1>  -0.9000 
  4 C        2.2090     0.4520    -0.2650 C.3   1 <1>  -0.1060 
  5 C        3.6130    -0.1360     0.0160 C.3   1 <1>   0.4230 
  6 C        2.3910     1.9530    -0.6370 C.3   1 <1>  -0.1600 
  7 C        1.5130    -0.2990    -1.4380 C.3   1 <1>  -0.1600 
  8 N        3.5070    -1.6160     0.2530 N.4   1 <1>  -0.9590 
  9 C        4.3090     0.6560     1.1450 C.3   1 <1>   0.1400 
 10 C        3.1420     2.7430     0.4500 C.3   1 <1>   0.1400 
 11 C        2.3570    -1.4610    -1.9880 C.3   1 <1>  -0.1600 
 12 C        2.8900    -2.3750    -0.8750 C.3   1 <1>   0.3430 
 13 C        4.7230    -2.2770     0.7980 C.3   1 <1>   0.2630 
 14 N        4.4530     2.0770     0.7100 N.am  1 <1>  -0.6600 
 15 C        5.6830     2.6080     0.4220 C.2   1 <1>   0.5690 
 16 O        6.6700     1.9080     0.3990 O.2   1 <1>  -0.5700 
 17 C        5.8190     4.0890     0.0970 C.3   1 <1>  -0.0990 
 18 C        7.2730     4.5900     0.0800 C.3   1 <1>  -0.0170 
 19 C        7.4580     6.0940    -0.1620 C.ar  1 <1>  -0.1430 
 20 C        8.7270     6.6580    -0.0370 C.ar  1 <1>  -0.1430 
 21 C        6.3950     6.9200    -0.5100 C.ar  1 <1>  -0.1500 
 22 C        8.9040     8.0170    -0.2500 C.ar  1 <1>  -0.1500 
 23 C        9.9460     5.8220     0.3310 C.3   1 <1>  -0.0970 
 24 C        6.5830     8.2740    -0.7220 C.ar  1 <1>  -0.1500 
 25 C        7.8400     8.8320    -0.5910 C.ar  1 <1>  -0.1430 
 26 C        8.0550    10.3170    -0.8220 C.3   1 <1>  -0.0970 
 27 H        4.2160     0.0100    -0.8640 H     1 <1>   0.0800 
 28 H        1.4240     2.4060    -0.7760 H     1 <1>   0.0800 
 29 H        2.9290     2.0470    -1.5640 H     1 <1>   0.0800 
 30 H        0.5710    -0.6950    -1.0900 H     1 <1>   0.0800 
 31 H        1.2780     0.3770    -2.2420 H     1 <1>   0.0800 
 32 H        2.7630    -1.6200     1.0040 H     1 <1>   0.4500 
 33 H        5.2790     0.2420     1.3480 H     1 <1>   0.0800 
 34 H        3.7310     0.6210     2.0530 H     1 <1>   0.0800 
 35 H        2.5670     2.7640     1.3620 H     1 <1>   0.0800 
 36 H        3.2700     3.7590     0.1250 H     1 <1>   0.0800 
 37 H        3.1870    -1.0730    -2.5530 H     1 <1>   0.0800 
 38 H        1.7600    -2.0460    -2.6650 H     1 <1>   0.0800 
 39 H        3.6100    -3.0550    -1.2980 H     1 <1>   0.0800 
 40 H        2.0710    -2.9580    -0.4850 H     1 <1>   0.0800 
 41 H        5.5370    -2.1940     0.0970 H     1 <1>   0.0800 
 42 H        4.5240    -3.3190     0.9860 H     1 <1>   0.0800 
 43 H        5.0120    -1.8160     1.7280 H     1 <1>   0.0800 
 44 H        5.3760     4.2580    -0.8660 H     1 <1>   0.0800 
 45 H        5.2760     4.6450     0.8390 H     1 <1>   0.0800 
 46 H        7.8110     4.0540    -0.6840 H     1 <1>   0.0800 
 47 H        7.7170     4.3390     1.0270 H     1 <1>   0.0800 
 48 H        5.4000     6.5370    -0.6260 H     1 <1>   0.1500 
 49 H        9.8830     8.4500    -0.1520 H     1 <1>   0.1500 
 50 H       10.8450     6.4090     0.2860 H     1 <1>   0.0800 
 51 H       10.0540     4.9990    -0.3520 H     1 <1>   0.0800 
 52 H        9.8430     5.4400     1.3300 H     1 <1>   0.0800 
 53 H        5.7440     8.8910    -0.9910 H     1 <1>   0.1500 
 54 H        7.1430    10.8620    -0.6580 H     1 <1>   0.0800 
 55 H        8.3820    10.4830    -1.8330 H     1 <1>   0.0800 
 56 H        8.8020    10.6950    -0.1480 H     1 <1>   0.0800 
@<TRIPOS>BOND
  1   1   2  ar  
  2   2   3  ar  
  3   2   4  1   
  4   4   5  1   
  5   4   6  1   
  6   4   7  1   
  7   5   8  1   
  8   5   9  1   
  9   5  27  1   
 10   6  10  1   
 11   6  28  1   
 12   6  29  1   
 13   7  11  1   
 14   7  30  1   
 15   7  31  1   
 16   8  12  1   
 17   8  13  1   
 18   8  32  1   
 19   9  14  1   
 20   9  33  1   
 21   9  34  1   
 22  10  14  1   
 23  10  35  1   
 24  10  36  1   
 25  11  12  1   
 26  11  37  1   
 27  11  38  1   
 28  12  39  1   
 29  12  40  1   
 30  13  41  1   
 31  13  42  1   
 32  13  43  1   
 33  14  15  am  
 34  15  16  2   
 35  15  17  1   
 36  17  18  1   
 37  17  44  1   
 38  17  45  1   
 39  18  19  1   
 40  18  46  1   
 41  18  47  1   
 42  19  20  ar  
 43  19  21  ar  
 44  20  22  ar  
 45  20  23  1   
 46  21  24  ar  
 47  21  48  1   
 48  22  25  ar  
 49  22  49  1   
 50  23  50  1   
 51  23  51  1   
 52  23  52  1   
 53  24  25  ar  
 54  24  53  1   
 55  25  26  1   
 56  26  54  1   
 57  26  55  1   
 58  26  56  1   
@<TRIPOS>SUBSTRUCTURE
  1 ****  15 GROUP 4 **** **** 0

# MOE 2024.06 (io_trps.svl 2023.06)
