@<TRIPOS>MOLECULE
NONAME
50 53 1 0 0 
SMALL
USER_CHARGES


@<TRIPOS>ATOM
  1 F        1.0880    -0.3890    -2.9010 F     1 <1>  -0.3400 
  2 C        1.8420    -1.3870    -2.4650 C.3   1 <1>   1.1640 
  3 F        1.2180    -2.5110    -2.8010 F     1 <1>  -0.3400 
  4 F        2.9430    -1.3530    -3.2060 F     1 <1>  -0.3400 
  5 C        2.1300    -1.3280    -0.9440 C.ar  1 <1>  -0.1440 
  6 C        1.1980    -0.9150     0.0230 C.ar  1 <1>  -0.1440 
  7 C        3.3990    -1.7130    -0.5130 C.ar  1 <1>  -0.1500 
  8 C        1.5800    -0.8600     1.3590 C.ar  1 <1>  -0.1500 
  9 C       -0.2520    -0.5050    -0.2870 C.3   1 <1>   0.0450 
 10 C        3.7560    -1.6720     0.8210 C.ar  1 <1>  -0.1500 
 11 C        2.8450    -1.2380     1.7600 C.ar  1 <1>  -0.1500 
 12 C       -1.1160    -1.5550    -0.9840 C.2   1 <1>   0.5690 
 13 O       -1.9170    -1.1540    -1.7900 O.2   1 <1>  -0.5700 
 14 N       -1.0210    -2.9030    -0.7240 N.am  1 <1>  -0.6600 
 15 C       -0.4330    -3.5190     0.5040 C.3   1 <1>   0.1400 
 16 C       -1.5310    -3.8950    -1.7210 C.3   1 <1>   0.1400 
 17 C       -1.4000    -4.5380     1.1510 C.3   1 <1>   0.4230 
 18 C       -2.5150    -4.8770    -1.0680 C.3   1 <1>   0.3430 
 19 N       -1.9290    -5.5510     0.1520 N.4   1 <1>  -0.9590 
 20 C       -2.5630    -3.8040     1.8570 C.3   1 <1>   0.1200 
 21 C       -2.9080    -6.4640     0.8360 C.3   1 <1>   0.5180 
 22 O       -3.4260    -4.7290     2.4550 O.3   1 <1>  -0.5600 
 23 C       -3.4450    -7.4920    -0.1800 C.3   1 <1>  -0.1950 
 24 C       -4.0040    -5.6560     1.5770 C.3   1 <1>   0.1200 
 25 C       -4.6430    -7.2820    -1.0620 C.3   1 <1>  -0.2000 
 26 C       -4.6940    -8.2880     0.0530 C.3   1 <1>  -0.2000 
 27 H        4.1430    -2.0490    -1.2180 H     1 <1>   0.1500 
 28 H        0.8930    -0.5160     2.1140 H     1 <1>   0.1500 
 29 H       -0.2360     0.3810    -0.8960 H     1 <1>   0.0800 
 30 H       -0.7640    -0.2300     0.6160 H     1 <1>   0.0800 
 31 H        4.7450    -1.9700     1.1260 H     1 <1>   0.1500 
 32 H        3.1250    -1.1890     2.7990 H     1 <1>   0.1500 
 33 H        0.4920    -4.0060     0.2460 H     1 <1>   0.0800 
 34 H       -0.2090    -2.7630     1.2330 H     1 <1>   0.0800 
 35 H       -2.0250    -3.3980    -2.5380 H     1 <1>   0.0800 
 36 H       -0.7000    -4.4370    -2.1380 H     1 <1>   0.0800 
 37 H       -0.8520    -5.0590     1.9190 H     1 <1>   0.0800 
 38 H       -2.7970    -5.6170    -1.7980 H     1 <1>   0.0800 
 39 H       -3.4030    -4.3320    -0.7950 H     1 <1>   0.0800 
 40 H       -1.1430    -6.1290    -0.1630 H     1 <1>   0.4500 
 41 H       -3.1250    -3.1970     1.1680 H     1 <1>   0.0800 
 42 H       -2.1830    -3.1680     2.6370 H     1 <1>   0.0800 
 43 H       -2.3800    -7.0200     1.5940 H     1 <1>   0.0800 
 44 H       -2.6340    -8.0680    -0.5910 H     1 <1>   0.1000 
 45 H       -4.6130    -6.3170     2.1680 H     1 <1>   0.0800 
 46 H       -4.6420    -5.1290     0.8900 H     1 <1>   0.0800 
 47 H       -5.2780    -6.4180    -0.9670 H     1 <1>   0.1000 
 48 H       -4.6280    -7.6600    -2.0720 H     1 <1>   0.1000 
 49 H       -4.7010    -9.3340    -0.2080 H     1 <1>   0.1000 
 50 H       -5.3510    -8.0820     0.8810 H     1 <1>   0.1000 
@<TRIPOS>BOND
  1   1   2  1   
  2   2   3  1   
  3   2   4  1   
  4   2   5  1   
  5   5   6  ar  
  6   5   7  ar  
  7   6   8  ar  
  8   6   9  1   
  9   7  10  ar  
 10   7  27  1   
 11   8  11  ar  
 12   8  28  1   
 13   9  12  1   
 14   9  29  1   
 15   9  30  1   
 16  10  11  ar  
 17  10  31  1   
 18  11  32  1   
 19  12  13  2   
 20  12  14  am  
 21  14  15  1   
 22  14  16  1   
 23  15  17  1   
 24  15  33  1   
 25  15  34  1   
 26  16  18  1   
 27  16  35  1   
 28  16  36  1   
 29  17  19  1   
 30  17  20  1   
 31  17  37  1   
 32  18  19  1   
 33  18  38  1   
 34  18  39  1   
 35  19  21  1   
 36  19  40  1   
 37  20  22  1   
 38  20  41  1   
 39  20  42  1   
 40  21  23  1   
 41  21  24  1   
 42  21  43  1   
 43  22  24  1   
 44  23  25  1   
 45  23  26  1   
 46  23  44  1   
 47  24  45  1   
 48  24  46  1   
 49  25  26  1   
 50  25  47  1   
 51  25  48  1   
 52  26  49  1   
 53  26  50  1   
@<TRIPOS>SUBSTRUCTURE
  1 ****  14 GROUP 4 **** **** 0

# MOE 2024.06 (io_trps.svl 2023.06)
