@<TRIPOS>MOLECULE
NONAME
38 39 1 0 0 
SMALL
USER_CHARGES


@<TRIPOS>ATOM
  1 CL      -2.1840     0.6720    -1.9320 Cl    1 <1>  -0.1230 
  2 C       -2.9620     0.4770    -0.3700 C.2   1 <1>   0.1230 
  3 C       -3.3360    -0.7210     0.2490 C.2   1 <1>   0.2030 
  4 C       -3.3000     1.4810     0.4560 C.2   1 <1>  -0.3020 
  5 N       -3.8900    -0.4450     1.4240 N.2   1 <1>  -0.7070 
  6 C       -3.1560    -2.0590    -0.2870 C.2   1 <1>   0.7160 
  7 N       -3.8590     0.8970     1.5330 N.pl3 1 <1>   0.3000 
  8 O       -2.7620    -2.2790    -1.4190 O.2   1 <1>  -0.5700 
  9 N       -3.4610    -3.1340     0.4970 N.am  1 <1>  -0.7300 
 10 C       -3.2990    -4.5640     0.1480 C.3   1 <1>   0.2200 
 11 C       -4.6470    -5.2040    -0.1460 C.3   1 <1>  -0.0800 
 12 C       -2.8850    -5.3350     1.3930 C.3   1 <1>   0.1200 
 13 C       -5.1650    -5.5560     1.2540 C.3   1 <1>   0.1200 
 14 C       -5.6010    -4.3430    -1.0020 C.3   1 <1>  -0.0550 
 15 O       -4.0640    -5.5250     2.1150 O.3   1 <1>  -0.5600 
 16 S       -7.1020    -5.1870    -1.5090 S.o2  1 <1>   1.3330 
 17 O       -6.7350    -6.4980    -1.9960 O.2   1 <1>  -0.6500 
 18 O       -7.8840    -4.3050    -2.3460 O.2   1 <1>  -0.6500 
 19 N       -7.9640    -5.3940    -0.0590 N.am  1 <1>  -0.8490 
 20 C       -8.6840    -4.1890     0.3660 C.3   1 <1>   0.1160 
 21 C       -8.8920    -6.5270    -0.1280 C.3   1 <1>   0.1160 
 22 H       -3.1760     2.5420     0.3400 H     1 <1>   0.1500 
 23 H       -4.2260     1.3920     2.3580 H     1 <1>   0.2700 
 24 H       -3.8030    -2.9380     1.4440 H     1 <1>   0.3700 
 25 H       -2.5950    -4.6830    -0.6590 H     1 <1>   0.0800 
 26 H       -4.4640    -6.1300    -0.6650 H     1 <1>   0.0800 
 27 H       -2.1700    -4.8050     1.9970 H     1 <1>   0.0800 
 28 H       -2.5000    -6.3050     1.1310 H     1 <1>   0.0800 
 29 H       -5.6080    -6.5370     1.2830 H     1 <1>   0.0800 
 30 H       -5.8730    -4.8280     1.6120 H     1 <1>   0.0800 
 31 H       -5.0710    -4.0440    -1.8860 H     1 <1>   0.0800 
 32 H       -5.8610    -3.4500    -0.4710 H     1 <1>   0.0800 
 33 H       -9.1400    -4.3510     1.3280 H     1 <1>   0.0800 
 34 H       -9.4530    -3.9370    -0.3470 H     1 <1>   0.0800 
 35 H       -8.0060    -3.3580     0.4480 H     1 <1>   0.0800 
 36 H       -9.4120    -6.6410     0.8080 H     1 <1>   0.0800 
 37 H       -8.3500    -7.4370    -0.3240 H     1 <1>   0.0800 
 38 H       -9.6090    -6.3750    -0.9180 H     1 <1>   0.0800 
@<TRIPOS>BOND
  1   1   2  1   
  2   2   3  1   
  3   2   4  2   
  4   3   5  2   
  5   3   6  1   
  6   4   7  1   
  7   4  22  1   
  8   5   7  1   
  9   6   8  2   
 10   6   9  am  
 11   7  23  1   
 12   9  10  1   
 13   9  24  1   
 14  10  11  1   
 15  10  12  1   
 16  10  25  1   
 17  11  13  1   
 18  11  14  1   
 19  11  26  1   
 20  12  15  1   
 21  12  27  1   
 22  12  28  1   
 23  13  15  1   
 24  13  29  1   
 25  13  30  1   
 26  14  16  1   
 27  14  31  1   
 28  14  32  1   
 29  16  17  2   
 30  16  18  2   
 31  16  19  am  
 32  19  20  1   
 33  19  21  1   
 34  20  33  1   
 35  20  34  1   
 36  20  35  1   
 37  21  36  1   
 38  21  37  1   
 39  21  38  1   
@<TRIPOS>SUBSTRUCTURE
  1 ****   9 GROUP 4 **** **** 0

# MOE 2024.06 (io_trps.svl 2023.06)
