@<TRIPOS>MOLECULE
NONAME
60 62 1 0 0 
SMALL
USER_CHARGES


@<TRIPOS>ATOM
  1 O        0.2960     0.7300     0.8810 O.2   1 <1>  -0.5700 
  2 C        0.3530     1.8990     0.5780 C.2   1 <1>   0.5690 
  3 N       -0.7010     2.7510     0.7990 N.am  1 <1>  -0.6600 
  4 C        1.6300     2.4210    -0.0670 C.3   1 <1>  -0.0990 
  5 C       -1.9910     2.2530     1.3610 C.3   1 <1>   0.1400 
  6 C       -0.7510     4.1880     0.4150 C.3   1 <1>   0.1400 
  7 C        2.7050     1.3430    -0.3120 C.3   1 <1>  -0.0990 
  8 C       -3.1100     2.3680     0.3080 C.3   1 <1>   0.0000 
  9 C       -1.8340     4.3920    -0.6510 C.3   1 <1>  -0.1600 
 10 C        3.9910     1.9150    -0.8980 C.2   1 <1>   0.4230 
 11 C       -4.4390     1.8350     0.8780 C.3   1 <1>   0.2000 
 12 C       -3.1980     3.8380    -0.1950 C.3   1 <1>  -0.1600 
 13 C       -2.8880     1.3990    -0.8680 C.3   1 <1>  -0.1600 
 14 O        3.8810     2.8070    -1.7040 O.2   1 <1>  -0.5700 
 15 C        5.2770     1.4380    -0.4510 C.ar  1 <1>   0.0860 
 16 O       -5.1260     2.7770     1.6230 O.3   1 <1>  -0.6800 
 17 C       -5.2780     1.3930    -0.3200 C.3   1 <1>  -0.1600 
 18 C       -4.2780     1.1250    -1.4530 C.3   1 <1>  -0.1600 
 19 C        5.5740     0.0860    -0.2080 C.ar  1 <1>   0.0820 
 20 C        6.3000     2.3650    -0.2470 C.ar  1 <1>  -0.1500 
 21 O        4.6060    -0.8300    -0.4650 O.3   1 <1>  -0.3630 
 22 C        6.8300    -0.2940     0.2620 C.ar  1 <1>  -0.1500 
 23 C        7.5480     1.9910     0.2030 C.ar  1 <1>   0.0820 
 24 C        4.7480    -2.2080    -0.2000 C.3   1 <1>   0.0400 
 25 C        7.8260     0.6490     0.4810 C.ar  1 <1>   0.0820 
 26 O        8.4680     2.9720     0.3830 O.3   1 <1>  -0.3620 
 27 O        9.0550     0.3220     0.9590 O.3   1 <1>  -0.3620 
 28 C        9.5500     2.9880    -0.5220 C.3   1 <1>   0.0400 
 29 C        9.3760    -0.9770     1.4050 C.3   1 <1>   0.0400 
 30 H        1.3710     2.8660    -1.0100 H     1 <1>   0.0800 
 31 H        2.0420     3.1830     0.5670 H     1 <1>   0.0800 
 32 H       -1.8950     1.2310     1.6850 H     1 <1>   0.0800 
 33 H       -2.2480     2.8430     2.2240 H     1 <1>   0.0800 
 34 H       -0.9890     4.7710     1.2880 H     1 <1>   0.0800 
 35 H        0.1960     4.5320     0.0390 H     1 <1>   0.0800 
 36 H        2.3190     0.6020    -0.9890 H     1 <1>   0.0800 
 37 H        2.9260     0.8580     0.6220 H     1 <1>   0.0800 
 38 H       -1.9270     5.4430    -0.8590 H     1 <1>   0.0800 
 39 H       -1.5200     3.9150    -1.5620 H     1 <1>   0.0800 
 40 H       -4.2510     0.9850     1.5140 H     1 <1>   0.0800 
 41 H       -3.9060     3.9220    -1.0010 H     1 <1>   0.0800 
 42 H       -3.5400     4.4680     0.6070 H     1 <1>   0.0800 
 43 H       -2.2070     1.7730    -1.6100 H     1 <1>   0.0800 
 44 H       -2.4850     0.4730    -0.4920 H     1 <1>   0.0800 
 45 H       -5.3680     3.5280     1.0500 H     1 <1>   0.4000 
 46 H       -5.8270     0.5000    -0.0760 H     1 <1>   0.0800 
 47 H       -5.9650     2.1640    -0.6210 H     1 <1>   0.0800 
 48 H       -4.3500     0.1130    -1.8130 H     1 <1>   0.0800 
 49 H       -4.4690     1.7980    -2.2720 H     1 <1>   0.0800 
 50 H        6.1120     3.4060    -0.4430 H     1 <1>   0.1500 
 51 H        7.0350    -1.3260     0.4510 H     1 <1>   0.1500 
 52 H        3.8250    -2.6940    -0.4620 H     1 <1>   0.0800 
 53 H        4.9470    -2.3450     0.8480 H     1 <1>   0.0800 
 54 H        5.5490    -2.6000    -0.8020 H     1 <1>   0.0800 
 55 H       10.1280     3.8750    -0.3360 H     1 <1>   0.0800 
 56 H        9.1640     3.0020    -1.5260 H     1 <1>   0.0800 
 57 H       10.1580     2.1160    -0.3650 H     1 <1>   0.0800 
 58 H       10.3780    -0.9570     1.7930 H     1 <1>   0.0800 
 59 H        9.3200    -1.6560     0.5730 H     1 <1>   0.0800 
 60 H        8.6890    -1.2580     2.1830 H     1 <1>   0.0800 
@<TRIPOS>BOND
  1   1   2  2   
  2   2   3  am  
  3   2   4  1   
  4   3   5  1   
  5   3   6  1   
  6   4   7  1   
  7   4  30  1   
  8   4  31  1   
  9   5   8  1   
 10   5  32  1   
 11   5  33  1   
 12   6   9  1   
 13   6  34  1   
 14   6  35  1   
 15   7  10  1   
 16   7  36  1   
 17   7  37  1   
 18   8  11  1   
 19   8  12  1   
 20   8  13  1   
 21   9  12  1   
 22   9  38  1   
 23   9  39  1   
 24  10  14  2   
 25  10  15  1   
 26  11  16  1   
 27  11  17  1   
 28  11  40  1   
 29  12  41  1   
 30  12  42  1   
 31  13  18  1   
 32  13  43  1   
 33  13  44  1   
 34  15  19  ar  
 35  15  20  ar  
 36  16  45  1   
 37  17  18  1   
 38  17  46  1   
 39  17  47  1   
 40  18  48  1   
 41  18  49  1   
 42  19  21  1   
 43  19  22  ar  
 44  20  23  ar  
 45  20  50  1   
 46  21  24  1   
 47  22  25  ar  
 48  22  51  1   
 49  23  25  ar  
 50  23  26  1   
 51  24  52  1   
 52  24  53  1   
 53  24  54  1   
 54  25  27  1   
 55  26  28  1   
 56  27  29  1   
 57  28  55  1   
 58  28  56  1   
 59  28  57  1   
 60  29  58  1   
 61  29  59  1   
 62  29  60  1   
@<TRIPOS>SUBSTRUCTURE
  1 ****   7 GROUP 4 **** **** 0

# MOE 2024.06 (io_trps.svl 2023.06)
