@<TRIPOS>MOLECULE
NONAME
49 51 1 0 0 
SMALL
USER_CHARGES


@<TRIPOS>ATOM
  1 F        1.3110     0.2640    -0.7220 F     1 <1>  -0.3400 
  2 C        1.8070    -0.4650     0.2700 C.3   1 <1>   1.1640 
  3 F        3.1250    -0.4560     0.1160 F     1 <1>  -0.3400 
  4 F        1.5580     0.2040     1.3880 F     1 <1>  -0.3400 
  5 C        1.2390    -1.8870     0.3190 C.ar  1 <1>  -0.1440 
  6 C        0.1050    -2.2650    -0.3700 C.ar  1 <1>  -0.1500 
  7 C        1.8400    -2.8820     1.0740 C.ar  1 <1>  -0.1500 
  8 C       -0.3720    -3.5670    -0.2850 C.ar  1 <1>   0.4100 
  9 C        1.3000    -4.1560     1.0980 C.ar  1 <1>   0.1660 
 10 N        0.2150    -4.5160     0.4370 N.ar  1 <1>  -0.6200 
 11 N       -1.5250    -3.9180    -0.9640 N.pl3 1 <1>  -0.8380 
 12 C        1.9630    -5.2400     1.9220 C.3   1 <1>  -0.0970 
 13 C       -1.6480    -5.3170    -1.4500 C.3   1 <1>   0.2090 
 14 C       -2.8030    -3.3250    -0.4840 C.3   1 <1>   0.2090 
 15 C       -2.2240    -6.2220    -0.3320 C.3   1 <1>   0.4230 
 16 C       -3.3690    -4.2030     0.6380 C.3   1 <1>  -0.1600 
 17 N       -2.2340    -7.7080    -0.6730 N.4   1 <1>  -0.9590 
 18 C       -3.5780    -5.6870     0.2220 C.3   1 <1>   0.0000 
 19 C       -3.1320    -8.5290     0.2010 C.3   1 <1>   0.3430 
 20 C       -2.4770    -8.0370    -2.1160 C.3   1 <1>   0.2630 
 21 C       -3.9770    -6.5050     1.4870 C.3   1 <1>  -0.1600 
 22 C       -4.6820    -5.7950    -0.8670 C.3   1 <1>   0.1200 
 23 C       -3.2990    -7.8850     1.5750 C.3   1 <1>  -0.1600 
 24 O       -5.8400    -5.1360    -0.4890 O.3   1 <1>  -0.6800 
 25 H       -0.4320    -1.5690    -0.9880 H     1 <1>   0.1500 
 26 H        2.7290    -2.6640     1.6420 H     1 <1>   0.1500 
 27 H        2.8330    -4.8650     2.4300 H     1 <1>   0.0800 
 28 H        2.2610    -6.0490     1.2810 H     1 <1>   0.0800 
 29 H        1.2700    -5.6110     2.6550 H     1 <1>   0.0800 
 30 H       -2.2760    -5.3200    -2.3220 H     1 <1>   0.0800 
 31 H       -0.6720    -5.6710    -1.7350 H     1 <1>   0.0800 
 32 H       -2.6300    -2.3300    -0.1080 H     1 <1>   0.0800 
 33 H       -3.5010    -3.2500    -1.3010 H     1 <1>   0.0800 
 34 H       -1.5340    -6.1130     0.4880 H     1 <1>   0.0800 
 35 H       -2.6770    -4.1490     1.4620 H     1 <1>   0.0800 
 36 H       -4.2910    -3.7690     0.9830 H     1 <1>   0.0800 
 37 H       -1.2730    -8.0110    -0.4560 H     1 <1>   0.4500 
 38 H       -4.1050    -8.6150    -0.2550 H     1 <1>   0.0800 
 39 H       -2.7280    -9.5240     0.3090 H     1 <1>   0.0800 
 40 H       -3.4530    -7.6970    -2.4220 H     1 <1>   0.0800 
 41 H       -2.4220    -9.1030    -2.2690 H     1 <1>   0.0800 
 42 H       -1.7350    -7.5690    -2.7410 H     1 <1>   0.0800 
 43 H       -3.7190    -5.9650     2.3830 H     1 <1>   0.0800 
 44 H       -5.0440    -6.6380     1.5190 H     1 <1>   0.0800 
 45 H       -4.9450    -6.8190    -1.0620 H     1 <1>   0.0800 
 46 H       -4.3680    -5.3440    -1.7920 H     1 <1>   0.0800 
 47 H       -3.8930    -8.5300     2.2000 H     1 <1>   0.0800 
 48 H       -2.3330    -7.7950     2.0430 H     1 <1>   0.0800 
 49 H       -6.2080    -5.4880     0.3460 H     1 <1>   0.4000 
@<TRIPOS>BOND
  1   1   2  1   
  2   2   3  1   
  3   2   4  1   
  4   2   5  1   
  5   5   6  ar  
  6   5   7  ar  
  7   6   8  ar  
  8   6  25  1   
  9   7   9  ar  
 10   7  26  1   
 11   8  10  ar  
 12   8  11  1   
 13   9  10  ar  
 14   9  12  1   
 15  11  13  1   
 16  11  14  1   
 17  12  27  1   
 18  12  28  1   
 19  12  29  1   
 20  13  15  1   
 21  13  30  1   
 22  13  31  1   
 23  14  16  1   
 24  14  32  1   
 25  14  33  1   
 26  15  17  1   
 27  15  18  1   
 28  15  34  1   
 29  16  18  1   
 30  16  35  1   
 31  16  36  1   
 32  17  19  1   
 33  17  20  1   
 34  17  37  1   
 35  18  21  1   
 36  18  22  1   
 37  19  23  1   
 38  19  38  1   
 39  19  39  1   
 40  20  40  1   
 41  20  41  1   
 42  20  42  1   
 43  21  23  1   
 44  21  43  1   
 45  21  44  1   
 46  22  24  1   
 47  22  45  1   
 48  22  46  1   
 49  23  47  1   
 50  23  48  1   
 51  24  49  1   
@<TRIPOS>SUBSTRUCTURE
  1 ****   8 GROUP 4 **** **** 0

# MOE 2024.06 (io_trps.svl 2023.06)
