@<TRIPOS>MOLECULE
NONAME
50 53 1 0 0 
SMALL
USER_CHARGES


@<TRIPOS>ATOM
  1 O       -1.9280     0.8710    -1.9850 O.2   1 <1>  -0.5700 
  2 C       -2.4530     0.8510    -0.8870 C.2   1 <1>   0.5440 
  3 N       -2.4780     2.0130    -0.1480 N.am  1 <1>  -0.6600 
  4 C       -3.0430    -0.3760    -0.4070 C.ar  1 <1>   0.0860 
  5 C       -3.4320     2.3020     0.9480 C.3   1 <1>   0.1400 
  6 C       -1.8470     3.2620    -0.6340 C.3   1 <1>   0.1400 
  7 C       -3.8130    -1.1610    -1.2610 C.ar  1 <1>   0.1600 
  8 C       -2.8780    -0.8430     0.8930 C.ar  1 <1>  -0.1500 
  9 C       -3.6070     3.8150     0.9200 C.3   1 <1>  -0.1600 
 10 C       -2.2960     4.3410     0.3440 C.3   1 <1>  -0.1600 
 11 N       -4.4230    -2.2910    -0.9430 N.ar  1 <1>  -0.6200 
 12 C       -3.4980    -2.0180     1.2420 C.ar  1 <1>  -0.1500 
 13 C       -4.2610    -2.7100     0.3060 C.ar  1 <1>   0.4100 
 14 N       -4.8870    -3.8700     0.6660 N.pl3 1 <1>  -0.8690 
 15 C       -5.5410    -4.8160    -0.2740 C.3   1 <1>   0.2890 
 16 C       -7.0550    -4.7640    -0.1360 C.3   1 <1>  -0.0800 
 17 C       -5.2690    -6.2420     0.1880 C.3   1 <1>   0.1200 
 18 C       -7.3220    -5.6930     1.0530 C.3   1 <1>   0.1200 
 19 C       -7.6650    -3.3580     0.0070 C.3   1 <1>  -0.0170 
 20 O       -6.1800    -6.4850     1.2180 O.3   1 <1>  -0.5600 
 21 C       -9.1840    -3.4240     0.0450 C.ar  1 <1>  -0.1430 
 22 C       -9.9340    -3.5160    -1.1100 C.ar  1 <1>  -0.1500 
 23 C       -9.8900    -3.3970     1.2300 C.ar  1 <1>  -0.1500 
 24 C      -11.3150    -3.5800    -1.0260 C.ar  1 <1>   0.1600 
 25 C      -11.2730    -3.4670     1.2040 C.ar  1 <1>   0.1600 
 26 N      -12.0030    -3.5600     0.1040 N.ar  1 <1>  -0.6200 
 27 H       -4.3700     1.7940     0.7980 H     1 <1>   0.0800 
 28 H       -2.9950     1.9990     1.8840 H     1 <1>   0.0800 
 29 H       -0.7750     3.1610    -0.6560 H     1 <1>   0.0800 
 30 H       -2.2070     3.4760    -1.6270 H     1 <1>   0.0800 
 31 H       -3.9270    -0.8190    -2.2760 H     1 <1>   0.1500 
 32 H       -2.2730    -0.2970     1.5960 H     1 <1>   0.1500 
 33 H       -4.4210     4.0610     0.2600 H     1 <1>   0.0800 
 34 H       -3.8160     4.2130     1.8980 H     1 <1>   0.0800 
 35 H       -1.5620     4.4310     1.1250 H     1 <1>   0.0800 
 36 H       -2.4120     5.2950    -0.1400 H     1 <1>   0.0800 
 37 H       -3.4010    -2.4170     2.2330 H     1 <1>   0.1500 
 38 H       -4.7930    -4.2340     1.6170 H     1 <1>   0.4000 
 39 H       -5.2090    -4.6530    -1.2850 H     1 <1>   0.0800 
 40 H       -7.4790    -5.2270    -1.0090 H     1 <1>   0.0800 
 41 H       -4.2650    -6.3760     0.5490 H     1 <1>   0.0800 
 42 H       -5.4720    -6.9420    -0.6040 H     1 <1>   0.0800 
 43 H       -8.1720    -6.3310     0.8800 H     1 <1>   0.0800 
 44 H       -7.4630    -5.1370     1.9630 H     1 <1>   0.0800 
 45 H       -7.3530    -2.7490    -0.8240 H     1 <1>   0.0800 
 46 H       -7.3050    -2.8820     0.9030 H     1 <1>   0.0800 
 47 H       -9.4570    -3.5380    -2.0720 H     1 <1>   0.1500 
 48 H       -9.3810    -3.3220     2.1730 H     1 <1>   0.1500 
 49 H      -11.8830    -3.6520    -1.9370 H     1 <1>   0.1500 
 50 H      -11.8080    -3.4450     2.1380 H     1 <1>   0.1500 
@<TRIPOS>BOND
  1   1   2  2   
  2   2   3  am  
  3   2   4  1   
  4   3   5  1   
  5   3   6  1   
  6   4   7  ar  
  7   4   8  ar  
  8   5   9  1   
  9   5  27  1   
 10   5  28  1   
 11   6  10  1   
 12   6  29  1   
 13   6  30  1   
 14   7  11  ar  
 15   7  31  1   
 16   8  12  ar  
 17   8  32  1   
 18   9  10  1   
 19   9  33  1   
 20   9  34  1   
 21  10  35  1   
 22  10  36  1   
 23  11  13  ar  
 24  12  13  ar  
 25  12  37  1   
 26  13  14  1   
 27  14  15  1   
 28  14  38  1   
 29  15  16  1   
 30  15  17  1   
 31  15  39  1   
 32  16  18  1   
 33  16  19  1   
 34  16  40  1   
 35  17  20  1   
 36  17  41  1   
 37  17  42  1   
 38  18  20  1   
 39  18  43  1   
 40  18  44  1   
 41  19  21  1   
 42  19  45  1   
 43  19  46  1   
 44  21  22  ar  
 45  21  23  ar  
 46  22  24  ar  
 47  22  47  1   
 48  23  25  ar  
 49  23  48  1   
 50  24  26  ar  
 51  24  49  1   
 52  25  26  ar  
 53  25  50  1   
@<TRIPOS>SUBSTRUCTURE
  1 ****  11 GROUP 4 **** **** 0

# MOE 2024.06 (io_trps.svl 2023.06)
