@<TRIPOS>MOLECULE
NONAME
46 48 1 0 0 
SMALL
USER_CHARGES


@<TRIPOS>ATOM
  1 O        0.2400     1.0410     0.0570 O.co2 1 <1>  -0.9000 
  2 C       -0.1030     1.7960     0.9830 C.2   1 <1>   0.9060 
  3 O        0.5350     1.9020     2.0330 O.co2 1 <1>  -0.9000 
  4 C       -1.5100     2.4320     0.8720 C.3   1 <1>   0.4600 
  5 N       -2.4910     1.4830     0.1980 N.4   1 <1>  -0.9590 
  6 C       -1.5100     3.7530     0.1040 C.ar  1 <1>  -0.1430 
  7 C       -3.7860     2.1030    -0.1860 C.3   1 <1>   0.3430 
  8 C       -2.5980     0.2240     0.9830 C.3   1 <1>   0.3430 
  9 C       -2.1260     4.8690     0.6550 C.ar  1 <1>  -0.1500 
 10 C       -0.9250     3.8520    -1.1510 C.ar  1 <1>  -0.1500 
 11 C       -4.6350     1.0940    -0.9510 C.3   1 <1>  -0.1600 
 12 C       -3.4440    -0.7910     0.2220 C.3   1 <1>  -0.1600 
 13 C       -2.1750     6.0660    -0.0410 C.ar  1 <1>  -0.1430 
 14 C       -0.9720     5.0440    -1.8490 C.ar  1 <1>  -0.1500 
 15 C       -4.8060    -0.2000    -0.1550 C.3   1 <1>   0.2000 
 16 C       -1.5990     6.1470    -1.2970 C.ar  1 <1>  -0.1500 
 17 C       -2.8490     7.2810     0.5690 C.3   1 <1>  -0.0970 
 18 O       -5.4860    -1.1090    -0.9880 O.3   1 <1>  -0.3620 
 19 C       -6.1160    -2.2160    -0.5340 C.ar  1 <1>   0.0830 
 20 C       -6.3100    -2.5410     0.7990 C.ar  1 <1>  -0.1500 
 21 C       -6.6130    -3.1010    -1.4660 C.ar  1 <1>  -0.1500 
 22 C       -6.9720    -3.7140     1.1140 C.ar  1 <1>   0.1600 
 23 C       -7.2590    -4.2460    -1.0410 C.ar  1 <1>   0.1600 
 24 N       -7.4490    -4.5740     0.2280 N.ar  1 <1>  -0.6200 
 25 H       -1.8330     2.6240     1.8780 H     1 <1>   0.0800 
 26 H       -1.9510     1.2270    -0.6480 H     1 <1>   0.4500 
 27 H       -3.6130     2.9680    -0.8080 H     1 <1>   0.0800 
 28 H       -4.3090     2.4250     0.7000 H     1 <1>   0.0800 
 29 H       -3.0440     0.4290     1.9420 H     1 <1>   0.0800 
 30 H       -1.6130    -0.1900     1.1490 H     1 <1>   0.0800 
 31 H       -2.5690     4.8120     1.6340 H     1 <1>   0.1500 
 32 H       -0.4220     3.0040    -1.5900 H     1 <1>   0.1500 
 33 H       -4.1620     0.8850    -1.8950 H     1 <1>   0.0800 
 34 H       -5.6000     1.5250    -1.1460 H     1 <1>   0.0800 
 35 H       -3.5740    -1.6620     0.8380 H     1 <1>   0.0800 
 36 H       -2.9130    -1.0880    -0.6660 H     1 <1>   0.0800 
 37 H       -0.5150     5.1150    -2.8210 H     1 <1>   0.1500 
 38 H       -5.4100    -0.0070     0.7160 H     1 <1>   0.0800 
 39 H       -1.6290     7.0700    -1.8490 H     1 <1>   0.1500 
 40 H       -2.7570     7.2660     1.6410 H     1 <1>   0.0800 
 41 H       -3.8920     7.2910     0.3090 H     1 <1>   0.0800 
 42 H       -2.3930     8.1850     0.2070 H     1 <1>   0.0800 
 43 H       -5.9660    -1.9140     1.5960 H     1 <1>   0.1500 
 44 H       -6.4960    -2.8990    -2.5140 H     1 <1>   0.1500 
 45 H       -7.1220    -3.9630     2.1510 H     1 <1>   0.1500 
 46 H       -7.6410    -4.9300    -1.7800 H     1 <1>   0.1500 
@<TRIPOS>BOND
  1   1   2  ar  
  2   2   3  ar  
  3   2   4  1   
  4   4   5  1   
  5   4   6  1   
  6   4  25  1   
  7   5   7  1   
  8   5   8  1   
  9   5  26  1   
 10   6   9  ar  
 11   6  10  ar  
 12   7  11  1   
 13   7  27  1   
 14   7  28  1   
 15   8  12  1   
 16   8  29  1   
 17   8  30  1   
 18   9  13  ar  
 19   9  31  1   
 20  10  14  ar  
 21  10  32  1   
 22  11  15  1   
 23  11  33  1   
 24  11  34  1   
 25  12  15  1   
 26  12  35  1   
 27  12  36  1   
 28  13  16  ar  
 29  13  17  1   
 30  14  16  ar  
 31  14  37  1   
 32  15  18  1   
 33  15  38  1   
 34  16  39  1   
 35  17  40  1   
 36  17  41  1   
 37  17  42  1   
 38  18  19  1   
 39  19  20  ar  
 40  19  21  ar  
 41  20  22  ar  
 42  20  43  1   
 43  21  23  ar  
 44  21  44  1   
 45  22  24  ar  
 46  22  45  1   
 47  23  24  ar  
 48  23  46  1   
@<TRIPOS>SUBSTRUCTURE
  1 ****   5 GROUP 4 **** **** 0

# MOE 2024.06 (io_trps.svl 2023.06)
