@<TRIPOS>MOLECULE
NONAME
46 48 1 0 0 
SMALL
USER_CHARGES


@<TRIPOS>ATOM
  1 O       -0.8910     0.4000     1.3580 O.2   1 <1>  -0.5700 
  2 C       -1.6270     0.8890     0.5300 C.2   1 <1>   0.5770 
  3 N       -2.6830     0.1290     0.0720 N.am  1 <1>  -0.6600 
  4 C       -1.2340     2.3110     0.0680 C.3   1 <1>   0.0530 
  5 C       -3.7900     0.4600    -0.8670 C.3   1 <1>   0.1400 
  6 C       -2.8170    -1.2910     0.5030 C.3   1 <1>   0.1400 
  7 C       -1.4740     3.3300     1.2280 C.3   1 <1>   0.0000 
  8 C       -2.2030     3.2120    -0.7710 C.3   1 <1>   0.0000 
  9 C        0.2220     2.2830    -0.4440 C.3   1 <1>   0.1200 
 10 C       -4.7890    -0.6890    -0.7330 C.3   1 <1>   0.2000 
 11 C       -3.9160    -1.8920    -0.3770 C.3   1 <1>  -0.0800 
 12 C       -2.8480     3.6360     0.5740 C.3   1 <1>   0.0000 
 13 O        0.6590     3.5460    -0.8480 O.3   1 <1>  -0.5600 
 14 O       -5.6380    -0.4010     0.3250 O.3   1 <1>  -0.6800 
 15 C       -4.6670    -3.0690     0.2740 C.3   1 <1>   0.0200 
 16 C        1.9900     3.5830    -1.2470 C.3   1 <1>   0.0400 
 17 C       -3.7950    -4.2980     0.4780 C.2   1 <1>  -0.0400 
 18 O       -4.2910    -5.3120     1.1350 O.3   1 <1>  -0.0190 
 19 C       -2.5430    -4.6200     0.1140 C.2   1 <1>  -0.1500 
 20 N       -3.4400    -6.2920     1.2340 N.2   1 <1>  -0.4100 
 21 C       -2.3770    -5.9030     0.6280 C.2   1 <1>   0.1080 
 22 C       -1.1200    -6.7340     0.4980 C.3   1 <1>  -0.0590 
 23 H       -4.2690     1.3900    -0.6210 H     1 <1>   0.0800 
 24 H       -3.4030     0.4930    -1.8700 H     1 <1>   0.0800 
 25 H       -1.8830    -1.8130     0.3840 H     1 <1>   0.0800 
 26 H       -3.1000    -1.3150     1.5420 H     1 <1>   0.0800 
 27 H       -1.5570     2.8940     2.2080 H     1 <1>   0.0000 
 28 H       -0.8180     4.1840     1.2050 H     1 <1>   0.0000 
 29 H       -1.7220     4.0550    -1.2360 H     1 <1>   0.0000 
 30 H       -2.8490     2.7230    -1.4660 H     1 <1>   0.0000 
 31 H        0.2970     1.6170    -1.2850 H     1 <1>   0.0800 
 32 H        0.8740     1.9370     0.3410 H     1 <1>   0.0800 
 33 H       -5.3840    -0.8370    -1.6180 H     1 <1>   0.0800 
 34 H       -3.4570    -2.2400    -1.2860 H     1 <1>   0.0800 
 35 H       -3.1260     4.6740     0.6140 H     1 <1>   0.0000 
 36 H       -3.6250     2.9700     0.9070 H     1 <1>   0.0000 
 37 H       -5.1060    -0.1120     1.0940 H     1 <1>   0.4000 
 38 H       -5.5020    -3.3460    -0.3460 H     1 <1>   0.0800 
 39 H       -5.0600    -2.7720     1.2310 H     1 <1>   0.0800 
 40 H        2.2220     4.5900    -1.5440 H     1 <1>   0.0800 
 41 H        2.1300     2.9170    -2.0810 H     1 <1>   0.0800 
 42 H        2.6170     3.2950    -0.4210 H     1 <1>   0.0800 
 43 H       -1.8100    -4.0650    -0.4380 H     1 <1>   0.1500 
 44 H       -0.8770    -6.8690    -0.5390 H     1 <1>   0.0800 
 45 H       -1.2700    -7.6990     0.9490 H     1 <1>   0.0800 
 46 H       -0.3040    -6.2420     0.9940 H     1 <1>   0.0800 
@<TRIPOS>BOND
  1   1   2  2   
  2   2   3  am  
  3   2   4  1   
  4   3   5  1   
  5   3   6  1   
  6   4   7  1   
  7   4   8  1   
  8   4   9  1   
  9   5  10  1   
 10   5  23  1   
 11   5  24  1   
 12   6  11  1   
 13   6  25  1   
 14   6  26  1   
 15   7  12  1   
 16   7  27  1   
 17   7  28  1   
 18   8  12  1   
 19   8  29  1   
 20   8  30  1   
 21   9  13  1   
 22   9  31  1   
 23   9  32  1   
 24  10  11  1   
 25  10  14  1   
 26  10  33  1   
 27  11  15  1   
 28  11  34  1   
 29  12  35  1   
 30  12  36  1   
 31  13  16  1   
 32  14  37  1   
 33  15  17  1   
 34  15  38  1   
 35  15  39  1   
 36  16  40  1   
 37  16  41  1   
 38  16  42  1   
 39  17  18  1   
 40  17  19  2   
 41  18  20  1   
 42  19  21  1   
 43  19  43  1   
 44  20  21  2   
 45  21  22  1   
 46  22  44  1   
 47  22  45  1   
 48  22  46  1   
@<TRIPOS>SUBSTRUCTURE
  1 ****   6 GROUP 4 **** **** 0

# MOE 2024.06 (io_trps.svl 2023.06)
