@<TRIPOS>MOLECULE
NONAME
53 56 1 0 0 
SMALL
USER_CHARGES


@<TRIPOS>ATOM
  1 O       -2.3500     1.8340    -2.4810 O.2   1 <1>  -0.5700 
  2 C       -2.7660     2.2280    -1.4160 C.2   1 <1>   0.5690 
  3 N       -3.3830     1.3770    -0.5260 N.am  1 <1>  -0.6600 
  4 C       -2.5600     3.7030    -1.1090 C.3   1 <1>   0.0820 
  5 C       -3.3810    -0.1110    -0.7300 C.3   1 <1>   0.1400 
  6 C       -4.0790     1.8170     0.7140 C.3   1 <1>   0.1400 
  7 C       -1.6670     3.8940     0.1030 C.2   1 <1>   0.1080 
  8 C       -2.7140    -0.8520     0.4590 C.3   1 <1>   0.0000 
  9 C       -3.4110     1.1650     1.9220 C.3   1 <1>  -0.1600 
 10 N       -2.0280     4.5600     1.1510 N.2   1 <1>  -0.7070 
 11 C       -0.3720     3.3530     0.2180 C.ar  1 <1>   0.0000 
 12 C       -3.4180    -0.3550     1.7520 C.3   1 <1>   0.2000 
 13 C       -3.0050    -2.3700     0.3480 C.3   1 <1>   0.1200 
 14 C       -1.1780    -0.5630     0.5000 C.3   1 <1>  -0.0160 
 15 N       -0.9720     4.4770     1.9940 N.pl3 1 <1>   0.3000 
 16 C        0.0460     3.7380     1.4730 C.ar  1 <1>  -0.1520 
 17 C        0.4780     2.5830    -0.5880 C.ar  1 <1>  -0.1500 
 18 O       -2.8540    -0.9140     2.8860 O.3   1 <1>  -0.6800 
 19 O       -2.7350    -2.8560    -0.9240 O.3   1 <1>  -0.6800 
 20 C       -0.3340    -1.3220    -0.5200 C.ar  1 <1>  -0.1440 
 21 C        1.2970     3.3580     1.9720 C.ar  1 <1>  -0.1500 
 22 C        1.7060     2.2010    -0.1030 C.ar  1 <1>  -0.1500 
 23 C        0.2980    -2.5030    -0.1550 C.ar  1 <1>  -0.1500 
 24 C       -0.1860    -0.8530    -1.8150 C.ar  1 <1>  -0.1500 
 25 C        2.1160     2.5890     1.1810 C.ar  1 <1>  -0.1500 
 26 C        1.0540    -3.2090    -1.0750 C.ar  1 <1>  -0.1500 
 27 C        0.5690    -1.5570    -2.7370 C.ar  1 <1>  -0.1500 
 28 C        1.1890    -2.7370    -2.3680 C.ar  1 <1>  -0.1500 
 29 H       -2.0970     4.1790    -1.9530 H     1 <1>   0.0800 
 30 H       -3.5100     4.1730    -0.9490 H     1 <1>   0.0800 
 31 H       -4.4000    -0.4410    -0.8310 H     1 <1>   0.0800 
 32 H       -2.8800    -0.3640    -1.6480 H     1 <1>   0.0800 
 33 H       -4.0630     2.8860     0.8260 H     1 <1>   0.0800 
 34 H       -5.1100     1.5130     0.6600 H     1 <1>   0.0800 
 35 H       -3.9630     1.4320     2.8060 H     1 <1>   0.0800 
 36 H       -2.4100     1.5440     2.0160 H     1 <1>   0.0800 
 37 H       -4.4440    -0.6830     1.7310 H     1 <1>   0.0800 
 38 H       -4.0440    -2.5720     0.5440 H     1 <1>   0.0800 
 39 H       -2.4130    -2.9250     1.0560 H     1 <1>   0.0800 
 40 H       -1.0040     0.4880     0.3710 H     1 <1>   0.0800 
 41 H       -0.7880    -0.8110     1.4690 H     1 <1>   0.0800 
 42 H       -0.9590     4.9370     2.9120 H     1 <1>   0.2700 
 43 H        0.1580     2.2960    -1.5740 H     1 <1>   0.1500 
 44 H       -1.9900    -0.5000     3.0710 H     1 <1>   0.4000 
 45 H       -1.7950    -2.6660    -1.1570 H     1 <1>   0.4000 
 46 H        1.6060     3.6660     2.9560 H     1 <1>   0.1500 
 47 H        2.3640     1.5990    -0.7060 H     1 <1>   0.1500 
 48 H        0.2030    -2.8830     0.8470 H     1 <1>   0.1500 
 49 H       -0.6580     0.0620    -2.1190 H     1 <1>   0.1500 
 50 H        3.0840     2.2770     1.5340 H     1 <1>   0.1500 
 51 H        1.5370    -4.1260    -0.7840 H     1 <1>   0.1500 
 52 H        0.6710    -1.1830    -3.7410 H     1 <1>   0.1500 
 53 H        1.7750    -3.2850    -3.0850 H     1 <1>   0.1500 
@<TRIPOS>BOND
  1   1   2  2   
  2   2   3  am  
  3   2   4  1   
  4   3   5  1   
  5   3   6  1   
  6   4   7  1   
  7   4  29  1   
  8   4  30  1   
  9   5   8  1   
 10   5  31  1   
 11   5  32  1   
 12   6   9  1   
 13   6  33  1   
 14   6  34  1   
 15   7  10  2   
 16   7  11  1   
 17   8  12  1   
 18   8  13  1   
 19   8  14  1   
 20   9  12  1   
 21   9  35  1   
 22   9  36  1   
 23  10  15  1   
 24  11  16  ar  
 25  11  17  ar  
 26  12  18  1   
 27  12  37  1   
 28  13  19  1   
 29  13  38  1   
 30  13  39  1   
 31  14  20  1   
 32  14  40  1   
 33  14  41  1   
 34  15  16  1   
 35  15  42  1   
 36  16  21  ar  
 37  17  22  ar  
 38  17  43  1   
 39  18  44  1   
 40  19  45  1   
 41  20  23  ar  
 42  20  24  ar  
 43  21  25  ar  
 44  21  46  1   
 45  22  25  ar  
 46  22  47  1   
 47  23  26  ar  
 48  23  48  1   
 49  24  27  ar  
 50  24  49  1   
 51  25  50  1   
 52  26  28  ar  
 53  26  51  1   
 54  27  28  ar  
 55  27  52  1   
 56  28  53  1   
@<TRIPOS>SUBSTRUCTURE
  1 ****  14 GROUP 4 **** **** 0

# MOE 2024.06 (io_trps.svl 2023.06)
