@<TRIPOS>MOLECULE
NONAME
47 50 1 0 0 
SMALL
USER_CHARGES


@<TRIPOS>ATOM
  1 CL      -2.3970    -7.5620     3.2240 Cl    1 <1>  -0.1770 
  2 C       -1.9100    -6.7650     1.7520 C.ar  1 <1>   0.1770 
  3 C       -2.3950    -5.5000     1.4820 C.ar  1 <1>  -0.1500 
  4 C       -1.0660    -7.4150     0.8720 C.ar  1 <1>  -0.1500 
  5 C       -2.0450    -4.8700     0.2970 C.ar  1 <1>  -0.1440 
  6 C       -0.7010    -6.7810    -0.3030 C.ar  1 <1>  -0.1500 
  7 C       -1.1870    -5.5130    -0.5860 C.ar  1 <1>  -0.1500 
  8 C       -2.6140    -3.4880    -0.0200 C.3   1 <1>   0.0450 
  9 C       -4.1340    -3.4890     0.0940 C.2   1 <1>   0.5690 
 10 O       -4.6230    -2.8990     1.0250 O.2   1 <1>  -0.5700 
 11 N       -4.9240    -4.2070    -0.7730 N.am  1 <1>  -0.6600 
 12 C       -6.3790    -4.4200    -0.4820 C.3   1 <1>   0.1400 
 13 C       -4.4240    -5.1530    -1.8130 C.3   1 <1>   0.1400 
 14 C       -6.6750    -5.8990    -0.1140 C.3   1 <1>   0.4230 
 15 C       -4.5810    -6.6180    -1.3410 C.3   1 <1>   0.3430 
 16 N       -5.4250    -6.7620    -0.0930 N.4   1 <1>  -0.9590 
 17 C       -7.7410    -6.5080    -1.0520 C.3   1 <1>   0.1200 
 18 C       -5.7840    -8.1800     0.2370 C.3   1 <1>   0.5180 
 19 O       -8.0070    -7.8350    -0.6950 O.3   1 <1>  -0.5600 
 20 C       -4.5080    -9.0460     0.2460 C.3   1 <1>  -0.1950 
 21 C       -6.8990    -8.6970    -0.7060 C.3   1 <1>   0.1200 
 22 C       -3.8910    -9.6930    -0.9600 C.3   1 <1>  -0.2000 
 23 C       -4.5290   -10.5390     0.1060 C.3   1 <1>  -0.2000 
 24 H       -3.0340    -5.0160     2.2020 H     1 <1>   0.1500 
 25 H       -0.6960    -8.3980     1.1090 H     1 <1>   0.1500 
 26 H       -0.0300    -7.2690    -0.9910 H     1 <1>   0.1500 
 27 H       -0.8800    -5.0300    -1.4990 H     1 <1>   0.1500 
 28 H       -2.3340    -3.1660    -1.0050 H     1 <1>   0.0800 
 29 H       -2.2130    -2.7760     0.6780 H     1 <1>   0.0800 
 30 H       -6.7020    -3.7910     0.3310 H     1 <1>   0.0800 
 31 H       -6.9530    -4.1240    -1.3420 H     1 <1>   0.0800 
 32 H       -4.9970    -5.0120    -2.7140 H     1 <1>   0.0800 
 33 H       -3.3990    -4.9570    -2.0690 H     1 <1>   0.0800 
 34 H       -7.1060    -5.8950     0.8740 H     1 <1>   0.0800 
 35 H       -3.5980    -7.0180    -1.1490 H     1 <1>   0.0800 
 36 H       -5.0080    -7.1950    -2.1440 H     1 <1>   0.0800 
 37 H       -4.8450    -6.3960     0.6730 H     1 <1>   0.4500 
 38 H       -7.4240    -6.4840    -2.0800 H     1 <1>   0.0800 
 39 H       -8.6650    -5.9620    -0.9670 H     1 <1>   0.0800 
 40 H       -6.1910    -8.2060     1.2350 H     1 <1>   0.0800 
 41 H       -3.8360    -8.6980     1.0100 H     1 <1>   0.1000 
 42 H       -7.2440    -9.6600    -0.3740 H     1 <1>   0.0800 
 43 H       -6.5490    -8.7920    -1.7180 H     1 <1>   0.0800 
 44 H       -4.3730    -9.6830    -1.9230 H     1 <1>   0.1000 
 45 H       -2.8170    -9.7230    -1.0470 H     1 <1>   0.1000 
 46 H       -3.8860   -11.1270     0.7420 H     1 <1>   0.1000 
 47 H       -5.4290   -11.0710    -0.1490 H     1 <1>   0.1000 
@<TRIPOS>BOND
  1   1   2  1   
  2   2   3  ar  
  3   2   4  ar  
  4   3   5  ar  
  5   3  24  1   
  6   4   6  ar  
  7   4  25  1   
  8   5   7  ar  
  9   5   8  1   
 10   6   7  ar  
 11   6  26  1   
 12   7  27  1   
 13   8   9  1   
 14   8  28  1   
 15   8  29  1   
 16   9  10  2   
 17   9  11  am  
 18  11  12  1   
 19  11  13  1   
 20  12  14  1   
 21  12  30  1   
 22  12  31  1   
 23  13  15  1   
 24  13  32  1   
 25  13  33  1   
 26  14  16  1   
 27  14  17  1   
 28  14  34  1   
 29  15  16  1   
 30  15  35  1   
 31  15  36  1   
 32  16  18  1   
 33  16  37  1   
 34  17  19  1   
 35  17  38  1   
 36  17  39  1   
 37  18  20  1   
 38  18  21  1   
 39  18  40  1   
 40  19  21  1   
 41  20  22  1   
 42  20  23  1   
 43  20  41  1   
 44  21  42  1   
 45  21  43  1   
 46  22  23  1   
 47  22  44  1   
 48  22  45  1   
 49  23  46  1   
 50  23  47  1   
@<TRIPOS>SUBSTRUCTURE
  1 ****  16 GROUP 4 **** **** 0

# MOE 2024.06 (io_trps.svl 2023.06)
