@<TRIPOS>MOLECULE
NONAME
42 43 1 0 0 
SMALL
USER_CHARGES


@<TRIPOS>ATOM
  1 F        0.5880    -3.1110    -2.0150 F     1 <1>  -0.3400 
  2 C       -0.2030    -3.6070    -1.0760 C.3   1 <1>   1.3000 
  3 F        0.5480    -4.3210    -0.2460 F     1 <1>  -0.3400 
  4 F       -0.7220    -2.5890    -0.4000 F     1 <1>  -0.3400 
  5 O       -1.2150    -4.4030    -1.6640 O.3   1 <1>  -0.3630 
  6 C       -2.1160    -4.9760    -0.8400 C.ar  1 <1>   0.0830 
  7 C       -1.8780    -6.2410    -0.3300 C.ar  1 <1>  -0.1500 
  8 C       -3.2850    -4.3050    -0.5190 C.ar  1 <1>  -0.1500 
  9 C       -2.8090    -6.8330     0.5050 C.ar  1 <1>  -0.1500 
 10 C       -4.2140    -4.8980     0.3180 C.ar  1 <1>  -0.1500 
 11 C       -3.9890    -6.1720     0.8260 C.ar  1 <1>  -0.1430 
 12 C       -4.9970    -6.8600     1.7390 C.3   1 <1>   0.4870 
 13 N       -6.1610    -7.4240     0.9720 N.4   1 <1>  -0.9590 
 14 C       -5.7130    -8.2360    -0.1890 C.3   1 <1>   0.5230 
 15 C       -7.1100    -6.3430     0.5580 C.3   1 <1>   0.3430 
 16 C       -4.9580    -9.4410     0.3190 C.2   1 <1>  -0.3320 
 17 C       -8.4830    -6.8820     0.1300 C.3   1 <1>   0.1200 
 18 N       -3.9770   -10.0520    -0.3840 N.pl3 1 <1>   0.0480 
 19 C       -5.0750   -10.1280     1.4800 C.2   1 <1>   0.0770 
 20 O       -9.2730    -5.7940    -0.1870 O.3   1 <1>  -0.6800 
 21 C       -3.5590   -11.0570     0.4150 C.2   1 <1>   0.0360 
 22 C       -3.4490    -9.7300    -1.7270 C.3   1 <1>   0.0160 
 23 N       -4.1890   -11.1290     1.5400 N.2   1 <1>  -0.5650 
 24 H       -0.9650    -6.7550    -0.5800 H     1 <1>   0.1500 
 25 H       -3.4620    -3.3210    -0.9190 H     1 <1>   0.1500 
 26 H       -2.5990    -7.8120     0.9060 H     1 <1>   0.1500 
 27 H       -5.1030    -4.3450     0.5680 H     1 <1>   0.1500 
 28 H       -5.3460    -6.1600     2.4790 H     1 <1>   0.0800 
 29 H       -4.4910    -7.6590     2.2590 H     1 <1>   0.0800 
 30 H       -6.6490    -8.0650     1.6050 H     1 <1>   0.4500 
 31 H       -5.0760    -7.6430    -0.8270 H     1 <1>   0.0800 
 32 H       -6.5570    -8.5690    -0.7700 H     1 <1>   0.0800 
 33 H       -6.6870    -5.7800    -0.2580 H     1 <1>   0.0800 
 34 H       -7.2660    -5.6690     1.3860 H     1 <1>   0.0800 
 35 H       -8.9610    -7.4140     0.9350 H     1 <1>   0.0800 
 36 H       -8.4140    -7.5030    -0.7450 H     1 <1>   0.0800 
 37 H       -5.7530    -9.9720     2.3040 H     1 <1>   0.1500 
 38 H      -10.1790    -6.0620    -0.4550 H     1 <1>   0.4000 
 39 H       -2.7710   -11.7330     0.1250 H     1 <1>   0.1500 
 40 H       -3.1200    -8.7070    -1.7540 H     1 <1>   0.0800 
 41 H       -4.2160    -9.8870    -2.4630 H     1 <1>   0.0800 
 42 H       -2.6150   -10.3720    -1.9480 H     1 <1>   0.0800 
@<TRIPOS>BOND
  1   1   2  1   
  2   2   3  1   
  3   2   4  1   
  4   2   5  1   
  5   5   6  1   
  6   6   7  ar  
  7   6   8  ar  
  8   7   9  ar  
  9   7  24  1   
 10   8  10  ar  
 11   8  25  1   
 12   9  11  ar  
 13   9  26  1   
 14  10  11  ar  
 15  10  27  1   
 16  11  12  1   
 17  12  13  1   
 18  12  28  1   
 19  12  29  1   
 20  13  14  1   
 21  13  15  1   
 22  13  30  1   
 23  14  16  1   
 24  14  31  1   
 25  14  32  1   
 26  15  17  1   
 27  15  33  1   
 28  15  34  1   
 29  16  18  1   
 30  16  19  2   
 31  17  20  1   
 32  17  35  1   
 33  17  36  1   
 34  18  21  1   
 35  18  22  1   
 36  19  23  1   
 37  19  37  1   
 38  20  38  1   
 39  21  23  2   
 40  21  39  1   
 41  22  40  1   
 42  22  41  1   
 43  22  42  1   
@<TRIPOS>SUBSTRUCTURE
  1 ****  11 GROUP 4 **** **** 0

# MOE 2024.06 (io_trps.svl 2023.06)
