@<TRIPOS>MOLECULE
NONAME
51 55 1 0 0 
SMALL
USER_CHARGES


@<TRIPOS>ATOM
  1 N       -0.0830    -0.6980     0.8210 N.ar  1 <1>  -0.1790 
  2 C        0.1400    -2.0040     0.9760 C.ar  1 <1>   0.4610 
  3 C        0.8600     0.2250     0.4090 C.ar  1 <1>   0.3610 
  4 N       -0.8780    -2.8080     1.3570 N.pl3 1 <1>  -0.8380 
  5 C        1.4570    -2.4550     0.7000 C.ar  1 <1>  -0.1500 
  6 C        2.1670    -0.2210     0.1250 C.ar  1 <1>   0.0000 
  7 C        0.5210     1.5760     0.2710 C.ar  1 <1>  -0.1500 
  8 C       -2.1330    -2.3570     2.0340 C.3   1 <1>   0.2090 
  9 C       -0.9320    -4.2740     1.0580 C.3   1 <1>   0.2090 
 10 C        2.4450    -1.6130     0.2870 C.ar  1 <1>  -0.1430 
 11 C        3.1120     0.7310    -0.2970 C.ar  1 <1>  -0.1500 
 12 C        1.4730     2.4720    -0.1430 C.ar  1 <1>  -0.1430 
 13 C       -3.2980    -2.5300     1.0640 C.3   1 <1>  -0.1600 
 14 C       -2.0790    -4.5240     0.0750 C.3   1 <1>  -0.1600 
 15 C        3.8440    -2.1490     0.0070 C.3   1 <1>  -0.0970 
 16 C        2.7560     2.0490    -0.4230 C.ar  1 <1>  -0.1430 
 17 C        1.3330     3.9610    -0.3610 C.3   1 <1>  -0.0170 
 18 C       -3.4260    -3.9910     0.5940 C.3   1 <1>   0.1000 
 19 C        3.6230     3.2050    -0.8620 C.3   1 <1>  -0.0160 
 20 C        2.6100     4.3290    -1.1330 C.3   1 <1>  -0.1600 
 21 C       -4.4820    -4.1130    -0.4960 C.2   1 <1>   0.0060 
 22 N       -4.6670    -3.2680    -1.4500 N.2   1 <1>  -0.3380 
 23 N       -5.3390    -5.1390    -0.5950 N.pl3 1 <1>   0.0330 
 24 N       -5.6670    -3.7340    -2.2100 N.2   1 <1>  -0.3380 
 25 C       -6.0510    -4.8460    -1.6810 C.2   1 <1>   0.2700 
 26 N       -7.0660    -5.6270    -2.1810 N.pl3 1 <1>  -0.8840 
 27 H       -1.0370    -0.3850     0.9470 H     1 <1>   0.4570 
 28 H        1.6740    -3.4950     0.8440 H     1 <1>   0.1500 
 29 H       -0.4750     1.9200     0.4840 H     1 <1>   0.1500 
 30 H       -2.0650    -1.3340     2.3590 H     1 <1>   0.0800 
 31 H       -2.2990    -2.9600     2.9130 H     1 <1>   0.0800 
 32 H       -1.0930    -4.8250     1.9700 H     1 <1>   0.0800 
 33 H       -0.0210    -4.6290     0.6120 H     1 <1>   0.0800 
 34 H        4.1210     0.4360    -0.5250 H     1 <1>   0.1500 
 35 H       -3.1440    -1.8850     0.2170 H     1 <1>   0.0800 
 36 H       -4.2140    -2.2300     1.5400 H     1 <1>   0.0800 
 37 H       -2.1600    -5.5790    -0.1160 H     1 <1>   0.0800 
 38 H       -1.8430    -4.0450    -0.8600 H     1 <1>   0.0800 
 39 H        3.8970    -3.2100     0.1780 H     1 <1>   0.0800 
 40 H        4.5620    -1.6720     0.6520 H     1 <1>   0.0800 
 41 H        4.1160    -1.9630    -1.0170 H     1 <1>   0.0800 
 42 H        1.3110     4.4650     0.5890 H     1 <1>   0.0800 
 43 H        0.4490     4.2050    -0.9250 H     1 <1>   0.0800 
 44 H       -3.7280    -4.5880     1.4380 H     1 <1>   0.0800 
 45 H        4.1940     2.9660    -1.7430 H     1 <1>   0.0800 
 46 H        4.2870     3.4800    -0.0610 H     1 <1>   0.0800 
 47 H        2.9920     5.2920    -0.8420 H     1 <1>   0.0800 
 48 H        2.3860     4.3460    -2.1860 H     1 <1>   0.0800 
 49 H       -5.4350    -5.9790    -0.0260 H     1 <1>   0.2700 
 50 H       -7.2670    -5.3510    -3.1480 H     1 <1>   0.4000 
 51 H       -7.9360    -5.5380    -1.6520 H     1 <1>   0.4000 
@<TRIPOS>BOND
  1   1   2  ar  
  2   1   3  ar  
  3   1  27  1   
  4   2   4  1   
  5   2   5  ar  
  6   3   6  ar  
  7   3   7  ar  
  8   4   8  1   
  9   4   9  1   
 10   5  10  ar  
 11   5  28  1   
 12   6  10  ar  
 13   6  11  ar  
 14   7  12  ar  
 15   7  29  1   
 16   8  13  1   
 17   8  30  1   
 18   8  31  1   
 19   9  14  1   
 20   9  32  1   
 21   9  33  1   
 22  10  15  1   
 23  11  16  ar  
 24  11  34  1   
 25  12  16  ar  
 26  12  17  1   
 27  13  18  1   
 28  13  35  1   
 29  13  36  1   
 30  14  18  1   
 31  14  37  1   
 32  14  38  1   
 33  15  39  1   
 34  15  40  1   
 35  15  41  1   
 36  16  19  1   
 37  17  20  1   
 38  17  42  1   
 39  17  43  1   
 40  18  21  1   
 41  18  44  1   
 42  19  20  1   
 43  19  45  1   
 44  19  46  1   
 45  20  47  1   
 46  20  48  1   
 47  21  22  2   
 48  21  23  1   
 49  22  24  1   
 50  23  25  1   
 51  23  49  1   
 52  24  25  2   
 53  25  26  1   
 54  26  50  1   
 55  26  51  1   
@<TRIPOS>SUBSTRUCTURE
  1 ****   1 GROUP 4 **** **** 0

# MOE 2024.06 (io_trps.svl 2023.06)
