@<TRIPOS>MOLECULE
NONAME
51 54 1 0 0 
SMALL
USER_CHARGES


@<TRIPOS>ATOM
  1 O        0.1030    -0.4690     0.3470 O.2   1 <1>  -0.5700 
  2 C       -0.7200     0.2120    -0.2140 C.2   1 <1>   0.5690 
  3 N       -1.9050    -0.3150    -0.6450 N.am  1 <1>  -0.6600 
  4 C       -0.4070     1.6820    -0.4230 C.3   1 <1>  -0.0990 
  5 C       -3.0280     0.4060    -1.2970 C.3   1 <1>   0.1400 
  6 C       -2.2620    -1.7400    -0.4350 C.3   1 <1>   0.1400 
  7 C       -0.9290     2.5340     0.7430 C.3   1 <1>  -0.0650 
  8 C       -4.2400    -0.4860    -1.0410 C.3   1 <1>   0.2000 
  9 C       -3.6550    -1.9050    -1.0590 C.3   1 <1>  -0.0800 
 10 C       -0.8160     4.0410     0.4610 C.3   1 <1>  -0.1900 
 11 O       -4.7240    -0.1950     0.2260 O.3   1 <1>  -0.6800 
 12 C       -4.5350    -2.9690    -0.3680 C.3   1 <1>  -0.0170 
 13 C       -1.8110     4.9470     1.1080 C.3   1 <1>  -0.2000 
 14 C       -1.8630     4.6960    -0.3780 C.3   1 <1>  -0.2000 
 15 C        0.6300     4.5410     0.3520 C.3   1 <1>  -0.1450 
 16 C       -4.0800    -4.4290    -0.4900 C.ar  1 <1>  -0.1440 
 17 C       -4.7370    -5.4320     0.2660 C.ar  1 <1>   0.0000 
 18 C       -3.0630    -4.8390    -1.3070 C.ar  1 <1>  -0.1500 
 19 C       -4.2830    -6.7680     0.1380 C.ar  1 <1>   0.3100 
 20 C       -5.8270    -5.1900     1.1370 C.ar  1 <1>  -0.1500 
 21 C       -2.6950    -6.1890    -1.3620 C.ar  1 <1>   0.1600 
 22 N       -3.2620    -7.1290    -0.6770 N.ar  1 <1>  -0.6200 
 23 C       -4.9130    -7.7780     0.8830 C.ar  1 <1>  -0.1500 
 24 C       -6.4210    -6.1980     1.8470 C.ar  1 <1>  -0.1500 
 25 C       -5.9590    -7.5100     1.7220 C.ar  1 <1>  -0.1500 
 26 H        0.6600     1.7880    -0.4980 H     1 <1>   0.0800 
 27 H       -0.8320     2.0160    -1.3500 H     1 <1>   0.0800 
 28 H       -3.1720     1.3940    -0.8970 H     1 <1>   0.0800 
 29 H       -2.8360     0.4680    -2.3540 H     1 <1>   0.0800 
 30 H       -1.5310    -2.3800    -0.8990 H     1 <1>   0.0800 
 31 H       -2.2840    -1.9430     0.6230 H     1 <1>   0.0800 
 32 H       -0.3790     2.2910     1.6360 H     1 <1>   0.0800 
 33 H       -1.9590     2.2850     0.9260 H     1 <1>   0.0800 
 34 H       -5.0340    -0.3390    -1.7530 H     1 <1>   0.0800 
 35 H       -3.5310    -2.1750    -2.0920 H     1 <1>   0.0800 
 36 H       -3.9730    -0.1960     0.8550 H     1 <1>   0.4000 
 37 H       -5.5310    -2.8970    -0.7700 H     1 <1>   0.0800 
 38 H       -4.5930    -2.7250     0.6780 H     1 <1>   0.0800 
 39 H       -2.5860     4.5280     1.7270 H     1 <1>   0.1000 
 40 H       -1.4960     5.9170     1.4530 H     1 <1>   0.1000 
 41 H       -1.5800     5.4940    -1.0430 H     1 <1>   0.1000 
 42 H       -2.6780     4.1100    -0.7660 H     1 <1>   0.1000 
 43 H        0.6550     5.6100     0.2420 H     1 <1>   0.0800 
 44 H        1.1190     4.1080    -0.5020 H     1 <1>   0.0800 
 45 H        1.1800     4.2790     1.2380 H     1 <1>   0.0800 
 46 H       -2.5100    -4.1680    -1.9340 H     1 <1>   0.1500 
 47 H       -6.2060    -4.1920     1.2490 H     1 <1>   0.1500 
 48 H       -1.8850    -6.4620    -2.0170 H     1 <1>   0.1500 
 49 H       -4.5420    -8.7800     0.7680 H     1 <1>   0.1500 
 50 H       -7.2470    -5.9950     2.5060 H     1 <1>   0.1500 
 51 H       -6.4330    -8.2950     2.2860 H     1 <1>   0.1500 
@<TRIPOS>BOND
  1   1   2  2   
  2   2   3  am  
  3   2   4  1   
  4   3   5  1   
  5   3   6  1   
  6   4   7  1   
  7   4  26  1   
  8   4  27  1   
  9   5   8  1   
 10   5  28  1   
 11   5  29  1   
 12   6   9  1   
 13   6  30  1   
 14   6  31  1   
 15   7  10  1   
 16   7  32  1   
 17   7  33  1   
 18   8   9  1   
 19   8  11  1   
 20   8  34  1   
 21   9  12  1   
 22   9  35  1   
 23  10  13  1   
 24  10  14  1   
 25  10  15  1   
 26  11  36  1   
 27  12  16  1   
 28  12  37  1   
 29  12  38  1   
 30  13  14  1   
 31  13  39  1   
 32  13  40  1   
 33  14  41  1   
 34  14  42  1   
 35  15  43  1   
 36  15  44  1   
 37  15  45  1   
 38  16  17  ar  
 39  16  18  ar  
 40  17  19  ar  
 41  17  20  ar  
 42  18  21  ar  
 43  18  46  1   
 44  19  22  ar  
 45  19  23  ar  
 46  20  24  ar  
 47  20  47  1   
 48  21  22  ar  
 49  21  48  1   
 50  23  25  ar  
 51  23  49  1   
 52  24  25  ar  
 53  24  50  1   
 54  25  51  1   
@<TRIPOS>SUBSTRUCTURE
  1 ****   6 GROUP 4 **** **** 0

# MOE 2024.06 (io_trps.svl 2023.06)
