@<TRIPOS>MOLECULE
NONAME
43 45 1 0 0 
SMALL
USER_CHARGES


@<TRIPOS>ATOM
  1 S       -0.0190     0.2090    -0.6360 S.3   1 <1>  -0.0800 
  2 C        1.6020    -0.2860    -0.1870 C.2   1 <1>   0.4620 
  3 C       -0.5660    -1.4170    -0.3300 C.2   1 <1>  -0.1100 
  4 N        1.7040    -1.5160     0.1470 N.2   1 <1>  -0.5650 
  5 N        2.6000     0.6290    -0.2200 N.pl3 1 <1>  -0.8840 
  6 C        0.4820    -2.1590     0.0680 C.2   1 <1>   0.0460 
  7 C        0.4830    -3.6340     0.4440 C.3   1 <1>   0.0210 
  8 C       -0.8830    -4.3160     0.2510 C.3   1 <1>  -0.0990 
  9 C       -0.8710    -5.7990     0.5900 C.2   1 <1>   0.5690 
 10 O        0.0450    -6.2520     1.2320 O.2   1 <1>  -0.5700 
 11 N       -1.8990    -6.5980     0.1730 N.am  1 <1>  -0.6600 
 12 C       -3.1170    -6.1840    -0.5690 C.3   1 <1>   0.1400 
 13 C       -1.9350    -8.0550     0.4540 C.3   1 <1>   0.1400 
 14 C       -4.0980    -7.3370    -0.3600 C.3   1 <1>   0.2000 
 15 C       -3.1930    -8.5700    -0.2590 C.3   1 <1>  -0.0800 
 16 O       -4.7470    -7.1360     0.8490 O.3   1 <1>  -0.6800 
 17 C       -3.8380    -9.7950     0.4180 C.3   1 <1>   0.0200 
 18 C       -2.9630   -11.0370     0.3670 C.2   1 <1>  -0.0400 
 19 O       -3.3480   -12.1000     1.0210 O.3   1 <1>  -0.0190 
 20 C       -1.8000   -11.3310    -0.2380 C.2   1 <1>  -0.1500 
 21 N       -2.5080   -13.0860     0.8910 N.2   1 <1>  -0.4100 
 22 C       -1.5640   -12.6510     0.1370 C.2   1 <1>   0.1080 
 23 C       -0.3630   -13.4700    -0.2790 C.3   1 <1>  -0.0590 
 24 H       -1.6080    -1.6260    -0.4830 H     1 <1>   0.1500 
 25 H        2.4410     1.6070    -0.4580 H     1 <1>   0.4000 
 26 H        3.5380     0.3510     0.0700 H     1 <1>   0.4000 
 27 H        1.2190    -4.1380    -0.1570 H     1 <1>   0.0800 
 28 H        0.7890    -3.7220     1.4720 H     1 <1>   0.0800 
 29 H       -1.1790    -4.2010    -0.7750 H     1 <1>   0.0800 
 30 H       -1.6100    -3.8360     0.8780 H     1 <1>   0.0800 
 31 H       -3.5170    -5.2520    -0.2070 H     1 <1>   0.0800 
 32 H       -2.8760    -6.0950    -1.6140 H     1 <1>   0.0800 
 33 H       -1.0420    -8.5310     0.0880 H     1 <1>   0.0800 
 34 H       -2.0030    -8.2050     1.5180 H     1 <1>   0.0800 
 35 H       -4.8380    -7.4100    -1.1380 H     1 <1>   0.0800 
 36 H       -2.9110    -8.8450    -1.2600 H     1 <1>   0.0800 
 37 H       -4.0810    -6.9540     1.5420 H     1 <1>   0.4000 
 38 H       -4.7720   -10.0200    -0.0670 H     1 <1>   0.0800 
 39 H       -4.0530    -9.5760     1.4490 H     1 <1>   0.0800 
 40 H       -1.1680   -10.7350    -0.8680 H     1 <1>   0.1500 
 41 H        0.5380   -12.9960     0.0650 H     1 <1>   0.0800 
 42 H       -0.3330   -13.5570    -1.3490 H     1 <1>   0.0800 
 43 H       -0.4240   -14.4540     0.1490 H     1 <1>   0.0800 
@<TRIPOS>BOND
  1   1   2  1   
  2   1   3  1   
  3   2   4  2   
  4   2   5  1   
  5   3   6  2   
  6   3  24  1   
  7   4   6  1   
  8   5  25  1   
  9   5  26  1   
 10   6   7  1   
 11   7   8  1   
 12   7  27  1   
 13   7  28  1   
 14   8   9  1   
 15   8  29  1   
 16   8  30  1   
 17   9  10  2   
 18   9  11  am  
 19  11  12  1   
 20  11  13  1   
 21  12  14  1   
 22  12  31  1   
 23  12  32  1   
 24  13  15  1   
 25  13  33  1   
 26  13  34  1   
 27  14  15  1   
 28  14  16  1   
 29  14  35  1   
 30  15  17  1   
 31  15  36  1   
 32  16  37  1   
 33  17  18  1   
 34  17  38  1   
 35  17  39  1   
 36  18  19  1   
 37  18  20  2   
 38  19  21  1   
 39  20  22  1   
 40  20  40  1   
 41  21  22  2   
 42  22  23  1   
 43  23  41  1   
 44  23  42  1   
 45  23  43  1   
@<TRIPOS>SUBSTRUCTURE
  1 ****  11 GROUP 4 **** **** 0

# MOE 2024.06 (io_trps.svl 2023.06)
