@<TRIPOS>MOLECULE
NONAME
54 56 1 0 0 
SMALL
USER_CHARGES


@<TRIPOS>ATOM
  1 O        1.9180    -0.1640    -2.2750 O.2   1 <1>  -0.5700 
  2 C        2.4320    -0.8950    -1.4620 C.2   1 <1>   0.5690 
  3 N        2.2030    -0.8030    -0.1170 N.am  1 <1>  -0.6600 
  4 C        3.3990    -1.9590    -1.9370 C.3   1 <1>  -0.0990 
  5 C        2.8680    -1.7420     0.8170 C.3   1 <1>   0.1400 
  6 C        1.3390     0.2450     0.4850 C.3   1 <1>   0.0600 
  7 C        3.1680    -3.3080    -1.2220 C.3   1 <1>  -0.0800 
  8 C        2.7790    -3.1760     0.2660 C.3   1 <1>  -0.0800 
  9 C        4.3890    -4.2340    -1.2970 C.3   1 <1>  -0.1600 
 10 C        3.6510    -4.1620     1.0590 C.3   1 <1>  -0.1600 
 11 C        4.4760    -4.9560     0.0470 C.3   1 <1>   0.2200 
 12 N        5.8840    -5.2100     0.4920 N.am  1 <1>  -0.6600 
 13 C        6.9200    -4.2860     0.5470 C.2   1 <1>   0.5440 
 14 C        6.1940    -6.6620     0.6440 C.3   1 <1>   0.0600 
 15 O        8.0600    -4.6820     0.3960 O.2   1 <1>  -0.5700 
 16 C        6.7210    -2.8700     0.7810 C.ar  1 <1>   0.0860 
 17 C        6.8130    -1.9470    -0.2580 C.ar  1 <1>  -0.1500 
 18 C        6.4560    -2.3790     2.0580 C.ar  1 <1>  -0.1500 
 19 C        6.5520    -0.5950    -0.0690 C.ar  1 <1>   0.0820 
 20 C        6.1990    -1.0380     2.2700 C.ar  1 <1>  -0.1500 
 21 O        6.6370     0.2970    -1.0980 O.3   1 <1>  -0.3620 
 22 C        6.2030    -0.1430     1.2130 C.ar  1 <1>   0.0820 
 23 C        7.2180    -0.0430    -2.3380 C.3   1 <1>   0.0400 
 24 O        5.8390     1.1270     1.5210 O.3   1 <1>  -0.3630 
 25 C        5.0470     1.8790     0.6290 C.3   1 <1>   0.1200 
 26 C        4.2900     2.9290     1.4360 C.3   1 <1>  -0.2400 
 27 H        3.3030    -2.0840    -3.0000 H     1 <1>   0.0800 
 28 H        4.3850    -1.5890    -1.7350 H     1 <1>   0.0800 
 29 H        3.8970    -1.4490     0.9140 H     1 <1>   0.0800 
 30 H        2.4060    -1.6930     1.7880 H     1 <1>   0.0800 
 31 H        1.9060     0.8200     1.1960 H     1 <1>   0.0800 
 32 H        0.5040    -0.2150     0.9830 H     1 <1>   0.0800 
 33 H        0.9640     0.9090    -0.2760 H     1 <1>   0.0800 
 34 H        2.3460    -3.8010    -1.7150 H     1 <1>   0.0800 
 35 H        1.7520    -3.4850     0.3660 H     1 <1>   0.0800 
 36 H        5.2780    -3.6740    -1.4920 H     1 <1>   0.0800 
 37 H        4.2700    -4.9470    -2.0940 H     1 <1>   0.0800 
 38 H        3.0260    -4.8370     1.6170 H     1 <1>   0.0800 
 39 H        4.2750    -3.6480     1.7570 H     1 <1>   0.0800 
 40 H        3.9780    -5.9020    -0.0840 H     1 <1>   0.0800 
 41 H        5.4410    -7.1390     1.2450 H     1 <1>   0.0800 
 42 H        7.1470    -6.8000     1.1260 H     1 <1>   0.0800 
 43 H        6.2280    -7.1280    -0.3250 H     1 <1>   0.0800 
 44 H        7.0940    -2.3280    -1.2210 H     1 <1>   0.1500 
 45 H        6.4460    -3.0660     2.8860 H     1 <1>   0.1500 
 46 H        5.9810    -0.6750     3.2580 H     1 <1>   0.1500 
 47 H        7.2640     0.8480    -2.9390 H     1 <1>   0.0800 
 48 H        6.6030    -0.7780    -2.8260 H     1 <1>   0.0800 
 49 H        8.2110    -0.4200    -2.1680 H     1 <1>   0.0800 
 50 H        5.6970     2.3470    -0.0900 H     1 <1>   0.0800 
 51 H        4.3620     1.2150     0.1270 H     1 <1>   0.0800 
 52 H        4.9850     3.5860     1.9270 H     1 <1>   0.0800 
 53 H        3.6650     2.4530     2.1680 H     1 <1>   0.0800 
 54 H        3.6710     3.5120     0.7790 H     1 <1>   0.0800 
@<TRIPOS>BOND
  1   1   2  2   
  2   2   3  am  
  3   2   4  1   
  4   3   5  1   
  5   3   6  1   
  6   4   7  1   
  7   4  27  1   
  8   4  28  1   
  9   5   8  1   
 10   5  29  1   
 11   5  30  1   
 12   6  31  1   
 13   6  32  1   
 14   6  33  1   
 15   7   8  1   
 16   7   9  1   
 17   7  34  1   
 18   8  10  1   
 19   8  35  1   
 20   9  11  1   
 21   9  36  1   
 22   9  37  1   
 23  10  11  1   
 24  10  38  1   
 25  10  39  1   
 26  11  12  1   
 27  11  40  1   
 28  12  13  am  
 29  12  14  1   
 30  13  15  2   
 31  13  16  1   
 32  14  41  1   
 33  14  42  1   
 34  14  43  1   
 35  16  17  ar  
 36  16  18  ar  
 37  17  19  ar  
 38  17  44  1   
 39  18  20  ar  
 40  18  45  1   
 41  19  21  1   
 42  19  22  ar  
 43  20  22  ar  
 44  20  46  1   
 45  21  23  1   
 46  22  24  1   
 47  23  47  1   
 48  23  48  1   
 49  23  49  1   
 50  24  25  1   
 51  25  26  1   
 52  25  50  1   
 53  25  51  1   
 54  26  52  1   
 55  26  53  1   
 56  26  54  1   
@<TRIPOS>SUBSTRUCTURE
  1 ****  17 GROUP 4 **** **** 0

# MOE 2024.06 (io_trps.svl 2023.06)
