@<TRIPOS>MOLECULE
NONAME
45 47 1 0 0 
SMALL
USER_CHARGES


@<TRIPOS>ATOM
  1 O       -2.6540     0.6710    -1.6770 O.2   1 <1>  -0.5700 
  2 C       -2.4210     0.5560    -0.5000 C.2   1 <1>   0.5690 
  3 N       -2.2080    -0.6530     0.0700 N.am  1 <1>  -0.7300 
  4 C       -2.3770     1.7900     0.3700 C.3   1 <1>  -0.0990 
  5 C       -2.1790    -1.9450    -0.6570 C.3   1 <1>   0.2200 
  6 C       -1.2840     2.7360    -0.1130 C.3   1 <1>   0.1200 
  7 C       -3.4630    -2.7370    -0.4430 C.3   1 <1>  -0.0800 
  8 C       -1.1740    -2.8620     0.0240 C.3   1 <1>   0.1200 
  9 O       -1.2220     3.8030     0.7760 O.3   1 <1>  -0.5600 
 10 C       -3.2160    -3.4090     0.9150 C.3   1 <1>   0.1200 
 11 C       -4.7650    -1.9130    -0.5260 C.3   1 <1>  -0.0160 
 12 O       -1.8370    -3.3550     1.1480 O.3   1 <1>  -0.5600 
 13 C       -0.2870     4.7720     0.4270 C.3   1 <1>   0.0400 
 14 C       -6.0820    -2.6930    -0.4310 C.ar  1 <1>  -0.1440 
 15 C       -7.3060    -1.9860    -0.3200 C.ar  1 <1>   0.0000 
 16 C       -6.1580    -4.0590    -0.4550 C.ar  1 <1>  -0.1500 
 17 C       -8.5020    -2.7380    -0.2070 C.ar  1 <1>   0.3100 
 18 C       -7.4140    -0.5750    -0.3220 C.ar  1 <1>  -0.1500 
 19 C       -7.3960    -4.7040    -0.3460 C.ar  1 <1>   0.1600 
 20 N       -8.5290    -4.0930    -0.2200 N.ar  1 <1>  -0.6200 
 21 C       -9.7240    -2.0590    -0.0790 C.ar  1 <1>  -0.1500 
 22 C       -8.6230     0.0560    -0.1990 C.ar  1 <1>  -0.1500 
 23 C       -9.7940    -0.6930    -0.0730 C.ar  1 <1>  -0.1500 
 24 H       -2.0490    -0.7420     1.0770 H     1 <1>   0.3700 
 25 H       -3.3280     2.2840     0.3120 H     1 <1>   0.0800 
 26 H       -2.1860     1.5130     1.3890 H     1 <1>   0.0800 
 27 H       -1.9540    -1.7900    -1.7000 H     1 <1>   0.0800 
 28 H       -1.5160     3.1090    -1.0970 H     1 <1>   0.0800 
 29 H       -0.3280     2.2400    -0.1240 H     1 <1>   0.0800 
 30 H       -3.4910    -3.5020    -1.1980 H     1 <1>   0.0800 
 31 H       -0.2760    -2.3510     0.3240 H     1 <1>   0.0800 
 32 H       -0.9280    -3.6980    -0.6080 H     1 <1>   0.0800 
 33 H       -3.5270    -4.4380     0.9230 H     1 <1>   0.0800 
 34 H       -3.7020    -2.8760     1.7140 H     1 <1>   0.0800 
 35 H       -4.7630    -1.3700    -1.4560 H     1 <1>   0.0800 
 36 H       -4.7550    -1.1910     0.2710 H     1 <1>   0.0800 
 37 H       -0.3150     5.5480     1.1710 H     1 <1>   0.0800 
 38 H       -0.5430     5.1830    -0.5350 H     1 <1>   0.0800 
 39 H        0.6930     4.3280     0.4010 H     1 <1>   0.0800 
 40 H       -5.2970    -4.6890    -0.5580 H     1 <1>   0.1500 
 41 H       -6.5300     0.0260    -0.4270 H     1 <1>   0.1500 
 42 H       -7.4040    -5.7800    -0.3670 H     1 <1>   0.1500 
 43 H      -10.6120    -2.6570     0.0130 H     1 <1>   0.1500 
 44 H       -8.6860     1.1300    -0.2010 H     1 <1>   0.1500 
 45 H      -10.7390    -0.1860     0.0250 H     1 <1>   0.1500 
@<TRIPOS>BOND
  1   1   2  2   
  2   2   3  am  
  3   2   4  1   
  4   3   5  1   
  5   3  24  1   
  6   4   6  1   
  7   4  25  1   
  8   4  26  1   
  9   5   7  1   
 10   5   8  1   
 11   5  27  1   
 12   6   9  1   
 13   6  28  1   
 14   6  29  1   
 15   7  10  1   
 16   7  11  1   
 17   7  30  1   
 18   8  12  1   
 19   8  31  1   
 20   8  32  1   
 21   9  13  1   
 22  10  12  1   
 23  10  33  1   
 24  10  34  1   
 25  11  14  1   
 26  11  35  1   
 27  11  36  1   
 28  13  37  1   
 29  13  38  1   
 30  13  39  1   
 31  14  15  ar  
 32  14  16  ar  
 33  15  17  ar  
 34  15  18  ar  
 35  16  19  ar  
 36  16  40  1   
 37  17  20  ar  
 38  17  21  ar  
 39  18  22  ar  
 40  18  41  1   
 41  19  20  ar  
 42  19  42  1   
 43  21  23  ar  
 44  21  43  1   
 45  22  23  ar  
 46  22  44  1   
 47  23  45  1   
@<TRIPOS>SUBSTRUCTURE
  1 ****  11 GROUP 4 **** **** 0

# MOE 2024.06 (io_trps.svl 2023.06)
