@<TRIPOS>MOLECULE
NONAME
53 55 1 0 0 
SMALL
USER_CHARGES


@<TRIPOS>ATOM
  1 CL      -3.6840     2.5380     3.0990 Cl    1 <1>  -0.1770 
  2 C       -3.4740     2.5580     1.3580 C.ar  1 <1>   0.1770 
  3 C       -2.7050     3.5270     0.7210 C.ar  1 <1>   0.0820 
  4 C       -4.1450     1.5850     0.6410 C.ar  1 <1>  -0.1500 
  5 O       -1.9740     4.4240     1.4370 O.3   1 <1>  -0.3630 
  6 C       -2.6910     3.5490    -0.6790 C.ar  1 <1>   0.0820 
  7 C       -4.0930     1.5880    -0.7450 C.ar  1 <1>  -0.1440 
  8 C       -0.8660     3.8990     2.1860 C.3   1 <1>   0.0140 
  9 O       -2.0490     4.4910    -1.4140 O.3   1 <1>  -0.3630 
 10 C       -3.3750     2.5800    -1.3950 C.ar  1 <1>  -0.1500 
 11 C       -4.8320     0.5360    -1.5420 C.3   1 <1>   0.4860 
 12 C        0.0040     2.8960     1.4280 C.2   1 <1>   0.9060 
 13 C       -0.6430     4.5600    -1.2930 C.3   1 <1>   0.0400 
 14 N       -6.2840     0.7900    -1.3710 N.4   1 <1>  -0.9590 
 15 O        1.0820     3.2820     0.9590 O.co2 1 <1>  -0.9000 
 16 O       -0.3800     1.7250     1.3020 O.co2 1 <1>  -0.9000 
 17 C       -7.1760    -0.2950    -1.8430 C.3   1 <1>   0.3430 
 18 C       -6.7140     2.1440    -1.8340 C.3   1 <1>   0.3430 
 19 C       -8.5860    -0.0920    -1.2710 C.3   1 <1>  -0.1600 
 20 C       -8.2120     2.3570    -1.5820 C.3   1 <1>  -0.1600 
 21 C       -8.8110     1.2950    -0.6530 C.3   1 <1>   0.4180 
 22 O       -8.0980     1.2980     0.5660 O.3   1 <1>  -0.5600 
 23 C      -10.2970     1.5260    -0.4080 C.2   1 <1>  -0.2880 
 24 C       -8.4650     2.2560     1.5260 C.3   1 <1>   0.1200 
 25 C      -10.8150     1.8470     0.7790 C.2   1 <1>  -0.2760 
 26 C       -9.9120     2.0360     1.9830 C.3   1 <1>  -0.0220 
 27 C      -12.2980     2.0390     1.0450 C.3   1 <1>  -0.1020 
 28 H       -4.6960     0.8410     1.1870 H     1 <1>   0.1500 
 29 H       -1.2380     3.4270     3.0720 H     1 <1>   0.0800 
 30 H       -0.2510     4.7290     2.4700 H     1 <1>   0.0800 
 31 H       -3.3200     2.6210    -2.4680 H     1 <1>   0.1500 
 32 H       -4.5740    -0.4410    -1.1660 H     1 <1>   0.0800 
 33 H       -4.5570     0.5930    -2.5820 H     1 <1>   0.0800 
 34 H       -0.2550     5.1000    -2.1360 H     1 <1>   0.0800 
 35 H       -0.2370     3.5620    -1.2770 H     1 <1>   0.0800 
 36 H       -0.3890     5.0770    -0.3870 H     1 <1>   0.0800 
 37 H       -6.4520     0.8330    -0.3460 H     1 <1>   0.4500 
 38 H       -6.8000    -1.2540    -1.5250 H     1 <1>   0.0800 
 39 H       -7.2160    -0.2860    -2.9200 H     1 <1>   0.0800 
 40 H       -6.4970     2.2690    -2.8820 H     1 <1>   0.0800 
 41 H       -6.1620     2.8940    -1.2880 H     1 <1>   0.0800 
 42 H       -8.7910    -0.8410    -0.5270 H     1 <1>   0.0800 
 43 H       -9.2900    -0.2490    -2.0670 H     1 <1>   0.0800 
 44 H       -8.7250     2.3200    -2.5260 H     1 <1>   0.0800 
 45 H       -8.3790     3.3410    -1.1850 H     1 <1>   0.0800 
 46 H      -10.9000     1.3980    -1.2890 H     1 <1>   0.1500 
 47 H       -8.3540     3.2360     1.0970 H     1 <1>   0.0800 
 48 H       -7.7930     2.1660     2.3620 H     1 <1>   0.0800 
 49 H      -10.2240     2.8940     2.5520 H     1 <1>   0.0800 
 50 H       -9.9680     1.1730     2.6230 H     1 <1>   0.0800 
 51 H      -12.6330     1.3450     1.7950 H     1 <1>   0.0800 
 52 H      -12.8690     1.8730     0.1490 H     1 <1>   0.0800 
 53 H      -12.4890     3.0400     1.3880 H     1 <1>   0.0800 
@<TRIPOS>BOND
  1   1   2  1   
  2   2   3  ar  
  3   2   4  ar  
  4   3   5  1   
  5   3   6  ar  
  6   4   7  ar  
  7   4  28  1   
  8   5   8  1   
  9   6   9  1   
 10   6  10  ar  
 11   7  10  ar  
 12   7  11  1   
 13   8  12  1   
 14   8  29  1   
 15   8  30  1   
 16   9  13  1   
 17  10  31  1   
 18  11  14  1   
 19  11  32  1   
 20  11  33  1   
 21  12  15  ar  
 22  12  16  ar  
 23  13  34  1   
 24  13  35  1   
 25  13  36  1   
 26  14  17  1   
 27  14  18  1   
 28  14  37  1   
 29  17  19  1   
 30  17  38  1   
 31  17  39  1   
 32  18  20  1   
 33  18  40  1   
 34  18  41  1   
 35  19  21  1   
 36  19  42  1   
 37  19  43  1   
 38  20  21  1   
 39  20  44  1   
 40  20  45  1   
 41  21  22  1   
 42  21  23  1   
 43  22  24  1   
 44  23  25  2   
 45  23  46  1   
 46  24  26  1   
 47  24  47  1   
 48  24  48  1   
 49  25  26  1   
 50  25  27  1   
 51  26  49  1   
 52  26  50  1   
 53  27  51  1   
 54  27  52  1   
 55  27  53  1   
@<TRIPOS>SUBSTRUCTURE
  1 ****   4 GROUP 4 **** **** 0

# MOE 2024.06 (io_trps.svl 2023.06)
