@<TRIPOS>MOLECULE
NONAME
55 58 1 0 0 
SMALL
USER_CHARGES


@<TRIPOS>ATOM
  1 S       -0.0360     0.0620    -0.9220 S.o2  1 <1>   1.3330 
  2 O       -0.8130    -1.1070    -0.5850 O.2   1 <1>  -0.6500 
  3 O        0.3610     0.3090    -2.2900 O.2   1 <1>  -0.6500 
  4 N        1.3800     0.0270     0.0190 N.am  1 <1>  -0.8490 
  5 C       -0.8830     1.5340    -0.3390 C.3   1 <1>  -0.0550 
  6 C        1.1600    -0.5360     1.3590 C.3   1 <1>   0.1160 
  7 C        2.4460    -0.7330    -0.6450 C.3   1 <1>   0.1160 
  8 C       -0.2660     2.8530    -0.8560 C.3   1 <1>  -0.0800 
  9 C       -0.9720     4.1180    -0.3790 C.3   1 <1>   0.2000 
 10 C        1.2030     3.0790    -0.4770 C.3   1 <1>   0.2090 
 11 O       -1.1880     4.0370     0.9890 O.3   1 <1>  -0.6800 
 12 C        0.0590     5.2150    -0.6390 C.3   1 <1>   0.2090 
 13 N        1.3890     4.5640    -0.3960 N.pl3 1 <1>  -0.8380 
 14 C        2.5760     5.1630    -0.1600 C.ar  1 <1>   0.4610 
 15 N        2.6600     6.4940    -0.1460 N.ar  1 <1>  -0.1790 
 16 C        3.7760     4.4450     0.0780 C.ar  1 <1>  -0.1500 
 17 C        3.8220     7.2070     0.0840 C.ar  1 <1>   0.3610 
 18 C        4.9620     5.0710     0.3120 C.ar  1 <1>  -0.1440 
 19 C        5.0190     6.4990     0.3220 C.ar  1 <1>   0.0000 
 20 C        3.8110     8.6080     0.0790 C.ar  1 <1>  -0.1500 
 21 C        6.2250     4.2550     0.5610 C.3   1 <1>  -0.0970 
 22 C        6.1910     7.2420     0.5520 C.ar  1 <1>  -0.1500 
 23 C        4.9760     9.2930     0.3090 C.ar  1 <1>  -0.1440 
 24 C        6.1530     8.6130     0.5430 C.ar  1 <1>  -0.1440 
 25 C        5.1970    10.7870     0.3470 C.3   1 <1>  -0.0170 
 26 C        7.2980     9.5710     0.7640 C.3   1 <1>  -0.0170 
 27 C        6.7280    10.9220     0.3020 C.3   1 <1>  -0.1600 
 28 H       -1.9010     1.4920    -0.6760 H     1 <1>   0.0800 
 29 H       -0.9060     1.5280     0.7330 H     1 <1>   0.0800 
 30 H        2.0640    -0.4740     1.9410 H     1 <1>   0.0800 
 31 H        0.8620    -1.5700     1.2910 H     1 <1>   0.0800 
 32 H        0.3880     0.0080     1.8740 H     1 <1>   0.0800 
 33 H        3.3340    -0.7480    -0.0360 H     1 <1>   0.0800 
 34 H        2.6940    -0.2780    -1.5900 H     1 <1>   0.0800 
 35 H        2.1260    -1.7470    -0.8270 H     1 <1>   0.0800 
 36 H       -0.3150     2.8410    -1.9320 H     1 <1>   0.0800 
 37 H       -1.9160     4.2960    -0.8670 H     1 <1>   0.0800 
 38 H        1.8560     2.6430    -1.2160 H     1 <1>   0.0800 
 39 H        1.4130     2.6440     0.4860 H     1 <1>   0.0800 
 40 H       -0.3310     3.9870     1.4570 H     1 <1>   0.4000 
 41 H       -0.1150     6.0610     0.0030 H     1 <1>   0.0800 
 42 H       -0.0020     5.5200    -1.6710 H     1 <1>   0.0800 
 43 H        1.8110     7.0140    -0.3230 H     1 <1>   0.4570 
 44 H        3.7290     3.3720     0.0690 H     1 <1>   0.1500 
 45 H        2.9030     9.1530    -0.1020 H     1 <1>   0.1500 
 46 H        6.0220     3.2000     0.5210 H     1 <1>   0.0800 
 47 H        6.6290     4.4810     1.5330 H     1 <1>   0.0800 
 48 H        6.9670     4.4810    -0.1850 H     1 <1>   0.0800 
 49 H        7.1250     6.7430     0.7380 H     1 <1>   0.1500 
 50 H        4.7340    11.2860    -0.4870 H     1 <1>   0.0800 
 51 H        4.8140    11.1860     1.2700 H     1 <1>   0.0800 
 52 H        7.5420     9.6040     1.8120 H     1 <1>   0.0800 
 53 H        8.1690     9.2940     0.1960 H     1 <1>   0.0800 
 54 H        7.0310    11.0950    -0.7170 H     1 <1>   0.0800 
 55 H        7.0780    11.7360     0.9120 H     1 <1>   0.0800 
@<TRIPOS>BOND
  1   1   2  2   
  2   1   3  2   
  3   1   4  am  
  4   1   5  1   
  5   4   6  1   
  6   4   7  1   
  7   5   8  1   
  8   5  28  1   
  9   5  29  1   
 10   6  30  1   
 11   6  31  1   
 12   6  32  1   
 13   7  33  1   
 14   7  34  1   
 15   7  35  1   
 16   8   9  1   
 17   8  10  1   
 18   8  36  1   
 19   9  11  1   
 20   9  12  1   
 21   9  37  1   
 22  10  13  1   
 23  10  38  1   
 24  10  39  1   
 25  11  40  1   
 26  12  13  1   
 27  12  41  1   
 28  12  42  1   
 29  13  14  1   
 30  14  15  ar  
 31  14  16  ar  
 32  15  17  ar  
 33  15  43  1   
 34  16  18  ar  
 35  16  44  1   
 36  17  19  ar  
 37  17  20  ar  
 38  18  19  ar  
 39  18  21  1   
 40  19  22  ar  
 41  20  23  ar  
 42  20  45  1   
 43  21  46  1   
 44  21  47  1   
 45  21  48  1   
 46  22  24  ar  
 47  22  49  1   
 48  23  24  ar  
 49  23  25  1   
 50  24  26  1   
 51  25  27  1   
 52  25  50  1   
 53  25  51  1   
 54  26  27  1   
 55  26  52  1   
 56  26  53  1   
 57  27  54  1   
 58  27  55  1   
@<TRIPOS>SUBSTRUCTURE
  1 ****  14 GROUP 4 **** **** 0

# MOE 2024.06 (io_trps.svl 2023.06)
