@<TRIPOS>MOLECULE
NONAME
47 50 1 0 0 
SMALL
USER_CHARGES


@<TRIPOS>ATOM
  1 CL      -2.0810    -1.0840    -1.4350 Cl    1 <1>  -0.1770 
  2 C       -0.9930    -1.9630    -0.3830 C.ar  1 <1>   0.1770 
  3 C       -1.4780    -2.6390     0.7330 C.ar  1 <1>  -0.1440 
  4 C        0.3520    -1.9550    -0.6990 C.ar  1 <1>  -0.1500 
  5 C       -0.5810    -3.3260     1.5440 C.ar  1 <1>  -0.1500 
  6 C       -2.9680    -2.6500     1.0780 C.3   1 <1>   0.0450 
  7 C        1.2130    -2.6430     0.1310 C.ar  1 <1>   0.1900 
  8 C        0.7730    -3.3300     1.2470 C.ar  1 <1>  -0.1500 
  9 C       -3.7580    -3.7610     0.3870 C.2   1 <1>   0.5690 
 10 F        2.4880    -2.6450    -0.1480 F     1 <1>  -0.1900 
 11 O       -3.1460    -4.7170    -0.0300 O.2   1 <1>  -0.5700 
 12 N       -5.1280    -3.6880     0.2690 N.am  1 <1>  -0.6600 
 13 C       -6.0010    -2.5920     0.8030 C.3   1 <1>   0.1400 
 14 C       -5.8990    -4.7590    -0.4280 C.3   1 <1>   0.1400 
 15 C       -6.8060    -1.9290    -0.3310 C.3   1 <1>   0.1430 
 16 C       -6.7350    -4.1550    -1.5650 C.3   1 <1>  -0.1600 
 17 C       -7.6680    -0.8380     0.2750 C.ar  1 <1>   0.1670 
 18 C       -7.6300    -3.0040    -1.0720 C.3   1 <1>  -0.1600 
 19 C       -5.8960    -1.1300    -1.3030 C.3   1 <1>  -0.1600 
 20 N       -8.7420    -1.0320     1.0080 N.ar  1 <1>  -0.6200 
 21 C       -7.1810     0.4030    -0.0110 C.ar  1 <1>  -0.1430 
 22 C       -5.9280     0.3390    -0.8470 C.3   1 <1>  -0.0160 
 23 C       -9.3230     0.0810     1.4330 C.ar  1 <1>   0.4770 
 24 C       -7.8620     1.4870     0.4840 C.ar  1 <1>   0.1600 
 25 N       -8.9470     1.3340     1.2140 N.ar  1 <1>  -0.6200 
 26 C      -10.5700    -0.0960     2.2660 C.3   1 <1>  -0.0970 
 27 H        0.7170    -1.4310    -1.5630 H     1 <1>   0.1500 
 28 H       -0.9330    -3.8690     2.4050 H     1 <1>   0.1500 
 29 H       -3.3810    -1.6960     0.8200 H     1 <1>   0.0800 
 30 H       -3.0870    -2.7760     2.1380 H     1 <1>   0.0800 
 31 H        1.4760    -3.8590     1.8650 H     1 <1>   0.1500 
 32 H       -5.4350    -1.8470     1.3270 H     1 <1>   0.0800 
 33 H       -6.6910    -3.0200     1.5100 H     1 <1>   0.0800 
 34 H       -6.5470    -5.2400     0.2840 H     1 <1>   0.0800 
 35 H       -5.2390    -5.5090    -0.8310 H     1 <1>   0.0800 
 36 H       -7.3480    -4.9260    -1.9970 H     1 <1>   0.0800 
 37 H       -6.0680    -3.8040    -2.3330 H     1 <1>   0.0800 
 38 H       -8.1590    -2.5630    -1.8980 H     1 <1>   0.0800 
 39 H       -8.3670    -3.4030    -0.3960 H     1 <1>   0.0800 
 40 H       -6.3090    -1.1750    -2.2950 H     1 <1>   0.0800 
 41 H       -4.8940    -1.5160    -1.3460 H     1 <1>   0.0800 
 42 H       -5.9720     1.0110    -1.6870 H     1 <1>   0.0800 
 43 H       -5.0700     0.5680    -0.2390 H     1 <1>   0.0800 
 44 H       -7.5180     2.4870     0.2830 H     1 <1>   0.1500 
 45 H      -10.5800    -1.0690     2.7210 H     1 <1>   0.0800 
 46 H      -11.4330     0.0090     1.6360 H     1 <1>   0.0800 
 47 H      -10.6030     0.6500     3.0380 H     1 <1>   0.0800 
@<TRIPOS>BOND
  1   1   2  1   
  2   2   3  ar  
  3   2   4  ar  
  4   3   5  ar  
  5   3   6  1   
  6   4   7  ar  
  7   4  27  1   
  8   5   8  ar  
  9   5  28  1   
 10   6   9  1   
 11   6  29  1   
 12   6  30  1   
 13   7   8  ar  
 14   7  10  1   
 15   8  31  1   
 16   9  11  2   
 17   9  12  am  
 18  12  13  1   
 19  12  14  1   
 20  13  15  1   
 21  13  32  1   
 22  13  33  1   
 23  14  16  1   
 24  14  34  1   
 25  14  35  1   
 26  15  17  1   
 27  15  18  1   
 28  15  19  1   
 29  16  18  1   
 30  16  36  1   
 31  16  37  1   
 32  17  20  ar  
 33  17  21  ar  
 34  18  38  1   
 35  18  39  1   
 36  19  22  1   
 37  19  40  1   
 38  19  41  1   
 39  20  23  ar  
 40  21  22  1   
 41  21  24  ar  
 42  22  42  1   
 43  22  43  1   
 44  23  25  ar  
 45  23  26  1   
 46  24  25  ar  
 47  24  44  1   
 48  26  45  1   
 49  26  46  1   
 50  26  47  1   
@<TRIPOS>SUBSTRUCTURE
  1 ****  13 GROUP 4 **** **** 0

# MOE 2024.06 (io_trps.svl 2023.06)
