@<TRIPOS>MOLECULE
NONAME
44 45 1 0 0 
SMALL
USER_CHARGES


@<TRIPOS>ATOM
  1 O       -2.2420     1.0920     1.7810 O.3   1 <1>  -0.0190 
  2 N       -2.2430    -0.2060     1.7760 N.2   1 <1>  -0.4100 
  3 C       -1.9000     1.4170     0.5580 C.2   1 <1>   0.2980 
  4 C       -1.9310    -0.5780     0.5970 C.2   1 <1>   0.3350 
  5 N       -1.6950     0.4360    -0.2290 N.2   1 <1>  -0.5650 
  6 C       -1.8210     2.8980     0.1870 C.3   1 <1>   0.2900 
  7 C       -1.7990    -2.0300     0.1480 C.3   1 <1>   0.3010 
  8 N       -0.5820     3.5990     0.6250 N.3   1 <1>  -0.8100 
  9 O       -2.9470    -2.4570    -0.5370 O.3   1 <1>  -0.5600 
 10 C       -0.5160     4.9450     0.0380 C.3   1 <1>   0.1100 
 11 C       -0.4510     3.6260     2.0930 C.3   1 <1>   0.0300 
 12 C       -2.8780    -3.7650    -1.0030 C.3   1 <1>   0.0400 
 13 C        0.9210     5.4750     0.0500 C.3   1 <1>  -0.1600 
 14 C        1.0390     6.7750    -0.7530 C.3   1 <1>   0.0210 
 15 C        2.4600     7.3080    -0.6910 C.2   1 <1>  -0.1810 
 16 C        2.9750     8.2050     0.2450 C.2   1 <1>   0.1080 
 17 C        3.5000     7.0300    -1.5070 C.2   1 <1>  -0.3320 
 18 N        4.2240     8.4730     0.0340 N.2   1 <1>  -0.7070 
 19 C        2.2100     8.8270     1.3910 C.3   1 <1>  -0.0590 
 20 N        4.5480     7.7460    -1.0480 N.pl3 1 <1>   0.3000 
 21 C        3.5870     6.1110    -2.7140 C.3   1 <1>  -0.0600 
 22 H       -2.6830     3.4000     0.5900 H     1 <1>   0.0800 
 23 H       -1.8830     2.9500    -0.8850 H     1 <1>   0.0800 
 24 H       -1.6640    -2.6590     1.0090 H     1 <1>   0.0800 
 25 H       -0.9520    -2.1230    -0.5070 H     1 <1>   0.0800 
 26 H       -1.1720     5.6160     0.5670 H     1 <1>   0.0800 
 27 H       -0.8410     4.8960    -0.9890 H     1 <1>   0.0800 
 28 H       -0.3840     2.6240     2.4790 H     1 <1>   0.0800 
 29 H       -1.2950     4.1220     2.5410 H     1 <1>   0.0800 
 30 H        0.4490     4.1360     2.3840 H     1 <1>   0.0800 
 31 H       -3.8030    -3.9890    -1.5050 H     1 <1>   0.0800 
 32 H       -2.7480    -4.4340    -0.1700 H     1 <1>   0.0800 
 33 H       -2.0590    -3.8540    -1.6970 H     1 <1>   0.0800 
 34 H        1.5750     4.7380    -0.3820 H     1 <1>   0.0800 
 35 H        1.2410     5.6650     1.0570 H     1 <1>   0.0800 
 36 H        0.3630     7.5140    -0.3650 H     1 <1>   0.0800 
 37 H        0.7730     6.5950    -1.7790 H     1 <1>   0.0800 
 38 H        1.6220     8.0810     1.8920 H     1 <1>   0.0800 
 39 H        1.5670     9.6010     1.0170 H     1 <1>   0.0800 
 40 H        2.8990     9.2560     2.0950 H     1 <1>   0.0800 
 41 H        5.4930     7.7570    -1.4470 H     1 <1>   0.2700 
 42 H        2.6520     5.6060    -2.8740 H     1 <1>   0.0800 
 43 H        4.3490     5.3680    -2.5580 H     1 <1>   0.0800 
 44 H        3.8250     6.6790    -3.5950 H     1 <1>   0.0800 
@<TRIPOS>BOND
  1   1   2  1   
  2   1   3  1   
  3   2   4  2   
  4   3   5  2   
  5   3   6  1   
  6   4   5  1   
  7   4   7  1   
  8   6   8  1   
  9   6  22  1   
 10   6  23  1   
 11   7   9  1   
 12   7  24  1   
 13   7  25  1   
 14   8  10  1   
 15   8  11  1   
 16   9  12  1   
 17  10  13  1   
 18  10  26  1   
 19  10  27  1   
 20  11  28  1   
 21  11  29  1   
 22  11  30  1   
 23  12  31  1   
 24  12  32  1   
 25  12  33  1   
 26  13  14  1   
 27  13  34  1   
 28  13  35  1   
 29  14  15  1   
 30  14  36  1   
 31  14  37  1   
 32  15  16  1   
 33  15  17  2   
 34  16  18  2   
 35  16  19  1   
 36  17  20  1   
 37  17  21  1   
 38  18  20  1   
 39  19  38  1   
 40  19  39  1   
 41  19  40  1   
 42  20  41  1   
 43  21  42  1   
 44  21  43  1   
 45  21  44  1   
@<TRIPOS>SUBSTRUCTURE
  1 ****   8 GROUP 4 **** **** 0

# MOE 2024.06 (io_trps.svl 2023.06)
