@<TRIPOS>MOLECULE
NONAME
49 51 1 0 0 
SMALL
USER_CHARGES


@<TRIPOS>ATOM
  1 O        1.0300     0.1070     2.0330 O.2   1 <1>  -0.5700 
  2 C        1.6060    -0.3320     1.0560 C.2   1 <1>   0.5440 
  3 N        2.2000     0.5420     0.1660 N.am  1 <1>  -0.6600 
  4 C        1.6760    -1.7690     0.8870 C.ar  1 <1>   0.0860 
  5 C        3.2290     0.1100    -0.8290 C.3   1 <1>   0.1400 
  6 C        2.0310     2.0190     0.2970 C.3   1 <1>   0.1400 
  7 C        1.2170    -2.4240    -0.2420 C.ar  1 <1>  -0.1500 
  8 C        2.2070    -2.5930     1.8680 C.ar  1 <1>  -0.1500 
  9 C        4.6020    -0.0670    -0.1630 C.3   1 <1>   0.1100 
 10 C        3.3660     2.7750     0.3700 C.3   1 <1>  -0.1600 
 11 C        1.3360    -3.7970    -0.3550 C.ar  1 <1>   0.3920 
 12 C        2.2790    -3.9570     1.6700 C.ar  1 <1>   0.1600 
 13 N        5.2630     1.2070     0.1930 N.3   1 <1>  -0.8100 
 14 C        4.4760     2.0380     1.1260 C.3   1 <1>   0.1100 
 15 O        0.8820    -4.3560    -1.4960 O.3   1 <1>  -0.3630 
 16 N        1.8680    -4.5800     0.5780 N.ar  1 <1>  -0.6200 
 17 C        6.6380     0.9550     0.7010 C.3   1 <1>   0.2900 
 18 C        0.9370    -5.7560    -1.6910 C.3   1 <1>   0.0400 
 19 C        7.6100     2.1100     0.4640 C.2   1 <1>   0.2980 
 20 O        7.4960     3.2000     1.1820 O.3   1 <1>  -0.0190 
 21 N        8.5720     2.1060    -0.3720 N.2   1 <1>  -0.5650 
 22 N        8.4620     3.9590     0.7640 N.2   1 <1>  -0.4100 
 23 C        9.0880     3.3080    -0.1380 C.2   1 <1>   0.3350 
 24 C       10.2920     3.8340    -0.9130 C.3   1 <1>   0.3010 
 25 O       11.4880     3.2860    -0.4260 O.3   1 <1>  -0.5600 
 26 C       12.6250     3.7020    -1.1100 C.3   1 <1>   0.0400 
 27 H        3.3050     0.8310    -1.6250 H     1 <1>   0.0800 
 28 H        2.9370    -0.8210    -1.2750 H     1 <1>   0.0800 
 29 H        1.4680     2.2450     1.1860 H     1 <1>   0.0800 
 30 H        1.4600     2.3820    -0.5400 H     1 <1>   0.0800 
 31 H        0.7630    -1.8700    -1.0420 H     1 <1>   0.1500 
 32 H        2.5580    -2.1590     2.7870 H     1 <1>   0.1500 
 33 H        5.2310    -0.5870    -0.8660 H     1 <1>   0.0800 
 34 H        4.5010    -0.6890     0.7100 H     1 <1>   0.0800 
 35 H        3.1760     3.7070     0.8710 H     1 <1>   0.0800 
 36 H        3.7070     3.0230    -0.6190 H     1 <1>   0.0800 
 37 H        2.6960    -4.5730     2.4490 H     1 <1>   0.1500 
 38 H        4.0700     1.4420     1.9260 H     1 <1>   0.0800 
 39 H        5.1110     2.7860     1.5660 H     1 <1>   0.0800 
 40 H        7.0520     0.1020     0.1940 H     1 <1>   0.0800 
 41 H        6.6070     0.7240     1.7520 H     1 <1>   0.0800 
 42 H        0.5180    -5.9810    -2.6550 H     1 <1>   0.0800 
 43 H        0.3650    -6.2380    -0.9170 H     1 <1>   0.0800 
 44 H        1.9640    -6.0730    -1.6500 H     1 <1>   0.0800 
 45 H       10.3420     4.9030    -0.8130 H     1 <1>   0.0800 
 46 H       10.1880     3.5700    -1.9500 H     1 <1>   0.0800 
 47 H       13.4780     3.2280    -0.6560 H     1 <1>   0.0800 
 48 H       12.7190     4.7720    -1.0270 H     1 <1>   0.0800 
 49 H       12.5510     3.4030    -2.1410 H     1 <1>   0.0800 
@<TRIPOS>BOND
  1   1   2  2   
  2   2   3  am  
  3   2   4  1   
  4   3   5  1   
  5   3   6  1   
  6   4   7  ar  
  7   4   8  ar  
  8   5   9  1   
  9   5  27  1   
 10   5  28  1   
 11   6  10  1   
 12   6  29  1   
 13   6  30  1   
 14   7  11  ar  
 15   7  31  1   
 16   8  12  ar  
 17   8  32  1   
 18   9  13  1   
 19   9  33  1   
 20   9  34  1   
 21  10  14  1   
 22  10  35  1   
 23  10  36  1   
 24  11  15  1   
 25  11  16  ar  
 26  12  16  ar  
 27  12  37  1   
 28  13  14  1   
 29  13  17  1   
 30  14  38  1   
 31  14  39  1   
 32  15  18  1   
 33  17  19  1   
 34  17  40  1   
 35  17  41  1   
 36  18  42  1   
 37  18  43  1   
 38  18  44  1   
 39  19  20  1   
 40  19  21  2   
 41  20  22  1   
 42  21  23  1   
 43  22  23  2   
 44  23  24  1   
 45  24  25  1   
 46  24  45  1   
 47  24  46  1   
 48  25  26  1   
 49  26  47  1   
 50  26  48  1   
 51  26  49  1   
@<TRIPOS>SUBSTRUCTURE
  1 ****   9 GROUP 4 **** **** 0

# MOE 2024.06 (io_trps.svl 2023.06)
