@<TRIPOS>MOLECULE
NONAME
51 54 1 0 0 
SMALL
USER_CHARGES


@<TRIPOS>ATOM
  1 O        1.7070     0.2600    -0.5810 O.2   1 <1>  -0.5700 
  2 C        1.6190     1.4660    -0.7820 C.2   1 <1>   0.6900 
  3 N        2.0940     2.4560     0.0010 N.am  1 <1>  -0.4200 
  4 N        1.0230     2.0550    -1.8340 N.am  1 <1>  -0.3680 
  5 C        1.7480     3.6260    -0.6490 C.2   1 <1>   0.4490 
  6 C        2.8460     2.2870     1.2650 C.3   1 <1>   0.0600 
  7 N        1.1090     3.4250    -1.7410 N.2   1 <1>  -0.5120 
  8 C        2.1060     4.9820    -0.0720 C.3   1 <1>  -0.0990 
  9 C        1.8740     6.1090    -1.0770 C.3   1 <1>   0.1400 
 10 N        2.1790     7.4050    -0.4360 N.am  1 <1>  -0.7300 
 11 C        3.4040     7.9870    -0.3220 C.2   1 <1>   0.7160 
 12 O        4.3750     7.3500    -0.6830 O.2   1 <1>  -0.5700 
 13 C        3.5230     9.3090     0.2170 C.2   1 <1>  -0.0860 
 14 C        2.4760    10.2290     0.3740 C.2   1 <1>   0.3720 
 15 C        4.6050     9.9920     0.6840 C.2   1 <1>   0.0870 
 16 N        2.8970    11.3340     0.8780 N.2   1 <1>  -0.4100 
 17 N        1.1360    10.0120     0.0140 N.pl3 1 <1>  -0.8210 
 18 O        4.1800    11.1730     1.0530 O.3   1 <1>  -0.0190 
 19 C        6.0020     9.6690     0.8420 C.ar  1 <1>   0.0530 
 20 C        0.8290    10.3750    -1.4080 C.3   1 <1>   0.2090 
 21 C        0.1120    10.5720     0.9610 C.3   1 <1>   0.2090 
 22 C        6.4300     8.4140     1.2730 C.ar  1 <1>  -0.1500 
 23 C        6.9820    10.6270     0.5820 C.ar  1 <1>  -0.1500 
 24 C        0.4520    11.8590    -1.5640 C.3   1 <1>   0.1200 
 25 C       -0.2590    12.0360     0.6490 C.3   1 <1>   0.1200 
 26 C        7.7730     8.1250     1.4300 C.ar  1 <1>  -0.1500 
 27 C        8.3270    10.3460     0.7380 C.ar  1 <1>  -0.1500 
 28 O       -0.5960    12.1900    -0.7000 O.3   1 <1>  -0.5600 
 29 C        8.7260     9.0910     1.1620 C.ar  1 <1>  -0.1500 
 30 H        0.5750     1.5350    -2.5920 H     1 <1>   0.3700 
 31 H        2.8970     1.2430     1.5230 H     1 <1>   0.0800 
 32 H        2.3500     2.8200     2.0570 H     1 <1>   0.0800 
 33 H        3.8450     2.6670     1.1450 H     1 <1>   0.0800 
 34 H        3.1430     4.9760     0.2060 H     1 <1>   0.0800 
 35 H        1.5060     5.1490     0.8030 H     1 <1>   0.0800 
 36 H        0.8500     6.1090    -1.4110 H     1 <1>   0.0800 
 37 H        2.5130     5.9700    -1.9340 H     1 <1>   0.0800 
 38 H        1.3860     8.0250    -0.2130 H     1 <1>   0.3700 
 39 H        0.0110     9.7700    -1.7580 H     1 <1>   0.0800 
 40 H        1.6820    10.1630    -2.0300 H     1 <1>   0.0800 
 41 H        0.4810    10.5100     1.9700 H     1 <1>   0.0800 
 42 H       -0.7790     9.9710     0.9050 H     1 <1>   0.0800 
 43 H        5.7030     7.6530     1.4890 H     1 <1>   0.1500 
 44 H        6.6840    11.6060     0.2510 H     1 <1>   0.1500 
 45 H        0.1230    12.0560    -2.5680 H     1 <1>   0.0800 
 46 H        1.2960    12.4900    -1.3440 H     1 <1>   0.0800 
 47 H        0.5630    12.6920     0.8770 H     1 <1>   0.0800 
 48 H       -1.1080    12.3360     1.2370 H     1 <1>   0.0800 
 49 H        8.0780     7.1470     1.7590 H     1 <1>   0.1500 
 50 H        9.0650    11.1010     0.5290 H     1 <1>   0.1500 
 51 H        9.7720     8.8680     1.2830 H     1 <1>   0.1500 
@<TRIPOS>BOND
  1   1   2  2   
  2   2   3  am  
  3   2   4  am  
  4   3   5  1   
  5   3   6  1   
  6   4   7  1   
  7   4  30  1   
  8   5   7  2   
  9   5   8  1   
 10   6  31  1   
 11   6  32  1   
 12   6  33  1   
 13   8   9  1   
 14   8  34  1   
 15   8  35  1   
 16   9  10  1   
 17   9  36  1   
 18   9  37  1   
 19  10  11  am  
 20  10  38  1   
 21  11  12  2   
 22  11  13  1   
 23  13  14  1   
 24  13  15  2   
 25  14  16  2   
 26  14  17  1   
 27  15  18  1   
 28  15  19  1   
 29  16  18  1   
 30  17  20  1   
 31  17  21  1   
 32  19  22  ar  
 33  19  23  ar  
 34  20  24  1   
 35  20  39  1   
 36  20  40  1   
 37  21  25  1   
 38  21  41  1   
 39  21  42  1   
 40  22  26  ar  
 41  22  43  1   
 42  23  27  ar  
 43  23  44  1   
 44  24  28  1   
 45  24  45  1   
 46  24  46  1   
 47  25  28  1   
 48  25  47  1   
 49  25  48  1   
 50  26  29  ar  
 51  26  49  1   
 52  27  29  ar  
 53  27  50  1   
 54  29  51  1   
@<TRIPOS>SUBSTRUCTURE
  1 ****  11 GROUP 4 **** **** 0

# MOE 2024.06 (io_trps.svl 2023.06)
