@<TRIPOS>MOLECULE
NONAME
52 54 1 0 0 
SMALL
USER_CHARGES


@<TRIPOS>ATOM
  1 O       -0.8080    -0.8720     0.4950 O.3   1 <1>  -0.6800 
  2 C        0.3110    -1.2630    -0.2240 C.3   1 <1>   0.1200 
  3 C        1.1760    -2.2590     0.6030 C.3   1 <1>   0.0000 
  4 C        2.4680    -2.6360    -0.1750 C.3   1 <1>   0.4230 
  5 C        1.6070    -1.5980     1.9410 C.3   1 <1>  -0.1600 
  6 C        0.3780    -3.5580     0.9320 C.3   1 <1>  -0.1600 
  7 N        2.2140    -3.4160    -1.4640 N.4   1 <1>  -0.9590 
  8 C        3.4140    -1.4260    -0.3460 C.3   1 <1>   0.2090 
  9 C        2.5290    -0.3880     1.7590 C.3   1 <1>   0.2090 
 10 C        0.6780    -4.7350    -0.0140 C.3   1 <1>  -0.1600 
 11 C        0.9740    -4.2590    -1.4330 C.3   1 <1>   0.3430 
 12 C        2.2460    -2.6020    -2.7230 C.3   1 <1>   0.2630 
 13 N        3.7190    -0.7880     0.9630 N.pl3 1 <1>  -0.8380 
 14 C        4.7870     0.0920     0.9900 C.ar  1 <1>   0.4100 
 15 N        5.0550     0.7440    -0.1350 N.ar  1 <1>  -0.6200 
 16 C        5.5150     0.2610     2.1640 C.ar  1 <1>  -0.1500 
 17 C        6.0700     1.5970    -0.0970 C.ar  1 <1>   0.1670 
 18 C        6.5670     1.1430     2.2000 C.ar  1 <1>  -0.1500 
 19 C        6.8410     1.8250     1.0330 C.ar  1 <1>  -0.1500 
 20 C        6.3700     2.3500    -1.3960 C.3   1 <1>   0.0630 
 21 C        7.7630     2.0040    -1.9370 C.3   1 <1>  -0.2400 
 22 C        6.2200     3.8680    -1.2180 C.3   1 <1>  -0.2400 
 23 H       -1.3150    -0.1750     0.0310 H     1 <1>   0.4000 
 24 H       -0.0390    -1.7110    -1.1360 H     1 <1>   0.0800 
 25 H        0.8600    -0.3710    -0.4680 H     1 <1>   0.0800 
 26 H        3.0000    -3.3050     0.4820 H     1 <1>   0.0800 
 27 H        2.1330    -2.3100     2.5530 H     1 <1>   0.0800 
 28 H        0.7400    -1.2890     2.5000 H     1 <1>   0.0800 
 29 H        0.5920    -3.8890     1.9340 H     1 <1>   0.0800 
 30 H       -0.6790    -3.3530     0.9110 H     1 <1>   0.0800 
 31 H        3.0020    -4.0780    -1.5200 H     1 <1>   0.4500 
 32 H        2.9780    -0.6830    -0.9900 H     1 <1>   0.0800 
 33 H        4.3400    -1.7580    -0.7830 H     1 <1>   0.0800 
 34 H        2.8400    -0.0270     2.7250 H     1 <1>   0.0800 
 35 H        2.0140     0.4170     1.2610 H     1 <1>   0.0800 
 36 H       -0.1710    -5.3960    -0.0310 H     1 <1>   0.0800 
 37 H        1.5150    -5.3040     0.3520 H     1 <1>   0.0800 
 38 H        0.1310    -3.6860    -1.7820 H     1 <1>   0.0800 
 39 H        1.0920    -5.1090    -2.0870 H     1 <1>   0.0800 
 40 H        1.4680    -1.8570    -2.7110 H     1 <1>   0.0800 
 41 H        2.1000    -3.2360    -3.5830 H     1 <1>   0.0800 
 42 H        3.1980    -2.1050    -2.8290 H     1 <1>   0.0800 
 43 H        5.2470    -0.3100     3.0320 H     1 <1>   0.1500 
 44 H        7.1490     1.2960     3.0920 H     1 <1>   0.1500 
 45 H        7.6530     2.5270     1.0060 H     1 <1>   0.1500 
 46 H        5.6480     2.0390    -2.1330 H     1 <1>   0.0800 
 47 H        8.5320     2.3360    -1.2630 H     1 <1>   0.0800 
 48 H        7.9180     2.4720    -2.8930 H     1 <1>   0.0800 
 49 H        7.8510     0.9390    -2.0610 H     1 <1>   0.0800 
 50 H        6.9520     4.2500    -0.5300 H     1 <1>   0.0800 
 51 H        5.2400     4.0940    -0.8370 H     1 <1>   0.0800 
 52 H        6.3420     4.3660    -2.1630 H     1 <1>   0.0800 
@<TRIPOS>BOND
  1   1   2  1   
  2   1  23  1   
  3   2   3  1   
  4   2  24  1   
  5   2  25  1   
  6   3   4  1   
  7   3   5  1   
  8   3   6  1   
  9   4   7  1   
 10   4   8  1   
 11   4  26  1   
 12   5   9  1   
 13   5  27  1   
 14   5  28  1   
 15   6  10  1   
 16   6  29  1   
 17   6  30  1   
 18   7  11  1   
 19   7  12  1   
 20   7  31  1   
 21   8  13  1   
 22   8  32  1   
 23   8  33  1   
 24   9  13  1   
 25   9  34  1   
 26   9  35  1   
 27  10  11  1   
 28  10  36  1   
 29  10  37  1   
 30  11  38  1   
 31  11  39  1   
 32  12  40  1   
 33  12  41  1   
 34  12  42  1   
 35  13  14  1   
 36  14  15  ar  
 37  14  16  ar  
 38  15  17  ar  
 39  16  18  ar  
 40  16  43  1   
 41  17  19  ar  
 42  17  20  1   
 43  18  19  ar  
 44  18  44  1   
 45  19  45  1   
 46  20  21  1   
 47  20  22  1   
 48  20  46  1   
 49  21  47  1   
 50  21  48  1   
 51  21  49  1   
 52  22  50  1   
 53  22  51  1   
 54  22  52  1   
@<TRIPOS>SUBSTRUCTURE
  1 ****   8 GROUP 4 **** **** 0

# MOE 2024.06 (io_trps.svl 2023.06)
