@<TRIPOS>MOLECULE
NONAME
44 47 1 0 0 
SMALL
USER_CHARGES


@<TRIPOS>ATOM
  1 CL      -0.7350    -1.0670     0.1240 Cl    1 <1>  -0.1770 
  2 C       -1.8160     0.2820    -0.1240 C.ar  1 <1>   0.1770 
  3 C       -3.1310     0.0480    -0.5160 C.ar  1 <1>   0.0860 
  4 C       -1.3250     1.5590     0.0850 C.ar  1 <1>  -0.1500 
  5 C       -3.9290     1.1750    -0.6740 C.ar  1 <1>   0.1900 
  6 C       -3.6250    -1.2830    -0.7450 C.2   1 <1>   0.5440 
  7 C       -2.1520     2.6580    -0.0930 C.ar  1 <1>  -0.1500 
  8 F       -5.1820     1.0200    -1.0050 F     1 <1>  -0.1900 
  9 C       -3.4690     2.4650    -0.4760 C.ar  1 <1>  -0.1500 
 10 O       -3.7350    -1.7240    -1.8710 O.2   1 <1>  -0.5700 
 11 N       -4.0250    -2.0920     0.2900 N.am  1 <1>  -0.6600 
 12 C       -5.1710    -1.6950     1.1590 C.3   1 <1>   0.1400 
 13 C       -3.8660    -3.5660     0.1460 C.3   1 <1>   0.1400 
 14 C       -6.4960    -2.3430     0.6780 C.3   1 <1>   0.4230 
 15 C       -5.1640    -4.1790    -0.4030 C.3   1 <1>   0.3430 
 16 N       -6.3580    -3.8430     0.4640 N.4   1 <1>  -0.9590 
 17 C       -7.0310    -1.6470    -0.5980 C.3   1 <1>   0.1200 
 18 C       -7.6460    -4.3890    -0.0790 C.3   1 <1>   0.5180 
 19 O       -8.2350    -2.2370    -1.0030 O.3   1 <1>  -0.5600 
 20 C       -7.4990    -5.8880    -0.3680 C.3   1 <1>  -0.1950 
 21 C       -8.1390    -3.6000    -1.3110 C.3   1 <1>   0.1200 
 22 C       -8.6260    -6.8250    -0.0630 C.3   1 <1>  -0.2000 
 23 C       -7.3560    -6.8940     0.7340 C.3   1 <1>  -0.2000 
 24 H       -0.2990     1.6930     0.3840 H     1 <1>   0.1500 
 25 H       -1.7730     3.6540     0.0660 H     1 <1>   0.1500 
 26 H       -4.1300     3.3030    -0.6180 H     1 <1>   0.1500 
 27 H       -4.9670    -2.0050     2.1690 H     1 <1>   0.0800 
 28 H       -5.2770    -0.6240     1.1690 H     1 <1>   0.0800 
 29 H       -3.0560    -3.7780    -0.5340 H     1 <1>   0.0800 
 30 H       -3.6160    -4.0020     1.0970 H     1 <1>   0.0800 
 31 H       -7.2320    -2.1700     1.4460 H     1 <1>   0.0800 
 32 H       -5.0430    -5.2470    -0.4690 H     1 <1>   0.0800 
 33 H       -5.3150    -3.7990    -1.4020 H     1 <1>   0.0800 
 34 H       -6.2110    -4.2900     1.3730 H     1 <1>   0.4500 
 35 H       -6.3270    -1.7050    -1.4110 H     1 <1>   0.0800 
 36 H       -7.2330    -0.6090    -0.4000 H     1 <1>   0.0800 
 37 H       -8.4020    -4.2830     0.6820 H     1 <1>   0.0800 
 38 H       -6.9920    -6.0830    -1.2990 H     1 <1>   0.1000 
 39 H       -9.1200    -3.9390    -1.5970 H     1 <1>   0.0800 
 40 H       -7.4770    -3.7210    -2.1510 H     1 <1>   0.0800 
 41 H       -9.5150    -6.4670     0.4290 H     1 <1>   0.1000 
 42 H       -8.8400    -7.6310    -0.7470 H     1 <1>   0.1000 
 43 H       -6.7180    -7.7510     0.5900 H     1 <1>   0.1000 
 44 H       -7.4090    -6.5980     1.7690 H     1 <1>   0.1000 
@<TRIPOS>BOND
  1   1   2  1   
  2   2   3  ar  
  3   2   4  ar  
  4   3   5  ar  
  5   3   6  1   
  6   4   7  ar  
  7   4  24  1   
  8   5   8  1   
  9   5   9  ar  
 10   6  10  2   
 11   6  11  am  
 12   7   9  ar  
 13   7  25  1   
 14   9  26  1   
 15  11  12  1   
 16  11  13  1   
 17  12  14  1   
 18  12  27  1   
 19  12  28  1   
 20  13  15  1   
 21  13  29  1   
 22  13  30  1   
 23  14  16  1   
 24  14  17  1   
 25  14  31  1   
 26  15  16  1   
 27  15  32  1   
 28  15  33  1   
 29  16  18  1   
 30  16  34  1   
 31  17  19  1   
 32  17  35  1   
 33  17  36  1   
 34  18  20  1   
 35  18  21  1   
 36  18  37  1   
 37  19  21  1   
 38  20  22  1   
 39  20  23  1   
 40  20  38  1   
 41  21  39  1   
 42  21  40  1   
 43  22  23  1   
 44  22  41  1   
 45  22  42  1   
 46  23  43  1   
 47  23  44  1   
@<TRIPOS>SUBSTRUCTURE
  1 ****  11 GROUP 4 **** **** 0

# MOE 2024.06 (io_trps.svl 2023.06)
