@<TRIPOS>MOLECULE
NONAME
51 52 1 0 0 
SMALL
USER_CHARGES


@<TRIPOS>ATOM
  1 O       -2.0020     1.2700    -2.4410 O.2   1 <1>  -0.5700 
  2 C       -2.4360     1.1210    -1.3240 C.2   1 <1>   0.5690 
  3 N       -2.9870    -0.0530    -0.9350 N.am  1 <1>  -0.7300 
  4 C       -2.3710     2.2630    -0.3090 C.3   1 <1>  -0.0190 
  5 C       -3.1450    -1.2260    -1.8070 C.3   1 <1>   0.2840 
  6 C       -2.3010     3.6570    -0.9690 C.3   1 <1>  -0.1600 
  7 C       -1.1900     2.0650     0.6710 C.3   1 <1>  -0.1600 
  8 C       -4.2770    -2.0690    -1.2490 C.ar  1 <1>  -0.1440 
  9 C       -2.3900     4.8000     0.0650 C.3   1 <1>   0.2000 
 10 C       -0.7590     3.3560     1.3970 C.3   1 <1>  -0.1600 
 11 C       -4.0130    -3.0840    -0.3440 C.ar  1 <1>  -0.1500 
 12 C       -5.5860    -1.8280    -1.6290 C.ar  1 <1>  -0.1500 
 13 O       -1.6030     5.8740    -0.3870 O.3   1 <1>  -0.5600 
 14 C       -1.9020     4.3720     1.4740 C.3   1 <1>   0.2000 
 15 C       -5.0320    -3.8610     0.1830 C.ar  1 <1>   0.0830 
 16 C       -6.6180    -2.5880    -1.1080 C.ar  1 <1>  -0.1500 
 17 C       -2.1700     6.6420    -1.4040 C.3   1 <1>   0.0400 
 18 O       -1.4440     5.4810     2.1530 O.3   1 <1>  -0.6800 
 19 O       -4.6190    -4.8270     1.0520 O.3   1 <1>  -0.3630 
 20 C       -6.3630    -3.6070    -0.1920 C.ar  1 <1>   0.0830 
 21 C       -5.3040    -6.0530     1.1610 C.3   1 <1>   0.1200 
 22 O       -7.3770    -4.3420     0.3530 O.3   1 <1>  -0.3630 
 23 C       -4.3460    -7.0760     1.7630 C.3   1 <1>  -0.2400 
 24 C       -8.7350    -4.0320     0.1280 C.3   1 <1>   0.0400 
 25 H       -3.3540    -0.1810     0.0080 H     1 <1>   0.3700 
 26 H       -3.2860     2.2270     0.2550 H     1 <1>   0.0800 
 27 H       -3.3680    -0.9100    -2.8130 H     1 <1>   0.0800 
 28 H       -2.2280    -1.7890    -1.8220 H     1 <1>   0.0800 
 29 H       -3.1020     3.7570    -1.6800 H     1 <1>   0.0800 
 30 H       -1.3680     3.7280    -1.5040 H     1 <1>   0.0800 
 31 H       -1.4670     1.3210     1.3980 H     1 <1>   0.0800 
 32 H       -0.3380     1.6830     0.1320 H     1 <1>   0.0800 
 33 H       -3.4090     5.1350     0.1590 H     1 <1>   0.0800 
 34 H        0.0550     3.8050     0.8530 H     1 <1>   0.0800 
 35 H       -0.4120     3.1170     2.3870 H     1 <1>   0.0800 
 36 H       -3.0040    -3.2880    -0.0350 H     1 <1>   0.1500 
 37 H       -5.8050    -1.0420    -2.3310 H     1 <1>   0.1500 
 38 H       -2.7150     3.9520     2.0410 H     1 <1>   0.0800 
 39 H       -7.6160    -2.3650    -1.4320 H     1 <1>   0.1500 
 40 H       -1.4880     7.4400    -1.6390 H     1 <1>   0.0800 
 41 H       -3.1030     7.0540    -1.0610 H     1 <1>   0.0800 
 42 H       -2.3210     6.0310    -2.2760 H     1 <1>   0.0800 
 43 H       -1.0810     6.0830     1.4640 H     1 <1>   0.4000 
 44 H       -6.1560    -5.9090     1.8010 H     1 <1>   0.0800 
 45 H       -5.6240    -6.3580     0.1790 H     1 <1>   0.0800 
 46 H       -4.0250    -6.7520     2.7370 H     1 <1>   0.0800 
 47 H       -3.4910    -7.2020     1.1240 H     1 <1>   0.0800 
 48 H       -4.8430    -8.0240     1.8620 H     1 <1>   0.0800 
 49 H       -9.3320    -4.7090     0.7130 H     1 <1>   0.0800 
 50 H       -8.9550    -4.1620    -0.9160 H     1 <1>   0.0800 
 51 H       -8.9190    -3.0200     0.4410 H     1 <1>   0.0800 
@<TRIPOS>BOND
  1   1   2  2   
  2   2   3  am  
  3   2   4  1   
  4   3   5  1   
  5   3  25  1   
  6   4   6  1   
  7   4   7  1   
  8   4  26  1   
  9   5   8  1   
 10   5  27  1   
 11   5  28  1   
 12   6   9  1   
 13   6  29  1   
 14   6  30  1   
 15   7  10  1   
 16   7  31  1   
 17   7  32  1   
 18   8  11  ar  
 19   8  12  ar  
 20   9  13  1   
 21   9  14  1   
 22   9  33  1   
 23  10  14  1   
 24  10  34  1   
 25  10  35  1   
 26  11  15  ar  
 27  11  36  1   
 28  12  16  ar  
 29  12  37  1   
 30  13  17  1   
 31  14  18  1   
 32  14  38  1   
 33  15  19  1   
 34  15  20  ar  
 35  16  20  ar  
 36  16  39  1   
 37  17  40  1   
 38  17  41  1   
 39  17  42  1   
 40  18  43  1   
 41  19  21  1   
 42  20  22  1   
 43  21  23  1   
 44  21  44  1   
 45  21  45  1   
 46  22  24  1   
 47  23  46  1   
 48  23  47  1   
 49  23  48  1   
 50  24  49  1   
 51  24  50  1   
 52  24  51  1   
@<TRIPOS>SUBSTRUCTURE
  1 ****   3 GROUP 4 **** **** 0

# MOE 2024.06 (io_trps.svl 2023.06)
