@<TRIPOS>MOLECULE
NONAME
38 39 1 0 0 
SMALL
USER_CHARGES


@<TRIPOS>ATOM
  1 CL      -0.6790     2.5860     0.3800 Cl    1 <1>  -0.1230 
  2 C        0.9830     3.0520     0.7120 C.2   1 <1>   0.1230 
  3 C        1.4140     3.8450     1.7680 C.2   1 <1>   0.1080 
  4 C        2.0790     2.7210     0.0030 C.2   1 <1>  -0.3320 
  5 N        2.7020     4.0090     1.7320 N.2   1 <1>  -0.7070 
  6 C        0.5460     4.4610     2.8420 C.3   1 <1>  -0.0590 
  7 N        3.1170     3.3090     0.6470 N.pl3 1 <1>   0.3140 
  8 C        2.1920     1.8830    -1.2620 C.3   1 <1>  -0.0600 
  9 C        4.5380     3.2820     0.2720 C.3   1 <1>   0.1570 
 10 C        4.8640     4.4950    -0.5670 C.2   1 <1>   0.5690 
 11 O        5.5350     4.3470    -1.5600 O.2   1 <1>  -0.5700 
 12 N        4.4120     5.7180    -0.1780 N.am  1 <1>  -0.7300 
 13 C        4.6200     6.9860    -0.9000 C.3   1 <1>   0.1400 
 14 C        5.6080     7.8460    -0.1160 C.3   1 <1>  -0.1600 
 15 C        5.9240     9.1480    -0.8630 C.3   1 <1>   0.0200 
 16 C        6.8870    10.0110    -0.0710 C.2   1 <1>   0.0060 
 17 N        6.5470    11.1140     0.5120 N.2   1 <1>  -0.5650 
 18 N        8.1910     9.6960     0.0920 N.pl3 1 <1>   0.0330 
 19 C        7.6880    11.5430     1.0850 C.2   1 <1>   0.0770 
 20 C        8.7040    10.6890     0.8390 C.2   1 <1>  -0.3020 
 21 H       -0.4940     4.2940     2.6350 H     1 <1>   0.0800 
 22 H        0.7290     5.5180     2.8890 H     1 <1>   0.0800 
 23 H        0.7890     4.0220     3.7930 H     1 <1>   0.0800 
 24 H        1.2160     1.5690    -1.5890 H     1 <1>   0.0800 
 25 H        2.7860     1.0060    -1.0790 H     1 <1>   0.0800 
 26 H        2.6450     2.4570    -2.0510 H     1 <1>   0.0800 
 27 H        4.7470     2.3870    -0.2800 H     1 <1>   0.0800 
 28 H        5.1320     3.2940     1.1640 H     1 <1>   0.0800 
 29 H        3.7960     5.7560     0.6490 H     1 <1>   0.3700 
 30 H        3.6760     7.4960    -1.0050 H     1 <1>   0.0800 
 31 H        5.0090     6.7820    -1.8850 H     1 <1>   0.0800 
 32 H        6.5170     7.2910     0.0330 H     1 <1>   0.0800 
 33 H        5.1900     8.0880     0.8460 H     1 <1>   0.0800 
 34 H        5.0160     9.7030    -1.0190 H     1 <1>   0.0800 
 35 H        6.3510     8.9320    -1.8260 H     1 <1>   0.0800 
 36 H        8.6760     8.8730    -0.2770 H     1 <1>   0.2700 
 37 H        7.7150    12.4590     1.6530 H     1 <1>   0.1500 
 38 H        9.7330    10.7340     1.1470 H     1 <1>   0.1500 
@<TRIPOS>BOND
  1   1   2  1   
  2   2   3  1   
  3   2   4  2   
  4   3   5  2   
  5   3   6  1   
  6   4   7  1   
  7   4   8  1   
  8   5   7  1   
  9   6  21  1   
 10   6  22  1   
 11   6  23  1   
 12   7   9  1   
 13   8  24  1   
 14   8  25  1   
 15   8  26  1   
 16   9  10  1   
 17   9  27  1   
 18   9  28  1   
 19  10  11  2   
 20  10  12  am  
 21  12  13  1   
 22  12  29  1   
 23  13  14  1   
 24  13  30  1   
 25  13  31  1   
 26  14  15  1   
 27  14  32  1   
 28  14  33  1   
 29  15  16  1   
 30  15  34  1   
 31  15  35  1   
 32  16  17  2   
 33  16  18  1   
 34  17  19  1   
 35  18  20  1   
 36  18  36  1   
 37  19  20  2   
 38  19  37  1   
 39  20  38  1   
@<TRIPOS>SUBSTRUCTURE
  1 ****  12 GROUP 4 **** **** 0

# MOE 2024.06 (io_trps.svl 2023.06)
