@<TRIPOS>MOLECULE
NONAME
41 42 1 0 0 
SMALL
USER_CHARGES


@<TRIPOS>ATOM
  1 CL       0.6430    -0.7200     3.3400 Cl    1 <1>  -0.1770 
  2 C        1.4750    -1.0620     1.8340 C.ar  1 <1>   0.1770 
  3 C        0.8870    -1.8730     0.8550 C.ar  1 <1>   0.4100 
  4 C        2.7180    -0.5110     1.6370 C.ar  1 <1>  -0.1500 
  5 N        1.4900    -2.1490    -0.3000 N.ar  1 <1>  -0.6200 
  6 N       -0.3630    -2.4410     1.0310 N.pl3 1 <1>  -0.8380 
  7 C        3.3470    -0.8020     0.4330 C.ar  1 <1>  -0.1430 
  8 C        2.6880    -1.6130    -0.4770 C.ar  1 <1>   0.1600 
  9 C       -1.4140    -2.0420     0.0540 C.3   1 <1>   0.2090 
 10 C       -0.3910    -3.9200     1.2030 C.3   1 <1>   0.2090 
 11 C        4.7270    -0.2680     0.0660 C.3   1 <1>   1.1640 
 12 C       -1.8190    -3.3360    -0.6440 C.3   1 <1>   0.2000 
 13 C       -1.5870    -4.4270     0.3910 C.3   1 <1>  -0.0800 
 14 F        4.6780     0.5650    -0.9630 F     1 <1>  -0.3400 
 15 F        5.5600    -1.2410    -0.2800 F     1 <1>  -0.3400 
 16 F        5.3130     0.3920     1.0570 F     1 <1>  -0.3400 
 17 O       -3.1480    -3.3300    -1.0420 O.3   1 <1>  -0.6800 
 18 C       -1.3660    -5.8020    -0.2630 C.3   1 <1>  -0.0550 
 19 S       -1.1560    -7.1240     0.9280 S.o2  1 <1>   1.3330 
 20 O       -2.3830    -7.2360     1.6830 O.2   1 <1>  -0.6500 
 21 O        0.0970    -6.9340     1.6250 O.2   1 <1>  -0.6500 
 22 N       -1.0020    -8.5030    -0.0510 N.am  1 <1>  -0.8490 
 23 C        0.3540    -8.6970    -0.5750 C.3   1 <1>   0.1160 
 24 C       -1.4500    -9.7190     0.6330 C.3   1 <1>   0.1160 
 25 H        3.1630     0.1120     2.3940 H     1 <1>   0.1500 
 26 H        3.1710    -1.8420    -1.4150 H     1 <1>   0.1500 
 27 H       -2.2440    -1.6210     0.5930 H     1 <1>   0.0800 
 28 H       -1.0390    -1.3260    -0.6560 H     1 <1>   0.0800 
 29 H        0.5280    -4.3470     0.8360 H     1 <1>   0.0800 
 30 H       -0.4970    -4.1710     2.2450 H     1 <1>   0.0800 
 31 H       -1.2000    -3.4790    -1.5140 H     1 <1>   0.0800 
 32 H       -2.4300    -4.4760     1.0580 H     1 <1>   0.0800 
 33 H       -3.7370    -3.2350    -0.2670 H     1 <1>   0.4000 
 34 H       -0.5050    -5.7550    -0.9010 H     1 <1>   0.0800 
 35 H       -2.2160    -6.0280    -0.8780 H     1 <1>   0.0800 
 36 H        0.3730    -9.5350    -1.2510 H     1 <1>   0.0800 
 37 H        1.0480    -8.8800     0.2300 H     1 <1>   0.0800 
 38 H        0.6740    -7.8210    -1.1130 H     1 <1>   0.0800 
 39 H       -1.3560   -10.5710    -0.0190 H     1 <1>   0.0800 
 40 H       -2.4860    -9.6250     0.9130 H     1 <1>   0.0800 
 41 H       -0.8650    -9.8860     1.5230 H     1 <1>   0.0800 
@<TRIPOS>BOND
  1   1   2  1   
  2   2   3  ar  
  3   2   4  ar  
  4   3   5  ar  
  5   3   6  1   
  6   4   7  ar  
  7   4  25  1   
  8   5   8  ar  
  9   6   9  1   
 10   6  10  1   
 11   7   8  ar  
 12   7  11  1   
 13   8  26  1   
 14   9  12  1   
 15   9  27  1   
 16   9  28  1   
 17  10  13  1   
 18  10  29  1   
 19  10  30  1   
 20  11  14  1   
 21  11  15  1   
 22  11  16  1   
 23  12  13  1   
 24  12  17  1   
 25  12  31  1   
 26  13  18  1   
 27  13  32  1   
 28  17  33  1   
 29  18  19  1   
 30  18  34  1   
 31  18  35  1   
 32  19  20  2   
 33  19  21  2   
 34  19  22  am  
 35  22  23  1   
 36  22  24  1   
 37  23  36  1   
 38  23  37  1   
 39  23  38  1   
 40  24  39  1   
 41  24  40  1   
 42  24  41  1   
@<TRIPOS>SUBSTRUCTURE
  1 ****  10 GROUP 4 **** **** 0

# MOE 2024.06 (io_trps.svl 2023.06)
