@<TRIPOS>MOLECULE
NONAME
45 46 1 0 0 
SMALL
USER_CHARGES


@<TRIPOS>ATOM
  1 S        0.4730     0.1290     0.6720 S.o2  1 <1>   1.3330 
  2 O       -0.6090     0.2480     1.6220 O.2   1 <1>  -0.6500 
  3 O        1.8430     0.1600     1.1340 O.2   1 <1>  -0.6500 
  4 N        0.2550    -1.3040    -0.2130 N.am  1 <1>  -0.8490 
  5 C        0.2500     1.4000    -0.5690 C.3   1 <1>  -0.0550 
  6 C        1.4690    -1.7580    -0.8990 C.3   1 <1>   0.1160 
  7 C       -0.2870    -2.3890     0.6120 C.3   1 <1>   0.1160 
  8 C        0.2810     2.8260     0.0070 C.3   1 <1>  -0.0800 
  9 C        0.0110     3.8850    -1.0600 C.3   1 <1>   0.2000 
 10 C        1.6270     3.2390     0.6090 C.3   1 <1>   0.1400 
 11 O       -1.3530     4.0320    -1.2470 O.3   1 <1>  -0.6800 
 12 C        0.6550     5.1690    -0.5400 C.3   1 <1>   0.1400 
 13 N        1.6970     4.7040     0.4060 N.am  1 <1>  -0.6600 
 14 C        2.6160     5.5120     1.0310 C.2   1 <1>   0.5440 
 15 O        3.4660     5.0000     1.7350 O.2   1 <1>  -0.5700 
 16 C        2.6050     6.9390     0.8410 C.ar  1 <1>   0.0860 
 17 C        1.9750     7.7560     1.7770 C.ar  1 <1>   0.1900 
 18 C        3.1760     7.5810    -0.2740 C.ar  1 <1>   0.0820 
 19 F        1.4110     7.2120     2.8250 F     1 <1>  -0.1900 
 20 C        1.9090     9.1280     1.6190 C.ar  1 <1>   0.1900 
 21 O        3.8170     6.9230    -1.2670 O.3   1 <1>  -0.3630 
 22 C        3.0920     8.9610    -0.4290 C.ar  1 <1>  -0.1500 
 23 F        1.3070     9.8690     2.5160 F     1 <1>  -0.1900 
 24 C        2.4610     9.7500     0.5170 C.ar  1 <1>  -0.1500 
 25 C        4.8040     5.9530    -0.9720 C.3   1 <1>   0.0400 
 26 H        1.0080     1.3030    -1.3210 H     1 <1>   0.0800 
 27 H       -0.7010     1.2480    -1.0430 H     1 <1>   0.0800 
 28 H        1.2480    -2.6140    -1.5130 H     1 <1>   0.0800 
 29 H        2.2280    -2.0270    -0.1820 H     1 <1>   0.0800 
 30 H        1.8530    -0.9760    -1.5310 H     1 <1>   0.0800 
 31 H       -0.4280    -3.2750     0.0170 H     1 <1>   0.0800 
 32 H       -1.2430    -2.1020     1.0180 H     1 <1>   0.0800 
 33 H        0.3830    -2.6100     1.4270 H     1 <1>   0.0800 
 34 H       -0.4550     2.9110     0.7890 H     1 <1>   0.0800 
 35 H        0.4550     3.6160    -2.0030 H     1 <1>   0.0800 
 36 H        2.4480     2.7740     0.0910 H     1 <1>   0.0800 
 37 H        1.6870     2.9950     1.6580 H     1 <1>   0.0800 
 38 H       -1.7990     4.2130    -0.3960 H     1 <1>   0.4000 
 39 H       -0.0610     5.7730    -0.0100 H     1 <1>   0.0800 
 40 H        1.0980     5.7280    -1.3460 H     1 <1>   0.0800 
 41 H        3.5310     9.4140    -1.3010 H     1 <1>   0.1500 
 42 H        2.3980    10.8180     0.4060 H     1 <1>   0.1500 
 43 H        5.5080     5.9330    -1.7840 H     1 <1>   0.0800 
 44 H        4.3350     4.9890    -0.8790 H     1 <1>   0.0800 
 45 H        5.3060     6.2170    -0.0570 H     1 <1>   0.0800 
@<TRIPOS>BOND
  1   1   2  2   
  2   1   3  2   
  3   1   4  am  
  4   1   5  1   
  5   4   6  1   
  6   4   7  1   
  7   5   8  1   
  8   5  26  1   
  9   5  27  1   
 10   6  28  1   
 11   6  29  1   
 12   6  30  1   
 13   7  31  1   
 14   7  32  1   
 15   7  33  1   
 16   8   9  1   
 17   8  10  1   
 18   8  34  1   
 19   9  11  1   
 20   9  12  1   
 21   9  35  1   
 22  10  13  1   
 23  10  36  1   
 24  10  37  1   
 25  11  38  1   
 26  12  13  1   
 27  12  39  1   
 28  12  40  1   
 29  13  14  am  
 30  14  15  2   
 31  14  16  1   
 32  16  17  ar  
 33  16  18  ar  
 34  17  19  1   
 35  17  20  ar  
 36  18  21  1   
 37  18  22  ar  
 38  20  23  1   
 39  20  24  ar  
 40  21  25  1   
 41  22  24  ar  
 42  22  41  1   
 43  24  42  1   
 44  25  43  1   
 45  25  44  1   
 46  25  45  1   
@<TRIPOS>SUBSTRUCTURE
  1 ****  13 GROUP 4 **** **** 0

# MOE 2024.06 (io_trps.svl 2023.06)
