@<TRIPOS>MOLECULE
NONAME
53 56 1 0 0 
SMALL
USER_CHARGES


@<TRIPOS>ATOM
  1 O       -1.6810    -1.1270    -2.7460 O.2   1 <1>  -0.5700 
  2 C       -1.9500    -1.4030    -1.6050 C.2   1 <1>   0.5690 
  3 N       -1.8210    -0.5020    -0.5860 N.am  1 <1>  -0.6600 
  4 C       -2.4900    -2.7840    -1.3370 C.3   1 <1>  -0.0190 
  5 C       -2.2250    -0.8020     0.8170 C.3   1 <1>   0.2200 
  6 C       -1.2140     0.8460    -0.8150 C.3   1 <1>   0.0600 
  7 C       -1.6080    -3.5770    -0.3490 C.3   1 <1>   0.1200 
  8 C       -3.9820    -2.6700    -1.0060 C.3   1 <1>   0.3430 
  9 C       -1.3850    -1.9650     1.3990 C.3   1 <1>   0.1200 
 10 C       -3.7610    -1.0130     0.9180 C.3   1 <1>   0.3430 
 11 O       -1.8370    -3.2300     0.9900 O.3   1 <1>  -0.5600 
 12 N       -4.2580    -2.3490     0.4340 N.4   1 <1>  -0.9590 
 13 C       -5.6660    -2.6210     0.8220 C.3   1 <1>   0.4860 
 14 C       -5.9280    -4.1020     0.6340 C.ar  1 <1>  -0.1440 
 15 C       -6.7860    -4.5370    -0.3660 C.ar  1 <1>  -0.1500 
 16 C       -5.3010    -5.0350     1.4490 C.ar  1 <1>  -0.1500 
 17 C       -7.0010    -5.8900    -0.5550 C.ar  1 <1>  -0.1500 
 18 C       -5.5160    -6.3890     1.2590 C.ar  1 <1>  -0.1500 
 19 C       -6.3680    -6.8230     0.2490 C.ar  1 <1>   0.0820 
 20 O       -6.6300    -8.1260    -0.0120 O.3   1 <1>  -0.3630 
 21 C       -6.0730    -9.1650     0.7790 C.3   1 <1>   0.2640 
 22 C       -6.4980   -10.5480     0.2970 C.ar  1 <1>   0.1670 
 23 N       -5.8480   -11.5600     0.8590 N.ar  1 <1>  -0.6200 
 24 C       -7.4960   -10.7140    -0.6570 C.ar  1 <1>  -0.1500 
 25 C       -6.2010   -12.7700     0.4570 C.ar  1 <1>   0.1600 
 26 C       -7.8530   -11.9810    -1.0650 C.ar  1 <1>  -0.1500 
 27 C       -7.1800   -13.0330    -0.4850 C.ar  1 <1>  -0.1500 
 28 H       -2.4280    -3.3050    -2.2760 H     1 <1>   0.0800 
 29 H       -1.9920     0.0700     1.4050 H     1 <1>   0.0800 
 30 H       -0.3380     0.9650    -0.2010 H     1 <1>   0.0800 
 31 H       -1.9240     1.6180    -0.5760 H     1 <1>   0.0800 
 32 H       -0.9190     0.9670    -1.8450 H     1 <1>   0.0800 
 33 H       -0.5620    -3.4390    -0.5710 H     1 <1>   0.0800 
 34 H       -1.8290    -4.6270    -0.4380 H     1 <1>   0.0800 
 35 H       -4.4360    -3.6190    -1.2420 H     1 <1>   0.0800 
 36 H       -4.4330    -1.9270    -1.6440 H     1 <1>   0.0800 
 37 H       -1.4550    -1.9480     2.4730 H     1 <1>   0.0800 
 38 H       -0.3450    -1.8580     1.1360 H     1 <1>   0.0800 
 39 H       -4.2530    -0.2210     0.3770 H     1 <1>   0.0800 
 40 H       -4.0300    -0.9100     1.9570 H     1 <1>   0.0800 
 41 H       -3.6710    -3.0430     0.9390 H     1 <1>   0.4500 
 42 H       -5.8250    -2.3630     1.8560 H     1 <1>   0.0800 
 43 H       -6.3410    -2.0410     0.2140 H     1 <1>   0.0800 
 44 H       -7.2960    -3.8380    -1.0070 H     1 <1>   0.1500 
 45 H       -4.6380    -4.7250     2.2390 H     1 <1>   0.1500 
 46 H       -7.6630    -6.2350    -1.3300 H     1 <1>   0.1500 
 47 H       -5.0140    -7.0850     1.9060 H     1 <1>   0.1500 
 48 H       -5.0020    -9.0890     0.7230 H     1 <1>   0.0800 
 49 H       -6.3960    -9.0280     1.7950 H     1 <1>   0.0800 
 50 H       -7.9970    -9.8620    -1.0810 H     1 <1>   0.1500 
 51 H       -5.6810   -13.6000     0.9040 H     1 <1>   0.1500 
 52 H       -8.6220   -12.1390    -1.8020 H     1 <1>   0.1500 
 53 H       -7.4090   -14.0470    -0.7590 H     1 <1>   0.1500 
@<TRIPOS>BOND
  1   1   2  2   
  2   2   3  am  
  3   2   4  1   
  4   3   5  1   
  5   3   6  1   
  6   4   7  1   
  7   4   8  1   
  8   4  28  1   
  9   5   9  1   
 10   5  10  1   
 11   5  29  1   
 12   6  30  1   
 13   6  31  1   
 14   6  32  1   
 15   7  11  1   
 16   7  33  1   
 17   7  34  1   
 18   8  12  1   
 19   8  35  1   
 20   8  36  1   
 21   9  11  1   
 22   9  37  1   
 23   9  38  1   
 24  10  12  1   
 25  10  39  1   
 26  10  40  1   
 27  12  13  1   
 28  12  41  1   
 29  13  14  1   
 30  13  42  1   
 31  13  43  1   
 32  14  15  ar  
 33  14  16  ar  
 34  15  17  ar  
 35  15  44  1   
 36  16  18  ar  
 37  16  45  1   
 38  17  19  ar  
 39  17  46  1   
 40  18  19  ar  
 41  18  47  1   
 42  19  20  1   
 43  20  21  1   
 44  21  22  1   
 45  21  48  1   
 46  21  49  1   
 47  22  23  ar  
 48  22  24  ar  
 49  23  25  ar  
 50  24  26  ar  
 51  24  50  1   
 52  25  27  ar  
 53  25  51  1   
 54  26  27  ar  
 55  26  52  1   
 56  27  53  1   
@<TRIPOS>SUBSTRUCTURE
  1 ****  16 GROUP 4 **** **** 0

# MOE 2024.06 (io_trps.svl 2023.06)
