@<TRIPOS>MOLECULE
NONAME
43 44 1 0 0 
SMALL
USER_CHARGES


@<TRIPOS>ATOM
  1 F       -2.3760    -4.3790     0.9000 F     1 <1>  -0.3400 
  2 C       -2.8180    -3.6910     1.9460 C.3   1 <1>   0.9600 
  3 F       -3.5970    -4.5380     2.6140 F     1 <1>  -0.3400 
  4 O       -3.6910    -2.6650     1.4740 O.3   1 <1>  -0.3630 
  5 C       -1.6330    -3.2520     2.8550 C.3   1 <1>   0.6000 
  6 C       -3.2480    -1.7350     0.6020 C.ar  1 <1>   0.0830 
  7 F       -2.0380    -2.4830     3.8700 F     1 <1>  -0.3400 
  8 F       -0.7300    -2.5050     2.2170 F     1 <1>  -0.3400 
  9 C       -3.2940    -1.9480    -0.7840 C.ar  1 <1>   0.0860 
 10 C       -2.7830    -0.5360     1.1250 C.ar  1 <1>  -0.1500 
 11 C       -3.8260    -3.1510    -1.3950 C.2   1 <1>   0.5440 
 12 C       -2.8010    -0.9310    -1.6020 C.ar  1 <1>  -0.1500 
 13 C       -2.3160     0.4580     0.2870 C.ar  1 <1>  -0.1500 
 14 O       -3.1450    -3.7280    -2.2240 O.2   1 <1>  -0.5700 
 15 N       -5.0920    -3.6320    -1.1250 N.am  1 <1>  -0.6600 
 16 C       -2.3190     0.2550    -1.0820 C.ar  1 <1>  -0.1500 
 17 C       -5.4550    -5.0070    -1.5680 C.3   1 <1>   0.3200 
 18 C       -6.2080    -2.7370    -0.6780 C.3   1 <1>   0.1400 
 19 C       -5.0000    -6.0120    -0.5300 C.2   1 <1>  -0.3320 
 20 C       -6.8390    -3.1350     0.6700 C.3   1 <1>   0.1200 
 21 N       -5.6310    -6.1990     0.6390 N.pl3 1 <1>   0.0330 
 22 C       -3.9600    -6.8730    -0.5370 C.2   1 <1>   0.0770 
 23 O       -7.6980    -4.2250     0.5350 O.3   1 <1>  -0.6800 
 24 C       -4.9400    -7.1710     1.2710 C.2   1 <1>   0.0060 
 25 N       -3.9280    -7.6070     0.5940 N.2   1 <1>  -0.5650 
 26 C       -5.3240    -7.6820     2.6410 C.3   1 <1>  -0.0600 
 27 H       -1.1190    -4.0990     3.2680 H     1 <1>   0.0800 
 28 H       -2.7820    -0.3790     2.1900 H     1 <1>   0.1500 
 29 H       -2.7980    -1.0840    -2.6680 H     1 <1>   0.1500 
 30 H       -1.9470     1.3830     0.6950 H     1 <1>   0.1500 
 31 H       -1.9450     1.0220    -1.7390 H     1 <1>   0.1500 
 32 H       -4.9810    -5.2280    -2.5090 H     1 <1>   0.0800 
 33 H       -6.5170    -5.0850    -1.7150 H     1 <1>   0.0800 
 34 H       -6.9680    -2.7060    -1.4390 H     1 <1>   0.0800 
 35 H       -5.8320    -1.7340    -0.5770 H     1 <1>   0.0800 
 36 H       -7.4150    -2.3150     1.0630 H     1 <1>   0.0800 
 37 H       -6.0760    -3.3910     1.3820 H     1 <1>   0.0800 
 38 H       -6.4590    -5.6800     0.9640 H     1 <1>   0.2700 
 39 H       -3.2190    -7.0000    -1.3100 H     1 <1>   0.1500 
 40 H       -8.4990    -3.9740     0.0320 H     1 <1>   0.4000 
 41 H       -6.3140    -8.0970     2.6130 H     1 <1>   0.0800 
 42 H       -5.2910    -6.8790     3.3530 H     1 <1>   0.0800 
 43 H       -4.6350    -8.4480     2.9480 H     1 <1>   0.0800 
@<TRIPOS>BOND
  1   1   2  1   
  2   2   3  1   
  3   2   4  1   
  4   2   5  1   
  5   4   6  1   
  6   5   7  1   
  7   5   8  1   
  8   5  27  1   
  9   6   9  ar  
 10   6  10  ar  
 11   9  11  1   
 12   9  12  ar  
 13  10  13  ar  
 14  10  28  1   
 15  11  14  2   
 16  11  15  am  
 17  12  16  ar  
 18  12  29  1   
 19  13  16  ar  
 20  13  30  1   
 21  15  17  1   
 22  15  18  1   
 23  16  31  1   
 24  17  19  1   
 25  17  32  1   
 26  17  33  1   
 27  18  20  1   
 28  18  34  1   
 29  18  35  1   
 30  19  21  1   
 31  19  22  2   
 32  20  23  1   
 33  20  36  1   
 34  20  37  1   
 35  21  24  1   
 36  21  38  1   
 37  22  25  1   
 38  22  39  1   
 39  23  40  1   
 40  24  25  2   
 41  24  26  1   
 42  26  41  1   
 43  26  42  1   
 44  26  43  1   
@<TRIPOS>SUBSTRUCTURE
  1 ****   4 GROUP 4 **** **** 0

# MOE 2024.06 (io_trps.svl 2023.06)
