@<TRIPOS>MOLECULE
NONAME
50 52 1 0 0 
SMALL
USER_CHARGES


@<TRIPOS>ATOM
  1 O        0.4270    -0.5240    -0.9090 O.3   1 <1>  -0.3630 
  2 C        0.2800    -1.8700    -0.8390 C.ar  1 <1>   0.0830 
  3 C        1.3200     0.1590    -0.0600 C.3   1 <1>   0.1200 
  4 C        0.9630    -2.6810     0.0630 C.ar  1 <1>  -0.1500 
  5 C       -0.6090    -2.4470    -1.7310 C.ar  1 <1>  -0.1500 
  6 C        1.2540     1.6510    -0.3980 C.3   1 <1>  -0.1600 
  7 C        0.7490    -4.0480     0.0660 C.ar  1 <1>  -0.1500 
  8 C       -0.8220    -3.8140    -1.7260 C.ar  1 <1>  -0.1500 
  9 C        2.1010     2.5210     0.5490 C.3   1 <1>  -0.0800 
 10 C       -0.1450    -4.6220    -0.8260 C.ar  1 <1>  -0.1430 
 11 C        1.8770     4.0030     0.2280 C.3   1 <1>  -0.2400 
 12 C        3.5970     2.1960     0.4460 C.3   1 <1>  -0.2400 
 13 C       -0.3860    -6.1220    -0.8070 C.3   1 <1>  -0.0170 
 14 C       -1.4100    -6.4670     0.2720 C.3   1 <1>   0.2090 
 15 N       -1.6870    -7.9260     0.2580 N.pl3 1 <1>  -0.8690 
 16 C       -2.8570    -8.5820     0.4200 C.2   1 <1>   0.2710 
 17 N       -2.7520    -9.9030     0.2710 N.2   1 <1>  -0.6210 
 18 C       -4.0530    -7.9750     0.7170 C.2   1 <1>  -0.1410 
 19 C       -3.8160   -10.6260     0.4080 C.2   1 <1>   0.9190 
 20 C       -5.1490    -8.7930     0.8510 C.cat 1 <1>   0.7910 
 21 N       -5.0320   -10.1100     0.6970 N.pl3 1 <1>  -0.6690 
 22 N       -3.6990   -11.9430     0.2560 N.pl3 1 <1>  -0.8500 
 23 N       -6.4410    -8.5580     1.1310 N.pl3 1 <1>  -0.3930 
 24 C       -6.2890   -10.6220     0.8950 C.2   1 <1>   0.5030 
 25 N       -7.1550    -9.7160     1.1560 N.2   1 <1>  -0.2600 
 26 H        2.3080    -0.2310    -0.2300 H     1 <1>   0.0800 
 27 H        1.0170    -0.0130     0.9580 H     1 <1>   0.0800 
 28 H        1.6600    -2.2680     0.7670 H     1 <1>   0.1500 
 29 H       -1.1310    -1.8170    -2.4280 H     1 <1>   0.1500 
 30 H        0.2260     1.9630    -0.3290 H     1 <1>   0.0800 
 31 H        1.5820     1.7950    -1.4120 H     1 <1>   0.0800 
 32 H        1.2840    -4.6640     0.7680 H     1 <1>   0.1500 
 33 H       -1.5150    -4.2410    -2.4290 H     1 <1>   0.1500 
 34 H        1.7790     2.3460     1.5630 H     1 <1>   0.0800 
 35 H        2.1880     4.2240    -0.7780 H     1 <1>   0.0800 
 36 H        2.4390     4.6220     0.9050 H     1 <1>   0.0800 
 37 H        0.8360     4.2550     0.3290 H     1 <1>   0.0800 
 38 H        3.9410     2.3100    -0.5670 H     1 <1>   0.0800 
 39 H        3.7970     1.1900     0.7670 H     1 <1>   0.0800 
 40 H        4.1650     2.8590     1.0750 H     1 <1>   0.0800 
 41 H        0.5400    -6.6320    -0.6080 H     1 <1>   0.0800 
 42 H       -0.7510    -6.4440    -1.7670 H     1 <1>   0.0800 
 43 H       -2.3120    -5.9110     0.0880 H     1 <1>   0.0800 
 44 H       -1.0260    -6.1860     1.2380 H     1 <1>   0.0800 
 45 H       -0.8620    -8.5180     0.1040 H     1 <1>   0.4000 
 46 H       -4.1360    -6.9160     0.8440 H     1 <1>   0.1500 
 47 H       -2.7700   -12.3090     0.0400 H     1 <1>   0.4000 
 48 H       -4.4390   -12.6330     0.3360 H     1 <1>   0.4000 
 49 H       -6.8610    -7.6380     1.3070 H     1 <1>   0.4500 
 50 H       -6.5040   -11.6780     0.8320 H     1 <1>   0.1500 
@<TRIPOS>BOND
  1   1   2  1   
  2   1   3  1   
  3   2   4  ar  
  4   2   5  ar  
  5   3   6  1   
  6   3  26  1   
  7   3  27  1   
  8   4   7  ar  
  9   4  28  1   
 10   5   8  ar  
 11   5  29  1   
 12   6   9  1   
 13   6  30  1   
 14   6  31  1   
 15   7  10  ar  
 16   7  32  1   
 17   8  10  ar  
 18   8  33  1   
 19   9  11  1   
 20   9  12  1   
 21   9  34  1   
 22  10  13  1   
 23  11  35  1   
 24  11  36  1   
 25  11  37  1   
 26  12  38  1   
 27  12  39  1   
 28  12  40  1   
 29  13  14  1   
 30  13  41  1   
 31  13  42  1   
 32  14  15  1   
 33  14  43  1   
 34  14  44  1   
 35  15  16  1   
 36  15  45  1   
 37  16  17  1   
 38  16  18  2   
 39  17  19  2   
 40  18  20  1   
 41  18  46  1   
 42  19  21  1   
 43  19  22  1   
 44  20  21  ar  
 45  20  23  ar  
 46  21  24  1   
 47  22  47  1   
 48  22  48  1   
 49  23  25  1   
 50  23  49  1   
 51  24  25  2   
 52  24  50  1   
@<TRIPOS>SUBSTRUCTURE
  1 ****  14 GROUP 4 **** **** 0

# MOE 2024.06 (io_trps.svl 2023.06)
