@<TRIPOS>MOLECULE
NONAME
50 51 1 0 0 
SMALL
USER_CHARGES


@<TRIPOS>ATOM
  1 S        0.5420     0.1650     0.0480 S.o2  1 <1>   1.3330 
  2 O        0.7130    -0.3550     1.3860 O.2   1 <1>  -0.6500 
  3 O        0.2700    -0.7470    -1.0400 O.2   1 <1>  -0.6500 
  4 N       -0.6960     1.3260     0.0980 N.am  1 <1>  -0.8490 
  5 C        1.9800     1.1330    -0.3960 C.3   1 <1>  -0.0550 
  6 C       -2.0070     0.7530    -0.2210 C.3   1 <1>   0.1160 
  7 C       -0.7620     2.0520     1.3710 C.3   1 <1>   0.1160 
  8 C        3.2620     0.2900    -0.5490 C.3   1 <1>  -0.0800 
  9 C        4.4670     1.0570    -1.0740 C.3   1 <1>   0.2200 
 10 C        3.7790    -0.3190     0.7620 C.3   1 <1>   0.1200 
 11 N        4.5280     2.4130    -0.4800 N.am  1 <1>  -0.7300 
 12 C        5.6040     0.2180    -0.5110 C.3   1 <1>   0.1200 
 13 O        5.1700    -0.1690     0.7550 O.3   1 <1>  -0.5600 
 14 C        4.2250     3.5770    -1.1240 C.2   1 <1>   0.5440 
 15 O        3.8260     3.5140    -2.2700 O.2   1 <1>  -0.5700 
 16 C        4.3580     4.8450    -0.4280 C.ar  1 <1>   0.0860 
 17 C        5.6190     5.3370    -0.0610 C.ar  1 <1>  -0.1440 
 18 C        3.2290     5.6030    -0.0890 C.ar  1 <1>  -0.1440 
 19 C        5.7320     6.5260     0.6390 C.ar  1 <1>  -0.1500 
 20 C        6.8970     4.5910    -0.4310 C.3   1 <1>  -0.0970 
 21 C        3.3630     6.7910     0.6090 C.ar  1 <1>  -0.1500 
 22 C        1.8290     5.1430    -0.4820 C.3   1 <1>  -0.0970 
 23 C        4.6100     7.2560     0.9820 C.ar  1 <1>  -0.1440 
 24 C        4.7470     8.5600     1.7480 C.3   1 <1>  -0.0970 
 25 H        1.7870     1.6320    -1.3260 H     1 <1>   0.0800 
 26 H        2.1370     1.8850     0.3510 H     1 <1>   0.0800 
 27 H       -2.7650     1.5170    -0.1960 H     1 <1>   0.0800 
 28 H       -2.2580    -0.0210     0.4850 H     1 <1>   0.0800 
 29 H       -1.9920     0.3280    -1.2100 H     1 <1>   0.0800 
 30 H       -1.5000     2.8340     1.3120 H     1 <1>   0.0800 
 31 H        0.1900     2.5010     1.5930 H     1 <1>   0.0800 
 32 H       -1.0240     1.3820     2.1730 H     1 <1>   0.0800 
 33 H        3.0590    -0.5190    -1.2300 H     1 <1>   0.0800 
 34 H        4.4920     1.1090    -2.1500 H     1 <1>   0.0800 
 35 H        3.5410    -1.3660     0.8360 H     1 <1>   0.0800 
 36 H        3.4000     0.1990     1.6270 H     1 <1>   0.0800 
 37 H        4.8430     2.4370     0.4930 H     1 <1>   0.3700 
 38 H        6.5270     0.7650    -0.4300 H     1 <1>   0.0800 
 39 H        5.7520    -0.6710    -1.0980 H     1 <1>   0.0800 
 40 H        6.7030     6.8950     0.9200 H     1 <1>   0.1500 
 41 H        7.7600     5.2190    -0.3020 H     1 <1>   0.0800 
 42 H        6.8640     4.2820    -1.4610 H     1 <1>   0.0800 
 43 H        7.0120     3.7220     0.1920 H     1 <1>   0.0800 
 44 H        2.4910     7.3660     0.8650 H     1 <1>   0.1500 
 45 H        1.0810     5.8360    -0.1400 H     1 <1>   0.0800 
 46 H        1.6180     4.1810    -0.0550 H     1 <1>   0.0800 
 47 H        1.7540     5.0720    -1.5530 H     1 <1>   0.0800 
 48 H        5.5980     8.5230     2.4030 H     1 <1>   0.0800 
 49 H        3.8700     8.7420     2.3420 H     1 <1>   0.0800 
 50 H        4.8740     9.3740     1.0580 H     1 <1>   0.0800 
@<TRIPOS>BOND
  1   1   2  2   
  2   1   3  2   
  3   1   4  am  
  4   1   5  1   
  5   4   6  1   
  6   4   7  1   
  7   5   8  1   
  8   5  25  1   
  9   5  26  1   
 10   6  27  1   
 11   6  28  1   
 12   6  29  1   
 13   7  30  1   
 14   7  31  1   
 15   7  32  1   
 16   8   9  1   
 17   8  10  1   
 18   8  33  1   
 19   9  11  1   
 20   9  12  1   
 21   9  34  1   
 22  10  13  1   
 23  10  35  1   
 24  10  36  1   
 25  11  14  am  
 26  11  37  1   
 27  12  13  1   
 28  12  38  1   
 29  12  39  1   
 30  14  15  2   
 31  14  16  1   
 32  16  17  ar  
 33  16  18  ar  
 34  17  19  ar  
 35  17  20  1   
 36  18  21  ar  
 37  18  22  1   
 38  19  23  ar  
 39  19  40  1   
 40  20  41  1   
 41  20  42  1   
 42  20  43  1   
 43  21  23  ar  
 44  21  44  1   
 45  22  45  1   
 46  22  46  1   
 47  22  47  1   
 48  23  24  1   
 49  24  48  1   
 50  24  49  1   
 51  24  50  1   
@<TRIPOS>SUBSTRUCTURE
  1 ****  11 GROUP 4 **** **** 0

# MOE 2024.06 (io_trps.svl 2023.06)
