@<TRIPOS>MOLECULE
NONAME
52 54 1 0 0 
SMALL
USER_CHARGES


@<TRIPOS>ATOM
  1 O       -0.7240    -2.4820    -1.7510 O.2   1 <1>  -0.5700 
  2 C        0.3080    -3.0020    -1.4160 C.2   1 <1>   0.5690 
  3 N        0.7090    -4.1800    -1.9370 N.am  1 <1>  -0.7300 
  4 C        1.2020    -2.3540    -0.3820 C.3   1 <1>  -0.0990 
  5 C        1.9530    -4.8630    -1.5280 C.3   1 <1>   0.1400 
  6 C        2.6780    -2.4460    -0.8160 C.3   1 <1>  -0.0800 
  7 C        3.0920    -3.8330    -1.3710 C.3   1 <1>  -0.0800 
  8 C        3.6570    -2.1170     0.3200 C.3   1 <1>  -0.1600 
  9 C        4.2210    -4.3250    -0.4560 C.3   1 <1>  -0.1600 
 10 C        4.8480    -3.0360     0.0810 C.3   1 <1>   0.2200 
 11 N        5.6920    -3.1830     1.3090 N.am  1 <1>  -0.6600 
 12 C        6.7980    -2.4000     1.5980 C.2   1 <1>   0.5690 
 13 C        5.2250    -4.1810     2.3270 C.3   1 <1>   0.0600 
 14 O        7.3720    -2.5180     2.6570 O.2   1 <1>  -0.5700 
 15 C        7.3270    -1.3040     0.6680 C.3   1 <1>   0.0440 
 16 C        8.7880    -1.5070     0.2300 C.ar  1 <1>  -0.1430 
 17 C        9.0960    -2.3450    -0.8430 C.ar  1 <1>  -0.1430 
 18 C        9.8270    -0.8500     0.8940 C.ar  1 <1>  -0.1430 
 19 C       10.4120    -2.4980    -1.2490 C.ar  1 <1>  -0.1500 
 20 C        8.0350    -3.1290    -1.6030 C.3   1 <1>  -0.0970 
 21 C       11.1360    -1.0190     0.4690 C.ar  1 <1>  -0.1500 
 22 C        9.5960     0.0570     2.0970 C.3   1 <1>  -0.0970 
 23 C       11.4370    -1.8360    -0.6030 C.ar  1 <1>  -0.1430 
 24 C       12.8750    -2.0120    -1.0550 C.3   1 <1>  -0.0970 
 25 H        0.0840    -4.6380    -2.6050 H     1 <1>   0.3700 
 26 H        0.9150    -1.3270    -0.2520 H     1 <1>   0.0800 
 27 H        1.0480    -2.8690     0.5480 H     1 <1>   0.0800 
 28 H        1.7670    -5.3640    -0.5930 H     1 <1>   0.0800 
 29 H        2.2230    -5.6030    -2.2630 H     1 <1>   0.0800 
 30 H        2.8250    -1.7310    -1.6090 H     1 <1>   0.0800 
 31 H        3.5120    -3.6710    -2.3500 H     1 <1>   0.0800 
 32 H        3.2130    -2.3440     1.2730 H     1 <1>   0.0800 
 33 H        3.9480    -1.0820     0.3010 H     1 <1>   0.0800 
 34 H        4.9390    -4.9190    -0.9930 H     1 <1>   0.0800 
 35 H        3.7910    -4.9070     0.3360 H     1 <1>   0.0800 
 36 H        5.4270    -2.6320    -0.7260 H     1 <1>   0.0800 
 37 H        4.1640    -4.0940     2.4770 H     1 <1>   0.0800 
 38 H        5.7040    -4.0280     3.2780 H     1 <1>   0.0800 
 39 H        5.4600    -5.1760     1.9910 H     1 <1>   0.0800 
 40 H        6.7210    -1.1750    -0.2000 H     1 <1>   0.0800 
 41 H        7.2260    -0.3800     1.2000 H     1 <1>   0.0800 
 42 H       10.6490    -3.1430    -2.0760 H     1 <1>   0.1500 
 43 H        8.4800    -3.7410    -2.3660 H     1 <1>   0.0800 
 44 H        7.3460    -2.4560    -2.0790 H     1 <1>   0.0800 
 45 H        7.5090    -3.7770    -0.9270 H     1 <1>   0.0800 
 46 H       11.9340    -0.5120     0.9790 H     1 <1>   0.1500 
 47 H       10.5270     0.3490     2.5470 H     1 <1>   0.0800 
 48 H        9.0210    -0.4590     2.8450 H     1 <1>   0.0800 
 49 H        9.0740     0.9460     1.7960 H     1 <1>   0.0800 
 50 H       12.9150    -2.2210    -2.1090 H     1 <1>   0.0800 
 51 H       13.3250    -2.8280    -0.5200 H     1 <1>   0.0800 
 52 H       13.4400    -1.1170    -0.8650 H     1 <1>   0.0800 
@<TRIPOS>BOND
  1   1   2  2   
  2   2   3  am  
  3   2   4  1   
  4   3   5  1   
  5   3  25  1   
  6   4   6  1   
  7   4  26  1   
  8   4  27  1   
  9   5   7  1   
 10   5  28  1   
 11   5  29  1   
 12   6   7  1   
 13   6   8  1   
 14   6  30  1   
 15   7   9  1   
 16   7  31  1   
 17   8  10  1   
 18   8  32  1   
 19   8  33  1   
 20   9  10  1   
 21   9  34  1   
 22   9  35  1   
 23  10  11  1   
 24  10  36  1   
 25  11  12  am  
 26  11  13  1   
 27  12  14  2   
 28  12  15  1   
 29  13  37  1   
 30  13  38  1   
 31  13  39  1   
 32  15  16  1   
 33  15  40  1   
 34  15  41  1   
 35  16  17  ar  
 36  16  18  ar  
 37  17  19  ar  
 38  17  20  1   
 39  18  21  ar  
 40  18  22  1   
 41  19  23  ar  
 42  19  42  1   
 43  20  43  1   
 44  20  44  1   
 45  20  45  1   
 46  21  23  ar  
 47  21  46  1   
 48  22  47  1   
 49  22  48  1   
 50  22  49  1   
 51  23  24  1   
 52  24  50  1   
 53  24  51  1   
 54  24  52  1   
@<TRIPOS>SUBSTRUCTURE
  1 ****  10 GROUP 4 **** **** 0

# MOE 2024.06 (io_trps.svl 2023.06)
