@<TRIPOS>MOLECULE
NONAME
59 62 1 0 0 
SMALL
USER_CHARGES


@<TRIPOS>ATOM
  1 O        1.6020     1.7500    -1.2270 O.3   1 <1>  -0.0190 
  2 N        2.4530     0.7820    -1.0690 N.2   1 <1>  -0.4100 
  3 C        0.9840     2.0400    -0.1130 C.2   1 <1>  -0.0400 
  4 C        2.3690     0.4270     0.1630 C.2   1 <1>   0.1080 
  5 C        1.4360     1.2090     0.8380 C.2   1 <1>  -0.1500 
  6 C       -0.0220     3.1740    -0.0830 C.3   1 <1>   0.0200 
  7 C        3.1800    -0.6900     0.7840 C.3   1 <1>  -0.0590 
  8 C        0.5710     4.4310    -0.7500 C.3   1 <1>  -0.0800 
  9 C       -0.2460     5.7180    -0.6390 C.3   1 <1>   0.2000 
 10 C        1.9530     4.8070    -0.2020 C.3   1 <1>   0.3430 
 11 O       -0.6870     5.8870     0.6720 O.3   1 <1>  -0.6800 
 12 C        0.8050     6.7900    -0.9390 C.3   1 <1>   0.3430 
 13 N        2.0690     6.2910    -0.3120 N.4   1 <1>  -0.9590 
 14 C        2.2870     6.9160     1.0170 C.3   1 <1>   0.4860 
 15 C        2.5380     8.3980     0.8180 C.ar  1 <1>  -0.1440 
 16 C        3.6430     8.8340     0.0920 C.ar  1 <1>   0.0820 
 17 C        1.6610     9.3220     1.3630 C.ar  1 <1>  -0.1500 
 18 O        4.4630     7.8790    -0.4270 O.3   1 <1>  -0.3630 
 19 C        3.8630    10.1970    -0.0830 C.ar  1 <1>  -0.1500 
 20 C        1.8820    10.6740     1.1850 C.ar  1 <1>  -0.1500 
 21 C        5.7330     8.2090    -0.9530 C.3   1 <1>   0.0400 
 22 C        2.9780    11.1200     0.4660 C.ar  1 <1>   0.0820 
 23 O        3.1100    12.4630     0.3480 O.3   1 <1>  -0.3620 
 24 C        4.2130    13.0520    -0.3090 C.3   1 <1>   0.2640 
 25 C        4.1000    14.5650    -0.2110 C.ar  1 <1>  -0.1440 
 26 C        4.1170    15.1840     1.0300 C.ar  1 <1>  -0.1500 
 27 C        3.9880    15.3410    -1.3550 C.ar  1 <1>  -0.1500 
 28 C        4.0280    16.5620     1.1270 C.ar  1 <1>  -0.1500 
 29 C        3.8990    16.7200    -1.2590 C.ar  1 <1>  -0.1500 
 30 C        3.9200    17.3310    -0.0180 C.ar  1 <1>  -0.1500 
 31 H        1.1720     1.1290     1.8770 H     1 <1>   0.1500 
 32 H       -0.9100     2.8690    -0.6100 H     1 <1>   0.0800 
 33 H       -0.2870     3.3640     0.9420 H     1 <1>   0.0800 
 34 H        3.7620    -0.3110     1.6030 H     1 <1>   0.0800 
 35 H        3.8440    -1.1130     0.0510 H     1 <1>   0.0800 
 36 H        2.5230    -1.4620     1.1410 H     1 <1>   0.0800 
 37 H        0.7010     4.2160    -1.7970 H     1 <1>   0.0800 
 38 H       -1.0900     5.7660    -1.3080 H     1 <1>   0.0800 
 39 H        2.7300     4.3080    -0.7610 H     1 <1>   0.0800 
 40 H        2.0230     4.5070     0.8310 H     1 <1>   0.0800 
 41 H       -1.5660     5.4710     0.8060 H     1 <1>   0.4000 
 42 H        0.5060     7.7520    -0.5560 H     1 <1>   0.0800 
 43 H        0.9410     6.8610    -2.0050 H     1 <1>   0.0800 
 44 H        2.8890     6.5780    -0.8720 H     1 <1>   0.4500 
 45 H        1.4240     6.7650     1.6450 H     1 <1>   0.0800 
 46 H        3.1460     6.4760     1.4950 H     1 <1>   0.0800 
 47 H        0.8010     9.0040     1.9300 H     1 <1>   0.1500 
 48 H        4.7080    10.5390    -0.6440 H     1 <1>   0.1500 
 49 H        1.2070    11.4000     1.6050 H     1 <1>   0.1500 
 50 H        6.2460     7.2960    -1.2000 H     1 <1>   0.0800 
 51 H        6.2930     8.7480    -0.2080 H     1 <1>   0.0800 
 52 H        5.6050     8.8030    -1.8410 H     1 <1>   0.0800 
 53 H        5.1140    12.7190     0.1750 H     1 <1>   0.0800 
 54 H        4.2030    12.7330    -1.3360 H     1 <1>   0.0800 
 55 H        4.1960    14.5920     1.9250 H     1 <1>   0.1500 
 56 H        3.9680    14.8810    -2.3270 H     1 <1>   0.1500 
 57 H        4.0420    17.0340     2.0940 H     1 <1>   0.1500 
 58 H        3.8120    17.3170    -2.1500 H     1 <1>   0.1500 
 59 H        3.8500    18.4020     0.0570 H     1 <1>   0.1500 
@<TRIPOS>BOND
  1   1   2  1   
  2   1   3  1   
  3   2   4  2   
  4   3   5  2   
  5   3   6  1   
  6   4   5  1   
  7   4   7  1   
  8   5  31  1   
  9   6   8  1   
 10   6  32  1   
 11   6  33  1   
 12   7  34  1   
 13   7  35  1   
 14   7  36  1   
 15   8   9  1   
 16   8  10  1   
 17   8  37  1   
 18   9  11  1   
 19   9  12  1   
 20   9  38  1   
 21  10  13  1   
 22  10  39  1   
 23  10  40  1   
 24  11  41  1   
 25  12  13  1   
 26  12  42  1   
 27  12  43  1   
 28  13  14  1   
 29  13  44  1   
 30  14  15  1   
 31  14  45  1   
 32  14  46  1   
 33  15  16  ar  
 34  15  17  ar  
 35  16  18  1   
 36  16  19  ar  
 37  17  20  ar  
 38  17  47  1   
 39  18  21  1   
 40  19  22  ar  
 41  19  48  1   
 42  20  22  ar  
 43  20  49  1   
 44  21  50  1   
 45  21  51  1   
 46  21  52  1   
 47  22  23  1   
 48  23  24  1   
 49  24  25  1   
 50  24  53  1   
 51  24  54  1   
 52  25  26  ar  
 53  25  27  ar  
 54  26  28  ar  
 55  26  55  1   
 56  27  29  ar  
 57  27  56  1   
 58  28  30  ar  
 59  28  57  1   
 60  29  30  ar  
 61  29  58  1   
 62  30  59  1   
@<TRIPOS>SUBSTRUCTURE
  1 ****  15 GROUP 4 **** **** 0

# MOE 2024.06 (io_trps.svl 2023.06)
