@<TRIPOS>MOLECULE
NONAME
43 45 1 0 0 
SMALL
USER_CHARGES


@<TRIPOS>ATOM
  1 CL      -0.5370     0.2820     0.2170 Cl    1 <1>  -0.1770 
  2 C        0.9340    -0.6280     0.4920 C.ar  1 <1>   0.1770 
  3 C        1.8560    -0.0910     1.3790 C.ar  1 <1>   0.1770 
  4 C        1.1750    -1.8440    -0.1400 C.ar  1 <1>  -0.0090 
  5 CL       1.5500     1.4370     2.1720 Cl    1 <1>  -0.1770 
  6 C        3.0370    -0.7460     1.6650 C.ar  1 <1>  -0.1500 
  7 S        0.0200    -2.6320    -1.2980 S.o2  1 <1>   1.4470 
  8 C        2.3710    -2.4920     0.1690 C.ar  1 <1>  -0.1500 
  9 C        3.2940    -1.9590     1.0540 C.ar  1 <1>  -0.1500 
 10 O        0.8210    -3.4740    -2.1600 O.2   1 <1>  -0.6500 
 11 O       -0.8790    -1.6830    -1.9160 O.2   1 <1>  -0.6500 
 12 N       -0.9000    -3.6390    -0.2890 N.am  1 <1>  -0.8490 
 13 C       -1.5050    -4.7650    -1.0410 C.3   1 <1>   0.1960 
 14 C       -1.9360    -2.9050     0.4450 C.3   1 <1>   0.1960 
 15 C       -2.1580    -5.7960    -0.0970 C.3   1 <1>  -0.1060 
 16 C       -2.6400    -3.8160     1.4500 C.3   1 <1>  -0.1600 
 17 C       -2.9290    -6.8250    -0.9200 C.2   1 <1>   0.9060 
 18 C       -3.2090    -5.0390     0.7370 C.3   1 <1>   0.2000 
 19 C       -1.0880    -6.5070     0.7840 C.3   1 <1>  -0.0650 
 20 O       -2.8740    -6.8010    -2.1540 O.co2 1 <1>  -0.9000 
 21 O       -3.6450    -7.6390    -0.3170 O.co2 1 <1>  -0.9000 
 22 O       -3.7670    -5.8760     1.6820 O.3   1 <1>  -0.6800 
 23 C       -0.0140    -7.2630    -0.0140 C.3   1 <1>  -0.1950 
 24 C        1.2730    -7.6550     0.6380 C.3   1 <1>  -0.2000 
 25 C        1.2600    -6.5960    -0.4260 C.3   1 <1>  -0.2000 
 26 H        3.7410    -0.3140     2.3560 H     1 <1>   0.1500 
 27 H        2.5880    -3.4400    -0.2980 H     1 <1>   0.1500 
 28 H        4.2090    -2.4880     1.2640 H     1 <1>   0.1500 
 29 H       -2.2440    -4.3820    -1.7270 H     1 <1>   0.0800 
 30 H       -0.7610    -5.2660    -1.6370 H     1 <1>   0.0800 
 31 H       -1.4930    -2.0890     0.9860 H     1 <1>   0.0800 
 32 H       -2.6580    -2.5000    -0.2470 H     1 <1>   0.0800 
 33 H       -3.4410    -3.2750     1.9180 H     1 <1>   0.0800 
 34 H       -1.9420    -4.1140     2.2110 H     1 <1>   0.0800 
 35 H       -4.0090    -4.7270     0.0850 H     1 <1>   0.0800 
 36 H       -0.6050    -5.7920     1.4240 H     1 <1>   0.0800 
 37 H       -1.5800    -7.2230     1.4200 H     1 <1>   0.0800 
 38 H       -3.9430    -6.7350     1.1990 H     1 <1>   0.4000 
 39 H       -0.4410    -7.9770    -0.7000 H     1 <1>   0.1000 
 40 H        1.4470    -7.3630     1.6590 H     1 <1>   0.1000 
 41 H        1.6850    -8.6220     0.4080 H     1 <1>   0.1000 
 42 H        1.6410    -6.8150    -1.4080 H     1 <1>   0.1000 
 43 H        1.4040    -5.5680    -0.1490 H     1 <1>   0.1000 
@<TRIPOS>BOND
  1   1   2  1   
  2   2   3  ar  
  3   2   4  ar  
  4   3   5  1   
  5   3   6  ar  
  6   4   7  1   
  7   4   8  ar  
  8   6   9  ar  
  9   6  26  1   
 10   7  10  2   
 11   7  11  2   
 12   7  12  am  
 13   8   9  ar  
 14   8  27  1   
 15   9  28  1   
 16  12  13  1   
 17  12  14  1   
 18  13  15  1   
 19  13  29  1   
 20  13  30  1   
 21  14  16  1   
 22  14  31  1   
 23  14  32  1   
 24  15  17  1   
 25  15  18  1   
 26  15  19  1   
 27  16  18  1   
 28  16  33  1   
 29  16  34  1   
 30  17  20  ar  
 31  17  21  ar  
 32  18  22  1   
 33  18  35  1   
 34  19  23  1   
 35  19  36  1   
 36  19  37  1   
 37  22  38  1   
 38  23  24  1   
 39  23  25  1   
 40  23  39  1   
 41  24  25  1   
 42  24  40  1   
 43  24  41  1   
 44  25  42  1   
 45  25  43  1   
@<TRIPOS>SUBSTRUCTURE
  1 ****  12 GROUP 4 **** **** 0

# MOE 2024.06 (io_trps.svl 2023.06)
