@<TRIPOS>MOLECULE
NONAME
50 51 1 0 0 
SMALL
USER_CHARGES


@<TRIPOS>ATOM
  1 F        0.2780    -0.6870    -1.0540 F     1 <1>  -0.1900 
  2 C        0.1090    -1.9510    -0.7710 C.ar  1 <1>   0.1900 
  3 C        1.0490    -2.8650    -1.2060 C.ar  1 <1>  -0.1500 
  4 C       -1.0040    -2.3310    -0.0460 C.ar  1 <1>  -0.1500 
  5 C        0.8630    -4.2030    -0.9030 C.ar  1 <1>  -0.1500 
  6 C       -1.1760    -3.6720     0.2500 C.ar  1 <1>  -0.1500 
  7 C       -0.2500    -4.6250    -0.1770 C.ar  1 <1>   0.1170 
  8 N       -0.3800    -5.9950     0.1080 N.am  1 <1>  -0.5470 
  9 C       -1.5140    -6.7400     0.3270 C.2   1 <1>   0.5690 
 10 O       -2.6290    -6.2750     0.2890 O.2   1 <1>  -0.5700 
 11 C       -1.4000    -8.2630     0.6060 C.3   1 <1>   0.4840 
 12 N       -2.6310    -9.0260     0.1480 N.4   1 <1>  -0.9590 
 13 C       -1.1650    -8.4870     2.1060 C.3   1 <1>  -0.2400 
 14 C       -2.6940   -10.4600     0.5720 C.3   1 <1>   0.3430 
 15 C       -2.8230    -8.8690    -1.3360 C.3   1 <1>   0.2630 
 16 C       -4.0860   -11.0370     0.3290 C.3   1 <1>  -0.1600 
 17 C       -4.1800   -12.4870     0.8310 C.3   1 <1>   0.0960 
 18 N       -5.4250   -13.1060     0.3430 N.pl3 1 <1>   0.3140 
 19 N       -5.5680   -13.3760    -0.9660 N.2   1 <1>  -0.7070 
 20 C       -6.5300   -13.4470     1.0430 C.2   1 <1>  -0.3320 
 21 C       -6.7520   -13.8900    -1.0720 C.2   1 <1>   0.1080 
 22 C       -7.4050   -13.9590     0.1520 C.2   1 <1>  -0.1500 
 23 C       -6.7200   -13.2780     2.5410 C.3   1 <1>  -0.0600 
 24 C       -7.3230   -14.3490    -2.3920 C.3   1 <1>  -0.0590 
 25 H        1.9020    -2.5290    -1.7670 H     1 <1>   0.1500 
 26 H       -1.7140    -1.5920     0.2770 H     1 <1>   0.1500 
 27 H        1.5910    -4.9170    -1.2410 H     1 <1>   0.1500 
 28 H       -2.0370    -3.9670     0.8220 H     1 <1>   0.1500 
 29 H        0.5180    -6.4800     0.1290 H     1 <1>   0.3700 
 30 H       -0.5430    -8.6310     0.0680 H     1 <1>   0.0800 
 31 H       -3.4160    -8.5140     0.5860 H     1 <1>   0.4500 
 32 H       -2.0480    -8.2420     2.6710 H     1 <1>   0.0800 
 33 H       -0.3710    -7.8450     2.4470 H     1 <1>   0.0800 
 34 H       -0.8610    -9.4960     2.3140 H     1 <1>   0.0800 
 35 H       -2.4780   -10.5430     1.6240 H     1 <1>   0.0800 
 36 H       -1.9610   -11.0370     0.0300 H     1 <1>   0.0800 
 37 H       -2.0370    -9.3720    -1.8750 H     1 <1>   0.0800 
 38 H       -2.8200    -7.8250    -1.6090 H     1 <1>   0.0800 
 39 H       -3.7690    -9.2840    -1.6420 H     1 <1>   0.0800 
 40 H       -4.2960   -11.0400    -0.7260 H     1 <1>   0.0800 
 41 H       -4.8290   -10.4460     0.8350 H     1 <1>   0.0800 
 42 H       -4.1610   -12.5280     1.9040 H     1 <1>   0.0800 
 43 H       -3.3650   -13.0720     0.4470 H     1 <1>   0.0800 
 44 H       -8.3950   -14.3440     0.3210 H     1 <1>   0.1500 
 45 H       -5.9850   -13.8520     3.0780 H     1 <1>   0.0800 
 46 H       -7.6960   -13.6260     2.8290 H     1 <1>   0.0800 
 47 H       -6.6340   -12.2420     2.8160 H     1 <1>   0.0800 
 48 H       -6.6840   -15.1020    -2.8150 H     1 <1>   0.0800 
 49 H       -7.3780   -13.5170    -3.0690 H     1 <1>   0.0800 
 50 H       -8.3060   -14.7580    -2.2550 H     1 <1>   0.0800 
@<TRIPOS>BOND
  1   1   2  1   
  2   2   3  ar  
  3   2   4  ar  
  4   3   5  ar  
  5   3  25  1   
  6   4   6  ar  
  7   4  26  1   
  8   5   7  ar  
  9   5  27  1   
 10   6   7  ar  
 11   6  28  1   
 12   7   8  1   
 13   8   9  am  
 14   8  29  1   
 15   9  10  2   
 16   9  11  1   
 17  11  12  1   
 18  11  13  1   
 19  11  30  1   
 20  12  14  1   
 21  12  15  1   
 22  12  31  1   
 23  13  32  1   
 24  13  33  1   
 25  13  34  1   
 26  14  16  1   
 27  14  35  1   
 28  14  36  1   
 29  15  37  1   
 30  15  38  1   
 31  15  39  1   
 32  16  17  1   
 33  16  40  1   
 34  16  41  1   
 35  17  18  1   
 36  17  42  1   
 37  17  43  1   
 38  18  19  1   
 39  18  20  1   
 40  19  21  2   
 41  20  22  2   
 42  20  23  1   
 43  21  22  1   
 44  21  24  1   
 45  22  44  1   
 46  23  45  1   
 47  23  46  1   
 48  23  47  1   
 49  24  48  1   
 50  24  49  1   
 51  24  50  1   
@<TRIPOS>SUBSTRUCTURE
  1 ****  12 GROUP 4 **** **** 0

# MOE 2024.06 (io_trps.svl 2023.06)
