@<TRIPOS>MOLECULE
NONAME
49 50 1 0 0 
SMALL
USER_CHARGES


@<TRIPOS>ATOM
  1 S        1.0680     1.1840    -0.4030 S.o2  1 <1>   1.3330 
  2 O        0.2340     1.8970    -1.3420 O.2   1 <1>  -0.6500 
  3 O        2.4570     1.5590    -0.2750 O.2   1 <1>  -0.6500 
  4 N        0.9510    -0.4810    -0.6810 N.am  1 <1>  -0.8490 
  5 C        0.3460     1.3940     1.2270 C.3   1 <1>  -0.0550 
  6 C        2.0530    -0.9940    -1.5030 C.3   1 <1>   0.1160 
  7 C       -0.3330    -0.8940    -1.2620 C.3   1 <1>   0.1160 
  8 C        0.3680     2.8390     1.7880 C.3   1 <1>  -0.0800 
  9 C       -0.3650     3.8540     0.8990 C.3   1 <1>   0.2000 
 10 C        1.7940     3.4030     1.9570 C.3   1 <1>   0.3430 
 11 O       -1.0110     4.7590     1.7370 O.3   1 <1>  -0.6800 
 12 C        0.7570     4.5850     0.1500 C.3   1 <1>   0.3430 
 13 N        1.9080     4.6150     1.0980 N.4   1 <1>  -0.9590 
 14 C        1.8910     5.8640     1.9110 C.3   1 <1>   0.4860 
 15 C        2.1620     7.0430     1.0040 C.ar  1 <1>  -0.1430 
 16 C        3.4370     7.2490     0.5110 C.ar  1 <1>  -0.1500 
 17 C        1.1510     7.9190     0.6500 C.ar  1 <1>  -0.1500 
 18 C        3.7490     8.3020    -0.3480 C.ar  1 <1>  -0.1790 
 19 C        1.4310     8.9670    -0.2050 C.ar  1 <1>  -0.1500 
 20 C        2.7020     9.1680    -0.7220 C.ar  1 <1>   0.0820 
 21 C        5.1300     8.3730    -0.7760 C.2   1 <1>   0.9790 
 22 O        2.7770    10.2130    -1.5860 O.3   1 <1>  -0.3630 
 23 O        5.5940     7.4480    -1.4640 O.co2 1 <1>  -0.9000 
 24 O        5.8840     9.2900    -0.4090 O.co2 1 <1>  -0.9000 
 25 C        3.9210    10.5320    -2.3480 C.3   1 <1>   0.0400 
 26 H       -0.6710     1.0550     1.1960 H     1 <1>   0.0800 
 27 H        0.8680     0.7520     1.9120 H     1 <1>   0.0800 
 28 H        1.9590    -2.0590    -1.6330 H     1 <1>   0.0800 
 29 H        2.9970    -0.7990    -1.0220 H     1 <1>   0.0800 
 30 H        2.0540    -0.5190    -2.4710 H     1 <1>   0.0800 
 31 H       -0.3780    -1.9680    -1.3340 H     1 <1>   0.0800 
 32 H       -0.4560    -0.4730    -2.2460 H     1 <1>   0.0800 
 33 H       -1.1480    -0.5640    -0.6410 H     1 <1>   0.0800 
 34 H       -0.0970     2.7970     2.7580 H     1 <1>   0.0800 
 35 H       -1.0940     3.4280     0.2300 H     1 <1>   0.0800 
 36 H        2.5310     2.6730     1.6620 H     1 <1>   0.0800 
 37 H        1.9720     3.6590     2.9890 H     1 <1>   0.0800 
 38 H       -1.8990     4.4310     1.9960 H     1 <1>   0.4000 
 39 H        0.4500     5.5690    -0.1610 H     1 <1>   0.0800 
 40 H        1.0330     4.0180    -0.7250 H     1 <1>   0.0800 
 41 H        2.7840     4.6200     0.5510 H     1 <1>   0.4500 
 42 H        0.9360     5.9860     2.3950 H     1 <1>   0.0800 
 43 H        2.6570     5.8240     2.6680 H     1 <1>   0.0800 
 44 H        4.2440     6.5870     0.7800 H     1 <1>   0.1500 
 45 H        0.1500     7.7960     1.0270 H     1 <1>   0.1500 
 46 H        0.6520     9.6510    -0.4900 H     1 <1>   0.1500 
 47 H        3.6460    11.2790    -3.0690 H     1 <1>   0.0800 
 48 H        4.2700     9.6490    -2.8550 H     1 <1>   0.0800 
 49 H        4.6770    10.9260    -1.6930 H     1 <1>   0.0800 
@<TRIPOS>BOND
  1   1   2  2   
  2   1   3  2   
  3   1   4  am  
  4   1   5  1   
  5   4   6  1   
  6   4   7  1   
  7   5   8  1   
  8   5  26  1   
  9   5  27  1   
 10   6  28  1   
 11   6  29  1   
 12   6  30  1   
 13   7  31  1   
 14   7  32  1   
 15   7  33  1   
 16   8   9  1   
 17   8  10  1   
 18   8  34  1   
 19   9  11  1   
 20   9  12  1   
 21   9  35  1   
 22  10  13  1   
 23  10  36  1   
 24  10  37  1   
 25  11  38  1   
 26  12  13  1   
 27  12  39  1   
 28  12  40  1   
 29  13  14  1   
 30  13  41  1   
 31  14  15  1   
 32  14  42  1   
 33  14  43  1   
 34  15  16  ar  
 35  15  17  ar  
 36  16  18  ar  
 37  16  44  1   
 38  17  19  ar  
 39  17  45  1   
 40  18  20  ar  
 41  18  21  1   
 42  19  20  ar  
 43  19  46  1   
 44  20  22  1   
 45  21  23  ar  
 46  21  24  ar  
 47  22  25  1   
 48  25  47  1   
 49  25  48  1   
 50  25  49  1   
@<TRIPOS>SUBSTRUCTURE
  1 ****  13 GROUP 4 **** **** 0

# MOE 2024.06 (io_trps.svl 2023.06)
