@<TRIPOS>MOLECULE
NONAME
55 57 1 0 0 
SMALL
USER_CHARGES


@<TRIPOS>ATOM
  1 O        0.2760     0.1560    -2.0840 O.2   1 <1>  -0.5700 
  2 C        1.0140     0.1400    -1.1150 C.2   1 <1>   0.5440 
  3 N        0.4550     0.3470     0.1270 N.am  1 <1>  -0.6600 
  4 C        2.4200    -0.1170    -1.3100 C.ar  1 <1>   0.0860 
  5 C       -0.9600     0.0170     0.4100 C.3   1 <1>   0.1400 
  6 C        1.1640     0.7190     1.3700 C.3   1 <1>   0.1400 
  7 C        3.0610    -1.1880    -0.6610 C.ar  1 <1>   0.4100 
  8 C        3.1700     0.6440    -2.1940 C.ar  1 <1>  -0.1500 
  9 C       -1.0850     0.0490     1.9320 C.3   1 <1>  -0.1600 
 10 C        0.3480     0.0430     2.4640 C.3   1 <1>  -0.1600 
 11 N        4.3300    -1.5300    -0.8600 N.ar  1 <1>  -0.6200 
 12 N        2.3910    -1.9630     0.2480 N.pl3 1 <1>  -0.8690 
 13 C        4.4900     0.3040    -2.3860 C.ar  1 <1>  -0.1500 
 14 C        5.0110    -0.7820    -1.7040 C.ar  1 <1>   0.1600 
 15 C        2.1470    -3.3710    -0.0330 C.3   1 <1>   0.4330 
 16 C        0.6280    -3.5150    -0.0480 C.ar  1 <1>  -0.1430 
 17 C        2.8590    -4.2060     1.0250 C.3   1 <1>  -0.2400 
 18 C       -0.1190    -3.7330     1.1020 C.ar  1 <1>  -0.1500 
 19 C       -0.0400    -3.3630    -1.2530 C.ar  1 <1>  -0.1500 
 20 C       -1.5030    -3.8110     1.0680 C.ar  1 <1>   0.0830 
 21 C       -1.4240    -3.4310    -1.3130 C.ar  1 <1>   0.0830 
 22 O       -2.0950    -4.0060     2.2820 O.3   1 <1>  -0.3620 
 23 C       -2.1690    -3.6830    -0.1590 C.ar  1 <1>   0.0830 
 24 O       -2.0470    -3.2410    -2.5040 O.3   1 <1>  -0.3630 
 25 C       -3.4010    -3.5450     2.5470 C.3   1 <1>   0.0400 
 26 O       -3.5240    -3.7870    -0.2480 O.3   1 <1>  -0.3630 
 27 C       -1.8460    -1.9920    -3.1310 C.3   1 <1>   0.0400 
 28 C       -4.0080    -4.9790    -0.8250 C.3   1 <1>   0.0400 
 29 H       -1.1820    -0.9640     0.0290 H     1 <1>   0.0800 
 30 H       -1.6120     0.7370    -0.0560 H     1 <1>   0.0800 
 31 H        1.1240     1.7890     1.4850 H     1 <1>   0.0800 
 32 H        2.1920     0.3980     1.3790 H     1 <1>   0.0800 
 33 H        2.7180     1.4690    -2.7180 H     1 <1>   0.1500 
 34 H       -1.6530    -0.7880     2.2960 H     1 <1>   0.0800 
 35 H       -1.5810     0.9590     2.2210 H     1 <1>   0.0800 
 36 H        0.4390     0.5550     3.4050 H     1 <1>   0.0800 
 37 H        0.6910    -0.9700     2.5830 H     1 <1>   0.0800 
 38 H        1.5010    -1.5480     0.5520 H     1 <1>   0.4000 
 39 H        5.1110     0.8670    -3.0610 H     1 <1>   0.1500 
 40 H        6.0430    -1.0450    -1.8650 H     1 <1>   0.1500 
 41 H        2.5440    -3.6260    -1.0030 H     1 <1>   0.0800 
 42 H        2.6020    -3.8800     2.0150 H     1 <1>   0.0800 
 43 H        3.9220    -4.1050     0.8950 H     1 <1>   0.0800 
 44 H        2.5960    -5.2410     0.9110 H     1 <1>   0.0800 
 45 H        0.3600    -3.8350     2.0580 H     1 <1>   0.1500 
 46 H        0.5150    -3.1770    -2.1550 H     1 <1>   0.1500 
 47 H       -3.5310    -3.4990     3.6120 H     1 <1>   0.0800 
 48 H       -4.1060    -4.2380     2.1250 H     1 <1>   0.0800 
 49 H       -3.5240    -2.5660     2.1170 H     1 <1>   0.0800 
 50 H       -2.5190    -1.9220    -3.9660 H     1 <1>   0.0800 
 51 H       -0.8300    -1.9210    -3.4730 H     1 <1>   0.0800 
 52 H       -2.0560    -1.2080    -2.4240 H     1 <1>   0.0800 
 53 H       -5.0810    -4.9660    -0.7740 H     1 <1>   0.0800 
 54 H       -3.6190    -5.8150    -0.2690 H     1 <1>   0.0800 
 55 H       -3.6900    -5.0310    -1.8510 H     1 <1>   0.0800 
@<TRIPOS>BOND
  1   1   2  2   
  2   2   3  am  
  3   2   4  1   
  4   3   5  1   
  5   3   6  1   
  6   4   7  ar  
  7   4   8  ar  
  8   5   9  1   
  9   5  29  1   
 10   5  30  1   
 11   6  10  1   
 12   6  31  1   
 13   6  32  1   
 14   7  11  ar  
 15   7  12  1   
 16   8  13  ar  
 17   8  33  1   
 18   9  10  1   
 19   9  34  1   
 20   9  35  1   
 21  10  36  1   
 22  10  37  1   
 23  11  14  ar  
 24  12  15  1   
 25  12  38  1   
 26  13  14  ar  
 27  13  39  1   
 28  14  40  1   
 29  15  16  1   
 30  15  17  1   
 31  15  41  1   
 32  16  18  ar  
 33  16  19  ar  
 34  17  42  1   
 35  17  43  1   
 36  17  44  1   
 37  18  20  ar  
 38  18  45  1   
 39  19  21  ar  
 40  19  46  1   
 41  20  22  1   
 42  20  23  ar  
 43  21  23  ar  
 44  21  24  1   
 45  22  25  1   
 46  23  26  1   
 47  24  27  1   
 48  25  47  1   
 49  25  48  1   
 50  25  49  1   
 51  26  28  1   
 52  27  50  1   
 53  27  51  1   
 54  27  52  1   
 55  28  53  1   
 56  28  54  1   
 57  28  55  1   
@<TRIPOS>SUBSTRUCTURE
  1 ****  16 GROUP 4 **** **** 0

# MOE 2024.06 (io_trps.svl 2023.06)
