@<TRIPOS>MOLECULE
NONAME
34 36 1 0 0 
SMALL
USER_CHARGES


@<TRIPOS>ATOM
  1 F       -2.4380    -1.0860     0.6830 F     1 <1>  -0.1900 
  2 C       -1.8710    -2.1980     0.2980 C.ar  1 <1>   0.1900 
  3 C       -2.4920    -2.9600    -0.6740 C.ar  1 <1>  -0.1500 
  4 C       -0.6700    -2.5650     0.8740 C.ar  1 <1>  -0.1500 
  5 C       -1.8850    -4.1360    -1.0920 C.ar  1 <1>  -0.1440 
  6 C       -0.0700    -3.7400     0.4550 C.ar  1 <1>  -0.1500 
  7 C       -0.6760    -4.5170    -0.5210 C.ar  1 <1>  -0.1500 
  8 C       -2.5270    -5.0070    -2.1670 C.3   1 <1>   0.0450 
  9 C       -2.7500    -6.4440    -1.7180 C.2   1 <1>   0.5690 
 10 O       -2.0500    -7.2970    -2.2180 O.2   1 <1>  -0.5700 
 11 N       -3.7120    -6.7430    -0.7980 N.am  1 <1>  -0.6600 
 12 C       -4.6480    -5.7860    -0.1420 C.3   1 <1>   0.2350 
 13 C       -4.1060    -8.1350    -0.4440 C.3   1 <1>   0.2350 
 14 C       -5.9160    -6.5800     0.1010 C.3   1 <1>  -0.2420 
 15 C       -5.5770    -8.0420    -0.0690 C.3   1 <1>  -0.2420 
 16 C       -6.8280    -5.8260     1.0690 C.2   1 <1>   0.9470 
 17 C       -6.5570    -7.3810    -1.0060 C.3   1 <1>  -0.2000 
 18 C       -6.0190    -9.2730     0.7270 C.2   1 <1>   0.9470 
 19 O       -7.9380    -5.4380     0.6770 O.co2 1 <1>  -0.9000 
 20 O       -6.3710    -5.4560     2.1580 O.co2 1 <1>  -0.9000 
 21 O       -6.9750    -9.9510     0.3250 O.co2 1 <1>  -0.9000 
 22 O       -5.3170    -9.6590     1.6720 O.co2 1 <1>  -0.9000 
 23 H       -3.4300    -2.6330    -1.0830 H     1 <1>   0.1500 
 24 H       -0.2230    -1.9460     1.6300 H     1 <1>   0.1500 
 25 H        0.8630    -4.0550     0.8890 H     1 <1>   0.1500 
 26 H       -0.2030    -5.4330    -0.8360 H     1 <1>   0.1500 
 27 H       -1.8830    -5.0180    -3.0270 H     1 <1>   0.0800 
 28 H       -3.4660    -4.5950    -2.4820 H     1 <1>   0.0800 
 29 H       -4.2300    -5.4650     0.7970 H     1 <1>   0.0800 
 30 H       -4.8610    -4.9320    -0.7570 H     1 <1>   0.0800 
 31 H       -3.9600    -8.8080    -1.2700 H     1 <1>   0.0800 
 32 H       -3.5240    -8.4640     0.4000 H     1 <1>   0.0800 
 33 H       -6.2760    -7.2000    -2.0260 H     1 <1>   0.1000 
 34 H       -7.5980    -7.6360    -0.9020 H     1 <1>   0.1000 
@<TRIPOS>BOND
  1   1   2  1   
  2   2   3  ar  
  3   2   4  ar  
  4   3   5  ar  
  5   3  23  1   
  6   4   6  ar  
  7   4  24  1   
  8   5   7  ar  
  9   5   8  1   
 10   6   7  ar  
 11   6  25  1   
 12   7  26  1   
 13   8   9  1   
 14   8  27  1   
 15   8  28  1   
 16   9  10  2   
 17   9  11  am  
 18  11  12  1   
 19  11  13  1   
 20  12  14  1   
 21  12  29  1   
 22  12  30  1   
 23  13  15  1   
 24  13  31  1   
 25  13  32  1   
 26  14  15  1   
 27  14  16  1   
 28  14  17  1   
 29  15  17  1   
 30  15  18  1   
 31  16  19  ar  
 32  16  20  ar  
 33  17  33  1   
 34  17  34  1   
 35  18  21  ar  
 36  18  22  ar  
@<TRIPOS>SUBSTRUCTURE
  1 ****  12 GROUP 4 **** **** 0

# MOE 2024.06 (io_trps.svl 2023.06)
