@<TRIPOS>MOLECULE
NONAME
46 48 1 0 0 
SMALL
USER_CHARGES


@<TRIPOS>ATOM
  1 O       -1.1610    -0.7920     0.6020 O.co2 1 <1>  -0.9000 
  2 C       -0.3660    -1.6940     0.9170 C.2   1 <1>   1.0330 
  3 O       -0.3120    -2.0570     2.1050 O.co2 1 <1>  -0.9000 
  4 C        0.4370    -2.3240    -0.0760 C.2   1 <1>  -0.2330 
  5 C        0.1330    -3.5390    -0.6860 C.2   1 <1>   0.3720 
  6 C        1.6110    -1.9560    -0.6490 C.2   1 <1>   0.0870 
  7 N        1.0390    -3.8720    -1.5350 N.2   1 <1>  -0.4100 
  8 N       -1.0030    -4.3180    -0.4440 N.pl3 1 <1>  -0.8210 
  9 O        1.9230    -2.9080    -1.5000 O.3   1 <1>  -0.0190 
 10 C        2.4760    -0.8120    -0.4890 C.ar  1 <1>   0.0530 
 11 C       -1.0700    -4.8040     0.9690 C.3   1 <1>   0.2090 
 12 C       -2.2480    -3.6260    -0.8590 C.3   1 <1>   0.2090 
 13 C        3.8170    -0.8650    -0.8780 C.ar  1 <1>  -0.1500 
 14 C        2.0220     0.3930     0.0530 C.ar  1 <1>  -0.1500 
 15 C       -1.5810    -6.2500     1.0640 C.3   1 <1>   0.1400 
 16 C       -3.3800    -4.6250    -1.1020 C.3   1 <1>  -0.1600 
 17 C        4.6580     0.2210    -0.7310 C.ar  1 <1>  -0.1500 
 18 C        2.8570     1.4840     0.2060 C.ar  1 <1>  -0.1500 
 19 N       -2.9180    -6.5340     0.4340 N.am  1 <1>  -0.6600 
 20 C       -3.8140    -5.3730     0.1630 C.3   1 <1>   0.1400 
 21 C        4.1890     1.4060    -0.1870 C.ar  1 <1>   0.0820 
 22 C       -3.2370    -7.8330     0.1390 C.2   1 <1>   0.5690 
 23 O        5.0730     2.4260    -0.0720 O.3   1 <1>  -0.3630 
 24 O       -2.5590    -8.7640     0.5050 O.2   1 <1>  -0.5700 
 25 C       -4.4760    -8.1620    -0.6630 C.3   1 <1>  -0.1790 
 26 C        4.6950     3.6590     0.4960 C.3   1 <1>   0.0400 
 27 H       -1.6910    -4.1570     1.5630 H     1 <1>   0.0800 
 28 H       -0.0850    -4.7680     1.4040 H     1 <1>   0.0800 
 29 H       -2.0580    -3.0810    -1.7680 H     1 <1>   0.0800 
 30 H       -2.5430    -2.9110    -0.1080 H     1 <1>   0.0800 
 31 H        4.2030    -1.7760    -1.2990 H     1 <1>   0.1500 
 32 H        0.9940     0.4820     0.3580 H     1 <1>   0.1500 
 33 H       -1.6330    -6.5240     2.1020 H     1 <1>   0.0800 
 34 H       -0.8430    -6.8840     0.6030 H     1 <1>   0.0800 
 35 H       -3.0930    -5.3190    -1.8720 H     1 <1>   0.0800 
 36 H       -4.2220    -4.0660    -1.4630 H     1 <1>   0.0800 
 37 H        5.6870     0.1590    -1.0350 H     1 <1>   0.1500 
 38 H        2.4480     2.3800     0.6310 H     1 <1>   0.1500 
 39 H       -4.8240    -5.7160     0.0370 H     1 <1>   0.0800 
 40 H       -3.8160    -4.7080     1.0100 H     1 <1>   0.0800 
 41 H       -4.5070    -7.5630    -1.5530 H     1 <1>   0.0800 
 42 H       -5.3510    -7.9850    -0.0680 H     1 <1>   0.0800 
 43 H       -4.4550    -9.1980    -0.9480 H     1 <1>   0.0800 
 44 H        5.5550     4.3050     0.4940 H     1 <1>   0.0800 
 45 H        4.3650     3.4910     1.5060 H     1 <1>   0.0800 
 46 H        3.9110     4.0910    -0.1000 H     1 <1>   0.0800 
@<TRIPOS>BOND
  1   1   2  ar  
  2   2   3  ar  
  3   2   4  1   
  4   4   5  1   
  5   4   6  2   
  6   5   7  2   
  7   5   8  1   
  8   6   9  1   
  9   6  10  1   
 10   7   9  1   
 11   8  11  1   
 12   8  12  1   
 13  10  13  ar  
 14  10  14  ar  
 15  11  15  1   
 16  11  27  1   
 17  11  28  1   
 18  12  16  1   
 19  12  29  1   
 20  12  30  1   
 21  13  17  ar  
 22  13  31  1   
 23  14  18  ar  
 24  14  32  1   
 25  15  19  1   
 26  15  33  1   
 27  15  34  1   
 28  16  20  1   
 29  16  35  1   
 30  16  36  1   
 31  17  21  ar  
 32  17  37  1   
 33  18  21  ar  
 34  18  38  1   
 35  19  20  1   
 36  19  22  am  
 37  20  39  1   
 38  20  40  1   
 39  21  23  1   
 40  22  24  2   
 41  22  25  1   
 42  23  26  1   
 43  25  41  1   
 44  25  42  1   
 45  25  43  1   
 46  26  44  1   
 47  26  45  1   
 48  26  46  1   
@<TRIPOS>SUBSTRUCTURE
  1 ****   4 GROUP 4 **** **** 0

# MOE 2024.06 (io_trps.svl 2023.06)
