@<TRIPOS>MOLECULE
NONAME
42 45 1 0 0 
SMALL
USER_CHARGES


@<TRIPOS>ATOM
  1 S       -0.4830     0.0640    -1.3190 S.3   1 <1>  -0.0800 
  2 C       -0.5230     1.4420    -0.2430 C.2   1 <1>   0.4620 
  3 C       -1.2630    -0.9140    -0.0910 C.2   1 <1>  -0.0450 
  4 N       -1.0520     1.2040     0.8990 N.2   1 <1>  -0.5650 
  5 N       -0.0180     2.6190    -0.6640 N.pl3 1 <1>  -0.8840 
  6 C       -1.5630    -2.2930    -0.3500 C.2   1 <1>   0.7150 
  7 C       -1.4500    -0.1040     0.9780 C.2   1 <1>   0.0770 
  8 O       -0.9940    -2.9010    -1.2380 O.2   1 <1>  -0.5700 
  9 N       -2.5120    -2.9640     0.3900 N.am  1 <1>  -0.6600 
 10 C       -2.5470    -4.4610     0.4270 C.3   1 <1>   0.1400 
 11 C       -3.8400    -2.3550     0.7120 C.3   1 <1>   0.1400 
 12 C       -3.7330    -5.0090    -0.3880 C.3   1 <1>   0.3430 
 13 C       -4.9640    -3.0220    -0.1090 C.3   1 <1>   0.2950 
 14 O       -4.9270    -4.4100     0.0470 O.3   1 <1>  -0.5600 
 15 C       -3.8320    -6.5240    -0.2330 C.ar  1 <1>  -0.1430 
 16 C       -6.3450    -2.5420     0.3460 C.3   1 <1>  -0.1950 
 17 C       -3.1610    -7.3460    -1.1270 C.ar  1 <1>  -0.1500 
 18 C       -4.5670    -7.1030     0.7930 C.ar  1 <1>  -0.1500 
 19 C       -7.5320    -2.6310    -0.5600 C.3   1 <1>  -0.2000 
 20 C       -6.9490    -1.2900    -0.2100 C.3   1 <1>  -0.2000 
 21 C       -3.2220    -8.7230    -0.9980 C.ar  1 <1>  -0.1500 
 22 C       -4.6290    -8.4790     0.9230 C.ar  1 <1>  -0.1500 
 23 C       -3.9560    -9.2910     0.0280 C.ar  1 <1>  -0.1500 
 24 H        0.4170     2.7410    -1.5790 H     1 <1>   0.4000 
 25 H       -0.0150     3.4270    -0.0410 H     1 <1>   0.4000 
 26 H       -1.8970    -0.4300     1.9020 H     1 <1>   0.1500 
 27 H       -1.6310    -4.8720     0.0380 H     1 <1>   0.0800 
 28 H       -2.6420    -4.7900     1.4470 H     1 <1>   0.0800 
 29 H       -4.0430    -2.4800     1.7610 H     1 <1>   0.0800 
 30 H       -3.8400    -1.3010     0.4950 H     1 <1>   0.0800 
 31 H       -3.5990    -4.7680    -1.4280 H     1 <1>   0.0800 
 32 H       -4.8340    -2.7990    -1.1540 H     1 <1>   0.0800 
 33 H       -6.5160    -2.7440     1.3890 H     1 <1>   0.1000 
 34 H       -2.5840    -6.9200    -1.9300 H     1 <1>   0.1500 
 35 H       -5.0990    -6.4810     1.4920 H     1 <1>   0.1500 
 36 H       -7.3950    -3.0220    -1.5530 H     1 <1>   0.1000 
 37 H       -8.4780    -2.9190    -0.1340 H     1 <1>   0.1000 
 38 H       -7.5070    -0.6450     0.4470 H     1 <1>   0.1000 
 39 H       -6.4370    -0.7450    -0.9850 H     1 <1>   0.1000 
 40 H       -2.6980    -9.3530    -1.6960 H     1 <1>   0.1500 
 41 H       -5.2040    -8.9170     1.7210 H     1 <1>   0.1500 
 42 H       -4.0050   -10.3610     0.1290 H     1 <1>   0.1500 
@<TRIPOS>BOND
  1   1   2  1   
  2   1   3  1   
  3   2   4  2   
  4   2   5  1   
  5   3   6  1   
  6   3   7  2   
  7   4   7  1   
  8   5  24  1   
  9   5  25  1   
 10   6   8  2   
 11   6   9  am  
 12   7  26  1   
 13   9  10  1   
 14   9  11  1   
 15  10  12  1   
 16  10  27  1   
 17  10  28  1   
 18  11  13  1   
 19  11  29  1   
 20  11  30  1   
 21  12  14  1   
 22  12  15  1   
 23  12  31  1   
 24  13  14  1   
 25  13  16  1   
 26  13  32  1   
 27  15  17  ar  
 28  15  18  ar  
 29  16  19  1   
 30  16  20  1   
 31  16  33  1   
 32  17  21  ar  
 33  17  34  1   
 34  18  22  ar  
 35  18  35  1   
 36  19  20  1   
 37  19  36  1   
 38  19  37  1   
 39  20  38  1   
 40  20  39  1   
 41  21  23  ar  
 42  21  40  1   
 43  22  23  ar  
 44  22  41  1   
 45  23  42  1   
@<TRIPOS>SUBSTRUCTURE
  1 ****   9 GROUP 4 **** **** 0

# MOE 2024.06 (io_trps.svl 2023.06)
