@<TRIPOS>MOLECULE
NONAME
39 41 1 0 0 
SMALL
USER_CHARGES


@<TRIPOS>ATOM
  1 F       -2.5590    -0.4940    -2.1920 F     1 <1>  -0.1900 
  2 C       -2.4670    -1.0810    -1.0180 C.ar  1 <1>   0.1900 
  3 C       -2.6110    -2.4860    -0.9360 C.ar  1 <1>  -0.1710 
  4 C       -2.2310    -0.2820     0.0680 C.ar  1 <1>  -0.1500 
  5 O       -2.7760    -3.1740    -1.9780 O.3   1 <1>  -0.8290 
  6 C       -2.5370    -3.0860     0.3540 C.ar  1 <1>   0.0860 
  7 C       -2.1280    -0.8720     1.3240 C.ar  1 <1>  -0.1500 
  8 C       -2.7080    -4.4930     0.6320 C.2   1 <1>   0.5440 
  9 C       -2.2770    -2.2380     1.4430 C.ar  1 <1>  -0.1500 
 10 O       -1.9330    -5.0610     1.3990 O.2   1 <1>  -0.5700 
 11 N       -3.7880    -5.2480     0.2040 N.am  1 <1>  -0.6600 
 12 C       -4.8410    -4.7730    -0.7220 C.3   1 <1>   0.1400 
 13 C       -3.8800    -6.7140     0.3680 C.3   1 <1>   0.1400 
 14 C       -5.9240    -5.8380    -0.6030 C.3   1 <1>   0.2000 
 15 C       -5.1140    -7.1310    -0.4450 C.3   1 <1>  -0.0800 
 16 O       -6.6350    -5.5970     0.5650 O.3   1 <1>  -0.6800 
 17 C       -5.8860    -8.3190     0.1560 C.3   1 <1>  -0.0170 
 18 C       -5.0290    -9.5760     0.1740 C.ar  1 <1>  -0.1430 
 19 C       -4.3310    -9.9710     1.2970 C.ar  1 <1>  -0.1500 
 20 C       -4.9040   -10.3840    -0.9380 C.ar  1 <1>  -0.1500 
 21 C       -3.5620   -11.1230     1.2540 C.ar  1 <1>   0.1600 
 22 C       -4.1090   -11.5160    -0.8750 C.ar  1 <1>   0.1600 
 23 N       -3.4350   -11.9060     0.1950 N.ar  1 <1>  -0.6200 
 24 H       -2.1260     0.7780    -0.0530 H     1 <1>   0.1500 
 25 H       -1.9320    -0.2630     2.1870 H     1 <1>   0.1500 
 26 H       -2.1940    -2.6890     2.4150 H     1 <1>   0.1500 
 27 H       -5.1860    -3.7840    -0.4770 H     1 <1>   0.0800 
 28 H       -4.4540    -4.7770    -1.7260 H     1 <1>   0.0800 
 29 H       -2.9850    -7.1880     0.0020 H     1 <1>   0.0800 
 30 H       -4.0030    -6.9370     1.4130 H     1 <1>   0.0800 
 31 H       -6.6060    -5.8490    -1.4360 H     1 <1>   0.0800 
 32 H       -4.7650    -7.4120    -1.4240 H     1 <1>   0.0800 
 33 H       -5.9810    -5.2960     1.2310 H     1 <1>   0.4000 
 34 H       -6.7720    -8.4980    -0.4270 H     1 <1>   0.0800 
 35 H       -6.2030    -8.0860     1.1580 H     1 <1>   0.0800 
 36 H       -4.3740    -9.3940     2.2020 H     1 <1>   0.1500 
 37 H       -5.4150   -10.1410    -1.8510 H     1 <1>   0.1500 
 38 H       -3.0230   -11.4140     2.1390 H     1 <1>   0.1500 
 39 H       -4.0230   -12.1340    -1.7520 H     1 <1>   0.1500 
@<TRIPOS>BOND
  1   1   2  1   
  2   2   3  ar  
  3   2   4  ar  
  4   3   5  1   
  5   3   6  ar  
  6   4   7  ar  
  7   4  24  1   
  8   6   8  1   
  9   6   9  ar  
 10   7   9  ar  
 11   7  25  1   
 12   8  10  2   
 13   8  11  am  
 14   9  26  1   
 15  11  12  1   
 16  11  13  1   
 17  12  14  1   
 18  12  27  1   
 19  12  28  1   
 20  13  15  1   
 21  13  29  1   
 22  13  30  1   
 23  14  15  1   
 24  14  16  1   
 25  14  31  1   
 26  15  17  1   
 27  15  32  1   
 28  16  33  1   
 29  17  18  1   
 30  17  34  1   
 31  17  35  1   
 32  18  19  ar  
 33  18  20  ar  
 34  19  21  ar  
 35  19  36  1   
 36  20  22  ar  
 37  20  37  1   
 38  21  23  ar  
 39  21  38  1   
 40  22  23  ar  
 41  22  39  1   
@<TRIPOS>SUBSTRUCTURE
  1 ****  11 GROUP 4 **** **** 0

# MOE 2024.06 (io_trps.svl 2023.06)
