@<TRIPOS>MOLECULE
NONAME
44 46 1 0 0 
SMALL
USER_CHARGES


@<TRIPOS>ATOM
  1 F       -0.5350    -1.3390    -0.7860 F     1 <1>  -0.1900 
  2 C       -1.7360    -1.6670    -0.3870 C.ar  1 <1>   0.1900 
  3 C       -2.3440    -2.8000    -0.9130 C.ar  1 <1>   0.0830 
  4 C       -2.3690    -0.8750     0.5500 C.ar  1 <1>  -0.1500 
  5 O       -1.7190    -3.5660    -1.8270 O.3   1 <1>  -0.5330 
  6 C       -3.6140    -3.1400    -0.4860 C.ar  1 <1>  -0.1500 
  7 C       -3.6430    -1.2290     0.9640 C.ar  1 <1>  -0.1500 
  8 C       -4.2910    -2.3590     0.4520 C.ar  1 <1>   0.0860 
  9 C       -5.6280    -2.7180     0.8820 C.2   1 <1>   0.5440 
 10 O       -5.8190    -3.8180     1.3660 O.2   1 <1>  -0.5700 
 11 N       -6.6870    -1.8450     0.7450 N.am  1 <1>  -0.6600 
 12 C       -8.0480    -2.1920     1.2480 C.3   1 <1>   0.1400 
 13 C       -6.6340    -0.6430    -0.1440 C.3   1 <1>   0.1400 
 14 C       -8.9900    -2.5370     0.0720 C.3   1 <1>   0.0000 
 15 C       -8.0100    -0.3050    -0.7410 C.3   1 <1>  -0.1600 
 16 C      -10.4480    -2.5530     0.5660 C.3   1 <1>   0.2000 
 17 C       -8.7710    -1.5790    -1.1420 C.3   1 <1>  -0.1600 
 18 C       -8.8210    -3.9950    -0.3880 C.3   1 <1>  -0.1600 
 19 O      -10.9880    -1.2650     0.6190 O.3   1 <1>  -0.5600 
 20 C      -11.2080    -3.4510    -0.4170 C.3   1 <1>  -0.1600 
 21 C      -10.1510    -4.3650    -1.0530 C.3   1 <1>  -0.1600 
 22 C      -12.1860    -1.1580     1.3200 C.3   1 <1>   0.0400 
 23 H       -1.8740    -0.0060     0.9460 H     1 <1>   0.1500 
 24 H       -0.8230    -3.2340    -2.0320 H     1 <1>   0.4500 
 25 H       -4.0890    -4.0210    -0.8810 H     1 <1>   0.1500 
 26 H       -4.1530    -0.6300     1.6990 H     1 <1>   0.1500 
 27 H       -8.0030    -3.0090     1.9470 H     1 <1>   0.0800 
 28 H       -8.4390    -1.3410     1.7780 H     1 <1>   0.0800 
 29 H       -6.2660     0.2000     0.4150 H     1 <1>   0.0800 
 30 H       -5.9500    -0.8380    -0.9530 H     1 <1>   0.0800 
 31 H       -8.5910     0.2460    -0.0210 H     1 <1>   0.0800 
 32 H       -7.8800     0.3300    -1.5990 H     1 <1>   0.0800 
 33 H      -10.4810    -2.9860     1.5520 H     1 <1>   0.0800 
 34 H       -8.1910    -2.0720    -1.9010 H     1 <1>   0.0800 
 35 H       -9.7100    -1.3100    -1.5930 H     1 <1>   0.0800 
 36 H       -7.9780    -4.1330    -1.0430 H     1 <1>   0.0800 
 37 H       -8.6750    -4.6290     0.4700 H     1 <1>   0.0800 
 38 H      -11.9510    -4.0300     0.1020 H     1 <1>   0.0800 
 39 H      -11.6780    -2.8560    -1.1810 H     1 <1>   0.0800 
 40 H      -10.3800    -5.4060    -0.9050 H     1 <1>   0.0800 
 41 H      -10.0940    -4.1670    -2.1100 H     1 <1>   0.0800 
 42 H      -12.4860    -0.1250     1.3100 H     1 <1>   0.0800 
 43 H      -12.0340    -1.4810     2.3350 H     1 <1>   0.0800 
 44 H      -12.9390    -1.7570     0.8390 H     1 <1>   0.0800 
@<TRIPOS>BOND
  1   1   2  1   
  2   2   3  ar  
  3   2   4  ar  
  4   3   5  1   
  5   3   6  ar  
  6   4   7  ar  
  7   4  23  1   
  8   5  24  1   
  9   6   8  ar  
 10   6  25  1   
 11   7   8  ar  
 12   7  26  1   
 13   8   9  1   
 14   9  10  2   
 15   9  11  am  
 16  11  12  1   
 17  11  13  1   
 18  12  14  1   
 19  12  27  1   
 20  12  28  1   
 21  13  15  1   
 22  13  29  1   
 23  13  30  1   
 24  14  16  1   
 25  14  17  1   
 26  14  18  1   
 27  15  17  1   
 28  15  31  1   
 29  15  32  1   
 30  16  19  1   
 31  16  20  1   
 32  16  33  1   
 33  17  34  1   
 34  17  35  1   
 35  18  21  1   
 36  18  36  1   
 37  18  37  1   
 38  19  22  1   
 39  20  21  1   
 40  20  38  1   
 41  20  39  1   
 42  21  40  1   
 43  21  41  1   
 44  22  42  1   
 45  22  43  1   
 46  22  44  1   
@<TRIPOS>SUBSTRUCTURE
  1 ****  11 GROUP 4 **** **** 0

# MOE 2024.06 (io_trps.svl 2023.06)
