@<TRIPOS>MOLECULE
NONAME
55 58 1 0 0 
SMALL
USER_CHARGES


@<TRIPOS>ATOM
  1 O       -0.6380    -0.6400    -1.1720 O.2   1 <1>  -0.5700 
  2 C       -1.7710    -0.3650    -0.8620 C.2   1 <1>   0.5690 
  3 N       -2.7920    -1.2340    -0.5850 N.am  1 <1>  -0.4770 
  4 C       -2.2210     1.0660    -0.7410 C.3   1 <1>  -0.0990 
  5 C       -2.7680    -2.6410    -0.5360 C.ar  1 <1>   0.1170 
  6 C       -4.0320    -0.4920    -0.2710 C.3   1 <1>   0.1400 
  7 C       -3.5880     0.9580    -0.0570 C.3   1 <1>  -0.1600 
  8 C       -3.9060    -3.3900    -0.8310 C.ar  1 <1>  -0.1500 
  9 C       -1.6180    -3.3410    -0.1780 C.ar  1 <1>  -0.1500 
 10 C       -3.8970    -4.7680    -0.7550 C.ar  1 <1>  -0.1500 
 11 C       -1.6110    -4.7210    -0.1020 C.ar  1 <1>  -0.1500 
 12 C       -2.7540    -5.4710    -0.3760 C.ar  1 <1>   0.0860 
 13 C       -2.7410    -6.9160    -0.2800 C.2   1 <1>   0.5440 
 14 O       -2.0810    -7.5610    -1.0760 O.2   1 <1>  -0.5700 
 15 N       -3.4510    -7.6100     0.6820 N.am  1 <1>  -0.6600 
 16 C       -3.6440    -9.0740     0.5800 C.3   1 <1>   0.1400 
 17 C       -4.4260    -6.9880     1.6180 C.3   1 <1>   0.1400 
 18 C       -5.0640    -9.3350    -0.0060 C.3   1 <1>   0.4230 
 19 C       -5.6900    -7.8630     1.6790 C.3   1 <1>  -0.1600 
 20 N       -5.6620   -10.6730     0.3540 N.4   1 <1>  -0.9590 
 21 C       -6.2050    -8.2450     0.2070 C.3   1 <1>  -0.1060 
 22 C       -6.5140   -11.1190    -0.7810 C.3   1 <1>   0.3430 
 23 C       -4.7020   -11.7500     0.7430 C.3   1 <1>   0.2630 
 24 C       -7.2950    -7.1660     0.3500 C.2   1 <1>   0.9060 
 25 C       -6.8080    -8.6210    -1.2350 C.3   1 <1>  -0.1600 
 26 C       -7.4810   -10.0070    -1.1830 C.3   1 <1>  -0.1600 
 27 O       -7.0390    -6.0050     0.0070 O.co2 1 <1>  -0.9000 
 28 O       -8.3880    -7.5070     0.8200 O.co2 1 <1>  -0.9000 
 29 H       -1.5220     1.6390    -0.1590 H     1 <1>   0.0800 
 30 H       -2.3100     1.4850    -1.7270 H     1 <1>   0.0800 
 31 H       -4.7050    -0.5600    -1.1080 H     1 <1>   0.0800 
 32 H       -4.5030    -0.8940     0.6100 H     1 <1>   0.0800 
 33 H       -4.3020     1.6570    -0.4560 H     1 <1>   0.0800 
 34 H       -3.4790     1.1360     0.9990 H     1 <1>   0.0800 
 35 H       -4.8170    -2.9040    -1.1260 H     1 <1>   0.1500 
 36 H       -0.7170    -2.7990     0.0470 H     1 <1>   0.1500 
 37 H       -4.7990    -5.3140    -0.9870 H     1 <1>   0.1500 
 38 H       -0.7080    -5.2370     0.1710 H     1 <1>   0.1500 
 39 H       -2.8990    -9.5170    -0.0570 H     1 <1>   0.0800 
 40 H       -3.5360    -9.4900     1.5640 H     1 <1>   0.0800 
 41 H       -3.9840    -6.9050     2.5960 H     1 <1>   0.0800 
 42 H       -4.7030    -6.0010     1.2950 H     1 <1>   0.0800 
 43 H       -4.8170    -9.3900    -1.0500 H     1 <1>   0.0800 
 44 H       -5.5090    -8.7360     2.2820 H     1 <1>   0.0800 
 45 H       -6.3770    -7.3210     2.3190 H     1 <1>   0.0800 
 46 H       -6.3070   -10.4620     1.1320 H     1 <1>   0.4500 
 47 H       -5.8870   -11.3550    -1.6260 H     1 <1>   0.0800 
 48 H       -7.0700   -12.0030    -0.5120 H     1 <1>   0.0800 
 49 H       -3.9960   -11.9260    -0.0530 H     1 <1>   0.0800 
 50 H       -5.2330   -12.6660     0.9430 H     1 <1>   0.0800 
 51 H       -4.1630   -11.4700     1.6320 H     1 <1>   0.0800 
 52 H       -7.5720    -7.9660    -1.6400 H     1 <1>   0.0800 
 53 H       -6.0750    -8.5730    -2.0250 H     1 <1>   0.0800 
 54 H       -7.9090   -10.2390    -2.1420 H     1 <1>   0.0800 
 55 H       -8.2920    -9.9710    -0.4740 H     1 <1>   0.0800 
@<TRIPOS>BOND
  1   1   2  2   
  2   2   3  am  
  3   2   4  1   
  4   3   5  1   
  5   3   6  1   
  6   4   7  1   
  7   4  29  1   
  8   4  30  1   
  9   5   8  ar  
 10   5   9  ar  
 11   6   7  1   
 12   6  31  1   
 13   6  32  1   
 14   7  33  1   
 15   7  34  1   
 16   8  10  ar  
 17   8  35  1   
 18   9  11  ar  
 19   9  36  1   
 20  10  12  ar  
 21  10  37  1   
 22  11  12  ar  
 23  11  38  1   
 24  12  13  1   
 25  13  14  2   
 26  13  15  am  
 27  15  16  1   
 28  15  17  1   
 29  16  18  1   
 30  16  39  1   
 31  16  40  1   
 32  17  19  1   
 33  17  41  1   
 34  17  42  1   
 35  18  20  1   
 36  18  21  1   
 37  18  43  1   
 38  19  21  1   
 39  19  44  1   
 40  19  45  1   
 41  20  22  1   
 42  20  23  1   
 43  20  46  1   
 44  21  24  1   
 45  21  25  1   
 46  22  26  1   
 47  22  47  1   
 48  22  48  1   
 49  23  49  1   
 50  23  50  1   
 51  23  51  1   
 52  24  27  ar  
 53  24  28  ar  
 54  25  26  1   
 55  25  52  1   
 56  25  53  1   
 57  26  54  1   
 58  26  55  1   
@<TRIPOS>SUBSTRUCTURE
  1 ****  10 GROUP 4 **** **** 0

# MOE 2024.06 (io_trps.svl 2023.06)
