@<TRIPOS>MOLECULE
NONAME
51 53 1 0 0 
SMALL
USER_CHARGES


@<TRIPOS>ATOM
  1 O       -2.9200     0.3800     1.2550 O.2   1 <1>  -0.5700 
  2 C       -2.9280     1.4150     0.6300 C.2   1 <1>   0.5690 
  3 N       -3.6530     1.5070    -0.5190 N.am  1 <1>  -0.6600 
  4 C       -2.1620     2.6190     1.1410 C.3   1 <1>  -0.0990 
  5 C       -5.1010     1.8560    -0.3830 C.3   1 <1>   0.1400 
  6 C       -3.4310     0.4460    -1.5570 C.3   1 <1>   0.1400 
  7 C       -0.7200     2.6320     0.6080 C.3   1 <1>  -0.1600 
  8 C       -5.9520     0.6170     0.0180 C.3   1 <1>   0.4230 
  9 C       -4.4300    -0.7300    -1.4230 C.3   1 <1>   0.3430 
 10 C        0.0770     3.8290     1.1490 C.3   1 <1>   0.0960 
 11 N       -5.1710    -0.6740    -0.1140 N.4   1 <1>  -0.9590 
 12 C       -7.2680     0.5510    -0.7900 C.3   1 <1>   0.1200 
 13 N        1.4350     3.8550     0.5720 N.pl3 1 <1>   0.3140 
 14 C       -6.0410    -1.8510     0.2110 C.3   1 <1>   0.4230 
 15 O       -8.0080    -0.5840    -0.4390 O.3   1 <1>  -0.5600 
 16 N        1.6970     4.3730    -0.6190 N.2   1 <1>  -0.7070 
 17 C        2.5730     3.3920     1.0960 C.2   1 <1>   0.0360 
 18 C       -7.3500    -1.8110    -0.6120 C.3   1 <1>   0.1200 
 19 C       -5.2610    -3.1650     0.0430 C.3   1 <1>  -0.1600 
 20 C        2.9710     4.1870    -0.7270 C.2   1 <1>   0.3660 
 21 N        3.5680     3.5820     0.3080 N.2   1 <1>  -0.5650 
 22 C       -5.9760    -4.3590     0.6950 C.3   1 <1>  -0.1600 
 23 C       -5.1310    -5.6300     0.5770 C.3   1 <1>  -0.2400 
 24 H       -2.6710     3.5160     0.8380 H     1 <1>   0.0800 
 25 H       -2.1530     2.5840     2.2160 H     1 <1>   0.0800 
 26 H       -5.2240     2.6240     0.3620 H     1 <1>   0.0800 
 27 H       -5.4490     2.2630    -1.3170 H     1 <1>   0.0800 
 28 H       -3.5070     0.8800    -2.5390 H     1 <1>   0.0800 
 29 H       -2.4290     0.0610    -1.4580 H     1 <1>   0.0800 
 30 H       -0.7430     2.6840    -0.4680 H     1 <1>   0.0800 
 31 H       -0.2270     1.7180     0.8930 H     1 <1>   0.0800 
 32 H       -6.2270     0.7400     1.0530 H     1 <1>   0.0800 
 33 H       -3.8810    -1.6530    -1.5030 H     1 <1>   0.0800 
 34 H       -5.1310    -0.6950    -2.2400 H     1 <1>   0.0800 
 35 H        0.1580     3.7760     2.2200 H     1 <1>   0.0800 
 36 H       -0.4110     4.7500     0.8850 H     1 <1>   0.0800 
 37 H       -4.4200    -0.6010     0.6050 H     1 <1>   0.4500 
 38 H       -7.0800     0.5220    -1.8490 H     1 <1>   0.0800 
 39 H       -7.8790     1.4110    -0.5750 H     1 <1>   0.0800 
 40 H       -6.3230    -1.7790     1.2500 H     1 <1>   0.0800 
 41 H        2.6280     2.9210     2.0610 H     1 <1>   0.1500 
 42 H       -8.0240    -2.5800    -0.2790 H     1 <1>   0.0800 
 43 H       -7.1590    -1.9570    -1.6610 H     1 <1>   0.0800 
 44 H       -5.1150    -3.3820    -1.0010 H     1 <1>   0.0800 
 45 H       -4.2980    -3.0590     0.5120 H     1 <1>   0.0800 
 46 H        3.5420     4.4920    -1.5900 H     1 <1>   0.1500 
 47 H       -6.1540    -4.1570     1.7390 H     1 <1>   0.0800 
 48 H       -6.9280    -4.5370     0.2230 H     1 <1>   0.0800 
 49 H       -4.1820    -5.5050     1.0700 H     1 <1>   0.0800 
 50 H       -4.9550    -5.8780    -0.4560 H     1 <1>   0.0800 
 51 H       -5.6440    -6.4560     1.0390 H     1 <1>   0.0800 
@<TRIPOS>BOND
  1   1   2  2   
  2   2   3  am  
  3   2   4  1   
  4   3   5  1   
  5   3   6  1   
  6   4   7  1   
  7   4  24  1   
  8   4  25  1   
  9   5   8  1   
 10   5  26  1   
 11   5  27  1   
 12   6   9  1   
 13   6  28  1   
 14   6  29  1   
 15   7  10  1   
 16   7  30  1   
 17   7  31  1   
 18   8  11  1   
 19   8  12  1   
 20   8  32  1   
 21   9  11  1   
 22   9  33  1   
 23   9  34  1   
 24  10  13  1   
 25  10  35  1   
 26  10  36  1   
 27  11  14  1   
 28  11  37  1   
 29  12  15  1   
 30  12  38  1   
 31  12  39  1   
 32  13  16  1   
 33  13  17  1   
 34  14  18  1   
 35  14  19  1   
 36  14  40  1   
 37  15  18  1   
 38  16  20  2   
 39  17  21  2   
 40  17  41  1   
 41  18  42  1   
 42  18  43  1   
 43  19  22  1   
 44  19  44  1   
 45  19  45  1   
 46  20  21  1   
 47  20  46  1   
 48  22  23  1   
 49  22  47  1   
 50  22  48  1   
 51  23  49  1   
 52  23  50  1   
 53  23  51  1   
@<TRIPOS>SUBSTRUCTURE
  1 ****   2 GROUP 4 **** **** 0

# MOE 2024.06 (io_trps.svl 2023.06)
