@<TRIPOS>MOLECULE
NONAME
45 47 1 0 0 
SMALL
USER_CHARGES


@<TRIPOS>ATOM
  1 O       -0.5250     0.9130     1.0430 O.2   1 <1>  -0.5700 
  2 C       -0.3890     2.0950     0.8390 C.2   1 <1>   0.5690 
  3 N       -1.3610     3.0110     1.1390 N.am  1 <1>  -0.6600 
  4 C        0.9180     2.5690     0.2000 C.3   1 <1>   0.1810 
  5 C       -1.1780     4.4690     0.8350 C.3   1 <1>   0.3640 
  6 C       -2.6200     2.6360     1.8480 C.3   1 <1>   0.0600 
  7 O        1.1920     3.9210     0.4740 O.3   1 <1>  -0.5600 
  8 C       -2.3900     5.0380     0.0810 C.ar  1 <1>  -0.1440 
  9 C        0.1470     4.8070     0.1030 C.3   1 <1>   0.2610 
 10 C       -2.9380     4.4840    -1.0820 C.ar  1 <1>  -0.1440 
 11 C       -2.9680     6.1870     0.6090 C.ar  1 <1>  -0.1500 
 12 C        0.5570     6.2480     0.4180 C.2   1 <1>   0.5690 
 13 C       -4.0380     5.0880    -1.6720 C.ar  1 <1>  -0.1500 
 14 C       -2.4040     3.2220    -1.7540 C.3   1 <1>  -0.0970 
 15 C       -4.0630     6.7810     0.0110 C.ar  1 <1>  -0.1500 
 16 O        0.0720     7.1690    -0.1980 O.2   1 <1>  -0.5700 
 17 N        1.4930     6.4740     1.3760 N.am  1 <1>  -0.7300 
 18 C       -4.6000     6.2300    -1.1340 C.ar  1 <1>  -0.1500 
 19 C        2.0210     7.8030     1.7630 C.3   1 <1>   0.3200 
 20 C        2.9710     8.3300     0.7050 C.2   1 <1>   0.0060 
 21 N        4.2040     8.6510     0.8830 N.2   1 <1>  -0.3380 
 22 N        2.5990     8.5210    -0.5650 N.pl3 1 <1>   0.0330 
 23 N        4.6780     9.0660    -0.3020 N.2   1 <1>  -0.3380 
 24 C        3.7050     8.9800    -1.1490 C.2   1 <1>   0.2700 
 25 N        3.8130     9.3260    -2.4780 N.pl3 1 <1>  -0.8840 
 26 H        0.8710     2.4350    -0.8650 H     1 <1>   0.0800 
 27 H        1.7320     1.9850     0.5880 H     1 <1>   0.0800 
 28 H       -1.1280     4.9610     1.7900 H     1 <1>   0.0800 
 29 H       -2.7310     3.2300     2.7380 H     1 <1>   0.0800 
 30 H       -2.6050     1.5970     2.1280 H     1 <1>   0.0800 
 31 H       -3.4680     2.8030     1.2060 H     1 <1>   0.0800 
 32 H        0.0140     4.7310    -0.9590 H     1 <1>   0.0800 
 33 H       -2.5660     6.6430     1.4970 H     1 <1>   0.1500 
 34 H       -4.4740     4.6720    -2.5640 H     1 <1>   0.1500 
 35 H       -2.8130     3.1110    -2.7420 H     1 <1>   0.0800 
 36 H       -2.6830     2.3550    -1.1830 H     1 <1>   0.0800 
 37 H       -1.3370     3.2510    -1.8500 H     1 <1>   0.0800 
 38 H       -4.4940     7.6720     0.4340 H     1 <1>   0.1500 
 39 H        2.0400     5.6660     1.6940 H     1 <1>   0.3700 
 40 H       -5.4530     6.6860    -1.6050 H     1 <1>   0.1500 
 41 H        1.2030     8.4940     1.8810 H     1 <1>   0.0800 
 42 H        2.5380     7.7250     2.7040 H     1 <1>   0.0800 
 43 H        1.6890     8.3020    -0.9800 H     1 <1>   0.2700 
 44 H        4.7500     9.6830    -2.6870 H     1 <1>   0.4000 
 45 H        3.1020     9.9800    -2.8130 H     1 <1>   0.4000 
@<TRIPOS>BOND
  1   1   2  2   
  2   2   3  am  
  3   2   4  1   
  4   3   5  1   
  5   3   6  1   
  6   4   7  1   
  7   4  26  1   
  8   4  27  1   
  9   5   8  1   
 10   5   9  1   
 11   5  28  1   
 12   6  29  1   
 13   6  30  1   
 14   6  31  1   
 15   7   9  1   
 16   8  10  ar  
 17   8  11  ar  
 18   9  12  1   
 19   9  32  1   
 20  10  13  ar  
 21  10  14  1   
 22  11  15  ar  
 23  11  33  1   
 24  12  16  2   
 25  12  17  am  
 26  13  18  ar  
 27  13  34  1   
 28  14  35  1   
 29  14  36  1   
 30  14  37  1   
 31  15  18  ar  
 32  15  38  1   
 33  17  19  1   
 34  17  39  1   
 35  18  40  1   
 36  19  20  1   
 37  19  41  1   
 38  19  42  1   
 39  20  21  2   
 40  20  22  1   
 41  21  23  1   
 42  22  24  1   
 43  22  43  1   
 44  23  24  2   
 45  24  25  1   
 46  25  44  1   
 47  25  45  1   
@<TRIPOS>SUBSTRUCTURE
  1 ****  12 GROUP 4 **** **** 0

# MOE 2024.06 (io_trps.svl 2023.06)
