@<TRIPOS>MOLECULE
NONAME
22 21 1 0 0 
SMALL
USER_CHARGES


@<TRIPOS>ATOM
  1 O       -7.7380    -1.3020     0.6300 O.2   1 <1>  -0.5700 
  2 C       -7.6760    -0.2110     0.1370 C.2   1 <1>   0.4480 
  3 C       -8.9320     0.5680    -0.2880 C.3   1 <1>   0.2510 
  4 C       -6.3430     0.4890    -0.1110 C.3   1 <1>  -0.0990 
  5 N       -9.0590     1.8700     0.4050 N.3   1 <1>  -0.9900 
  6 C      -10.2060    -0.2820    -0.0950 C.3   1 <1>   0.1200 
  7 C       -5.1130    -0.3950     0.1580 C.3   1 <1>  -0.1600 
  8 O      -11.3590     0.4710    -0.3200 O.3   1 <1>  -0.6800 
  9 C       -3.8090     0.3590    -0.1210 C.3   1 <1>  -0.2400 
 10 H       -8.8360     0.7630    -1.3420 H     1 <1>   0.0800 
 11 H       -6.2990     1.3590     0.5200 H     1 <1>   0.0800 
 12 H       -6.3200     0.8230    -1.1330 H     1 <1>   0.0800 
 13 H       -9.2250     1.7010     1.4030 H     1 <1>   0.3600 
 14 H       -9.8930     2.3360     0.0270 H     1 <1>   0.3600 
 15 H      -10.2520    -0.6840     0.9030 H     1 <1>   0.0800 
 16 H      -10.2030    -1.1040    -0.7910 H     1 <1>   0.0800 
 17 H       -5.1590    -1.2730    -0.4640 H     1 <1>   0.0800 
 18 H       -5.1240    -0.7200     1.1860 H     1 <1>   0.0800 
 19 H      -11.5510     1.0370     0.4510 H     1 <1>   0.4000 
 20 H       -3.7660     0.6700    -1.1500 H     1 <1>   0.0800 
 21 H       -2.9670    -0.2800     0.0780 H     1 <1>   0.0800 
 22 H       -3.7340     1.2280     0.5090 H     1 <1>   0.0800 
@<TRIPOS>BOND
  1   1   2  2   
  2   2   3  1   
  3   2   4  1   
  4   3   5  1   
  5   3   6  1   
  6   3  10  1   
  7   4   7  1   
  8   4  11  1   
  9   4  12  1   
 10   5  13  1   
 11   5  14  1   
 12   6   8  1   
 13   6  15  1   
 14   6  16  1   
 15   7   9  1   
 16   7  17  1   
 17   7  18  1   
 18   8  19  1   
 19   9  20  1   
 20   9  21  1   
 21   9  22  1   
@<TRIPOS>SUBSTRUCTURE
  1 ****   2 GROUP 4 **** **** 0

# MOE 2024.06 (io_trps.svl 2023.06)
