@<TRIPOS>MOLECULE
NONAME
49 52 1 0 0 
SMALL
USER_CHARGES


@<TRIPOS>ATOM
  1 O       -0.6690     0.4230     1.7910 O.2   1 <1>  -0.5700 
  2 C       -1.5710     1.0490     1.2700 C.2   1 <1>   0.5440 
  3 N       -2.6650     0.3580     0.8000 N.am  1 <1>  -0.6600 
  4 C       -1.4640     2.4890     1.1440 C.ar  1 <1>   0.0860 
  5 C       -3.6300     0.8790    -0.2050 C.3   1 <1>   0.1400 
  6 C       -2.7540    -1.1250     0.8700 C.3   1 <1>   0.1400 
  7 C       -0.3640     3.0790     0.5560 C.ar  1 <1>  -0.1500 
  8 C       -2.4770     3.3390     1.6300 C.ar  1 <1>  -0.1500 
  9 C       -4.5840    -0.2860    -0.4650 C.3   1 <1>   0.2000 
 10 C       -3.7060    -1.5260    -0.2630 C.3   1 <1>  -0.0800 
 11 C       -0.2400     4.4660     0.4090 C.ar  1 <1>   0.3100 
 12 C       -2.3830     4.7000     1.5050 C.ar  1 <1>  -0.1500 
 13 O       -5.5740    -0.2560     0.5060 O.3   1 <1>  -0.6800 
 14 C       -4.4770    -2.8340     0.0000 C.3   1 <1>   0.0200 
 15 N        0.8640     4.9720    -0.1960 N.ar  1 <1>  -0.6200 
 16 C       -1.2740     5.3010     0.8920 C.ar  1 <1>   0.3100 
 17 C       -3.5760    -4.0560     0.0550 C.2   1 <1>  -0.0400 
 18 C        0.8860     6.2650    -0.2860 C.ar  1 <1>   0.1670 
 19 N       -1.2240     6.6500     0.7800 N.ar  1 <1>  -0.6200 
 20 O       -4.0980    -5.2030     0.4010 O.3   1 <1>  -0.0190 
 21 C       -2.2700    -4.2610    -0.1870 C.2   1 <1>  -0.1500 
 22 C       -0.1560     7.1020     0.2010 C.ar  1 <1>   0.1670 
 23 C        2.1100     6.8650    -0.9560 C.3   1 <1>  -0.0970 
 24 N       -3.2160    -6.1600     0.4080 N.2   1 <1>  -0.4100 
 25 C       -2.1040    -5.6210     0.0580 C.2   1 <1>   0.1080 
 26 C       -0.0620     8.6130     0.0600 C.3   1 <1>  -0.0970 
 27 C       -0.7980    -6.3720    -0.0680 C.3   1 <1>  -0.0590 
 28 H       -4.1580     1.7470     0.1480 H     1 <1>   0.0800 
 29 H       -3.0960     1.1240    -1.1080 H     1 <1>   0.0800 
 30 H       -1.7840    -1.5750     0.7490 H     1 <1>   0.0800 
 31 H       -3.1540    -1.4050     1.8300 H     1 <1>   0.0800 
 32 H        0.4410     2.4660     0.1920 H     1 <1>   0.1500 
 33 H       -3.3300     2.8940     2.1130 H     1 <1>   0.1500 
 34 H       -5.0520    -0.2430    -1.4340 H     1 <1>   0.0800 
 35 H       -3.1180    -1.6520    -1.1540 H     1 <1>   0.0800 
 36 H       -3.1560     5.3490     1.8750 H     1 <1>   0.1500 
 37 H       -5.1540    -0.1660     1.3850 H     1 <1>   0.4000 
 38 H       -5.2030    -2.9830    -0.7800 H     1 <1>   0.0800 
 39 H       -5.0120    -2.7660     0.9310 H     1 <1>   0.0800 
 40 H       -1.5000    -3.5800    -0.4960 H     1 <1>   0.1500 
 41 H        1.8210     7.4150    -1.8320 H     1 <1>   0.0800 
 42 H        2.7920     6.0880    -1.2550 H     1 <1>   0.0800 
 43 H        2.6230     7.5180    -0.2740 H     1 <1>   0.0800 
 44 H        0.8010     8.9800     0.5830 H     1 <1>   0.0800 
 45 H       -0.9350     9.0820     0.4780 H     1 <1>   0.0800 
 46 H        0.0020     8.8850    -0.9770 H     1 <1>   0.0800 
 47 H       -0.4340    -6.3040    -1.0760 H     1 <1>   0.0800 
 48 H       -0.9440    -7.4070     0.1810 H     1 <1>   0.0800 
 49 H       -0.0700    -5.9520     0.6020 H     1 <1>   0.0800 
@<TRIPOS>BOND
  1   1   2  2   
  2   2   3  am  
  3   2   4  1   
  4   3   5  1   
  5   3   6  1   
  6   4   7  ar  
  7   4   8  ar  
  8   5   9  1   
  9   5  28  1   
 10   5  29  1   
 11   6  10  1   
 12   6  30  1   
 13   6  31  1   
 14   7  11  ar  
 15   7  32  1   
 16   8  12  ar  
 17   8  33  1   
 18   9  10  1   
 19   9  13  1   
 20   9  34  1   
 21  10  14  1   
 22  10  35  1   
 23  11  15  ar  
 24  11  16  ar  
 25  12  16  ar  
 26  12  36  1   
 27  13  37  1   
 28  14  17  1   
 29  14  38  1   
 30  14  39  1   
 31  15  18  ar  
 32  16  19  ar  
 33  17  20  1   
 34  17  21  2   
 35  18  22  ar  
 36  18  23  1   
 37  19  22  ar  
 38  20  24  1   
 39  21  25  1   
 40  21  40  1   
 41  22  26  1   
 42  23  41  1   
 43  23  42  1   
 44  23  43  1   
 45  24  25  2   
 46  25  27  1   
 47  26  44  1   
 48  26  45  1   
 49  26  46  1   
 50  27  47  1   
 51  27  48  1   
 52  27  49  1   
@<TRIPOS>SUBSTRUCTURE
  1 ****   2 GROUP 4 **** **** 0

# MOE 2024.06 (io_trps.svl 2023.06)
