@<TRIPOS>MOLECULE
NONAME
50 51 1 0 0 
SMALL
USER_CHARGES


@<TRIPOS>ATOM
  1 O       -4.2710     2.6920    -0.9980 O.2   1 <1>  -0.5700 
  2 C       -3.4410     2.1510    -0.3020 C.2   1 <1>   0.5690 
  3 N       -3.6540     0.8470     0.0920 N.am  1 <1>  -0.6600 
  4 C       -2.2160     3.0010     0.0870 C.3   1 <1>   0.1250 
  5 C       -2.9140     0.1670     1.2000 C.3   1 <1>   0.3200 
  6 C       -4.6020    -0.0380    -0.6780 C.3   1 <1>   0.1400 
  7 C       -0.8930     2.2760    -0.1890 C.ar  1 <1>  -0.1440 
  8 C       -2.3470     3.6290     1.4890 C.3   1 <1>  -0.2400 
  9 C       -2.1530    -1.0280     0.6700 C.2   1 <1>  -0.3320 
 10 C       -6.0530     0.0530    -0.1690 C.3   1 <1>   0.3430 
 11 C        0.0340     1.9620     0.7980 C.ar  1 <1>  -0.1500 
 12 C       -0.6060     1.9250    -1.5020 C.ar  1 <1>  -0.1500 
 13 N       -1.0730    -0.9310    -0.1290 N.pl3 1 <1>   0.0330 
 14 C       -2.3590    -2.3490     0.8670 C.2   1 <1>   0.0770 
 15 N       -6.6410     1.4050    -0.4210 N.4   1 <1>  -0.9590 
 16 C        1.2030     1.2940     0.4790 C.ar  1 <1>  -0.1500 
 17 C        0.5640     1.2610    -1.8210 C.ar  1 <1>  -0.1500 
 18 C       -0.7030    -2.2030    -0.3780 C.2   1 <1>   0.0360 
 19 N       -1.4550    -3.0850     0.1970 N.2   1 <1>  -0.5650 
 20 C       -7.6270     1.8070     0.6230 C.3   1 <1>   0.2630 
 21 C       -7.2080     1.5300    -1.7960 C.3   1 <1>   0.2630 
 22 C        1.4730     0.9350    -0.8300 C.ar  1 <1>  -0.1440 
 23 C        2.7590     0.2030    -1.1680 C.3   1 <1>  -0.0970 
 24 H       -2.2180     3.8380    -0.5910 H     1 <1>   0.0800 
 25 H       -3.6210    -0.1620     1.9410 H     1 <1>   0.0800 
 26 H       -2.2280     0.8320     1.6850 H     1 <1>   0.0800 
 27 H       -4.2860    -1.0640    -0.6170 H     1 <1>   0.0800 
 28 H       -4.5700     0.2280    -1.7200 H     1 <1>   0.0800 
 29 H       -2.3790     2.8890     2.2650 H     1 <1>   0.0800 
 30 H       -3.2480     4.2130     1.5420 H     1 <1>   0.0800 
 31 H       -1.5150     4.2860     1.6740 H     1 <1>   0.0800 
 32 H       -6.0520    -0.1570     0.8870 H     1 <1>   0.0800 
 33 H       -6.6530    -0.6980    -0.6560 H     1 <1>   0.0800 
 34 H       -0.1310     2.2290     1.8270 H     1 <1>   0.1500 
 35 H       -1.2950     2.1720    -2.2930 H     1 <1>   0.1500 
 36 H       -0.6030    -0.0730    -0.4580 H     1 <1>   0.2700 
 37 H       -3.1200    -2.8270     1.4610 H     1 <1>   0.1500 
 38 H       -5.8290     2.0650    -0.3930 H     1 <1>   0.4500 
 39 H        1.9080     1.0580     1.2580 H     1 <1>   0.1500 
 40 H        0.7670     1.0040    -2.8470 H     1 <1>   0.1500 
 41 H        0.1440    -2.4380    -0.9980 H     1 <1>   0.1500 
 42 H       -8.4750     1.1410     0.6140 H     1 <1>   0.0800 
 43 H       -7.9740     2.8110     0.4380 H     1 <1>   0.0800 
 44 H       -7.1710     1.7770     1.5980 H     1 <1>   0.0800 
 45 H       -8.0310     0.8470    -1.9300 H     1 <1>   0.0800 
 46 H       -6.4500     1.3150    -2.5310 H     1 <1>   0.0800 
 47 H       -7.5610     2.5350    -1.9610 H     1 <1>   0.0800 
 48 H        2.9850    -0.5270    -0.4110 H     1 <1>   0.0800 
 49 H        3.5720     0.9050    -1.2250 H     1 <1>   0.0800 
 50 H        2.6750    -0.3040    -2.1130 H     1 <1>   0.0800 
@<TRIPOS>BOND
  1   1   2  2   
  2   2   3  am  
  3   2   4  1   
  4   3   5  1   
  5   3   6  1   
  6   4   7  1   
  7   4   8  1   
  8   4  24  1   
  9   5   9  1   
 10   5  25  1   
 11   5  26  1   
 12   6  10  1   
 13   6  27  1   
 14   6  28  1   
 15   7  11  ar  
 16   7  12  ar  
 17   8  29  1   
 18   8  30  1   
 19   8  31  1   
 20   9  13  1   
 21   9  14  2   
 22  10  15  1   
 23  10  32  1   
 24  10  33  1   
 25  11  16  ar  
 26  11  34  1   
 27  12  17  ar  
 28  12  35  1   
 29  13  18  1   
 30  13  36  1   
 31  14  19  1   
 32  14  37  1   
 33  15  20  1   
 34  15  21  1   
 35  15  38  1   
 36  16  22  ar  
 37  16  39  1   
 38  17  22  ar  
 39  17  40  1   
 40  18  19  2   
 41  18  41  1   
 42  20  42  1   
 43  20  43  1   
 44  20  44  1   
 45  21  45  1   
 46  21  46  1   
 47  21  47  1   
 48  22  23  1   
 49  23  48  1   
 50  23  49  1   
 51  23  50  1   
@<TRIPOS>SUBSTRUCTURE
  1 ****   3 GROUP 4 **** **** 0

# MOE 2024.06 (io_trps.svl 2023.06)
