@<TRIPOS>MOLECULE
NONAME
49 52 1 0 0 
SMALL
USER_CHARGES


@<TRIPOS>ATOM
  1 O       -0.6710    -0.0330     0.0570 O.2   1 <1>  -0.5700 
  2 C       -1.5770     0.6830    -0.3240 C.2   1 <1>   0.5440 
  3 N       -2.7560     0.1020    -0.7430 N.am  1 <1>  -0.6600 
  4 C       -1.3930     2.1160    -0.3140 C.ar  1 <1>   0.0860 
  5 C       -4.0920     0.7750    -0.6740 C.3   1 <1>   0.1400 
  6 C       -2.8530    -1.3620    -1.0390 C.3   1 <1>   0.1400 
  7 C       -1.7840     2.9000    -1.3960 C.ar  1 <1>   0.1600 
  8 C       -0.8150     2.7770     0.7620 C.ar  1 <1>  -0.1500 
  9 C       -5.0450     0.0210     0.2750 C.3   1 <1>   0.1900 
 10 C       -3.8410    -2.0550    -0.0880 C.3   1 <1>   0.1100 
 11 N       -1.6870     4.2150    -1.4800 N.ar  1 <1>  -0.6200 
 12 C       -0.6900     4.1470     0.6950 C.ar  1 <1>  -0.1500 
 13 N       -5.1690    -1.4030    -0.1230 N.3   1 <1>  -0.8100 
 14 C       -6.4280     0.7010     0.2980 C.3   1 <1>   0.1200 
 15 C       -1.1400     4.8250    -0.4380 C.ar  1 <1>   0.3930 
 16 C       -6.1430    -2.0920     0.7580 C.3   1 <1>   0.3330 
 17 O       -7.2950     0.0180     1.1580 O.3   1 <1>  -0.5600 
 18 O       -1.0490     6.1620    -0.5630 O.3   1 <1>  -0.3630 
 19 C       -6.3960    -3.5220     0.2830 C.ar  1 <1>  -0.1430 
 20 C       -7.4830    -1.3250     0.7990 C.3   1 <1>   0.1200 
 21 C       -0.4080     6.9890     0.3820 C.3   1 <1>   0.0400 
 22 C       -6.3810    -4.5710     1.1920 C.ar  1 <1>  -0.1500 
 23 C       -6.6480    -3.7940    -1.0550 C.ar  1 <1>  -0.1500 
 24 C       -6.6150    -5.8690     0.7700 C.ar  1 <1>  -0.1500 
 25 C       -6.8830    -5.0910    -1.4780 C.ar  1 <1>  -0.1500 
 26 C       -6.8670    -6.1290    -0.5650 C.ar  1 <1>  -0.1500 
 27 H       -3.9880     1.7860    -0.3230 H     1 <1>   0.0800 
 28 H       -4.5220     0.8030    -1.6600 H     1 <1>   0.0800 
 29 H       -3.1910    -1.4930    -2.0510 H     1 <1>   0.0800 
 30 H       -1.8880    -1.8320    -0.9530 H     1 <1>   0.0800 
 31 H       -2.2070     2.3970    -2.2490 H     1 <1>   0.1500 
 32 H       -0.4750     2.2190     1.6180 H     1 <1>   0.1500 
 33 H       -4.6350     0.0800     1.2690 H     1 <1>   0.0800 
 34 H       -3.4410    -2.0330     0.9120 H     1 <1>   0.0800 
 35 H       -3.9310    -3.0850    -0.3880 H     1 <1>   0.0800 
 36 H       -0.2480     4.6720     1.5170 H     1 <1>   0.1500 
 37 H       -6.8620     0.7150    -0.6870 H     1 <1>   0.0800 
 38 H       -6.3440     1.7110     0.6570 H     1 <1>   0.0800 
 39 H       -5.7500    -2.1210     1.7600 H     1 <1>   0.0800 
 40 H       -8.1380    -1.7720     1.5250 H     1 <1>   0.0800 
 41 H       -7.9610    -1.3600    -0.1630 H     1 <1>   0.0800 
 42 H       -0.4450     8.0000     0.0180 H     1 <1>   0.0800 
 43 H        0.6160     6.6750     0.4840 H     1 <1>   0.0800 
 44 H       -0.9300     6.9200     1.3200 H     1 <1>   0.0800 
 45 H       -6.1870    -4.3840     2.2330 H     1 <1>   0.1500 
 46 H       -6.6560    -2.9890    -1.7700 H     1 <1>   0.1500 
 47 H       -6.6010    -6.6760     1.4810 H     1 <1>   0.1500 
 48 H       -7.0770    -5.2900    -2.5180 H     1 <1>   0.1500 
 49 H       -7.0490    -7.1380    -0.8930 H     1 <1>   0.1500 
@<TRIPOS>BOND
  1   1   2  2   
  2   2   3  am  
  3   2   4  1   
  4   3   5  1   
  5   3   6  1   
  6   4   7  ar  
  7   4   8  ar  
  8   5   9  1   
  9   5  27  1   
 10   5  28  1   
 11   6  10  1   
 12   6  29  1   
 13   6  30  1   
 14   7  11  ar  
 15   7  31  1   
 16   8  12  ar  
 17   8  32  1   
 18   9  13  1   
 19   9  14  1   
 20   9  33  1   
 21  10  13  1   
 22  10  34  1   
 23  10  35  1   
 24  11  15  ar  
 25  12  15  ar  
 26  12  36  1   
 27  13  16  1   
 28  14  17  1   
 29  14  37  1   
 30  14  38  1   
 31  15  18  1   
 32  16  19  1   
 33  16  20  1   
 34  16  39  1   
 35  17  20  1   
 36  18  21  1   
 37  19  22  ar  
 38  19  23  ar  
 39  20  40  1   
 40  20  41  1   
 41  21  42  1   
 42  21  43  1   
 43  21  44  1   
 44  22  24  ar  
 45  22  45  1   
 46  23  25  ar  
 47  23  46  1   
 48  24  26  ar  
 49  24  47  1   
 50  25  26  ar  
 51  25  48  1   
 52  26  49  1   
@<TRIPOS>SUBSTRUCTURE
  1 ****   5 GROUP 4 **** **** 0

# MOE 2024.06 (io_trps.svl 2023.06)
