@<TRIPOS>MOLECULE
NONAME
46 47 1 0 0 
SMALL
USER_CHARGES


@<TRIPOS>ATOM
  1 N       -0.2380    -0.4160     0.1530 N.ar  1 <1>  -0.6200 
  2 C        0.1080    -1.6290     0.5210 C.ar  1 <1>   0.7710 
  3 C        0.7160     0.4810    -0.0310 C.ar  1 <1>   0.4100 
  4 N        1.3830    -1.9960     0.7320 N.ar  1 <1>  -0.1790 
  5 N       -0.9040    -2.4910     0.6800 N.pl3 1 <1>  -0.8690 
  6 N        0.3430     1.7280    -0.4310 N.pl3 1 <1>  -0.8380 
  7 C        2.0700     0.1490     0.1840 C.ar  1 <1>  -0.1500 
  8 C        2.3940    -1.1080     0.5690 C.ar  1 <1>   0.2110 
  9 C       -0.9990    -3.9240     1.0310 C.3   1 <1>   0.2090 
 10 C        1.2480     2.7090    -1.0890 C.3   1 <1>   0.2090 
 11 C       -1.0850     2.1800    -0.3880 C.3   1 <1>   0.1290 
 12 C       -2.2640    -4.4840     0.3750 C.3   1 <1>  -0.1600 
 13 C        1.7630     3.7000    -0.0490 C.3   1 <1>  -0.2400 
 14 C       -2.5030    -5.9570     0.7340 C.3   1 <1>   0.3540 
 15 N       -3.8070    -6.4090     0.1850 N.pl3 1 <1>  -0.4570 
 16 N       -4.9690    -5.9330     0.7040 N.2   1 <1>  -0.2600 
 17 C       -4.0680    -7.2760    -0.7790 C.cat 1 <1>   0.6560 
 18 C       -5.8890    -6.5280     0.0310 C.2   1 <1>   0.4850 
 19 N       -5.3690    -7.3670    -0.8960 N.pl3 1 <1>  -0.7000 
 20 C       -3.0670    -8.0450    -1.6130 C.3   1 <1>  -0.0960 
 21 C       -7.3780    -6.3450     0.2190 C.3   1 <1>  -0.0720 
 22 H        1.5400    -2.9500     1.0330 H     1 <1>   0.4570 
 23 H       -1.8150    -2.0360     0.5320 H     1 <1>   0.4000 
 24 H        2.8260     0.8980     0.0500 H     1 <1>   0.1500 
 25 H        3.4100    -1.4200     0.7510 H     1 <1>   0.1500 
 26 H       -1.0690    -4.0220     2.1040 H     1 <1>   0.0800 
 27 H       -0.1310    -4.4570     0.6810 H     1 <1>   0.0800 
 28 H        0.7120     3.2360    -1.8610 H     1 <1>   0.0800 
 29 H        2.0720     2.2020    -1.5620 H     1 <1>   0.0800 
 30 H       -1.6220     1.6760     0.3970 H     1 <1>   0.0800 
 31 H       -1.5610     1.9640    -1.3290 H     1 <1>   0.0800 
 32 H       -1.1390     3.2380    -0.2020 H     1 <1>   0.0800 
 33 H       -2.1840    -4.3900    -0.6940 H     1 <1>   0.0800 
 34 H       -3.1070    -3.9070     0.7150 H     1 <1>   0.0800 
 35 H        0.9450     4.2520     0.3780 H     1 <1>   0.0800 
 36 H        2.4340     4.3980    -0.5150 H     1 <1>   0.0800 
 37 H        2.2900     3.1880     0.7350 H     1 <1>   0.0800 
 38 H       -2.5290    -6.0730     1.8050 H     1 <1>   0.0800 
 39 H       -1.7070    -6.5690     0.3470 H     1 <1>   0.0800 
 40 H       -5.9040    -7.9460    -1.5420 H     1 <1>   0.4500 
 41 H       -2.4340    -7.3610    -2.1480 H     1 <1>   0.0800 
 42 H       -3.5750    -8.6700    -2.3230 H     1 <1>   0.0800 
 43 H       -2.4630    -8.6670    -0.9790 H     1 <1>   0.0800 
 44 H       -7.5650    -5.6350     1.0040 H     1 <1>   0.0800 
 45 H       -7.8320    -7.2810     0.4860 H     1 <1>   0.0800 
 46 H       -7.8220    -5.9810    -0.6890 H     1 <1>   0.0800 
@<TRIPOS>BOND
  1   1   2  ar  
  2   1   3  ar  
  3   2   4  ar  
  4   2   5  1   
  5   3   6  1   
  6   3   7  ar  
  7   4   8  ar  
  8   4  22  1   
  9   5   9  1   
 10   5  23  1   
 11   6  10  1   
 12   6  11  1   
 13   7   8  ar  
 14   7  24  1   
 15   8  25  1   
 16   9  12  1   
 17   9  26  1   
 18   9  27  1   
 19  10  13  1   
 20  10  28  1   
 21  10  29  1   
 22  11  30  1   
 23  11  31  1   
 24  11  32  1   
 25  12  14  1   
 26  12  33  1   
 27  12  34  1   
 28  13  35  1   
 29  13  36  1   
 30  13  37  1   
 31  14  15  1   
 32  14  38  1   
 33  14  39  1   
 34  15  16  1   
 35  15  17  ar  
 36  16  18  2   
 37  17  19  ar  
 38  17  20  1   
 39  18  19  1   
 40  18  21  1   
 41  19  40  1   
 42  20  41  1   
 43  20  42  1   
 44  20  43  1   
 45  21  44  1   
 46  21  45  1   
 47  21  46  1   
@<TRIPOS>SUBSTRUCTURE
  1 ****   5 GROUP 4 **** **** 0

# MOE 2024.06 (io_trps.svl 2023.06)
