@<TRIPOS>MOLECULE
NONAME
52 55 1 0 0 
SMALL
USER_CHARGES


@<TRIPOS>ATOM
  1 O        0.6120     0.0220     0.2910 O.3   1 <1>  -0.6800 
  2 C        1.8190    -0.1920    -0.3610 C.3   1 <1>   0.2000 
  3 C        2.5360    -1.4080     0.2210 C.3   1 <1>  -0.0800 
  4 C        2.7790     0.9740    -0.1390 C.3   1 <1>   0.2090 
  5 C        4.0210    -1.1170    -0.0010 C.3   1 <1>   0.2090 
  6 C        2.0840    -2.7420    -0.3990 C.3   1 <1>   0.0210 
  7 N        4.1400     0.3640    -0.0870 N.pl3 1 <1>  -0.8380 
  8 C        2.9610    -3.9080     0.0240 C.2   1 <1>   0.1080 
  9 C        5.2810     1.0920     0.0100 C.ar  1 <1>   0.4100 
 10 N        3.4470    -4.0430     1.2200 N.2   1 <1>  -0.7070 
 11 C        3.3360    -4.9530    -0.8130 C.2   1 <1>  -0.1500 
 12 N        5.1640     2.4060     0.0240 N.ar  1 <1>  -0.6200 
 13 C        6.5410     0.4680     0.0930 C.ar  1 <1>  -0.1500 
 14 N        4.1410    -5.1960     1.1800 N.pl3 1 <1>   0.3000 
 15 C        4.0930    -5.7630    -0.0440 C.2   1 <1>  -0.3320 
 16 C        6.2640     3.1340     0.1340 C.ar  1 <1>   0.7710 
 17 C        7.6540     1.2310     0.2060 C.ar  1 <1>   0.2180 
 18 C        4.7780    -7.0690    -0.4050 C.3   1 <1>  -0.0600 
 19 N        7.4820     2.5730     0.2270 N.ar  1 <1>  -0.1790 
 20 N        6.1640     4.4860     0.1560 N.pl3 1 <1>  -0.8380 
 21 C        9.0590     0.6640     0.3070 C.3   1 <1>  -0.0970 
 22 C        7.2500     5.5010     0.2130 C.3   1 <1>   0.2090 
 23 C        4.8370     5.1640     0.0990 C.3   1 <1>   0.2090 
 24 C        6.5680     6.8270    -0.0950 C.3   1 <1>  -0.1600 
 25 C        5.1280     6.6340     0.3630 C.3   1 <1>  -0.1600 
 26 H        0.0590    -0.7820     0.2690 H     1 <1>   0.4000 
 27 H        1.6300    -0.3090    -1.4140 H     1 <1>   0.0800 
 28 H        2.3800    -1.4370     1.2860 H     1 <1>   0.0800 
 29 H        2.5720     1.4550     0.8020 H     1 <1>   0.0800 
 30 H        2.7120     1.6870    -0.9420 H     1 <1>   0.0800 
 31 H        4.3580    -1.5520    -0.9270 H     1 <1>   0.0800 
 32 H        4.6020    -1.5110     0.8160 H     1 <1>   0.0800 
 33 H        2.1040    -2.6700    -1.4720 H     1 <1>   0.0800 
 34 H        1.0740    -2.9520    -0.0970 H     1 <1>   0.0800 
 35 H        3.0650    -5.0700    -1.8470 H     1 <1>   0.1500 
 36 H        6.5950    -0.6030     0.0660 H     1 <1>   0.1500 
 37 H        4.6300    -5.5700     2.0020 H     1 <1>   0.2700 
 38 H        4.5890    -7.3130    -1.4360 H     1 <1>   0.0800 
 39 H        4.4040    -7.8680     0.2090 H     1 <1>   0.0800 
 40 H        5.8410    -6.9850    -0.2630 H     1 <1>   0.0800 
 41 H        8.2510     3.2210     0.3200 H     1 <1>   0.4570 
 42 H        9.0330    -0.4110     0.2760 H     1 <1>   0.0800 
 43 H        9.5190     0.9610     1.2340 H     1 <1>   0.0800 
 44 H        9.6640     1.0080    -0.5130 H     1 <1>   0.0800 
 45 H        7.6620     5.5320     1.2090 H     1 <1>   0.0800 
 46 H        8.0250     5.3010    -0.5070 H     1 <1>   0.0800 
 47 H        4.4150     5.0370    -0.8850 H     1 <1>   0.0800 
 48 H        4.1580     4.7610     0.8330 H     1 <1>   0.0800 
 49 H        7.0470     7.6520     0.4020 H     1 <1>   0.0800 
 50 H        6.5920     6.9990    -1.1570 H     1 <1>   0.0800 
 51 H        4.4400     7.2760    -0.1580 H     1 <1>   0.0800 
 52 H        5.0470     6.8220     1.4200 H     1 <1>   0.0800 
@<TRIPOS>BOND
  1   1   2  1   
  2   1  26  1   
  3   2   3  1   
  4   2   4  1   
  5   2  27  1   
  6   3   5  1   
  7   3   6  1   
  8   3  28  1   
  9   4   7  1   
 10   4  29  1   
 11   4  30  1   
 12   5   7  1   
 13   5  31  1   
 14   5  32  1   
 15   6   8  1   
 16   6  33  1   
 17   6  34  1   
 18   7   9  1   
 19   8  10  2   
 20   8  11  1   
 21   9  12  ar  
 22   9  13  ar  
 23  10  14  1   
 24  11  15  2   
 25  11  35  1   
 26  12  16  ar  
 27  13  17  ar  
 28  13  36  1   
 29  14  15  1   
 30  14  37  1   
 31  15  18  1   
 32  16  19  ar  
 33  16  20  1   
 34  17  19  ar  
 35  17  21  1   
 36  18  38  1   
 37  18  39  1   
 38  18  40  1   
 39  19  41  1   
 40  20  22  1   
 41  20  23  1   
 42  21  42  1   
 43  21  43  1   
 44  21  44  1   
 45  22  24  1   
 46  22  45  1   
 47  22  46  1   
 48  23  25  1   
 49  23  47  1   
 50  23  48  1   
 51  24  25  1   
 52  24  49  1   
 53  24  50  1   
 54  25  51  1   
 55  25  52  1   
@<TRIPOS>SUBSTRUCTURE
  1 ****   7 GROUP 4 **** **** 0

# MOE 2024.06 (io_trps.svl 2023.06)
