@<TRIPOS>MOLECULE
NONAME
45 47 1 0 0 
SMALL
USER_CHARGES


@<TRIPOS>ATOM
  1 O       -0.9930     0.1200     2.5570 O.2   1 <1>  -0.5700 
  2 C       -1.5460     0.7500     1.6860 C.2   1 <1>   0.5690 
  3 N       -2.3870     0.1330     0.7960 N.am  1 <1>  -0.6600 
  4 C       -1.2760     2.2580     1.6140 C.3   1 <1>   0.2010 
  5 C       -3.1070     0.7660    -0.3400 C.3   1 <1>   0.1400 
  6 C       -2.6200    -1.3330     0.7980 C.3   1 <1>   0.1400 
  7 N       -0.7390     2.7060     0.2890 N.am  1 <1>  -0.7300 
  8 C       -4.1330    -0.2800    -0.7670 C.3   1 <1>   0.2000 
  9 C       -3.4310    -1.6130    -0.4750 C.3   1 <1>  -0.0800 
 10 C       -1.1850     3.6910    -0.5180 C.2   1 <1>   0.5690 
 11 O       -5.2460    -0.1480     0.0510 O.3   1 <1>  -0.6800 
 12 C       -4.3760    -2.8280    -0.3680 C.3   1 <1>  -0.0170 
 13 O       -0.7720     3.7760    -1.6430 O.2   1 <1>  -0.5700 
 14 C       -2.2160     4.6820    -0.0370 C.3   1 <1>  -0.1790 
 15 C       -3.7140    -4.2040    -0.2170 C.ar  1 <1>  -0.1440 
 16 C       -4.5110    -5.3350     0.0960 C.ar  1 <1>   0.0000 
 17 C       -2.3740    -4.4200    -0.3790 C.ar  1 <1>  -0.1500 
 18 C       -3.8620    -6.5860     0.2440 C.ar  1 <1>   0.3100 
 19 C       -5.9160    -5.3000     0.2630 C.ar  1 <1>  -0.1500 
 20 C       -1.8340    -5.7010    -0.2150 C.ar  1 <1>   0.1600 
 21 N       -2.5260    -6.7510     0.0870 N.ar  1 <1>  -0.6200 
 22 C       -4.6280    -7.7190     0.5640 C.ar  1 <1>  -0.1500 
 23 C       -6.6340    -6.4240     0.5720 C.ar  1 <1>  -0.1500 
 24 C       -5.9840    -7.6500     0.7280 C.ar  1 <1>  -0.1500 
 25 H       -0.5590     2.5080     2.3760 H     1 <1>   0.0800 
 26 H       -2.1900     2.7730     1.8410 H     1 <1>   0.0800 
 27 H       -3.5780     1.6920    -0.0590 H     1 <1>   0.0800 
 28 H       -2.4120     0.9430    -1.1430 H     1 <1>   0.0800 
 29 H       -1.6830    -1.8630     0.8070 H     1 <1>   0.0800 
 30 H       -3.1800    -1.5970     1.6790 H     1 <1>   0.0800 
 31 H        0.0020     2.1190    -0.1030 H     1 <1>   0.3700 
 32 H       -4.4450    -0.1730    -1.7920 H     1 <1>   0.0800 
 33 H       -2.7410    -1.7800    -1.2830 H     1 <1>   0.0800 
 34 H       -4.9520    -0.1310     0.9840 H     1 <1>   0.4000 
 35 H       -5.0000    -2.8530    -1.2450 H     1 <1>   0.0800 
 36 H       -5.0200    -2.6740     0.4800 H     1 <1>   0.0800 
 37 H       -1.9130     5.1000     0.9040 H     1 <1>   0.0800 
 38 H       -3.1690     4.1990     0.0690 H     1 <1>   0.0800 
 39 H       -2.3100     5.4780    -0.7520 H     1 <1>   0.0800 
 40 H       -1.6830    -3.6410    -0.6360 H     1 <1>   0.1500 
 41 H       -6.4430    -4.3730     0.1430 H     1 <1>   0.1500 
 42 H       -0.7720    -5.8190    -0.3480 H     1 <1>   0.1500 
 43 H       -4.1060    -8.6510     0.6750 H     1 <1>   0.1500 
 44 H       -7.7020    -6.3790     0.6980 H     1 <1>   0.1500 
 45 H       -6.5590    -8.5270     0.9720 H     1 <1>   0.1500 
@<TRIPOS>BOND
  1   1   2  2   
  2   2   3  am  
  3   2   4  1   
  4   3   5  1   
  5   3   6  1   
  6   4   7  1   
  7   4  25  1   
  8   4  26  1   
  9   5   8  1   
 10   5  27  1   
 11   5  28  1   
 12   6   9  1   
 13   6  29  1   
 14   6  30  1   
 15   7  10  am  
 16   7  31  1   
 17   8   9  1   
 18   8  11  1   
 19   8  32  1   
 20   9  12  1   
 21   9  33  1   
 22  10  13  2   
 23  10  14  1   
 24  11  34  1   
 25  12  15  1   
 26  12  35  1   
 27  12  36  1   
 28  14  37  1   
 29  14  38  1   
 30  14  39  1   
 31  15  16  ar  
 32  15  17  ar  
 33  16  18  ar  
 34  16  19  ar  
 35  17  20  ar  
 36  17  40  1   
 37  18  21  ar  
 38  18  22  ar  
 39  19  23  ar  
 40  19  41  1   
 41  20  21  ar  
 42  20  42  1   
 43  22  24  ar  
 44  22  43  1   
 45  23  24  ar  
 46  23  44  1   
 47  24  45  1   
@<TRIPOS>SUBSTRUCTURE
  1 ****   9 GROUP 4 **** **** 0

# MOE 2024.06 (io_trps.svl 2023.06)
