@<TRIPOS>MOLECULE
NONAME
56 58 1 0 0 
SMALL
USER_CHARGES


@<TRIPOS>ATOM
  1 O       -0.3860    -1.1310     1.1190 O.2   1 <1>  -0.5700 
  2 C       -1.0280    -0.2060     0.6620 C.2   1 <1>   0.5690 
  3 N       -2.3730    -0.3830     0.4220 N.am  1 <1>  -0.6600 
  4 C       -0.2940     1.1550     0.4240 C.3   1 <1>   0.3410 
  5 C       -3.3340     0.6070    -0.1120 C.3   1 <1>   0.1400 
  6 C       -3.0560    -1.6700     0.6790 C.3   1 <1>   0.1400 
  7 O       -0.7890     1.7560    -0.7790 O.3   1 <1>  -0.3630 
  8 C        1.2240     0.9570     0.2430 C.3   1 <1>  -0.2400 
  9 C       -0.5370     2.0820     1.6320 C.3   1 <1>  -0.2400 
 10 C       -4.7130     0.0850     0.3020 C.3   1 <1>  -0.0800 
 11 C       -4.5370    -1.4450     0.3510 C.3   1 <1>  -0.0800 
 12 C       -0.5410     3.0460    -1.1040 C.ar  1 <1>   0.0820 
 13 C       -5.9210     0.5880    -0.5470 C.3   1 <1>   0.2800 
 14 C       -4.9500    -2.0900    -0.9810 C.3   1 <1>  -0.1600 
 15 C       -1.4340     4.0360    -0.7230 C.ar  1 <1>  -0.1500 
 16 C        0.5750     3.3710    -1.8600 C.ar  1 <1>  -0.1500 
 17 O       -5.5120     0.8870    -1.8330 O.3   1 <1>  -0.6800 
 18 C       -6.9770    -0.5260    -0.6730 C.3   1 <1>  -0.1600 
 19 C       -6.5660     1.8690     0.0280 C.3   1 <1>  -0.1600 
 20 C       -6.4320    -1.8260    -1.3040 C.3   1 <1>  -0.1600 
 21 C       -1.1990     5.3580    -1.0640 C.ar  1 <1>  -0.1440 
 22 C        0.8140     4.6910    -2.2000 C.ar  1 <1>  -0.1500 
 23 C       -5.6380     3.0920     0.1380 C.3   1 <1>  -0.2400 
 24 C       -0.0680     5.6800    -1.7980 C.ar  1 <1>  -0.1500 
 25 C       -2.1700     6.4450    -0.6390 C.3   1 <1>  -0.0970 
 26 H       -3.1520     1.5860     0.2850 H     1 <1>   0.0800 
 27 H       -3.2220     0.6320    -1.1820 H     1 <1>   0.0800 
 28 H       -2.6230    -2.4460     0.0710 H     1 <1>   0.0800 
 29 H       -2.9340    -1.9270     1.7170 H     1 <1>   0.0800 
 30 H        1.6360     0.4590     1.1020 H     1 <1>   0.0800 
 31 H        1.7300     1.8990     0.1390 H     1 <1>   0.0800 
 32 H        1.4120     0.3450    -0.6210 H     1 <1>   0.0800 
 33 H       -0.1960     1.5950     2.5270 H     1 <1>   0.0800 
 34 H       -1.5840     2.2890     1.7480 H     1 <1>   0.0800 
 35 H        0.0050     3.0050     1.5310 H     1 <1>   0.0800 
 36 H       -4.8730     0.3960     1.3190 H     1 <1>   0.0800 
 37 H       -5.1400    -1.8690     1.1350 H     1 <1>   0.0800 
 38 H       -4.3410    -1.6730    -1.7670 H     1 <1>   0.0800 
 39 H       -4.7680    -3.1500    -0.9570 H     1 <1>   0.0800 
 40 H       -2.3090     3.7660    -0.1640 H     1 <1>   0.1500 
 41 H        1.2450     2.5950    -2.1800 H     1 <1>   0.1500 
 42 H       -6.2870     1.1220    -2.3720 H     1 <1>   0.4000 
 43 H       -7.3300    -0.7570     0.3170 H     1 <1>   0.0800 
 44 H       -7.8270    -0.1800    -1.2330 H     1 <1>   0.0800 
 45 H       -7.4110     2.1350    -0.5820 H     1 <1>   0.0800 
 46 H       -6.9500     1.6500     1.0090 H     1 <1>   0.0800 
 47 H       -7.0290    -2.6530    -0.9580 H     1 <1>   0.0800 
 48 H       -6.5400    -1.7770    -2.3740 H     1 <1>   0.0800 
 49 H        1.6830     4.9480    -2.7790 H     1 <1>   0.1500 
 50 H       -5.1720     3.3050    -0.8090 H     1 <1>   0.0800 
 51 H       -4.8730     2.9280     0.8740 H     1 <1>   0.0800 
 52 H       -6.2070     3.9550     0.4360 H     1 <1>   0.0800 
 53 H        0.1270     6.7040    -2.0660 H     1 <1>   0.1500 
 54 H       -2.2600     7.1860    -1.4130 H     1 <1>   0.0800 
 55 H       -1.8150     6.9190     0.2580 H     1 <1>   0.0800 
 56 H       -3.1440     6.0310    -0.4520 H     1 <1>   0.0800 
@<TRIPOS>BOND
  1   1   2  2   
  2   2   3  am  
  3   2   4  1   
  4   3   5  1   
  5   3   6  1   
  6   4   7  1   
  7   4   8  1   
  8   4   9  1   
  9   5  10  1   
 10   5  26  1   
 11   5  27  1   
 12   6  11  1   
 13   6  28  1   
 14   6  29  1   
 15   7  12  1   
 16   8  30  1   
 17   8  31  1   
 18   8  32  1   
 19   9  33  1   
 20   9  34  1   
 21   9  35  1   
 22  10  11  1   
 23  10  13  1   
 24  10  36  1   
 25  11  14  1   
 26  11  37  1   
 27  12  15  ar  
 28  12  16  ar  
 29  13  17  1   
 30  13  18  1   
 31  13  19  1   
 32  14  20  1   
 33  14  38  1   
 34  14  39  1   
 35  15  21  ar  
 36  15  40  1   
 37  16  22  ar  
 38  16  41  1   
 39  17  42  1   
 40  18  20  1   
 41  18  43  1   
 42  18  44  1   
 43  19  23  1   
 44  19  45  1   
 45  19  46  1   
 46  20  47  1   
 47  20  48  1   
 48  21  24  ar  
 49  21  25  1   
 50  22  24  ar  
 51  22  49  1   
 52  23  50  1   
 53  23  51  1   
 54  23  52  1   
 55  24  53  1   
 56  25  54  1   
 57  25  55  1   
 58  25  56  1   
@<TRIPOS>SUBSTRUCTURE
  1 ****   5 GROUP 4 **** **** 0

# MOE 2024.06 (io_trps.svl 2023.06)
