@<TRIPOS>MOLECULE
NONAME
49 51 1 0 0 
SMALL
USER_CHARGES


@<TRIPOS>ATOM
  1 S        0.0630    -0.8520     1.5210 S.3   1 <1>  -0.3320 
  2 C       -0.0260    -2.2110     0.3730 C.ar  1 <1>   0.7720 
  3 C        1.8050    -0.2210     1.5850 C.3   1 <1>  -0.0100 
  4 N       -1.1770    -2.7660     0.1940 N.ar  1 <1>  -0.6200 
  5 N        1.1160    -2.5830    -0.2380 N.ar  1 <1>  -0.1790 
  6 C       -1.2400    -3.7860    -0.6790 C.ar  1 <1>   0.4100 
  7 C        1.1090    -3.6010    -1.1110 C.ar  1 <1>   0.4610 
  8 N       -2.4670    -4.3470    -0.8640 N.pl3 1 <1>  -0.8380 
  9 C       -0.1040    -4.2200    -1.3390 C.ar  1 <1>  -0.1500 
 10 N        2.2550    -3.9720    -1.7210 N.pl3 1 <1>  -0.9000 
 11 C       -2.7010    -5.8140    -1.0150 C.3   1 <1>   0.2090 
 12 C       -3.7200    -3.5260    -0.8150 C.3   1 <1>   0.2090 
 13 C       -3.6480    -6.3440     0.1000 C.3   1 <1>   0.4230 
 14 C       -4.5970    -4.0290     0.3330 C.3   1 <1>  -0.1600 
 15 N       -3.8590    -7.8580     0.0760 N.4   1 <1>  -0.9590 
 16 C       -4.9720    -5.5310     0.2040 C.3   1 <1>   0.0000 
 17 C       -5.0460    -8.3220     0.8700 C.3   1 <1>   0.3430 
 18 C       -3.9010    -8.4890    -1.2850 C.3   1 <1>   0.2630 
 19 C       -5.7400    -5.9550     1.4900 C.3   1 <1>  -0.1600 
 20 C       -5.8510    -5.7700    -1.0570 C.3   1 <1>   0.1200 
 21 C       -5.3590    -7.3540     2.0090 C.3   1 <1>  -0.1600 
 22 O       -6.9110    -4.8820    -1.1200 O.3   1 <1>  -0.6800 
 23 H        1.8160     0.6010     2.2810 H     1 <1>   0.0800 
 24 H        2.0850     0.1260     0.6060 H     1 <1>   0.0800 
 25 H        2.4470    -1.0080     1.9380 H     1 <1>   0.0800 
 26 H        1.9690    -2.0850    -0.0310 H     1 <1>   0.4570 
 27 H       -0.1670    -5.0250    -2.0440 H     1 <1>   0.1500 
 28 H        3.1880    -3.5620    -1.5950 H     1 <1>   0.4000 
 29 H        2.2800    -4.7290    -2.4190 H     1 <1>   0.4000 
 30 H       -3.1240    -5.9880    -1.9890 H     1 <1>   0.0800 
 31 H       -1.7640    -6.3360    -0.9480 H     1 <1>   0.0800 
 32 H       -3.4940    -2.4830    -0.6650 H     1 <1>   0.0800 
 33 H       -4.2450    -3.6050    -1.7530 H     1 <1>   0.0800 
 34 H       -3.1280    -6.1310     1.0190 H     1 <1>   0.0800 
 35 H       -4.0560    -3.8550     1.2480 H     1 <1>   0.0800 
 36 H       -5.4820    -3.4190     0.3790 H     1 <1>   0.0800 
 37 H       -3.0400    -8.2510     0.5630 H     1 <1>   0.4500 
 38 H       -5.9130    -8.3850     0.2310 H     1 <1>   0.0800 
 39 H       -4.8590    -9.3070     1.2690 H     1 <1>   0.0800 
 40 H       -4.7280    -8.1020    -1.8580 H     1 <1>   0.0800 
 41 H       -4.0180    -9.5580    -1.1980 H     1 <1>   0.0800 
 42 H       -2.9880    -8.2960    -1.8240 H     1 <1>   0.0800 
 43 H       -5.5570    -5.2570     2.2900 H     1 <1>   0.0800 
 44 H       -6.8020    -5.9260     1.3110 H     1 <1>   0.0800 
 45 H       -6.2650    -6.7620    -1.0700 H     1 <1>   0.0800 
 46 H       -5.2860    -5.6280    -1.9610 H     1 <1>   0.0800 
 47 H       -6.1730    -7.7460     2.5940 H     1 <1>   0.0800 
 48 H       -4.5060    -7.2890     2.6630 H     1 <1>   0.0800 
 49 H       -7.5240    -4.9780    -0.3640 H     1 <1>   0.4000 
@<TRIPOS>BOND
  1   1   2  1   
  2   1   3  1   
  3   2   4  ar  
  4   2   5  ar  
  5   3  23  1   
  6   3  24  1   
  7   3  25  1   
  8   4   6  ar  
  9   5   7  ar  
 10   5  26  1   
 11   6   8  1   
 12   6   9  ar  
 13   7   9  ar  
 14   7  10  1   
 15   8  11  1   
 16   8  12  1   
 17   9  27  1   
 18  10  28  1   
 19  10  29  1   
 20  11  13  1   
 21  11  30  1   
 22  11  31  1   
 23  12  14  1   
 24  12  32  1   
 25  12  33  1   
 26  13  15  1   
 27  13  16  1   
 28  13  34  1   
 29  14  16  1   
 30  14  35  1   
 31  14  36  1   
 32  15  17  1   
 33  15  18  1   
 34  15  37  1   
 35  16  19  1   
 36  16  20  1   
 37  17  21  1   
 38  17  38  1   
 39  17  39  1   
 40  18  40  1   
 41  18  41  1   
 42  18  42  1   
 43  19  21  1   
 44  19  43  1   
 45  19  44  1   
 46  20  22  1   
 47  20  45  1   
 48  20  46  1   
 49  21  47  1   
 50  21  48  1   
 51  22  49  1   
@<TRIPOS>SUBSTRUCTURE
  1 ****   8 GROUP 4 **** **** 0

# MOE 2024.06 (io_trps.svl 2023.06)
