@<TRIPOS>MOLECULE
NONAME
38 39 1 0 0 
SMALL
USER_CHARGES


@<TRIPOS>ATOM
  1 O        0.6790    -0.3350     2.0590 O.co2 1 <1>  -0.9000 
  2 C        1.8060    -0.5570     1.5970 C.2   1 <1>   0.9060 
  3 O        2.4430    -1.5600     1.9530 O.co2 1 <1>  -0.9000 
  4 C        2.4360     0.4700     0.6220 C.3   1 <1>  -0.1060 
  5 C        3.8030    -0.1300     0.1570 C.3   1 <1>   0.2000 
  6 C        2.6570     1.7740     1.4540 C.3   1 <1>  -0.1600 
  7 C        1.4390     0.6920    -0.5670 C.3   1 <1>  -0.1600 
  8 O        4.2560     0.4080    -1.0470 O.3   1 <1>  -0.6800 
  9 C        4.8920     0.1790     1.2000 C.3   1 <1>   0.2090 
 10 C        3.9400     2.5350     1.1010 C.3   1 <1>   0.2090 
 11 C        1.6070     1.9590    -1.4340 C.3   1 <1>  -0.1600 
 12 N        5.1540     1.6660     1.2620 N.pl3 1 <1>  -0.8380 
 13 C        0.5600     1.9930    -2.5510 C.3   1 <1>  -0.2400 
 14 C        6.3380     2.0950     0.7050 C.ar  1 <1>   0.4100 
 15 N        6.2880     2.5600    -0.5380 N.ar  1 <1>  -0.6200 
 16 C        7.5140     2.0010     1.4420 C.ar  1 <1>  -0.1500 
 17 C        7.4440     2.9380    -1.0560 C.ar  1 <1>   0.1600 
 18 C        8.7100     2.4000     0.8910 C.ar  1 <1>  -0.1500 
 19 C        8.6620     2.8830    -0.4010 C.ar  1 <1>  -0.1500 
 20 H        3.7160    -1.1910     0.0000 H     1 <1>   0.0800 
 21 H        2.7300     1.5210     2.4980 H     1 <1>   0.0800 
 22 H        1.8020     2.4180     1.3710 H     1 <1>   0.0800 
 23 H        1.4830    -0.1770    -1.2010 H     1 <1>   0.0800 
 24 H        0.4410     0.7250    -0.1650 H     1 <1>   0.0800 
 25 H        4.7940     1.2050    -0.8070 H     1 <1>   0.4000 
 26 H        5.7910    -0.3500     0.9370 H     1 <1>   0.0800 
 27 H        4.5780    -0.1720     2.1680 H     1 <1>   0.0800 
 28 H        4.0390     3.3910     1.7450 H     1 <1>   0.0800 
 29 H        3.8680     2.8900     0.0870 H     1 <1>   0.0800 
 30 H        1.4890     2.8400    -0.8300 H     1 <1>   0.0800 
 31 H        2.5820     1.9920    -1.8810 H     1 <1>   0.0800 
 32 H       -0.4320     1.9880    -2.1340 H     1 <1>   0.0800 
 33 H        0.6730     1.1350    -3.1900 H     1 <1>   0.0800 
 34 H        0.6830     2.8820    -3.1430 H     1 <1>   0.0800 
 35 H        7.4600     1.6120     2.4400 H     1 <1>   0.1500 
 36 H        7.4190     3.3140    -2.0640 H     1 <1>   0.1500 
 37 H        9.6340     2.3390     1.4390 H     1 <1>   0.1500 
 38 H        9.5580     3.2120    -0.8950 H     1 <1>   0.1500 
@<TRIPOS>BOND
  1   1   2  ar  
  2   2   3  ar  
  3   2   4  1   
  4   4   5  1   
  5   4   6  1   
  6   4   7  1   
  7   5   8  1   
  8   5   9  1   
  9   5  20  1   
 10   6  10  1   
 11   6  21  1   
 12   6  22  1   
 13   7  11  1   
 14   7  23  1   
 15   7  24  1   
 16   8  25  1   
 17   9  12  1   
 18   9  26  1   
 19   9  27  1   
 20  10  12  1   
 21  10  28  1   
 22  10  29  1   
 23  11  13  1   
 24  11  30  1   
 25  11  31  1   
 26  12  14  1   
 27  13  32  1   
 28  13  33  1   
 29  13  34  1   
 30  14  15  ar  
 31  14  16  ar  
 32  15  17  ar  
 33  16  18  ar  
 34  16  35  1   
 35  17  19  ar  
 36  17  36  1   
 37  18  19  ar  
 38  18  37  1   
 39  19  38  1   
@<TRIPOS>SUBSTRUCTURE
  1 ****  12 GROUP 4 **** **** 0

# MOE 2024.06 (io_trps.svl 2023.06)
