@<TRIPOS>MOLECULE
NONAME
50 53 1 0 0 
SMALL
USER_CHARGES


@<TRIPOS>ATOM
  1 S       -0.0560     0.1120    -2.0950 S.o2  1 <1>   1.4470 
  2 O       -0.3530    -0.8980    -3.0880 O.2   1 <1>  -0.6500 
  3 O        0.3810     1.4240    -2.5220 O.2   1 <1>  -0.6500 
  4 N       -1.4560     0.3300    -1.1630 N.am  1 <1>  -0.8490 
  5 C        1.1200    -0.5740    -0.8960 C.ar  1 <1>  -0.0090 
  6 C       -1.3130     1.4340    -0.2080 C.3   1 <1>   0.1960 
  7 C       -2.6320     0.5460    -2.0120 C.3   1 <1>   0.1960 
  8 C        2.3440     0.0400    -0.6480 C.ar  1 <1>  -0.1500 
  9 C        0.8180    -1.7300    -0.1850 C.ar  1 <1>  -0.1500 
 10 C       -2.5220     1.4650     0.7260 C.3   1 <1>  -0.1600 
 11 C       -3.8980     0.5620    -1.1540 C.3   1 <1>  -0.1600 
 12 C        3.2380    -0.4750     0.2750 C.ar  1 <1>  -0.1430 
 13 C        1.7020    -2.2570     0.7390 C.ar  1 <1>  -0.1500 
 14 C       -3.8200     1.6350    -0.0690 C.3   1 <1>   0.4180 
 15 C        2.9200    -1.6360     0.9730 C.ar  1 <1>   0.1170 
 16 C        4.5620     0.2320     0.5540 C.3   1 <1>  -0.0160 
 17 O       -3.7950     2.8690    -0.7430 O.3   1 <1>  -0.5600 
 18 C       -5.0430     1.5460     0.8400 C.2   1 <1>  -0.2880 
 19 N        3.8330    -2.1580     1.8890 N.am  1 <1>  -0.5470 
 20 C        5.6530    -0.7650     0.9790 C.3   1 <1>  -0.0990 
 21 C       -4.1510     4.0110    -0.0150 C.3   1 <1>   0.1200 
 22 C       -5.8740     2.5630     1.0800 C.2   1 <1>  -0.2760 
 23 C        5.1280    -1.7700     1.9860 C.2   1 <1>   0.5690 
 24 C       -5.6090     3.9210     0.4550 C.3   1 <1>  -0.0220 
 25 C       -7.1150     2.4750     1.9490 C.3   1 <1>  -0.1020 
 26 O        5.8550    -2.2210     2.8340 O.2   1 <1>  -0.5700 
 27 H       -1.2280     2.3720    -0.7340 H     1 <1>   0.0800 
 28 H       -0.4220     1.2960     0.3810 H     1 <1>   0.0800 
 29 H       -2.7160    -0.2500    -2.7330 H     1 <1>   0.0800 
 30 H       -2.5330     1.4760    -2.5500 H     1 <1>   0.0800 
 31 H        2.5920     0.9390    -1.1880 H     1 <1>   0.1500 
 32 H       -0.1250    -2.2200    -0.3630 H     1 <1>   0.1500 
 33 H       -2.4190     2.2570     1.4430 H     1 <1>   0.0800 
 34 H       -2.5580     0.5410     1.2730 H     1 <1>   0.0800 
 35 H       -4.0170    -0.4050    -0.7020 H     1 <1>   0.0800 
 36 H       -4.7580     0.7450    -1.7710 H     1 <1>   0.0800 
 37 H        1.4480    -3.1540     1.2740 H     1 <1>   0.1500 
 38 H        4.4050     0.9400     1.3500 H     1 <1>   0.0800 
 39 H        4.8910     0.7750    -0.3150 H     1 <1>   0.0800 
 40 H       -5.1750     0.5670     1.2650 H     1 <1>   0.1500 
 41 H        3.5450    -2.8850     2.5430 H     1 <1>   0.3700 
 42 H        6.4910    -0.2400     1.4000 H     1 <1>   0.0800 
 43 H        5.9930    -1.3110     0.1190 H     1 <1>   0.0800 
 44 H       -4.0180     4.8650    -0.6550 H     1 <1>   0.0800 
 45 H       -3.4900     4.1040     0.8280 H     1 <1>   0.0800 
 46 H       -6.2700     4.0730    -0.3790 H     1 <1>   0.0800 
 47 H       -5.7870     4.7020     1.1720 H     1 <1>   0.0800 
 48 H       -7.0390     3.1560     2.7780 H     1 <1>   0.0800 
 49 H       -7.2350     1.4790     2.3370 H     1 <1>   0.0800 
 50 H       -7.9880     2.7230     1.3730 H     1 <1>   0.0800 
@<TRIPOS>BOND
  1   1   2  2   
  2   1   3  2   
  3   1   4  am  
  4   1   5  1   
  5   4   6  1   
  6   4   7  1   
  7   5   8  ar  
  8   5   9  ar  
  9   6  10  1   
 10   6  27  1   
 11   6  28  1   
 12   7  11  1   
 13   7  29  1   
 14   7  30  1   
 15   8  12  ar  
 16   8  31  1   
 17   9  13  ar  
 18   9  32  1   
 19  10  14  1   
 20  10  33  1   
 21  10  34  1   
 22  11  14  1   
 23  11  35  1   
 24  11  36  1   
 25  12  15  ar  
 26  12  16  1   
 27  13  15  ar  
 28  13  37  1   
 29  14  17  1   
 30  14  18  1   
 31  15  19  1   
 32  16  20  1   
 33  16  38  1   
 34  16  39  1   
 35  17  21  1   
 36  18  22  2   
 37  18  40  1   
 38  19  23  am  
 39  19  41  1   
 40  20  23  1   
 41  20  42  1   
 42  20  43  1   
 43  21  24  1   
 44  21  44  1   
 45  21  45  1   
 46  22  24  1   
 47  22  25  1   
 48  23  26  2   
 49  24  46  1   
 50  24  47  1   
 51  25  48  1   
 52  25  49  1   
 53  25  50  1   
@<TRIPOS>SUBSTRUCTURE
  1 ****   6 GROUP 4 **** **** 0

# MOE 2024.06 (io_trps.svl 2023.06)
