@<TRIPOS>MOLECULE
NONAME
55 59 1 0 0 
SMALL
USER_CHARGES


@<TRIPOS>ATOM
  1 O        1.4340     3.4280    -1.0990 O.co2 1 <1>  -0.9000 
  2 C        0.7400     2.9280    -0.1940 C.2   1 <1>   0.9790 
  3 O        1.3360     2.3990     0.7610 O.co2 1 <1>  -0.9000 
  4 C       -0.6840     3.0900    -0.1740 C.ar  1 <1>  -0.1790 
  5 C       -1.2540     4.2890     0.2760 C.ar  1 <1>   0.4100 
  6 C       -1.5290     2.0820    -0.6050 C.ar  1 <1>  -0.1500 
  7 N       -2.5590     4.5310     0.2720 N.ar  1 <1>  -0.6200 
  8 N       -0.5010     5.3480     0.7460 N.pl3 1 <1>  -0.8380 
  9 C       -2.8830     2.3270    -0.5870 C.ar  1 <1>  -0.1500 
 10 C       -3.3410     3.5580    -0.1470 C.ar  1 <1>   0.1670 
 11 C        0.4350     5.1460     1.8930 C.3   1 <1>   0.2090 
 12 C       -0.1530     6.4060    -0.2340 C.3   1 <1>   0.2090 
 13 C       -4.8250     3.8520    -0.1270 C.3   1 <1>  -0.0970 
 14 C        1.9260     5.2470     1.4890 C.3   1 <1>   0.3430 
 15 C        1.3490     6.4070    -0.5860 C.3   1 <1>   0.3430 
 16 N        2.2580     6.4470     0.6270 N.4   1 <1>  -0.9590 
 17 C        3.7100     6.5080     0.2650 C.3   1 <1>   0.5030 
 18 C        4.5610     6.5860     1.5560 C.3   1 <1>  -0.1600 
 19 C        3.9800     7.7910    -0.5580 C.3   1 <1>  -0.1600 
 20 C        4.1690     5.2820    -0.5600 C.3   1 <1>  -0.1600 
 21 C        6.0600     6.7050     1.2210 C.3   1 <1>  -0.0800 
 22 C        5.4750     7.9170    -0.9060 C.3   1 <1>  -0.0800 
 23 C        5.6670     5.3990    -0.9050 C.3   1 <1>  -0.0800 
 24 C        6.2960     7.9790     0.3920 C.3   1 <1>  -0.1600 
 25 C        6.4860     5.4750     0.3970 C.3   1 <1>  -0.1600 
 26 C        5.9040     6.6830    -1.7220 C.3   1 <1>  -0.1600 
 27 H       -1.1270     1.1420    -0.9430 H     1 <1>   0.1500 
 28 H       -3.5700     1.5690    -0.9130 H     1 <1>   0.1500 
 29 H        0.2600     4.1790     2.3330 H     1 <1>   0.0800 
 30 H        0.2190     5.8820     2.6450 H     1 <1>   0.0800 
 31 H       -0.4360     7.3610     0.1690 H     1 <1>   0.0800 
 32 H       -0.7200     6.2530    -1.1370 H     1 <1>   0.0800 
 33 H       -5.0290     4.7000    -0.7540 H     1 <1>   0.0800 
 34 H       -5.1270     4.0840     0.8780 H     1 <1>   0.0800 
 35 H       -5.3930     3.0120    -0.4780 H     1 <1>   0.0800 
 36 H        2.2060     4.3550     0.9620 H     1 <1>   0.0800 
 37 H        2.5070     5.2650     2.3930 H     1 <1>   0.0800 
 38 H        1.5350     7.2580    -1.2140 H     1 <1>   0.0800 
 39 H        1.5600     5.5320    -1.1700 H     1 <1>   0.0800 
 40 H        2.0270     7.2840     1.1630 H     1 <1>   0.4500 
 41 H        4.4410     5.6980     2.1490 H     1 <1>   0.0800 
 42 H        4.2640     7.4340     2.1460 H     1 <1>   0.0800 
 43 H        3.6740     8.6590    -0.0020 H     1 <1>   0.0800 
 44 H        3.4390     7.7720    -1.4850 H     1 <1>   0.0800 
 45 H        3.6120     5.2030    -1.4750 H     1 <1>   0.0800 
 46 H        4.0140     4.3690    -0.0120 H     1 <1>   0.0800 
 47 H        6.6380     6.7500     2.1290 H     1 <1>   0.0800 
 48 H        5.6440     8.8100    -1.4850 H     1 <1>   0.0800 
 49 H        5.9730     4.5390    -1.4780 H     1 <1>   0.0800 
 50 H        7.3430     8.0680     0.1560 H     1 <1>   0.0800 
 51 H        6.0200     8.8480     0.9640 H     1 <1>   0.0800 
 52 H        6.3400     4.5760     0.9720 H     1 <1>   0.0800 
 53 H        7.5350     5.5390     0.1620 H     1 <1>   0.0800 
 54 H        6.9470     6.7610    -1.9790 H     1 <1>   0.0800 
 55 H        5.3480     6.6360    -2.6430 H     1 <1>   0.0800 
@<TRIPOS>BOND
  1   1   2  ar  
  2   2   3  ar  
  3   2   4  1   
  4   4   5  ar  
  5   4   6  ar  
  6   5   7  ar  
  7   5   8  1   
  8   6   9  ar  
  9   6  27  1   
 10   7  10  ar  
 11   8  11  1   
 12   8  12  1   
 13   9  10  ar  
 14   9  28  1   
 15  10  13  1   
 16  11  14  1   
 17  11  29  1   
 18  11  30  1   
 19  12  15  1   
 20  12  31  1   
 21  12  32  1   
 22  13  33  1   
 23  13  34  1   
 24  13  35  1   
 25  14  16  1   
 26  14  36  1   
 27  14  37  1   
 28  15  16  1   
 29  15  38  1   
 30  15  39  1   
 31  16  17  1   
 32  16  40  1   
 33  17  18  1   
 34  17  19  1   
 35  17  20  1   
 36  18  21  1   
 37  18  41  1   
 38  18  42  1   
 39  19  22  1   
 40  19  43  1   
 41  19  44  1   
 42  20  23  1   
 43  20  45  1   
 44  20  46  1   
 45  21  24  1   
 46  21  25  1   
 47  21  47  1   
 48  22  24  1   
 49  22  26  1   
 50  22  48  1   
 51  23  25  1   
 52  23  26  1   
 53  23  49  1   
 54  24  50  1   
 55  24  51  1   
 56  25  52  1   
 57  25  53  1   
 58  26  54  1   
 59  26  55  1   
@<TRIPOS>SUBSTRUCTURE
  1 ****  14 GROUP 4 **** **** 0

# MOE 2024.06 (io_trps.svl 2023.06)
