@<TRIPOS>MOLECULE
NONAME
36 39 1 0 0 
SMALL
USER_CHARGES


@<TRIPOS>ATOM
  1 F        0.6100    -0.3640     1.3680 F     1 <1>  -0.1900 
  2 C        1.5630    -0.7100     0.5510 C.ar  1 <1>   0.5000 
  3 N        1.5660    -1.9910     0.2140 N.ar  1 <1>  -0.6200 
  4 C        2.4680     0.2730     0.1470 C.ar  1 <1>   0.0000 
  5 C        2.5530    -2.3370    -0.5950 C.ar  1 <1>   0.1600 
  6 C        2.3600     1.6420     0.5780 C.ar  1 <1>   0.3100 
  7 C        3.4910    -0.1410    -0.6940 C.ar  1 <1>  -0.1500 
  8 C        3.5240    -1.4690    -1.0670 C.ar  1 <1>  -0.1500 
  9 N        3.3040     2.1500     1.3530 N.ar  1 <1>  -0.6200 
 10 C        1.2830     2.4400     0.1710 C.ar  1 <1>   0.2270 
 11 C        3.1570     3.4280     1.7340 C.ar  1 <1>   0.4700 
 12 N        0.2060     2.2070    -0.6390 N.2   1 <1>  -0.5650 
 13 C        1.2580     3.7330     0.6320 C.ar  1 <1>   0.1050 
 14 N        2.1920     4.2630     1.4250 N.ar  1 <1>  -0.5670 
 15 C       -0.4310     3.3300    -0.6370 C.2   1 <1>   0.0370 
 16 N        0.1500     4.3040     0.1140 N.pl3 1 <1>   0.0480 
 17 C       -0.2620     5.7070     0.3090 C.3   1 <1>   0.4560 
 18 O       -1.6350     5.8150     0.0490 O.3   1 <1>  -0.5600 
 19 C        0.5070     6.6460    -0.6340 C.3   1 <1>  -0.1600 
 20 C       -2.1770     7.0750     0.2990 C.3   1 <1>   0.1200 
 21 C       -0.0050     8.0870    -0.5130 C.3   1 <1>  -0.1600 
 22 C       -1.5330     8.1030    -0.6410 C.3   1 <1>  -0.1600 
 23 H        2.5920    -3.3700    -0.8980 H     1 <1>   0.1500 
 24 H        4.2320     0.5590    -1.0390 H     1 <1>   0.1500 
 25 H        4.2970    -1.8320    -1.7200 H     1 <1>   0.1500 
 26 H        3.9360     3.8090     2.3730 H     1 <1>   0.1500 
 27 H       -1.3480     3.5160    -1.1720 H     1 <1>   0.1500 
 28 H       -0.0920     5.9780     1.3370 H     1 <1>   0.0800 
 29 H        0.3830     6.3020    -1.6470 H     1 <1>   0.0800 
 30 H        1.5550     6.6160    -0.3930 H     1 <1>   0.0800 
 31 H       -2.0070     7.3280     1.3320 H     1 <1>   0.0800 
 32 H       -3.2370     7.0180     0.1230 H     1 <1>   0.0800 
 33 H        0.4380     8.7040    -1.2760 H     1 <1>   0.0800 
 34 H        0.2760     8.4870     0.4460 H     1 <1>   0.0800 
 35 H       -1.9090     9.0850    -0.4120 H     1 <1>   0.0800 
 36 H       -1.8180     7.8710    -1.6530 H     1 <1>   0.0800 
@<TRIPOS>BOND
  1   1   2  1   
  2   2   3  ar  
  3   2   4  ar  
  4   3   5  ar  
  5   4   6  1   
  6   4   7  ar  
  7   5   8  ar  
  8   5  23  1   
  9   6   9  ar  
 10   6  10  ar  
 11   7   8  ar  
 12   7  24  1   
 13   8  25  1   
 14   9  11  ar  
 15  10  12  1   
 16  10  13  ar  
 17  11  14  ar  
 18  11  26  1   
 19  12  15  2   
 20  13  14  ar  
 21  13  16  1   
 22  15  16  1   
 23  15  27  1   
 24  16  17  1   
 25  17  18  1   
 26  17  19  1   
 27  17  28  1   
 28  18  20  1   
 29  19  21  1   
 30  19  29  1   
 31  19  30  1   
 32  20  22  1   
 33  20  31  1   
 34  20  32  1   
 35  21  22  1   
 36  21  33  1   
 37  21  34  1   
 38  22  35  1   
 39  22  36  1   
@<TRIPOS>SUBSTRUCTURE
  1 ****  10 GROUP 4 **** **** 0

# MOE 2024.06 (io_trps.svl 2023.06)
