@<TRIPOS>MOLECULE
NONAME
53 56 1 0 0 
SMALL
USER_CHARGES


@<TRIPOS>ATOM
  1 S       -0.0800    -0.0630     2.6070 S.3   1 <1>  -0.0800 
  2 C        0.8830     0.0100     1.1560 C.2   1 <1>   0.1980 
  3 C       -0.3050    -1.7630     2.3350 C.2   1 <1>  -0.1100 
  4 N        0.9980    -1.1020     0.5480 N.2   1 <1>  -0.5650 
  5 C        1.5000     1.3480     0.7680 C.3   1 <1>   0.5230 
  6 C        0.3270    -2.1510     1.2030 C.2   1 <1>   0.1410 
  7 N        2.2540     1.1970    -0.5230 N.4   1 <1>  -0.9590 
  8 C        0.3690    -3.5080     0.6600 C.2   1 <1>   0.7160 
  9 C        3.3590     2.1890    -0.6750 C.3   1 <1>   0.2630 
 10 C        1.3330     1.1900    -1.7010 C.3   1 <1>   0.2630 
 11 O        1.3900    -3.9260     0.1460 O.2   1 <1>  -0.5700 
 12 N       -0.7280    -4.3430     0.7090 N.am  1 <1>  -0.6600 
 13 C       -2.1370    -3.8930     0.8520 C.3   1 <1>   0.1400 
 14 C       -0.6820    -5.7290     0.1740 C.3   1 <1>   0.1400 
 15 C       -2.9730    -4.9970     0.2060 C.3   1 <1>   0.2000 
 16 C       -2.1150    -6.2560     0.2890 C.3   1 <1>  -0.0800 
 17 O       -4.1690    -5.1860     0.8790 O.3   1 <1>  -0.6800 
 18 C       -2.4820    -7.3010    -0.7790 C.3   1 <1>  -0.0170 
 19 C       -1.6170    -8.5430    -0.6560 C.ar  1 <1>   0.1670 
 20 N       -0.4600    -8.5240    -1.2410 N.ar  1 <1>  -0.6200 
 21 C       -2.0950    -9.6360     0.0840 C.ar  1 <1>  -0.1500 
 22 C        0.3300    -9.6210    -1.1220 C.ar  1 <1>   0.3100 
 23 C       -1.3260   -10.7520     0.2180 C.ar  1 <1>  -0.1500 
 24 C       -0.0630   -10.7670    -0.3970 C.ar  1 <1>   0.0000 
 25 C        1.5920    -9.6200    -1.7380 C.ar  1 <1>  -0.1500 
 26 C        0.8180   -11.8640    -0.3210 C.ar  1 <1>  -0.1500 
 27 C        2.4340   -10.6960    -1.6510 C.ar  1 <1>  -0.1500 
 28 C        2.0410   -11.8310    -0.9340 C.ar  1 <1>  -0.1500 
 29 H       -0.8810    -2.3160     3.0540 H     1 <1>   0.1500 
 30 H        2.1740     1.6480     1.5530 H     1 <1>   0.0800 
 31 H        0.7300     2.0950     0.6700 H     1 <1>   0.0800 
 32 H        2.6480     0.2370    -0.4640 H     1 <1>   0.4500 
 33 H        2.9630     3.1900    -0.7220 H     1 <1>   0.0800 
 34 H        3.9110     1.9940    -1.5810 H     1 <1>   0.0800 
 35 H        4.0400     2.1230     0.1590 H     1 <1>   0.0800 
 36 H        0.8330     2.1400    -1.7980 H     1 <1>   0.0800 
 37 H        0.5900     0.4150    -1.5870 H     1 <1>   0.0800 
 38 H        1.8870     0.9960    -2.6060 H     1 <1>   0.0800 
 39 H       -2.3750    -3.8040     1.8970 H     1 <1>   0.0800 
 40 H       -2.2940    -2.9550     0.3490 H     1 <1>   0.0800 
 41 H       -0.3650    -5.7010    -0.8560 H     1 <1>   0.0800 
 42 H        0.0100    -6.3360     0.7340 H     1 <1>   0.0800 
 43 H       -3.1930    -4.7380    -0.8160 H     1 <1>   0.0800 
 44 H       -2.2130    -6.6970     1.2660 H     1 <1>   0.0800 
 45 H       -4.0080    -5.5130     1.7850 H     1 <1>   0.4000 
 46 H       -2.3530    -6.8820    -1.7620 H     1 <1>   0.0800 
 47 H       -3.5180    -7.5700    -0.6770 H     1 <1>   0.0800 
 48 H       -3.0670    -9.5810     0.5400 H     1 <1>   0.1500 
 49 H       -1.6570   -11.6100     0.7760 H     1 <1>   0.1500 
 50 H        1.8750    -8.7380    -2.2830 H     1 <1>   0.1500 
 51 H        0.5110   -12.7330     0.2330 H     1 <1>   0.1500 
 52 H        3.3990   -10.6820    -2.1290 H     1 <1>   0.1500 
 53 H        2.7130   -12.6700    -0.8740 H     1 <1>   0.1500 
@<TRIPOS>BOND
  1   1   2  1   
  2   1   3  1   
  3   2   4  2   
  4   2   5  1   
  5   3   6  2   
  6   3  29  1   
  7   4   6  1   
  8   5   7  1   
  9   5  30  1   
 10   5  31  1   
 11   6   8  1   
 12   7   9  1   
 13   7  10  1   
 14   7  32  1   
 15   8  11  2   
 16   8  12  am  
 17   9  33  1   
 18   9  34  1   
 19   9  35  1   
 20  10  36  1   
 21  10  37  1   
 22  10  38  1   
 23  12  13  1   
 24  12  14  1   
 25  13  15  1   
 26  13  39  1   
 27  13  40  1   
 28  14  16  1   
 29  14  41  1   
 30  14  42  1   
 31  15  16  1   
 32  15  17  1   
 33  15  43  1   
 34  16  18  1   
 35  16  44  1   
 36  17  45  1   
 37  18  19  1   
 38  18  46  1   
 39  18  47  1   
 40  19  20  ar  
 41  19  21  ar  
 42  20  22  ar  
 43  21  23  ar  
 44  21  48  1   
 45  22  24  ar  
 46  22  25  ar  
 47  23  24  ar  
 48  23  49  1   
 49  24  26  ar  
 50  25  27  ar  
 51  25  50  1   
 52  26  28  ar  
 53  26  51  1   
 54  27  28  ar  
 55  27  52  1   
 56  28  53  1   
@<TRIPOS>SUBSTRUCTURE
  1 ****  14 GROUP 4 **** **** 0

# MOE 2024.06 (io_trps.svl 2023.06)
