@<TRIPOS>MOLECULE
NONAME
39 41 1 0 0 
SMALL
USER_CHARGES


@<TRIPOS>ATOM
  1 S       -3.8510    -1.0560     1.9200 S.3   1 <1>  -0.0800 
  2 C       -2.9140    -0.2880     0.6460 C.2   1 <1>  -0.1400 
  3 C       -2.4320    -1.1930     2.9420 C.2   1 <1>  -0.1100 
  4 C       -1.6260    -0.1630     1.0190 C.2   1 <1>  -0.1500 
  5 C       -3.6470     0.1040    -0.6320 C.3   1 <1>   0.0810 
  6 C       -1.3520    -0.6800     2.3260 C.2   1 <1>  -0.1500 
  7 C       -4.0830    -1.0890    -1.4690 C.2   1 <1>   0.5690 
  8 O       -4.9010    -0.9210    -2.3410 O.2   1 <1>  -0.5700 
  9 N       -3.5540    -2.3130    -1.2230 N.am  1 <1>  -0.7300 
 10 C       -3.9080    -3.5680    -1.9220 C.3   1 <1>   0.2200 
 11 C       -4.8300    -4.4290    -1.0700 C.3   1 <1>  -0.0800 
 12 C       -2.6750    -4.4610    -1.9800 C.3   1 <1>   0.1200 
 13 C       -3.8540    -5.1390    -0.1280 C.3   1 <1>   0.1200 
 14 C       -5.9790    -3.6900    -0.3580 C.3   1 <1>  -0.0160 
 15 O       -2.5890    -5.0570    -0.7190 O.3   1 <1>  -0.5600 
 16 C       -6.8450    -4.6610     0.4290 C.ar  1 <1>  -0.1430 
 17 C       -6.7100    -4.8170     1.7940 C.ar  1 <1>  -0.1500 
 18 C       -7.8090    -5.4360    -0.1810 C.ar  1 <1>  -0.1500 
 19 C       -7.5190    -5.7210     2.4620 C.ar  1 <1>   0.1600 
 20 C       -8.5670    -6.3100     0.5800 C.ar  1 <1>   0.1600 
 21 N       -8.4440    -6.4740     1.8870 N.ar  1 <1>  -0.6200 
 22 H       -2.5580    -1.6480     3.9090 H     1 <1>   0.1500 
 23 H       -0.8400     0.2730     0.4280 H     1 <1>   0.1500 
 24 H       -4.5140     0.6840    -0.3800 H     1 <1>   0.0800 
 25 H       -3.0050     0.7150    -1.2380 H     1 <1>   0.0800 
 26 H       -0.3580    -0.6400     2.7370 H     1 <1>   0.1500 
 27 H       -2.9140    -2.4350    -0.4300 H     1 <1>   0.3700 
 28 H       -4.3120    -3.3590    -2.8980 H     1 <1>   0.0800 
 29 H       -5.2620    -5.1800    -1.7090 H     1 <1>   0.0800 
 30 H       -1.7730    -3.9140    -2.1870 H     1 <1>   0.0800 
 31 H       -2.8060    -5.2440    -2.7060 H     1 <1>   0.0800 
 32 H       -4.1130    -6.1750     0.0130 H     1 <1>   0.0800 
 33 H       -3.7970    -4.6450     0.8270 H     1 <1>   0.0800 
 34 H       -6.5840    -3.1810    -1.0890 H     1 <1>   0.0800 
 35 H       -5.5910    -2.9450     0.3110 H     1 <1>   0.0800 
 36 H       -5.9850    -4.2460     2.3440 H     1 <1>   0.1500 
 37 H       -7.9790    -5.3670    -1.2400 H     1 <1>   0.1500 
 38 H       -7.4000    -5.8300     3.5260 H     1 <1>   0.1500 
 39 H       -9.3150    -6.9070     0.0870 H     1 <1>   0.1500 
@<TRIPOS>BOND
  1   1   2  1   
  2   1   3  1   
  3   2   4  2   
  4   2   5  1   
  5   3   6  2   
  6   3  22  1   
  7   4   6  1   
  8   4  23  1   
  9   5   7  1   
 10   5  24  1   
 11   5  25  1   
 12   6  26  1   
 13   7   8  2   
 14   7   9  am  
 15   9  10  1   
 16   9  27  1   
 17  10  11  1   
 18  10  12  1   
 19  10  28  1   
 20  11  13  1   
 21  11  14  1   
 22  11  29  1   
 23  12  15  1   
 24  12  30  1   
 25  12  31  1   
 26  13  15  1   
 27  13  32  1   
 28  13  33  1   
 29  14  16  1   
 30  14  34  1   
 31  14  35  1   
 32  16  17  ar  
 33  16  18  ar  
 34  17  19  ar  
 35  17  36  1   
 36  18  20  ar  
 37  18  37  1   
 38  19  21  ar  
 39  19  38  1   
 40  20  21  ar  
 41  20  39  1   
@<TRIPOS>SUBSTRUCTURE
  1 ****  14 GROUP 4 **** **** 0

# MOE 2024.06 (io_trps.svl 2023.06)
