@<TRIPOS>MOLECULE
NONAME
48 50 1 0 0 
SMALL
USER_CHARGES


@<TRIPOS>ATOM
  1 S       -0.1710    -0.2680     0.7760 S.3   1 <1>  -0.0800 
  2 C       -1.2710    -1.0620    -0.3030 C.2   1 <1>   0.4420 
  3 C       -0.5280     1.2050    -0.0590 C.2   1 <1>   0.1980 
  4 N       -1.7940    -0.2480    -1.1460 N.2   1 <1>  -0.3380 
  5 N       -1.4400    -2.4190    -0.1220 N.am  1 <1>  -0.4940 
  6 N       -1.3660     1.0430    -1.0000 N.2   1 <1>  -0.3380 
  7 C        0.1550     2.4800     0.3960 C.3   1 <1>   0.0200 
  8 C       -2.2290    -3.2900    -0.8180 C.2   1 <1>   0.5690 
  9 C        1.6410     2.4960     0.0100 C.3   1 <1>  -0.1600 
 10 O       -2.9250    -2.9660    -1.7450 O.2   1 <1>  -0.5700 
 11 C       -2.2260    -4.7450    -0.3870 C.3   1 <1>  -0.0190 
 12 C        2.3210     3.8020     0.4440 C.3   1 <1>  -0.1600 
 13 C       -1.9310    -5.6630    -1.5740 C.3   1 <1>   0.1200 
 14 C       -3.5720    -5.1520     0.2210 C.3   1 <1>  -0.0160 
 15 C        3.8030     3.8080     0.0540 C.3   1 <1>  -0.1600 
 16 O       -1.8110    -6.9940    -1.1150 O.3   1 <1>  -0.3630 
 17 C       -3.6130    -6.6560     0.4340 C.ar  1 <1>  -0.1440 
 18 C        4.4810     5.1100     0.4860 C.3   1 <1>  -0.2400 
 19 C       -2.7330    -7.4990    -0.2450 C.ar  1 <1>   0.0820 
 20 C       -4.5370    -7.1970     1.3130 C.ar  1 <1>  -0.1500 
 21 C       -2.7740    -8.8790    -0.0330 C.ar  1 <1>   0.0820 
 22 C       -4.5840    -8.5640     1.5230 C.ar  1 <1>  -0.1500 
 23 O       -1.8870    -9.6590    -0.7140 O.3   1 <1>  -0.3630 
 24 C       -3.7080    -9.4030     0.8570 C.ar  1 <1>  -0.1500 
 25 C       -1.8840   -11.0630    -0.5850 C.3   1 <1>   0.0400 
 26 H       -0.8920    -2.8140     0.6360 H     1 <1>   0.3700 
 27 H        0.0470     2.5760     1.4610 H     1 <1>   0.0800 
 28 H       -0.3430     3.3150    -0.0660 H     1 <1>   0.0800 
 29 H        1.7270     2.3850    -1.0580 H     1 <1>   0.0800 
 30 H        2.1420     1.6630     0.4730 H     1 <1>   0.0800 
 31 H       -1.4500    -4.8950     0.3430 H     1 <1>   0.0800 
 32 H        2.2340     3.9160     1.5120 H     1 <1>   0.0800 
 33 H        1.8270     4.6370    -0.0230 H     1 <1>   0.0800 
 34 H       -1.0060    -5.3970    -2.0530 H     1 <1>   0.0800 
 35 H       -2.7270    -5.6300    -2.2980 H     1 <1>   0.0800 
 36 H       -4.3720    -4.8790    -0.4470 H     1 <1>   0.0800 
 37 H       -3.7230    -4.6390     1.1540 H     1 <1>   0.0800 
 38 H        3.8980     3.6980    -1.0130 H     1 <1>   0.0800 
 39 H        4.3050     2.9770     0.5200 H     1 <1>   0.0800 
 40 H        4.0110     5.9550     0.0140 H     1 <1>   0.0800 
 41 H        5.5190     5.0960     0.2040 H     1 <1>   0.0800 
 42 H        4.4200     5.2310     1.5540 H     1 <1>   0.0800 
 43 H       -5.2260    -6.5580     1.8370 H     1 <1>   0.1500 
 44 H       -5.3050    -8.9760     2.2080 H     1 <1>   0.1500 
 45 H       -3.7700   -10.4570     1.0440 H     1 <1>   0.1500 
 46 H       -1.1120   -11.4530    -1.2230 H     1 <1>   0.0800 
 47 H       -2.8410   -11.4430    -0.8930 H     1 <1>   0.0800 
 48 H       -1.6750   -11.3180     0.4390 H     1 <1>   0.0800 
@<TRIPOS>BOND
  1   1   2  1   
  2   1   3  1   
  3   2   4  2   
  4   2   5  1   
  5   3   6  2   
  6   3   7  1   
  7   4   6  1   
  8   5   8  am  
  9   5  26  1   
 10   7   9  1   
 11   7  27  1   
 12   7  28  1   
 13   8  10  2   
 14   8  11  1   
 15   9  12  1   
 16   9  29  1   
 17   9  30  1   
 18  11  13  1   
 19  11  14  1   
 20  11  31  1   
 21  12  15  1   
 22  12  32  1   
 23  12  33  1   
 24  13  16  1   
 25  13  34  1   
 26  13  35  1   
 27  14  17  1   
 28  14  36  1   
 29  14  37  1   
 30  15  18  1   
 31  15  38  1   
 32  15  39  1   
 33  16  19  1   
 34  17  19  ar  
 35  17  20  ar  
 36  18  40  1   
 37  18  41  1   
 38  18  42  1   
 39  19  21  ar  
 40  20  22  ar  
 41  20  43  1   
 42  21  23  1   
 43  21  24  ar  
 44  22  24  ar  
 45  22  44  1   
 46  23  25  1   
 47  24  45  1   
 48  25  46  1   
 49  25  47  1   
 50  25  48  1   
@<TRIPOS>SUBSTRUCTURE
  1 ****   5 GROUP 4 **** **** 0

# MOE 2024.06 (io_trps.svl 2023.06)
