@<TRIPOS>MOLECULE
NONAME
50 52 1 0 0 
SMALL
USER_CHARGES


@<TRIPOS>ATOM
  1 O       -1.9350    -1.8440    -0.0970 O.2   1 <1>  -0.5700 
  2 C       -2.6540    -0.9350     0.2720 C.2   1 <1>   0.5440 
  3 N       -2.0790     0.2090     0.7840 N.am  1 <1>  -0.6600 
  4 C       -4.0820    -1.1000     0.1510 C.ar  1 <1>   0.0860 
  5 C       -0.6290     0.2710     1.1480 C.3   1 <1>   0.1400 
  6 C       -2.7350     1.5520     0.7800 C.3   1 <1>   0.1400 
  7 C       -4.6250    -1.6390    -1.0130 C.ar  1 <1>   0.1600 
  8 C       -4.9770    -0.7740     1.1660 C.ar  1 <1>  -0.1500 
  9 C        0.0900     1.3570     0.3320 C.3   1 <1>   0.1200 
 10 C       -1.8890     2.5690    -0.0060 C.3   1 <1>   0.1200 
 11 N       -5.9080    -1.8680    -1.2410 N.ar  1 <1>  -0.6200 
 12 C       -6.3140    -0.9970     0.9460 C.ar  1 <1>  -0.1500 
 13 O       -0.5700     2.5860     0.4620 O.3   1 <1>  -0.5600 
 14 C       -6.7430    -1.5380    -0.2630 C.ar  1 <1>   0.4100 
 15 N       -8.0750    -1.7780    -0.4720 N.pl3 1 <1>  -0.8690 
 16 C       -8.6960    -1.6730    -1.8120 C.3   1 <1>   0.2090 
 17 C       -9.3060    -3.0080    -2.2390 C.3   1 <1>  -0.1600 
 18 C       -8.3200    -4.1880    -2.1970 C.3   1 <1>   0.3540 
 19 N       -8.3420    -4.9070    -0.8890 N.pl3 1 <1>  -0.4570 
 20 N       -9.5060    -5.3960    -0.3800 N.2   1 <1>  -0.2600 
 21 C       -7.3410    -5.1880    -0.0720 C.cat 1 <1>   0.6560 
 22 C       -9.1650    -5.9370     0.7330 C.2   1 <1>   0.4850 
 23 N       -7.8360    -5.8290     0.9580 N.pl3 1 <1>  -0.7000 
 24 C       -5.8650    -4.8990    -0.2280 C.3   1 <1>  -0.0960 
 25 C      -10.1010    -6.6240     1.7010 C.3   1 <1>  -0.0720 
 26 H       -0.1480    -0.6770     0.9770 H     1 <1>   0.0800 
 27 H       -0.5370     0.4990     2.1950 H     1 <1>   0.0800 
 28 H       -2.8460     1.8960     1.7940 H     1 <1>   0.0800 
 29 H       -3.7120     1.4990     0.3340 H     1 <1>   0.0800 
 30 H       -3.9360    -1.8990    -1.8000 H     1 <1>   0.1500 
 31 H       -4.6180    -0.3650     2.0960 H     1 <1>   0.1500 
 32 H        0.1220     1.0870    -0.7090 H     1 <1>   0.0800 
 33 H        1.0960     1.4850     0.6880 H     1 <1>   0.0800 
 34 H       -2.2910     3.5590     0.1150 H     1 <1>   0.0800 
 35 H       -1.8790     2.3250    -1.0540 H     1 <1>   0.0800 
 36 H       -7.0380    -0.7580     1.7020 H     1 <1>   0.1500 
 37 H       -8.7070    -1.4990     0.2830 H     1 <1>   0.4000 
 38 H       -7.9650    -1.3610    -2.5410 H     1 <1>   0.0800 
 39 H       -9.4640    -0.9180    -1.7870 H     1 <1>   0.0800 
 40 H       -9.6310    -2.8890    -3.2560 H     1 <1>   0.0800 
 41 H      -10.1860    -3.2140    -1.6570 H     1 <1>   0.0800 
 42 H       -7.3280    -3.8380    -2.4220 H     1 <1>   0.0800 
 43 H       -8.5980    -4.8950    -2.9580 H     1 <1>   0.0800 
 44 H       -7.3290    -6.1840     1.7670 H     1 <1>   0.4500 
 45 H       -5.6300    -4.6180    -1.2360 H     1 <1>   0.0800 
 46 H       -5.2940    -5.7740     0.0190 H     1 <1>   0.0800 
 47 H       -5.5810    -4.1030     0.4340 H     1 <1>   0.0800 
 48 H      -11.1070    -6.5940     1.3230 H     1 <1>   0.0800 
 49 H      -10.0740    -6.1270     2.6530 H     1 <1>   0.0800 
 50 H       -9.8100    -7.6510     1.8260 H     1 <1>   0.0800 
@<TRIPOS>BOND
  1   1   2  2   
  2   2   3  am  
  3   2   4  1   
  4   3   5  1   
  5   3   6  1   
  6   4   7  ar  
  7   4   8  ar  
  8   5   9  1   
  9   5  26  1   
 10   5  27  1   
 11   6  10  1   
 12   6  28  1   
 13   6  29  1   
 14   7  11  ar  
 15   7  30  1   
 16   8  12  ar  
 17   8  31  1   
 18   9  13  1   
 19   9  32  1   
 20   9  33  1   
 21  10  13  1   
 22  10  34  1   
 23  10  35  1   
 24  11  14  ar  
 25  12  14  ar  
 26  12  36  1   
 27  14  15  1   
 28  15  16  1   
 29  15  37  1   
 30  16  17  1   
 31  16  38  1   
 32  16  39  1   
 33  17  18  1   
 34  17  40  1   
 35  17  41  1   
 36  18  19  1   
 37  18  42  1   
 38  18  43  1   
 39  19  20  1   
 40  19  21  ar  
 41  20  22  2   
 42  21  23  ar  
 43  21  24  1   
 44  22  23  1   
 45  22  25  1   
 46  23  44  1   
 47  24  45  1   
 48  24  46  1   
 49  24  47  1   
 50  25  48  1   
 51  25  49  1   
 52  25  50  1   
@<TRIPOS>SUBSTRUCTURE
  1 ****  11 GROUP 4 **** **** 0

# MOE 2024.06 (io_trps.svl 2023.06)
