@<TRIPOS>MOLECULE
NONAME
26 27 1 0 0 
SMALL
USER_CHARGES


@<TRIPOS>ATOM
  1 O        0.3390    -0.1320     0.0690 O.3   1 <1>  -0.4280 
  2 C        1.4140     0.5890    -0.4310 C.3   1 <1>   0.2000 
  3 C        0.0310    -1.2910    -0.6280 C.3   1 <1>   0.0480 
  4 C        2.7130     0.0350     0.1850 C.3   1 <1>   0.3430 
  5 C        1.1920     2.0560    -0.0420 C.3   1 <1>  -0.1600 
  6 C       -0.7170    -2.3350     0.1290 C.3   1 <1>  -0.2000 
  7 C        0.7170    -2.5630    -0.2360 C.3   1 <1>  -0.2000 
  8 N        3.8970     0.9170    -0.0940 N.4   1 <1>  -0.9060 
  9 C        2.4460     2.9020    -0.3180 C.3   1 <1>  -0.1600 
 10 C        3.6880     2.3200     0.3630 C.3   1 <1>   0.3430 
 11 H        1.4310     0.4930    -1.5040 H     1 <1>   0.0800 
 12 H       -0.2630    -1.0870    -1.6460 H     1 <1>   0.1000 
 13 H        2.8930    -0.9530    -0.2060 H     1 <1>   0.0800 
 14 H        2.5700    -0.0410     1.2510 H     1 <1>   0.0800 
 15 H        0.9510     2.1130     1.0060 H     1 <1>   0.0800 
 16 H        0.3590     2.4500    -0.5990 H     1 <1>   0.0800 
 17 H       -1.4670    -2.9140    -0.3800 H     1 <1>   0.1000 
 18 H       -0.9790    -2.1270     1.1520 H     1 <1>   0.1000 
 19 H        1.4190    -2.5920     0.5760 H     1 <1>   0.1000 
 20 H        0.9180    -3.3090    -0.9860 H     1 <1>   0.1000 
 21 H        4.0880     0.9210    -1.1030 H     1 <1>   0.4500 
 22 H        4.7300     0.5270     0.3660 H     1 <1>   0.4500 
 23 H        2.2830     3.9010     0.0520 H     1 <1>   0.0800 
 24 H        2.6160     2.9800    -1.3780 H     1 <1>   0.0800 
 25 H        4.5510     2.9220     0.1220 H     1 <1>   0.0800 
 26 H        3.5510     2.3390     1.4330 H     1 <1>   0.0800 
@<TRIPOS>BOND
  1   1   2  1   
  2   1   3  1   
  3   2   4  1   
  4   2   5  1   
  5   2  11  1   
  6   3   6  1   
  7   3   7  1   
  8   3  12  1   
  9   4   8  1   
 10   4  13  1   
 11   4  14  1   
 12   5   9  1   
 13   5  15  1   
 14   5  16  1   
 15   6   7  1   
 16   6  17  1   
 17   6  18  1   
 18   7  19  1   
 19   7  20  1   
 20   8  10  1   
 21   8  21  1   
 22   8  22  1   
 23   9  10  1   
 24   9  23  1   
 25   9  24  1   
 26  10  25  1   
 27  10  26  1   
@<TRIPOS>SUBSTRUCTURE
  1 ****   2 GROUP 4 **** **** 0

# MOE 2024.06 (io_trps.svl 2023.06)
