@<TRIPOS>MOLECULE
NONAME
52 54 1 0 0 
SMALL
USER_CHARGES


@<TRIPOS>ATOM
  1 CL       0.2840    -0.2550     0.2050 Cl    1 <1>  -0.1770 
  2 C        0.0060    -1.9550     0.4640 C.ar  1 <1>   0.1770 
  3 C        0.9350    -2.8730     0.0120 C.ar  1 <1>  -0.1500 
  4 C       -1.1390    -2.3640     1.1190 C.ar  1 <1>  -0.1500 
  5 C        0.7200    -4.2280     0.2110 C.ar  1 <1>  -0.1440 
  6 C       -1.3540    -3.7160     1.3160 C.ar  1 <1>  -0.1500 
  7 C       -0.4410    -4.6710     0.8610 C.ar  1 <1>   0.0860 
  8 C        1.7630    -5.2280    -0.2740 C.3   1 <1>  -0.0960 
  9 C       -0.7180    -6.0790     1.0640 C.2   1 <1>   0.5440 
 10 O       -0.4760    -6.5850     2.1430 O.2   1 <1>  -0.5700 
 11 N       -1.2550    -6.8460     0.0560 N.am  1 <1>  -0.6600 
 12 C       -1.3250    -8.3400     0.2110 C.3   1 <1>   0.3640 
 13 C       -1.9080    -6.2100    -1.1300 C.3   1 <1>   0.1400 
 14 C        0.0370    -8.9460    -0.1390 C.ar  1 <1>  -0.1430 
 15 C       -2.4480    -9.0430    -0.6110 C.3   1 <1>   0.2000 
 16 C       -2.6120    -7.2100    -2.0550 C.3   1 <1>   0.1200 
 17 C        0.6350    -9.8290     0.7500 C.ar  1 <1>  -0.1500 
 18 C        0.6920    -8.6480    -1.3290 C.ar  1 <1>  -0.1500 
 19 O       -3.2930    -8.1540    -1.2950 O.3   1 <1>  -0.5600 
 20 C       -3.3450    -9.9240     0.2700 C.3   1 <1>   0.1200 
 21 C        1.8580   -10.4120     0.4630 C.ar  1 <1>   0.0830 
 22 C        1.9220    -9.2130    -1.6180 C.ar  1 <1>  -0.1500 
 23 O       -2.6050   -10.9410     0.8680 O.3   1 <1>  -0.6800 
 24 O        2.3560   -11.2960     1.3610 O.3   1 <1>  -0.3630 
 25 C        2.5210   -10.0820    -0.7240 C.ar  1 <1>   0.0830 
 26 C        2.4180   -12.6410     0.9430 C.3   1 <1>   0.0400 
 27 O        3.7420   -10.5720    -1.0520 O.3   1 <1>  -0.3630 
 28 C        4.8120   -10.2100    -0.2050 C.3   1 <1>   0.0400 
 29 H        1.8180    -2.5170    -0.4870 H     1 <1>   0.1500 
 30 H       -1.8450    -1.6330     1.4700 H     1 <1>   0.1500 
 31 H       -2.2380    -4.0500     1.8320 H     1 <1>   0.1500 
 32 H        2.6730    -4.7320    -0.5560 H     1 <1>   0.0800 
 33 H        1.3900    -5.7700    -1.1230 H     1 <1>   0.0800 
 34 H        1.9950    -5.9340     0.5060 H     1 <1>   0.0800 
 35 H       -1.5140    -8.5510     1.2500 H     1 <1>   0.0800 
 36 H       -2.6410    -5.5050    -0.7790 H     1 <1>   0.0800 
 37 H       -1.1730    -5.6630    -1.6940 H     1 <1>   0.0800 
 38 H       -1.9980    -9.6730    -1.3590 H     1 <1>   0.0800 
 39 H       -1.9120    -7.7140    -2.6970 H     1 <1>   0.0800 
 40 H       -3.3320    -6.6980    -2.6700 H     1 <1>   0.0800 
 41 H        0.1520   -10.0760     1.6800 H     1 <1>   0.1500 
 42 H        0.2530    -7.9690    -2.0340 H     1 <1>   0.1500 
 43 H       -4.1220   -10.3780    -0.3200 H     1 <1>   0.0800 
 44 H       -3.7870    -9.3340     1.0540 H     1 <1>   0.0800 
 45 H        2.4290    -8.9770    -2.5360 H     1 <1>   0.1500 
 46 H       -2.2690   -11.5720     0.2000 H     1 <1>   0.4000 
 47 H        2.7600   -13.2340     1.7710 H     1 <1>   0.0800 
 48 H        3.1040   -12.7270     0.1200 H     1 <1>   0.0800 
 49 H        1.4330   -12.9550     0.6440 H     1 <1>   0.0800 
 50 H        5.7270   -10.5430    -0.6600 H     1 <1>   0.0800 
 51 H        4.6860   -10.6820     0.7520 H     1 <1>   0.0800 
 52 H        4.8210    -9.1400    -0.0950 H     1 <1>   0.0800 
@<TRIPOS>BOND
  1   1   2  1   
  2   2   3  ar  
  3   2   4  ar  
  4   3   5  ar  
  5   3  29  1   
  6   4   6  ar  
  7   4  30  1   
  8   5   7  ar  
  9   5   8  1   
 10   6   7  ar  
 11   6  31  1   
 12   7   9  1   
 13   8  32  1   
 14   8  33  1   
 15   8  34  1   
 16   9  10  2   
 17   9  11  am  
 18  11  12  1   
 19  11  13  1   
 20  12  14  1   
 21  12  15  1   
 22  12  35  1   
 23  13  16  1   
 24  13  36  1   
 25  13  37  1   
 26  14  17  ar  
 27  14  18  ar  
 28  15  19  1   
 29  15  20  1   
 30  15  38  1   
 31  16  19  1   
 32  16  39  1   
 33  16  40  1   
 34  17  21  ar  
 35  17  41  1   
 36  18  22  ar  
 37  18  42  1   
 38  20  23  1   
 39  20  43  1   
 40  20  44  1   
 41  21  24  1   
 42  21  25  ar  
 43  22  25  ar  
 44  22  45  1   
 45  23  46  1   
 46  24  26  1   
 47  25  27  1   
 48  26  47  1   
 49  26  48  1   
 50  26  49  1   
 51  27  28  1   
 52  28  50  1   
 53  28  51  1   
 54  28  52  1   
@<TRIPOS>SUBSTRUCTURE
  1 ****  11 GROUP 4 **** **** 0

# MOE 2024.06 (io_trps.svl 2023.06)
