@<TRIPOS>MOLECULE
NONAME
54 58 1 0 0 
SMALL
USER_CHARGES


@<TRIPOS>ATOM
  1 O        0.8790    -0.7100    -0.4160 O.2   1 <1>  -0.5700 
  2 C       -0.1610    -0.0990    -0.5210 C.2   1 <1>   0.5690 
  3 N       -1.3070    -0.5280     0.1080 N.am  1 <1>  -0.6600 
  4 C       -0.1330     1.1530    -1.3930 C.3   1 <1>   0.0820 
  5 C       -1.2880    -1.6820     1.0510 C.3   1 <1>   0.1400 
  6 C       -2.6340     0.1460     0.0310 C.3   1 <1>   0.1400 
  7 C       -0.5060     2.4400    -0.6600 C.2   1 <1>  -0.1810 
  8 C       -2.3250    -2.7150     0.6100 C.3   1 <1>  -0.1600 
  9 C       -3.6860    -0.8670    -0.4240 C.3   1 <1>  -0.1600 
 10 C       -0.0200     2.8610     0.5780 C.2   1 <1>   0.1080 
 11 C       -1.3610     3.4180    -1.0420 C.2   1 <1>  -0.3320 
 12 C       -3.7210    -2.0970     0.4930 C.3   1 <1>   0.4600 
 13 N       -0.5290     3.9930     0.9460 N.2   1 <1>  -0.7070 
 14 C        0.9850     2.1280     1.4420 C.3   1 <1>  -0.0590 
 15 N       -1.3530     4.3380    -0.0550 N.pl3 1 <1>   0.3000 
 16 C       -2.2080     3.5720    -2.2950 C.3   1 <1>  -0.0600 
 17 O       -4.0860    -1.6930     1.7950 O.3   1 <1>  -0.5600 
 18 C       -4.7190    -3.1310    -0.0110 C.2   1 <1>  -0.3320 
 19 C       -5.4530    -1.5000     2.0730 C.3   1 <1>   0.1200 
 20 N       -4.6200    -3.8650    -1.1610 N.pl3 1 <1>   0.0330 
 21 C       -5.8560    -3.4650     0.6310 C.2   1 <1>  -0.1810 
 22 C       -6.2400    -2.8140     1.9360 C.3   1 <1>   0.0210 
 23 C       -5.7210    -4.6830    -1.2400 C.ar  1 <1>  -0.1520 
 24 C       -6.5200    -4.4560    -0.1210 C.ar  1 <1>   0.0000 
 25 C       -6.0950    -5.6190    -2.2070 C.ar  1 <1>  -0.1500 
 26 C       -7.7090    -5.1730     0.0370 C.ar  1 <1>  -0.1500 
 27 C       -7.2680    -6.3180    -2.0390 C.ar  1 <1>  -0.1500 
 28 C       -8.0760    -6.0950    -0.9170 C.ar  1 <1>  -0.1500 
 29 H       -0.7890     0.9920    -2.2240 H     1 <1>   0.0800 
 30 H        0.8600     1.2700    -1.7880 H     1 <1>   0.0800 
 31 H       -1.5190    -1.3300     2.0420 H     1 <1>   0.0800 
 32 H       -0.3140    -2.1400     1.0800 H     1 <1>   0.0800 
 33 H       -2.6200     0.9670    -0.6600 H     1 <1>   0.0800 
 34 H       -2.8880     0.5330     1.0040 H     1 <1>   0.0800 
 35 H       -2.3580    -3.5250     1.3150 H     1 <1>   0.0800 
 36 H       -2.0210    -3.1180    -0.3370 H     1 <1>   0.0800 
 37 H       -3.4470    -1.1790    -1.4240 H     1 <1>   0.0800 
 38 H       -4.6540    -0.4060    -0.4590 H     1 <1>   0.0800 
 39 H        1.7720     1.7210     0.8350 H     1 <1>   0.0800 
 40 H        0.4950     1.3310     1.9690 H     1 <1>   0.0800 
 41 H        1.4140     2.8060     2.1560 H     1 <1>   0.0800 
 42 H       -1.8920     5.2120    -0.0350 H     1 <1>   0.2700 
 43 H       -2.0480     2.7540    -2.9730 H     1 <1>   0.0800 
 44 H       -1.9500     4.4850    -2.8030 H     1 <1>   0.0800 
 45 H       -3.2510     3.6010    -2.0360 H     1 <1>   0.0800 
 46 H       -5.8400    -0.7610     1.3940 H     1 <1>   0.0800 
 47 H       -5.5330    -1.1220     3.0770 H     1 <1>   0.0800 
 48 H       -3.8580    -3.8370    -1.8440 H     1 <1>   0.2700 
 49 H       -7.2950    -2.6090     1.9530 H     1 <1>   0.0800 
 50 H       -6.0030    -3.4710     2.7530 H     1 <1>   0.0800 
 51 H       -5.4690    -5.7850    -3.0660 H     1 <1>   0.1500 
 52 H       -8.3170    -4.9930     0.9040 H     1 <1>   0.1500 
 53 H       -7.5780    -7.0440    -2.7700 H     1 <1>   0.1500 
 54 H       -8.9880    -6.6550    -0.8090 H     1 <1>   0.1500 
@<TRIPOS>BOND
  1   1   2  2   
  2   2   3  am  
  3   2   4  1   
  4   3   5  1   
  5   3   6  1   
  6   4   7  1   
  7   4  29  1   
  8   4  30  1   
  9   5   8  1   
 10   5  31  1   
 11   5  32  1   
 12   6   9  1   
 13   6  33  1   
 14   6  34  1   
 15   7  10  1   
 16   7  11  2   
 17   8  12  1   
 18   8  35  1   
 19   8  36  1   
 20   9  12  1   
 21   9  37  1   
 22   9  38  1   
 23  10  13  2   
 24  10  14  1   
 25  11  15  1   
 26  11  16  1   
 27  12  17  1   
 28  12  18  1   
 29  13  15  1   
 30  14  39  1   
 31  14  40  1   
 32  14  41  1   
 33  15  42  1   
 34  16  43  1   
 35  16  44  1   
 36  16  45  1   
 37  17  19  1   
 38  18  20  1   
 39  18  21  2   
 40  19  22  1   
 41  19  46  1   
 42  19  47  1   
 43  20  23  1   
 44  20  48  1   
 45  21  22  1   
 46  21  24  1   
 47  22  49  1   
 48  22  50  1   
 49  23  24  ar  
 50  23  25  ar  
 51  24  26  ar  
 52  25  27  ar  
 53  25  51  1   
 54  26  28  ar  
 55  26  52  1   
 56  27  28  ar  
 57  27  53  1   
 58  28  54  1   
@<TRIPOS>SUBSTRUCTURE
  1 ****   9 GROUP 4 **** **** 0

# MOE 2024.06 (io_trps.svl 2023.06)
