@<TRIPOS>MOLECULE
NONAME
43 44 1 0 0 
SMALL
USER_CHARGES


@<TRIPOS>ATOM
  1 O       -0.0450     0.5870    -0.7720 O.3   1 <1>  -0.2800 
  2 C        0.0440     1.8210    -0.3190 C.2   1 <1>  -0.0400 
  3 C       -1.3140     0.3410    -1.0250 C.2   1 <1>  -0.0100 
  4 C       -1.1810     2.3900    -0.2710 C.2   1 <1>  -0.1500 
  5 C        1.4280     2.3330     0.0470 C.3   1 <1>   0.0200 
  6 C       -2.0740     1.4180    -0.7370 C.2   1 <1>  -0.1500 
  7 C        1.5610     3.8710     0.1130 C.3   1 <1>  -0.0800 
  8 C        1.5880     4.5180    -1.2880 C.3   1 <1>   0.1200 
  9 C        2.8520     4.2120     0.8760 C.3   1 <1>   0.2090 
 10 O        0.3920     4.3000    -1.9510 O.3   1 <1>  -0.6800 
 11 N        3.0130     5.6800     1.0270 N.pl3 1 <1>  -0.8690 
 12 C        3.8560     6.4630     0.2750 C.ar  1 <1>   0.4100 
 13 N        4.6400     5.8690    -0.6040 N.ar  1 <1>  -0.6200 
 14 C        3.8630     7.8270     0.4260 C.ar  1 <1>  -0.1500 
 15 C        5.4140     6.6760    -1.3020 C.ar  1 <1>   0.4700 
 16 C        4.7070     8.5690    -0.3630 C.ar  1 <1>   0.4100 
 17 N        5.5030     7.9890    -1.2430 N.ar  1 <1>  -0.6200 
 18 N        4.7320     9.9460    -0.2690 N.pl3 1 <1>  -0.8380 
 19 C        6.0190    10.6630    -0.4660 C.3   1 <1>   0.2090 
 20 C        3.5120    10.6930    -0.6760 C.3   1 <1>   0.1290 
 21 C        6.1550    11.7590     0.5860 C.3   1 <1>  -0.2400 
 22 H       -1.5890    -0.6260    -1.4090 H     1 <1>   0.1500 
 23 H       -1.4580     3.3800     0.0480 H     1 <1>   0.1500 
 24 H        2.1360     1.9510    -0.6680 H     1 <1>   0.0800 
 25 H        1.6750     1.9030     1.0010 H     1 <1>   0.0800 
 26 H       -3.1380     1.5390    -0.8320 H     1 <1>   0.1500 
 27 H        0.7400     4.2780     0.6750 H     1 <1>   0.0800 
 28 H        2.3860     4.1110    -1.8860 H     1 <1>   0.0800 
 29 H        1.7210     5.5840    -1.2220 H     1 <1>   0.0800 
 30 H        3.7020     3.7940     0.3630 H     1 <1>   0.0800 
 31 H        2.8220     3.7740     1.8590 H     1 <1>   0.0800 
 32 H        0.1560     3.3490    -1.9210 H     1 <1>   0.4000 
 33 H        2.3400     6.1480     1.6380 H     1 <1>   0.4000 
 34 H        3.2320     8.3110     1.1410 H     1 <1>   0.1500 
 35 H        6.0610     6.1990    -2.0180 H     1 <1>   0.1500 
 36 H        6.0560    11.0800    -1.4580 H     1 <1>   0.0800 
 37 H        6.8400     9.9740    -0.3600 H     1 <1>   0.0800 
 38 H        2.6910    10.0150    -0.8370 H     1 <1>   0.0800 
 39 H        3.6960    11.2300    -1.5900 H     1 <1>   0.0800 
 40 H        3.2390    11.3910     0.0960 H     1 <1>   0.0800 
 41 H        5.3920    12.5040     0.4600 H     1 <1>   0.0800 
 42 H        7.1140    12.2340     0.4870 H     1 <1>   0.0800 
 43 H        6.0830    11.3310     1.5690 H     1 <1>   0.0800 
@<TRIPOS>BOND
  1   1   2  1   
  2   1   3  1   
  3   2   4  2   
  4   2   5  1   
  5   3   6  2   
  6   3  22  1   
  7   4   6  1   
  8   4  23  1   
  9   5   7  1   
 10   5  24  1   
 11   5  25  1   
 12   6  26  1   
 13   7   8  1   
 14   7   9  1   
 15   7  27  1   
 16   8  10  1   
 17   8  28  1   
 18   8  29  1   
 19   9  11  1   
 20   9  30  1   
 21   9  31  1   
 22  10  32  1   
 23  11  12  1   
 24  11  33  1   
 25  12  13  ar  
 26  12  14  ar  
 27  13  15  ar  
 28  14  16  ar  
 29  14  34  1   
 30  15  17  ar  
 31  15  35  1   
 32  16  17  ar  
 33  16  18  1   
 34  18  19  1   
 35  18  20  1   
 36  19  21  1   
 37  19  36  1   
 38  19  37  1   
 39  20  38  1   
 40  20  39  1   
 41  20  40  1   
 42  21  41  1   
 43  21  42  1   
 44  21  43  1   
@<TRIPOS>SUBSTRUCTURE
  1 ****  11 GROUP 4 **** **** 0

# MOE 2024.06 (io_trps.svl 2023.06)
