@<TRIPOS>MOLECULE
NONAME
41 44 1 0 0 
SMALL
USER_CHARGES


@<TRIPOS>ATOM
  1 O       -0.3560     0.3790    -0.2580 O.2   1 <1>  -0.5700 
  2 C       -1.3780     0.9810     0.0090 C.2   1 <1>   0.5440 
  3 N       -2.5360     0.2590     0.1950 N.am  1 <1>  -0.6600 
  4 C       -1.3560     2.4270     0.1060 C.ar  1 <1>   0.0860 
  5 C       -3.9040     0.8060     0.0060 C.3   1 <1>   0.1400 
  6 C       -2.5530    -1.2230     0.1150 C.3   1 <1>   0.1400 
  7 C       -0.7290     3.1960    -0.8620 C.ar  1 <1>  -0.1500 
  8 C       -1.9670     3.0940     1.1930 C.ar  1 <1>  -0.1500 
  9 C       -4.7330    -0.3830    -0.4750 C.3   1 <1>   0.2000 
 10 C       -4.0310    -1.6160     0.0880 C.3   1 <1>  -0.0800 
 11 C       -0.7290     4.5860    -0.7660 C.ar  1 <1>   0.2270 
 12 C       -1.9700     4.4650     1.2980 C.ar  1 <1>  -0.1500 
 13 O       -6.0380    -0.3190    -0.0140 O.3   1 <1>  -0.6800 
 14 C       -4.3130    -2.8900    -0.7220 C.3   1 <1>   0.0200 
 15 N       -0.2010     5.5310    -1.5840 N.2   1 <1>  -0.2270 
 16 C       -1.3400     5.2030     0.2930 C.ar  1 <1>  -0.1520 
 17 C       -3.5400    -4.0690    -0.1620 C.2   1 <1>  -0.0400 
 18 N       -0.4520     6.6830    -1.0870 N.2   1 <1>  -0.4180 
 19 N       -1.1390     6.5140     0.0520 N.pl3 1 <1>   0.3000 
 20 O       -3.7820    -4.4930     1.0490 O.3   1 <1>  -0.0190 
 21 C       -2.5700    -4.8350    -0.6820 C.2   1 <1>  -0.1500 
 22 N       -3.0230    -5.5010     1.3700 N.2   1 <1>  -0.4100 
 23 C       -2.2830    -5.7290     0.3450 C.2   1 <1>   0.1080 
 24 C       -1.2410    -6.8240     0.2760 C.3   1 <1>  -0.0590 
 25 H       -4.2720     1.1680     0.9490 H     1 <1>   0.0800 
 26 H       -3.9060     1.5950    -0.7260 H     1 <1>   0.0800 
 27 H       -2.0540    -1.5310    -0.7890 H     1 <1>   0.0800 
 28 H       -2.0450    -1.6550     0.9620 H     1 <1>   0.0800 
 29 H       -0.2350     2.7320    -1.6970 H     1 <1>   0.1500 
 30 H       -2.4320     2.4950     1.9570 H     1 <1>   0.1500 
 31 H       -4.7530    -0.3970    -1.5520 H     1 <1>   0.0800 
 32 H       -4.3370    -1.7680     1.1090 H     1 <1>   0.0800 
 33 H       -2.4370     4.9630     2.1310 H     1 <1>   0.1500 
 34 H       -6.0650    -0.4280     0.9560 H     1 <1>   0.4000 
 35 H       -4.0350    -2.7410    -1.7500 H     1 <1>   0.0800 
 36 H       -5.3650    -3.1140    -0.6900 H     1 <1>   0.0800 
 37 H       -1.4500     7.2980     0.6350 H     1 <1>   0.2700 
 38 H       -2.1000    -4.7970    -1.6470 H     1 <1>   0.1500 
 39 H       -1.4710    -7.4970    -0.5280 H     1 <1>   0.0800 
 40 H       -1.2270    -7.3750     1.1990 H     1 <1>   0.0800 
 41 H       -0.2700    -6.3930     0.1140 H     1 <1>   0.0800 
@<TRIPOS>BOND
  1   1   2  2   
  2   2   3  am  
  3   2   4  1   
  4   3   5  1   
  5   3   6  1   
  6   4   7  ar  
  7   4   8  ar  
  8   5   9  1   
  9   5  25  1   
 10   5  26  1   
 11   6  10  1   
 12   6  27  1   
 13   6  28  1   
 14   7  11  ar  
 15   7  29  1   
 16   8  12  ar  
 17   8  30  1   
 18   9  10  1   
 19   9  13  1   
 20   9  31  1   
 21  10  14  1   
 22  10  32  1   
 23  11  15  1   
 24  11  16  ar  
 25  12  16  ar  
 26  12  33  1   
 27  13  34  1   
 28  14  17  1   
 29  14  35  1   
 30  14  36  1   
 31  15  18  2   
 32  16  19  1   
 33  17  20  1   
 34  17  21  2   
 35  18  19  1   
 36  19  37  1   
 37  20  22  1   
 38  21  23  1   
 39  21  38  1   
 40  22  23  2   
 41  23  24  1   
 42  24  39  1   
 43  24  40  1   
 44  24  41  1   
@<TRIPOS>SUBSTRUCTURE
  1 ****   3 GROUP 4 **** **** 0

# MOE 2024.06 (io_trps.svl 2023.06)
