@<TRIPOS>MOLECULE
NONAME
47 49 1 0 0 
SMALL
USER_CHARGES


@<TRIPOS>ATOM
  1 F        2.3900     1.6520     2.3990 F     1 <1>  -0.1900 
  2 C        2.8880     0.6130     1.7850 C.ar  1 <1>   0.1900 
  3 C        3.7940     0.7980     0.7340 C.ar  1 <1>   0.3960 
  4 C        2.4820    -0.6340     2.2050 C.ar  1 <1>  -0.1500 
  5 N        4.3170    -0.2530     0.0600 N.ar  1 <1>  -0.6200 
  6 C        4.1930     2.1450     0.3580 C.2   1 <1>   0.5440 
  7 C        3.0380    -1.6780     1.5040 C.ar  1 <1>   0.1900 
  8 C        3.9290    -1.4580     0.4630 C.ar  1 <1>   0.1600 
  9 O        4.9920     2.7710     1.0330 O.2   1 <1>  -0.5700 
 10 N        3.8190     2.7210    -0.8400 N.am  1 <1>  -0.6600 
 11 F        2.7180    -2.8990     1.8260 F     1 <1>  -0.1900 
 12 C        4.2360     2.0670    -2.1180 C.3   1 <1>   0.1400 
 13 C        3.5480     4.1850    -0.9420 C.3   1 <1>   0.1400 
 14 C        5.7770     2.0310    -2.2210 C.3   1 <1>   0.3430 
 15 C        4.8310     5.0320    -1.0470 C.3   1 <1>  -0.1600 
 16 N        6.4040     3.2000    -1.5180 N.4   1 <1>  -0.9590 
 17 C        5.9080     4.5170    -2.0080 C.3   1 <1>   0.3430 
 18 C        7.8830     3.0960    -1.4020 C.3   1 <1>   0.4860 
 19 C        8.3980     4.2120    -0.5180 C.ar  1 <1>  -0.1430 
 20 C        9.2000     5.2080    -1.0540 C.ar  1 <1>   0.1600 
 21 C        8.0740     4.2680     0.8260 C.ar  1 <1>  -0.1500 
 22 N        9.6740     6.2420    -0.3840 N.ar  1 <1>  -0.6200 
 23 C        8.5670     5.3360     1.5410 C.ar  1 <1>  -0.1500 
 24 C        9.3490     6.2880     0.9050 C.ar  1 <1>   0.3930 
 25 O        9.7960     7.3130     1.6580 O.3   1 <1>  -0.3630 
 26 C       10.6190     8.3210     1.1030 C.3   1 <1>   0.0400 
 27 H        1.7880    -0.7810     3.0130 H     1 <1>   0.1500 
 28 H        4.3300    -2.3180    -0.0480 H     1 <1>   0.1500 
 29 H        3.8320     2.6120    -2.9530 H     1 <1>   0.0800 
 30 H        3.8430     1.0670    -2.1720 H     1 <1>   0.0800 
 31 H        2.9940     4.4990    -0.0720 H     1 <1>   0.0800 
 32 H        2.9210     4.3650    -1.8000 H     1 <1>   0.0800 
 33 H        6.0710     2.0060    -3.2570 H     1 <1>   0.0800 
 34 H        6.1180     1.1180    -1.7590 H     1 <1>   0.0800 
 35 H        5.2610     5.1480    -0.0670 H     1 <1>   0.0800 
 36 H        4.5460     6.0200    -1.3630 H     1 <1>   0.0800 
 37 H        6.0340     3.1520    -0.5430 H     1 <1>   0.4500 
 38 H        6.7130     5.2330    -2.0330 H     1 <1>   0.0800 
 39 H        5.5080     4.4250    -3.0040 H     1 <1>   0.0800 
 40 H        8.3350     3.1600    -2.3780 H     1 <1>   0.0800 
 41 H        8.1500     2.1480    -0.9630 H     1 <1>   0.0800 
 42 H        9.4710     5.1650    -2.0960 H     1 <1>   0.1500 
 43 H        7.4650     3.5230     1.3120 H     1 <1>   0.1500 
 44 H        8.3570     5.4480     2.5880 H     1 <1>   0.1500 
 45 H       10.8580     9.0270     1.8770 H     1 <1>   0.0800 
 46 H       10.0840     8.8100     0.3080 H     1 <1>   0.0800 
 47 H       11.5180     7.8660     0.7250 H     1 <1>   0.0800 
@<TRIPOS>BOND
  1   1   2  1   
  2   2   3  ar  
  3   2   4  ar  
  4   3   5  ar  
  5   3   6  1   
  6   4   7  ar  
  7   4  27  1   
  8   5   8  ar  
  9   6   9  2   
 10   6  10  am  
 11   7   8  ar  
 12   7  11  1   
 13   8  28  1   
 14  10  12  1   
 15  10  13  1   
 16  12  14  1   
 17  12  29  1   
 18  12  30  1   
 19  13  15  1   
 20  13  31  1   
 21  13  32  1   
 22  14  16  1   
 23  14  33  1   
 24  14  34  1   
 25  15  17  1   
 26  15  35  1   
 27  15  36  1   
 28  16  17  1   
 29  16  18  1   
 30  16  37  1   
 31  17  38  1   
 32  17  39  1   
 33  18  19  1   
 34  18  40  1   
 35  18  41  1   
 36  19  20  ar  
 37  19  21  ar  
 38  20  22  ar  
 39  20  42  1   
 40  21  23  ar  
 41  21  43  1   
 42  22  24  ar  
 43  23  24  ar  
 44  23  44  1   
 45  24  25  1   
 46  25  26  1   
 47  26  45  1   
 48  26  46  1   
 49  26  47  1   
@<TRIPOS>SUBSTRUCTURE
  1 ****   9 GROUP 4 **** **** 0

# MOE 2024.06 (io_trps.svl 2023.06)
