@<TRIPOS>MOLECULE
NONAME
39 41 1 0 0 
SMALL
USER_CHARGES


@<TRIPOS>ATOM
  1 CL      -0.2960     0.1130    -1.1150 Cl    1 <1>  -0.1230 
  2 C       -1.8350     0.6020    -0.4250 C.2   1 <1>   0.1230 
  3 C       -2.8850    -0.2260    -0.0060 C.2   1 <1>   0.2030 
  4 C       -2.2140     1.8730    -0.2220 C.2   1 <1>  -0.3020 
  5 N       -3.8770     0.5440     0.4310 N.2   1 <1>  -0.7070 
  6 C       -2.8560    -1.6850    -0.0530 C.2   1 <1>   0.7160 
  7 N       -3.4520     1.8100     0.2980 N.pl3 1 <1>   0.3140 
  8 O       -1.7940    -2.2850    -0.0600 O.2   1 <1>  -0.5700 
  9 N       -4.0030    -2.4580    -0.0950 N.am  1 <1>  -0.6600 
 10 C       -4.2830     2.9550     0.6900 C.3   1 <1>   0.0160 
 11 C       -5.3900    -1.9470    -0.2160 C.3   1 <1>   0.1400 
 12 C       -3.9810    -3.9400    -0.1180 C.3   1 <1>   0.1400 
 13 C       -6.2330    -3.1810    -0.5370 C.3   1 <1>   0.2000 
 14 C       -5.4440    -4.3670     0.0140 C.3   1 <1>  -0.0800 
 15 O       -7.4820    -3.1210     0.0570 O.3   1 <1>  -0.6800 
 16 C       -5.7680    -5.6850    -0.7040 C.3   1 <1>   0.0200 
 17 C       -4.9070    -6.8190    -0.1820 C.2   1 <1>  -0.0400 
 18 O       -5.0060    -7.1950     1.0650 O.3   1 <1>  -0.0190 
 19 C       -3.9780    -7.5860    -0.7730 C.2   1 <1>  -0.1500 
 20 N       -4.1910    -8.1720     1.3410 N.2   1 <1>  -0.4100 
 21 C       -3.5590    -8.4290     0.2530 C.2   1 <1>   0.1080 
 22 C       -2.5040    -9.5040     0.1160 C.3   1 <1>  -0.0590 
 23 H       -1.6880     2.7880    -0.4170 H     1 <1>   0.1500 
 24 H       -3.7630     3.5320     1.4310 H     1 <1>   0.0800 
 25 H       -5.2100     2.5970     1.0980 H     1 <1>   0.0800 
 26 H       -4.4810     3.5610    -0.1740 H     1 <1>   0.0800 
 27 H       -5.6860    -1.5090     0.7220 H     1 <1>   0.0800 
 28 H       -5.4590    -1.2170    -1.0040 H     1 <1>   0.0800 
 29 H       -3.5620    -4.2670    -1.0550 H     1 <1>   0.0800 
 30 H       -3.3830    -4.3270     0.6910 H     1 <1>   0.0800 
 31 H       -6.3670    -3.2590    -1.6030 H     1 <1>   0.0800 
 32 H       -5.6470    -4.4740     1.0660 H     1 <1>   0.0800 
 33 H       -7.3940    -3.0590     1.0280 H     1 <1>   0.4000 
 34 H       -5.6050    -5.5770    -1.7620 H     1 <1>   0.0800 
 35 H       -6.8040    -5.9330    -0.5500 H     1 <1>   0.0800 
 36 H       -3.6180    -7.5810    -1.7840 H     1 <1>   0.1500 
 37 H       -2.7990   -10.2110    -0.6370 H     1 <1>   0.0800 
 38 H       -2.3820   -10.0200     1.0510 H     1 <1>   0.0800 
 39 H       -1.5650    -9.0600    -0.1610 H     1 <1>   0.0800 
@<TRIPOS>BOND
  1   1   2  1   
  2   2   3  1   
  3   2   4  2   
  4   3   5  2   
  5   3   6  1   
  6   4   7  1   
  7   4  23  1   
  8   5   7  1   
  9   6   8  2   
 10   6   9  am  
 11   7  10  1   
 12   9  11  1   
 13   9  12  1   
 14  10  24  1   
 15  10  25  1   
 16  10  26  1   
 17  11  13  1   
 18  11  27  1   
 19  11  28  1   
 20  12  14  1   
 21  12  29  1   
 22  12  30  1   
 23  13  14  1   
 24  13  15  1   
 25  13  31  1   
 26  14  16  1   
 27  14  32  1   
 28  15  33  1   
 29  16  17  1   
 30  16  34  1   
 31  16  35  1   
 32  17  18  1   
 33  17  19  2   
 34  18  20  1   
 35  19  21  1   
 36  19  36  1   
 37  20  21  2   
 38  21  22  1   
 39  22  37  1   
 40  22  38  1   
 41  22  39  1   
@<TRIPOS>SUBSTRUCTURE
  1 ****   9 GROUP 4 **** **** 0

# MOE 2024.06 (io_trps.svl 2023.06)
