@<TRIPOS>MOLECULE
NONAME
58 60 1 0 0 
SMALL
USER_CHARGES


@<TRIPOS>ATOM
  1 O       -0.6450     0.8700     0.8620 O.2   1 <1>  -0.5700 
  2 C       -1.2900     1.7370     0.3270 C.2   1 <1>   0.5690 
  3 N       -2.3000     1.5550    -0.5460 N.am  1 <1>  -0.6600 
  4 C       -1.0640     3.1990     0.5790 C.3   1 <1>  -0.0990 
  5 C       -2.9130     2.8240    -0.9770 C.3   1 <1>   0.1400 
  6 C       -2.8570     0.2450    -0.9500 C.3   1 <1>   0.2840 
  7 C       -2.3450     3.8510     0.0190 C.3   1 <1>  -0.0190 
  8 C       -4.2960     0.1350    -0.4690 C.ar  1 <1>  -0.1440 
  9 C       -2.1280     5.2390    -0.5690 C.2   1 <1>   0.5690 
 10 C       -4.5600    -0.0350     0.8810 C.ar  1 <1>  -0.1500 
 11 C       -5.3530     0.2090    -1.3630 C.ar  1 <1>  -0.1500 
 12 O       -2.5240     5.4730    -1.6850 O.2   1 <1>  -0.5700 
 13 N       -1.4950     6.1590     0.2120 N.am  1 <1>  -0.4930 
 14 C       -5.8650    -0.1280     1.3320 C.ar  1 <1>  -0.1500 
 15 C       -6.6580     0.1160    -0.9100 C.ar  1 <1>  -0.1500 
 16 C       -1.1290     7.4970    -0.0820 C.2   1 <1>   0.0630 
 17 C       -6.9220    -0.0510     0.4390 C.ar  1 <1>  -0.1430 
 18 C       -1.8500     8.5050    -0.7300 C.2   1 <1>   0.1080 
 19 C        0.0430     8.0770     0.2600 C.2   1 <1>  -0.3320 
 20 C       -8.3560    -0.1540     0.9350 C.3   1 <1>  -0.0170 
 21 N       -1.1880     9.6190    -0.7880 N.2   1 <1>  -0.7070 
 22 C       -3.2440     8.3920    -1.3050 C.3   1 <1>  -0.0590 
 23 N       -0.0170     9.3600    -0.1820 N.pl3 1 <1>   0.3140 
 24 C        1.2420     7.4790     0.9840 C.3   1 <1>  -0.0600 
 25 C       -8.8220    -1.6110     0.9300 C.3   1 <1>  -0.2400 
 26 C        1.0180    10.4090    -0.0630 C.3   1 <1>   0.0960 
 27 C        0.8750    11.1760     1.2600 C.3   1 <1>  -0.1600 
 28 C        1.9500    12.2600     1.3970 C.3   1 <1>  -0.2400 
 29 H       -0.1910     3.5060     0.0310 H     1 <1>   0.0800 
 30 H       -0.9350     3.3880     1.6280 H     1 <1>   0.0800 
 31 H       -3.9880     2.7840    -0.9200 H     1 <1>   0.0800 
 32 H       -2.6090     3.0330    -1.9890 H     1 <1>   0.0800 
 33 H       -2.2710    -0.5480    -0.5180 H     1 <1>   0.0800 
 34 H       -2.8090     0.1530    -2.0210 H     1 <1>   0.0800 
 35 H       -3.0600     3.9410     0.8160 H     1 <1>   0.0800 
 36 H       -3.7460    -0.0920     1.5830 H     1 <1>   0.1500 
 37 H       -5.1670     0.3400    -2.4140 H     1 <1>   0.1500 
 38 H       -1.1570     5.8400     1.1150 H     1 <1>   0.3700 
 39 H       -6.0540    -0.2620     2.3820 H     1 <1>   0.1500 
 40 H       -7.4690     0.1730    -1.6150 H     1 <1>   0.1500 
 41 H       -9.0000     0.4340     0.3040 H     1 <1>   0.0800 
 42 H       -8.4240     0.2440     1.9320 H     1 <1>   0.0800 
 43 H       -3.8380     7.7230    -0.7130 H     1 <1>   0.0800 
 44 H       -3.1860     8.0200    -2.3110 H     1 <1>   0.0800 
 45 H       -3.7130     9.3590    -1.3170 H     1 <1>   0.0800 
 46 H        1.0730     6.4430     1.2110 H     1 <1>   0.0800 
 47 H        1.4220     8.0060     1.9040 H     1 <1>   0.0800 
 48 H        2.1180     7.5470     0.3640 H     1 <1>   0.0800 
 49 H       -8.7740    -2.0130    -0.0660 H     1 <1>   0.0800 
 50 H       -9.8360    -1.6770     1.2830 H     1 <1>   0.0800 
 51 H       -8.1930    -2.2030     1.5710 H     1 <1>   0.0800 
 52 H        0.9010    11.0840    -0.8910 H     1 <1>   0.0800 
 53 H        1.9860     9.9510    -0.1320 H     1 <1>   0.0800 
 54 H        0.9540    10.4920     2.0860 H     1 <1>   0.0800 
 55 H       -0.0990    11.6370     1.2930 H     1 <1>   0.0800 
 56 H        2.9340    11.8230     1.3830 H     1 <1>   0.0800 
 57 H        1.8240    12.7870     2.3260 H     1 <1>   0.0800 
 58 H        1.8730    12.9700     0.5910 H     1 <1>   0.0800 
@<TRIPOS>BOND
  1   1   2  2   
  2   2   3  am  
  3   2   4  1   
  4   3   5  1   
  5   3   6  1   
  6   4   7  1   
  7   4  29  1   
  8   4  30  1   
  9   5   7  1   
 10   5  31  1   
 11   5  32  1   
 12   6   8  1   
 13   6  33  1   
 14   6  34  1   
 15   7   9  1   
 16   7  35  1   
 17   8  10  ar  
 18   8  11  ar  
 19   9  12  2   
 20   9  13  am  
 21  10  14  ar  
 22  10  36  1   
 23  11  15  ar  
 24  11  37  1   
 25  13  16  1   
 26  13  38  1   
 27  14  17  ar  
 28  14  39  1   
 29  15  17  ar  
 30  15  40  1   
 31  16  18  1   
 32  16  19  2   
 33  17  20  1   
 34  18  21  2   
 35  18  22  1   
 36  19  23  1   
 37  19  24  1   
 38  20  25  1   
 39  20  41  1   
 40  20  42  1   
 41  21  23  1   
 42  22  43  1   
 43  22  44  1   
 44  22  45  1   
 45  23  26  1   
 46  24  46  1   
 47  24  47  1   
 48  24  48  1   
 49  25  49  1   
 50  25  50  1   
 51  25  51  1   
 52  26  27  1   
 53  26  52  1   
 54  26  53  1   
 55  27  28  1   
 56  27  54  1   
 57  27  55  1   
 58  28  56  1   
 59  28  57  1   
 60  28  58  1   
@<TRIPOS>SUBSTRUCTURE
  1 ****   7 GROUP 4 **** **** 0

# MOE 2024.06 (io_trps.svl 2023.06)
