@<TRIPOS>MOLECULE
NONAME
45 48 1 0 0 
SMALL
USER_CHARGES


@<TRIPOS>ATOM
  1 O        0.6090    -0.3770    -1.4530 O.3   1 <1>  -0.6800 
  2 C        1.9820    -0.3580    -1.2410 C.3   1 <1>   0.2000 
  3 C        2.3930    -1.4660    -0.2760 C.3   1 <1>  -0.0800 
  4 C        2.4170     0.9340    -0.5590 C.3   1 <1>   0.2090 
  5 C        3.6200    -0.9110     0.4560 C.3   1 <1>   0.2090 
  6 C        2.6750    -2.7990    -0.9850 C.3   1 <1>   0.0210 
  7 N        3.6270     0.5600     0.2150 N.pl3 1 <1>  -0.8380 
  8 C        3.0970    -3.8630     0.0080 C.2   1 <1>   0.1080 
  9 C        4.7920     1.2540    -0.0140 C.ar  1 <1>   0.4100 
 10 N        2.2650    -4.4170     0.8330 N.2   1 <1>  -0.7070 
 11 C        4.3900    -4.3540     0.1540 C.2   1 <1>  -0.1500 
 12 N        5.7220     0.6590    -0.7060 N.ar  1 <1>  -0.6200 
 13 C        4.9420     2.5830     0.4550 C.ar  1 <1>   0.0000 
 14 N        3.0120    -5.2880     1.5360 N.pl3 1 <1>   0.3000 
 15 C        4.3040    -5.2670     1.1440 C.2   1 <1>  -0.3320 
 16 C        6.8180     1.3720    -0.9750 C.ar  1 <1>   0.4770 
 17 C        6.1270     3.2280     0.0930 C.ar  1 <1>   0.3100 
 18 C        4.0090     3.2810     1.2490 C.ar  1 <1>  -0.1500 
 19 C        5.3930    -6.1350     1.7480 C.3   1 <1>  -0.0600 
 20 N        7.0690     2.5950    -0.6350 N.ar  1 <1>  -0.6200 
 21 C        7.8670     0.6420    -1.7780 C.3   1 <1>  -0.0970 
 22 C        6.3400     4.5530     0.5010 C.ar  1 <1>  -0.1500 
 23 C        4.2360     4.5750     1.6410 C.ar  1 <1>  -0.1500 
 24 C        5.4140     5.2210     1.2600 C.ar  1 <1>  -0.1500 
 25 H        0.3190    -1.2700    -1.7220 H     1 <1>   0.4000 
 26 H        2.4850    -0.4510    -2.1880 H     1 <1>   0.0800 
 27 H        1.6200    -1.6060     0.4600 H     1 <1>   0.0800 
 28 H        1.6540     1.2720     0.1200 H     1 <1>   0.0800 
 29 H        2.6380     1.6980    -1.2840 H     1 <1>   0.0800 
 30 H        4.5240    -1.3590     0.0810 H     1 <1>   0.0800 
 31 H        3.5520    -1.1110     1.5110 H     1 <1>   0.0800 
 32 H        3.4490    -2.6710    -1.7200 H     1 <1>   0.0800 
 33 H        1.7880    -3.1390    -1.4870 H     1 <1>   0.0800 
 34 H        5.2530    -4.0510    -0.4120 H     1 <1>   0.1500 
 35 H        2.6120    -5.8810     2.2730 H     1 <1>   0.2700 
 36 H        3.1090     2.7750     1.5490 H     1 <1>   0.1500 
 37 H        6.3350    -5.9300     1.2720 H     1 <1>   0.0800 
 38 H        5.1590    -7.1760     1.6110 H     1 <1>   0.0800 
 39 H        5.4900    -5.9320     2.8000 H     1 <1>   0.0800 
 40 H        8.7160     1.2760    -1.9550 H     1 <1>   0.0800 
 41 H        7.4500     0.3410    -2.7200 H     1 <1>   0.0800 
 42 H        8.1870    -0.2290    -1.2380 H     1 <1>   0.0800 
 43 H        7.2550     5.0270     0.2000 H     1 <1>   0.1500 
 44 H        3.5170     5.1020     2.2440 H     1 <1>   0.1500 
 45 H        5.5840     6.2380     1.5700 H     1 <1>   0.1500 
@<TRIPOS>BOND
  1   1   2  1   
  2   1  25  1   
  3   2   3  1   
  4   2   4  1   
  5   2  26  1   
  6   3   5  1   
  7   3   6  1   
  8   3  27  1   
  9   4   7  1   
 10   4  28  1   
 11   4  29  1   
 12   5   7  1   
 13   5  30  1   
 14   5  31  1   
 15   6   8  1   
 16   6  32  1   
 17   6  33  1   
 18   7   9  1   
 19   8  10  2   
 20   8  11  1   
 21   9  12  ar  
 22   9  13  ar  
 23  10  14  1   
 24  11  15  2   
 25  11  34  1   
 26  12  16  ar  
 27  13  17  ar  
 28  13  18  ar  
 29  14  15  1   
 30  14  35  1   
 31  15  19  1   
 32  16  20  ar  
 33  16  21  1   
 34  17  20  ar  
 35  17  22  ar  
 36  18  23  ar  
 37  18  36  1   
 38  19  37  1   
 39  19  38  1   
 40  19  39  1   
 41  21  40  1   
 42  21  41  1   
 43  21  42  1   
 44  22  24  ar  
 45  22  43  1   
 46  23  24  ar  
 47  23  44  1   
 48  24  45  1   
@<TRIPOS>SUBSTRUCTURE
  1 ****   7 GROUP 4 **** **** 0

# MOE 2024.06 (io_trps.svl 2023.06)
