@<TRIPOS>MOLECULE
NONAME
48 50 1 0 0 
SMALL
USER_CHARGES


@<TRIPOS>ATOM
  1 S       -0.0140    -0.1530     1.3670 S.o2  1 <1>   1.4470 
  2 O        0.3630     1.0310     2.1110 O.2   1 <1>  -0.6500 
  3 O       -0.6390    -1.2600     2.0580 O.2   1 <1>  -0.6500 
  4 N       -1.0790     0.3490     0.1480 N.am  1 <1>  -0.8490 
  5 C        1.4020    -0.7810     0.4230 C.ar  1 <1>  -0.0090 
  6 C       -2.4320     0.5830     0.6870 C.3   1 <1>   0.1960 
  7 C       -0.6000     1.5440    -0.5490 C.3   1 <1>   0.1960 
  8 C        2.6420    -0.1580     0.4770 C.ar  1 <1>  -0.1500 
  9 C        1.2710    -1.8960    -0.3970 C.ar  1 <1>  -0.1500 
 10 C       -3.4540     0.8640    -0.4450 C.3   1 <1>   0.0000 
 11 C       -1.5130     1.8670    -1.7360 C.3   1 <1>  -0.1600 
 12 C        3.7210    -0.6220    -0.2570 C.ar  1 <1>   0.0830 
 13 C        2.3390    -2.3750    -1.1360 C.ar  1 <1>  -0.1500 
 14 C       -4.8640     1.1060     0.1200 C.3   1 <1>   0.2000 
 15 C       -2.9680     2.0630    -1.2850 C.3   1 <1>  -0.1600 
 16 C       -3.6700    -0.4000    -1.2980 C.3   1 <1>  -0.1600 
 17 O        4.8830     0.0640    -0.1310 O.3   1 <1>  -0.3630 
 18 C        3.5660    -1.7410    -1.0690 C.ar  1 <1>  -0.1500 
 19 O       -4.8190     1.8700     1.2870 O.3   1 <1>  -0.5600 
 20 C       -5.4520    -0.2840     0.3840 C.3   1 <1>  -0.1600 
 21 C       -4.6790    -1.2530    -0.5220 C.3   1 <1>  -0.1600 
 22 C        6.0540    -0.3440    -0.8020 C.3   1 <1>   0.0400 
 23 C       -6.0430     2.3920     1.6970 C.3   1 <1>   0.0400 
 24 H       -2.7560    -0.2780     1.2460 H     1 <1>   0.0800 
 25 H       -2.4000     1.4170     1.3690 H     1 <1>   0.0800 
 26 H       -0.5750     2.3820     0.1300 H     1 <1>   0.0800 
 27 H        0.4000     1.3790    -0.9150 H     1 <1>   0.0800 
 28 H        2.7790     0.7080     1.1020 H     1 <1>   0.1500 
 29 H        0.3160    -2.3920    -0.4530 H     1 <1>   0.1500 
 30 H       -1.1630     2.7620    -2.2190 H     1 <1>   0.0800 
 31 H       -1.4520     1.0650    -2.4510 H     1 <1>   0.0800 
 32 H        2.2130    -3.2420    -1.7620 H     1 <1>   0.1500 
 33 H       -5.4570     1.6220    -0.6170 H     1 <1>   0.0800 
 34 H       -3.6020     2.2070    -2.1430 H     1 <1>   0.0800 
 35 H       -3.0270     2.9520    -0.6810 H     1 <1>   0.0800 
 36 H       -4.1020    -0.1280    -2.2450 H     1 <1>   0.0800 
 37 H       -2.7560    -0.9380    -1.4830 H     1 <1>   0.0800 
 38 H        4.3810    -2.1280    -1.6510 H     1 <1>   0.1500 
 39 H       -5.3040    -0.5620     1.4140 H     1 <1>   0.0800 
 40 H       -6.5010    -0.2990     0.1530 H     1 <1>   0.0800 
 41 H       -4.1550    -1.9730     0.0840 H     1 <1>   0.0800 
 42 H       -5.3360    -1.7790    -1.1940 H     1 <1>   0.0800 
 43 H        6.8440     0.3370    -0.5390 H     1 <1>   0.0800 
 44 H        5.8800    -0.3100    -1.8620 H     1 <1>   0.0800 
 45 H        6.3100    -1.3400    -0.4830 H     1 <1>   0.0800 
 46 H       -5.8760     2.9720     2.5870 H     1 <1>   0.0800 
 47 H       -6.7230     1.5880     1.9140 H     1 <1>   0.0800 
 48 H       -6.4370     3.0260     0.9210 H     1 <1>   0.0800 
@<TRIPOS>BOND
  1   1   2  2   
  2   1   3  2   
  3   1   4  am  
  4   1   5  1   
  5   4   6  1   
  6   4   7  1   
  7   5   8  ar  
  8   5   9  ar  
  9   6  10  1   
 10   6  24  1   
 11   6  25  1   
 12   7  11  1   
 13   7  26  1   
 14   7  27  1   
 15   8  12  ar  
 16   8  28  1   
 17   9  13  ar  
 18   9  29  1   
 19  10  14  1   
 20  10  15  1   
 21  10  16  1   
 22  11  15  1   
 23  11  30  1   
 24  11  31  1   
 25  12  17  1   
 26  12  18  ar  
 27  13  18  ar  
 28  13  32  1   
 29  14  19  1   
 30  14  20  1   
 31  14  33  1   
 32  15  34  1   
 33  15  35  1   
 34  16  21  1   
 35  16  36  1   
 36  16  37  1   
 37  17  22  1   
 38  18  38  1   
 39  19  23  1   
 40  20  21  1   
 41  20  39  1   
 42  20  40  1   
 43  21  41  1   
 44  21  42  1   
 45  22  43  1   
 46  22  44  1   
 47  22  45  1   
 48  23  46  1   
 49  23  47  1   
 50  23  48  1   
@<TRIPOS>SUBSTRUCTURE
  1 ****   4 GROUP 4 **** **** 0

# MOE 2024.06 (io_trps.svl 2023.06)
