@<TRIPOS>MOLECULE
NONAME
55 58 1 0 0 
SMALL
USER_CHARGES


@<TRIPOS>ATOM
  1 S       -5.2740    -1.0180     1.9050 S.3   1 <1>  -0.0800 
  2 C       -3.7810    -0.2120     1.4430 C.2   1 <1>  -0.1400 
  3 C       -4.5560    -1.5930     3.3980 C.2   1 <1>  -0.1100 
  4 C       -2.8380    -0.3950     2.3870 C.2   1 <1>  -0.1500 
  5 C       -3.7690     0.5360     0.1250 C.3   1 <1>   0.3890 
  6 C       -3.2790    -1.1820     3.5000 C.2   1 <1>  -0.1500 
  7 N       -3.8220    -0.4530    -0.9710 N.pl3 1 <1>  -0.8690 
  8 C       -4.9450    -0.4470    -1.7830 C.ar  1 <1>   0.1000 
  9 C       -5.7950    -1.5420    -1.7970 C.ar  1 <1>  -0.1500 
 10 C       -5.2430     0.6440    -2.5870 C.ar  1 <1>  -0.1500 
 11 C       -6.9560    -1.5630    -2.5640 C.ar  1 <1>   0.0860 
 12 C       -6.3770     0.6420    -3.3770 C.ar  1 <1>  -0.1500 
 13 C       -7.8640    -2.6940    -2.5390 C.2   1 <1>   0.5440 
 14 C       -7.2230    -0.4520    -3.3640 C.ar  1 <1>  -0.1500 
 15 O       -8.2270    -3.1960    -3.5880 O.2   1 <1>  -0.5700 
 16 N       -8.3630    -3.2020    -1.3580 N.am  1 <1>  -0.6600 
 17 C       -9.2100    -4.4320    -1.3490 C.3   1 <1>   0.1400 
 18 C       -8.4150    -2.4300    -0.0840 C.3   1 <1>   0.1400 
 19 C      -10.7070    -4.1150    -1.5160 C.3   1 <1>   0.1400 
 20 C       -9.4730    -1.3220    -0.1430 C.3   1 <1>  -0.1600 
 21 N      -11.1930    -3.0950    -0.5300 N.am  1 <1>  -0.6600 
 22 C      -10.7760    -1.7030    -0.8590 C.3   1 <1>   0.1400 
 23 C      -11.9230    -3.3520     0.6040 C.2   1 <1>   0.5690 
 24 O      -12.2060    -2.4670     1.3780 O.2   1 <1>  -0.5700 
 25 C      -12.4210    -4.7510     0.9520 C.3   1 <1>  -0.0040 
 26 C      -11.3420    -5.6500     1.5810 C.3   1 <1>  -0.1950 
 27 C      -10.6820    -6.7620     0.8230 C.3   1 <1>  -0.2000 
 28 C      -11.6700    -7.0740     1.9050 C.3   1 <1>  -0.2000 
 29 H       -5.1730    -2.1850     4.0500 H     1 <1>   0.1500 
 30 H       -1.8340    -0.0090     2.3540 H     1 <1>   0.1500 
 31 H       -2.8630     1.1090     0.0360 H     1 <1>   0.0800 
 32 H       -4.6100     1.2070     0.0750 H     1 <1>   0.0800 
 33 H       -2.6160    -1.3980     4.3190 H     1 <1>   0.1500 
 34 H       -3.6120    -1.3750    -0.5750 H     1 <1>   0.4000 
 35 H       -5.5550    -2.3980    -1.1940 H     1 <1>   0.1500 
 36 H       -4.5770     1.4870    -2.5960 H     1 <1>   0.1500 
 37 H       -6.5990     1.4890    -4.0040 H     1 <1>   0.1500 
 38 H       -8.1050    -0.4580    -3.9820 H     1 <1>   0.1500 
 39 H       -9.0550    -4.9620    -0.4280 H     1 <1>   0.0800 
 40 H       -8.9020    -5.0850    -2.1480 H     1 <1>   0.0800 
 41 H       -7.4550    -2.0050     0.1430 H     1 <1>   0.0800 
 42 H       -8.6620    -3.1000     0.7230 H     1 <1>   0.0800 
 43 H      -11.2690    -5.0240    -1.4260 H     1 <1>   0.0800 
 44 H      -10.8680    -3.7470    -2.5150 H     1 <1>   0.0800 
 45 H       -9.0540    -0.4590    -0.6290 H     1 <1>   0.0800 
 46 H       -9.7090    -1.0270     0.8640 H     1 <1>   0.0800 
 47 H      -10.6360    -1.6150    -1.9230 H     1 <1>   0.0800 
 48 H      -11.5550    -1.0140    -0.5780 H     1 <1>   0.0800 
 49 H      -12.8550    -5.2150     0.0870 H     1 <1>   0.0800 
 50 H      -13.2120    -4.6360     1.6710 H     1 <1>   0.0800 
 51 H      -10.7550    -5.1210     2.3140 H     1 <1>   0.1000 
 52 H       -9.6420    -6.9710     1.0080 H     1 <1>   0.1000 
 53 H      -10.9730    -6.9870    -0.1880 H     1 <1>   0.1000 
 54 H      -12.6310    -7.4700     1.6270 H     1 <1>   0.1000 
 55 H      -11.3100    -7.4870     2.8320 H     1 <1>   0.1000 
@<TRIPOS>BOND
  1   1   2  1   
  2   1   3  1   
  3   2   4  2   
  4   2   5  1   
  5   3   6  2   
  6   3  29  1   
  7   4   6  1   
  8   4  30  1   
  9   5   7  1   
 10   5  31  1   
 11   5  32  1   
 12   6  33  1   
 13   7   8  1   
 14   7  34  1   
 15   8   9  ar  
 16   8  10  ar  
 17   9  11  ar  
 18   9  35  1   
 19  10  12  ar  
 20  10  36  1   
 21  11  13  1   
 22  11  14  ar  
 23  12  14  ar  
 24  12  37  1   
 25  13  15  2   
 26  13  16  am  
 27  14  38  1   
 28  16  17  1   
 29  16  18  1   
 30  17  19  1   
 31  17  39  1   
 32  17  40  1   
 33  18  20  1   
 34  18  41  1   
 35  18  42  1   
 36  19  21  1   
 37  19  43  1   
 38  19  44  1   
 39  20  22  1   
 40  20  45  1   
 41  20  46  1   
 42  21  22  1   
 43  21  23  am  
 44  22  47  1   
 45  22  48  1   
 46  23  24  2   
 47  23  25  1   
 48  25  26  1   
 49  25  49  1   
 50  25  50  1   
 51  26  27  1   
 52  26  28  1   
 53  26  51  1   
 54  27  28  1   
 55  27  52  1   
 56  27  53  1   
 57  28  54  1   
 58  28  55  1   
@<TRIPOS>SUBSTRUCTURE
  1 ****  18 GROUP 4 **** **** 0

# MOE 2024.06 (io_trps.svl 2023.06)
