@<TRIPOS>MOLECULE
NONAME
50 51 1 0 0 
SMALL
USER_CHARGES


@<TRIPOS>ATOM
  1 F       -0.4930     0.6140     0.9520 F     1 <1>  -0.1900 
  2 C       -1.7630     0.8930     0.8050 C.ar  1 <1>   0.1900 
  3 C       -2.2000     1.9940     0.0600 C.ar  1 <1>   0.0830 
  4 C       -2.6550     0.0390     1.4250 C.ar  1 <1>  -0.1500 
  5 O       -1.4230     2.9050    -0.5930 O.3   1 <1>  -0.3630 
  6 C       -3.5660     2.2000    -0.0400 C.ar  1 <1>  -0.1500 
  7 C       -4.0120     0.2740     1.3060 C.ar  1 <1>  -0.1500 
  8 C       -0.0130     2.8770    -0.5620 C.3   1 <1>   0.0400 
  9 C       -4.4980     1.3550     0.5660 C.ar  1 <1>   0.0530 
 10 C       -5.9120     1.5940     0.4260 C.2   1 <1>   0.0870 
 11 O       -6.3820     2.8020     0.2360 O.3   1 <1>  -0.0190 
 12 C       -6.9820     0.7600     0.4340 C.2   1 <1>  -0.0860 
 13 N       -7.6880     2.8310     0.1300 N.2   1 <1>  -0.4100 
 14 C       -8.0710     1.6100     0.2590 C.2   1 <1>   0.3720 
 15 C       -7.0990    -0.6500     0.5280 C.2   1 <1>   0.7160 
 16 N       -9.4060     1.1790     0.2440 N.pl3 1 <1>  -0.8210 
 17 O       -7.1990    -1.1950     1.6080 O.2   1 <1>  -0.5700 
 18 N       -7.1320    -1.3760    -0.6250 N.am  1 <1>  -0.7300 
 19 C      -10.2990     1.9910    -0.6310 C.3   1 <1>   0.1290 
 20 C       -9.9600     1.0700     1.6250 C.3   1 <1>   0.1290 
 21 C       -7.7460    -2.7320    -0.8180 C.3   1 <1>   0.2810 
 22 C       -9.1110    -2.9230    -0.0950 C.2   1 <1>   0.5690 
 23 C       -6.6590    -3.8320    -0.6320 C.3   1 <1>  -0.0800 
 24 O       -9.5190    -4.0180     0.2010 O.2   1 <1>  -0.5700 
 25 N       -9.9150    -1.8610     0.1440 N.am  1 <1>  -0.8000 
 26 C       -7.0350    -5.1450    -1.3420 C.3   1 <1>  -0.2400 
 27 C       -6.2910    -4.1330     0.8300 C.3   1 <1>  -0.2400 
 28 H       -2.2890    -0.7960     1.9950 H     1 <1>   0.1500 
 29 H       -3.9110     3.0450    -0.6100 H     1 <1>   0.1500 
 30 H       -4.6990    -0.3890     1.8030 H     1 <1>   0.1500 
 31 H        0.3510     3.7130    -1.1310 H     1 <1>   0.0800 
 32 H        0.3290     1.9590    -1.0050 H     1 <1>   0.0800 
 33 H        0.3170     2.9610     0.4590 H     1 <1>   0.0800 
 34 H       -7.0280    -0.8470    -1.4900 H     1 <1>   0.3700 
 35 H      -11.2450     1.4930    -0.7570 H     1 <1>   0.0800 
 36 H       -9.8450     2.1190    -1.5990 H     1 <1>   0.0800 
 37 H      -10.4640     2.9630    -0.1960 H     1 <1>   0.0800 
 38 H      -10.9680     0.6930     1.5930 H     1 <1>   0.0800 
 39 H       -9.9600     2.0370     2.1000 H     1 <1>   0.0800 
 40 H       -9.3590     0.3970     2.2130 H     1 <1>   0.0800 
 41 H       -8.0100    -2.7720    -1.8590 H     1 <1>   0.0800 
 42 H       -5.7670    -3.4760    -1.1200 H     1 <1>   0.0800 
 43 H      -10.7900    -2.0130     0.6420 H     1 <1>   0.3700 
 44 H       -9.6200    -0.8790     0.0380 H     1 <1>   0.3700 
 45 H       -7.8750    -5.6170    -0.8640 H     1 <1>   0.0800 
 46 H       -6.2070    -5.8310    -1.3140 H     1 <1>   0.0800 
 47 H       -7.2840    -4.9640    -2.3720 H     1 <1>   0.0800 
 48 H       -7.1610    -4.4180     1.3950 H     1 <1>   0.0800 
 49 H       -5.8460    -3.2730     1.2940 H     1 <1>   0.0800 
 50 H       -5.5770    -4.9360     0.8800 H     1 <1>   0.0800 
@<TRIPOS>BOND
  1   1   2  1   
  2   2   3  ar  
  3   2   4  ar  
  4   3   5  1   
  5   3   6  ar  
  6   4   7  ar  
  7   4  28  1   
  8   5   8  1   
  9   6   9  ar  
 10   6  29  1   
 11   7   9  ar  
 12   7  30  1   
 13   8  31  1   
 14   8  32  1   
 15   8  33  1   
 16   9  10  1   
 17  10  11  1   
 18  10  12  2   
 19  11  13  1   
 20  12  14  1   
 21  12  15  1   
 22  13  14  2   
 23  14  16  1   
 24  15  17  2   
 25  15  18  am  
 26  16  19  1   
 27  16  20  1   
 28  18  21  1   
 29  18  34  1   
 30  19  35  1   
 31  19  36  1   
 32  19  37  1   
 33  20  38  1   
 34  20  39  1   
 35  20  40  1   
 36  21  22  1   
 37  21  23  1   
 38  21  41  1   
 39  22  24  2   
 40  22  25  am  
 41  23  26  1   
 42  23  27  1   
 43  23  42  1   
 44  25  43  1   
 45  25  44  1   
 46  26  45  1   
 47  26  46  1   
 48  26  47  1   
 49  27  48  1   
 50  27  49  1   
 51  27  50  1   
@<TRIPOS>SUBSTRUCTURE
  1 ****  12 GROUP 4 **** **** 0

# MOE 2024.06 (io_trps.svl 2023.06)
