@<TRIPOS>MOLECULE
NONAME
53 57 1 0 0 
SMALL
USER_CHARGES


@<TRIPOS>ATOM
  1 O       -1.2610     0.8770     2.5180 O.2   1 <1>  -0.5700 
  2 C       -2.1060     1.3350     1.7700 C.2   1 <1>   0.5440 
  3 N       -3.3220     0.6910     1.6520 N.am  1 <1>  -0.6600 
  4 C       -1.8020     2.5370     1.0200 C.ar  1 <1>   0.0860 
  5 C       -4.2820     0.9230     0.5360 C.3   1 <1>   0.1400 
  6 C       -3.7040    -0.4440     2.5390 C.3   1 <1>   0.1400 
  7 C       -0.6870     2.5850     0.1780 C.ar  1 <1>  -0.1500 
  8 C       -2.6080     3.6790     1.1170 C.ar  1 <1>  -0.1500 
  9 C       -4.3790    -0.3430    -0.3180 C.3   1 <1>  -0.1600 
 10 C       -3.8020    -1.7290     1.7130 C.3   1 <1>  -0.1600 
 11 C       -0.4170     3.7300    -0.5440 C.ar  1 <1>  -0.1430 
 12 C       -2.3320     4.8260     0.3910 C.ar  1 <1>  -0.1500 
 13 C       -4.7620    -1.5800     0.5190 C.3   1 <1>   0.4240 
 14 C       -1.2280     4.8270    -0.4390 C.ar  1 <1>   0.0830 
 15 C        0.6910     4.0450    -1.5050 C.3   1 <1>  -0.0160 
 16 O       -6.0070    -1.2910     1.1220 O.3   1 <1>  -0.5600 
 17 C       -4.8260    -2.8820    -0.3310 C.ar  1 <1>  -0.1430 
 18 O       -0.8270     5.8490    -1.2050 O.3   1 <1>  -0.3630 
 19 C        0.3550     5.4930    -1.9080 C.3   1 <1>   0.1200 
 20 C       -7.1590    -1.5290     0.3830 C.3   1 <1>   0.1200 
 21 C       -3.7000    -3.4070    -0.9800 C.ar  1 <1>   0.0830 
 22 C       -6.0350    -3.5650    -0.4660 C.ar  1 <1>  -0.1430 
 23 C       -7.2920    -3.0310     0.1890 C.3   1 <1>  -0.0170 
 24 O       -2.5160    -2.7470    -0.8830 O.3   1 <1>  -0.3630 
 25 C       -3.7990    -4.5840    -1.7190 C.ar  1 <1>  -0.1500 
 26 C       -6.1210    -4.7360    -1.1990 C.ar  1 <1>  -0.1500 
 27 C       -1.2880    -3.3250    -1.2700 C.3   1 <1>   0.0400 
 28 C       -5.0030    -5.2480    -1.8260 C.ar  1 <1>  -0.1500 
 29 H       -3.9660     1.7410    -0.0850 H     1 <1>   0.0800 
 30 H       -5.2470     1.1660     0.9480 H     1 <1>   0.0800 
 31 H       -4.6530    -0.2270     2.9980 H     1 <1>   0.0800 
 32 H       -2.9800    -0.5740     3.3260 H     1 <1>   0.0800 
 33 H       -0.0490     1.7220     0.1030 H     1 <1>   0.1500 
 34 H       -3.4580     3.6570     1.7760 H     1 <1>   0.1500 
 35 H       -3.4240    -0.4920    -0.7820 H     1 <1>   0.0800 
 36 H       -5.0880    -0.2010    -1.1100 H     1 <1>   0.0800 
 37 H       -4.1380    -2.5380     2.3340 H     1 <1>   0.0800 
 38 H       -2.8120    -1.9720     1.3830 H     1 <1>   0.0800 
 39 H       -2.9490     5.7030     0.4610 H     1 <1>   0.1500 
 40 H        0.6670     3.3910    -2.3580 H     1 <1>   0.0800 
 41 H        1.6520     3.9910    -1.0260 H     1 <1>   0.0800 
 42 H        0.1560     5.5760    -2.9620 H     1 <1>   0.0800 
 43 H        1.1340     6.1750    -1.6190 H     1 <1>   0.0800 
 44 H       -7.0930    -1.0170    -0.5610 H     1 <1>   0.0800 
 45 H       -7.9950    -1.1440     0.9400 H     1 <1>   0.0800 
 46 H       -8.1500    -3.2330    -0.4260 H     1 <1>   0.0800 
 47 H       -7.4360    -3.5060     1.1430 H     1 <1>   0.0800 
 48 H       -2.9500    -5.0000    -2.2250 H     1 <1>   0.1500 
 49 H       -7.0590    -5.2560    -1.2870 H     1 <1>   0.1500 
 50 H       -0.5000    -2.6540    -0.9790 H     1 <1>   0.0800 
 51 H       -1.2830    -3.4530    -2.3380 H     1 <1>   0.0800 
 52 H       -1.1710    -4.2670    -0.7650 H     1 <1>   0.0800 
 53 H       -5.0730    -6.1570    -2.3960 H     1 <1>   0.1500 
@<TRIPOS>BOND
  1   1   2  2   
  2   2   3  am  
  3   2   4  1   
  4   3   5  1   
  5   3   6  1   
  6   4   7  ar  
  7   4   8  ar  
  8   5   9  1   
  9   5  29  1   
 10   5  30  1   
 11   6  10  1   
 12   6  31  1   
 13   6  32  1   
 14   7  11  ar  
 15   7  33  1   
 16   8  12  ar  
 17   8  34  1   
 18   9  13  1   
 19   9  35  1   
 20   9  36  1   
 21  10  13  1   
 22  10  37  1   
 23  10  38  1   
 24  11  14  ar  
 25  11  15  1   
 26  12  14  ar  
 27  12  39  1   
 28  13  16  1   
 29  13  17  1   
 30  14  18  1   
 31  15  19  1   
 32  15  40  1   
 33  15  41  1   
 34  16  20  1   
 35  17  21  ar  
 36  17  22  ar  
 37  18  19  1   
 38  19  42  1   
 39  19  43  1   
 40  20  23  1   
 41  20  44  1   
 42  20  45  1   
 43  21  24  1   
 44  21  25  ar  
 45  22  23  1   
 46  22  26  ar  
 47  23  46  1   
 48  23  47  1   
 49  24  27  1   
 50  25  28  ar  
 51  25  48  1   
 52  26  28  ar  
 53  26  49  1   
 54  27  50  1   
 55  27  51  1   
 56  27  52  1   
 57  28  53  1   
@<TRIPOS>SUBSTRUCTURE
  1 ****   9 GROUP 4 **** **** 0

# MOE 2024.06 (io_trps.svl 2023.06)
