@<TRIPOS>MOLECULE
NONAME
46 48 1 0 0 
SMALL
USER_CHARGES


@<TRIPOS>ATOM
  1 S        0.7610     1.2810    -1.0550 S.o2  1 <1>   1.3330 
  2 O        1.3270     0.0060    -1.4290 O.2   1 <1>  -0.6500 
  3 O        0.1410     2.0960    -2.0760 O.2   1 <1>  -0.6500 
  4 N        2.0170     2.1900    -0.3700 N.am  1 <1>  -0.8490 
  5 C       -0.4520     0.9870     0.2480 C.3   1 <1>  -0.0550 
  6 C        2.8520     2.8180    -1.3970 C.3   1 <1>   0.1160 
  7 C        2.8650     1.4340     0.5570 C.3   1 <1>   0.1160 
  8 C       -1.1230     2.1730     0.9900 C.3   1 <1>  -0.0800 
  9 C       -1.5880     3.3300     0.1000 C.3   1 <1>   0.2000 
 10 C       -0.2200     2.8340     2.0370 C.3   1 <1>   0.1400 
 11 O       -2.7010     3.8940     0.7060 O.3   1 <1>  -0.6800 
 12 C       -0.4550     4.3580     0.1520 C.3   1 <1>   0.1400 
 13 N        0.2340     4.1190     1.4510 N.am  1 <1>  -0.6600 
 14 C        1.4630     4.6530     1.7810 C.2   1 <1>   0.5440 
 15 O        2.1040     4.1240     2.6730 O.2   1 <1>  -0.5700 
 16 C        2.0180     5.8020     1.0920 C.ar  1 <1>   0.0860 
 17 C        3.3470     5.7820     0.6560 C.ar  1 <1>  -0.1500 
 18 C        1.2670     6.9610     0.8500 C.ar  1 <1>  -0.1500 
 19 C        3.8740     6.8650    -0.0190 C.ar  1 <1>  -0.1440 
 20 C        1.7980     8.0460     0.1720 C.ar  1 <1>  -0.1500 
 21 C        3.1080     7.9740    -0.2590 C.ar  1 <1>   0.0820 
 22 C        5.2420     7.0980    -0.5880 C.3   1 <1>  -0.0170 
 23 O        3.7680     8.9310    -0.9210 O.3   1 <1>  -0.3620 
 24 C        5.1070     8.5210    -1.1600 C.3   1 <1>   0.1200 
 25 H       -1.2450     0.4190    -0.2000 H     1 <1>   0.0800 
 26 H       -0.0090     0.3440     0.9830 H     1 <1>   0.0800 
 27 H        3.6420     3.3880    -0.9420 H     1 <1>   0.0800 
 28 H        2.2580     3.4860    -1.9980 H     1 <1>   0.0800 
 29 H        3.2830     2.0670    -2.0390 H     1 <1>   0.0800 
 30 H        3.5680     2.0960     1.0340 H     1 <1>   0.0800 
 31 H        3.4040     0.6610     0.0330 H     1 <1>   0.0800 
 32 H        2.2660     0.9780     1.3250 H     1 <1>   0.0800 
 33 H       -1.9720     1.7510     1.5010 H     1 <1>   0.0800 
 34 H       -1.8630     3.0430    -0.9010 H     1 <1>   0.0800 
 35 H        0.6160     2.2090     2.2970 H     1 <1>   0.0800 
 36 H       -0.7800     3.0470     2.9310 H     1 <1>   0.0800 
 37 H       -2.4250     4.3110     1.5460 H     1 <1>   0.4000 
 38 H       -0.8420     5.3590     0.0810 H     1 <1>   0.0800 
 39 H        0.2390     4.1960    -0.6530 H     1 <1>   0.0800 
 40 H        3.9510     4.9150     0.8580 H     1 <1>   0.1500 
 41 H        0.2540     7.0090     1.2080 H     1 <1>   0.1500 
 42 H        1.2210     8.9330    -0.0190 H     1 <1>   0.1500 
 43 H        5.4690     6.3910    -1.3650 H     1 <1>   0.0800 
 44 H        5.9970     7.0600     0.1770 H     1 <1>   0.0800 
 45 H        5.2820     8.5440    -2.2210 H     1 <1>   0.0800 
 46 H        5.7610     9.2120    -0.6590 H     1 <1>   0.0800 
@<TRIPOS>BOND
  1   1   2  2   
  2   1   3  2   
  3   1   4  am  
  4   1   5  1   
  5   4   6  1   
  6   4   7  1   
  7   5   8  1   
  8   5  25  1   
  9   5  26  1   
 10   6  27  1   
 11   6  28  1   
 12   6  29  1   
 13   7  30  1   
 14   7  31  1   
 15   7  32  1   
 16   8   9  1   
 17   8  10  1   
 18   8  33  1   
 19   9  11  1   
 20   9  12  1   
 21   9  34  1   
 22  10  13  1   
 23  10  35  1   
 24  10  36  1   
 25  11  37  1   
 26  12  13  1   
 27  12  38  1   
 28  12  39  1   
 29  13  14  am  
 30  14  15  2   
 31  14  16  1   
 32  16  17  ar  
 33  16  18  ar  
 34  17  19  ar  
 35  17  40  1   
 36  18  20  ar  
 37  18  41  1   
 38  19  21  ar  
 39  19  22  1   
 40  20  21  ar  
 41  20  42  1   
 42  21  23  1   
 43  22  24  1   
 44  22  43  1   
 45  22  44  1   
 46  23  24  1   
 47  24  45  1   
 48  24  46  1   
@<TRIPOS>SUBSTRUCTURE
  1 ****  14 GROUP 4 **** **** 0

# MOE 2024.06 (io_trps.svl 2023.06)
