@<TRIPOS>MOLECULE
NONAME
54 56 1 0 0 
SMALL
USER_CHARGES


@<TRIPOS>ATOM
  1 O       -0.8630     1.0130    -1.2700 O.2   1 <1>  -0.5700 
  2 C       -0.8480     2.2050    -1.0720 C.2   1 <1>   0.5690 
  3 N       -1.5470     2.8220    -0.0650 N.am  1 <1>  -0.6600 
  4 C       -0.0040     3.0630    -2.0100 C.3   1 <1>   0.1810 
  5 C       -1.4920     4.3150     0.0990 C.3   1 <1>   0.3640 
  6 C       -2.3320     2.1090     0.9810 C.3   1 <1>   0.2200 
  7 O        0.5250     4.1850    -1.3530 O.3   1 <1>  -0.5600 
  8 C       -2.8860     4.9010    -0.1410 C.ar  1 <1>  -0.1440 
  9 C       -0.4610     5.0480    -0.8060 C.3   1 <1>   0.2610 
 10 C       -1.4060     1.2450     1.8370 C.3   1 <1>  -0.2400 
 11 C       -3.4700     1.2920     0.3680 C.3   1 <1>  -0.2400 
 12 C       -3.6480     4.5220    -1.2400 C.ar  1 <1>  -0.1500 
 13 C       -3.4050     5.8370     0.7420 C.ar  1 <1>  -0.1500 
 14 C        0.2100     6.1740    -0.0090 C.2   1 <1>   0.5690 
 15 C       -4.9030     5.0650    -1.4490 C.ar  1 <1>  -0.1500 
 16 C       -4.6600     6.3820     0.5350 C.ar  1 <1>  -0.1500 
 17 O       -0.4650     7.0250     0.5220 O.2   1 <1>  -0.5700 
 18 N        1.5660     6.2060     0.0830 N.am  1 <1>  -0.7300 
 19 C       -5.4110     5.9950    -0.5610 C.ar  1 <1>  -0.1500 
 20 C        2.3620     7.1890     0.8580 C.3   1 <1>   0.1400 
 21 C        2.8570     8.3470    -0.0360 C.3   1 <1>   0.0000 
 22 C        3.8650     9.2780     0.6990 C.3   1 <1>   0.0000 
 23 C        4.0250     7.9480    -0.9840 C.3   1 <1>   0.0000 
 24 C        1.7370     9.1210    -0.7580 C.3   1 <1>   0.1200 
 25 C        5.0100     8.4030     0.1240 C.3   1 <1>   0.0000 
 26 O        0.7670     9.5200     0.1480 O.3   1 <1>  -0.6800 
 27 H       -0.5980     3.3920    -2.8420 H     1 <1>   0.0800 
 28 H        0.8210     2.4800    -2.3780 H     1 <1>   0.0800 
 29 H       -1.2190     4.5080     1.1230 H     1 <1>   0.0800 
 30 H       -2.7840     2.8410     1.6310 H     1 <1>   0.0800 
 31 H       -0.9770     5.5020    -1.6330 H     1 <1>   0.0800 
 32 H       -0.9820     0.4460     1.2550 H     1 <1>   0.0800 
 33 H       -1.9610     0.8100     2.6480 H     1 <1>   0.0800 
 34 H       -0.6150     1.8440     2.2480 H     1 <1>   0.0800 
 35 H       -3.0930     0.4840    -0.2310 H     1 <1>   0.0800 
 36 H       -4.0970     1.9210    -0.2370 H     1 <1>   0.0800 
 37 H       -4.0740     0.8710     1.1500 H     1 <1>   0.0800 
 38 H       -3.2720     3.7940    -1.9380 H     1 <1>   0.1500 
 39 H       -2.8320     6.1590     1.5960 H     1 <1>   0.1500 
 40 H       -5.4860     4.7620    -2.3010 H     1 <1>   0.1500 
 41 H       -5.0500     7.1090     1.2250 H     1 <1>   0.1500 
 42 H        2.0830     5.4740    -0.4190 H     1 <1>   0.3700 
 43 H       -6.3870     6.4190    -0.7210 H     1 <1>   0.1500 
 44 H        1.7560     7.5920     1.6530 H     1 <1>   0.0800 
 45 H        3.1930     6.6810     1.3150 H     1 <1>   0.0800 
 46 H        3.8880    10.2790     0.3040 H     1 <1>   0.0000 
 47 H        3.7970     9.2480     1.7730 H     1 <1>   0.0000 
 48 H        4.0820     6.8980    -1.2070 H     1 <1>   0.0000 
 49 H        4.0890     8.5710    -1.8600 H     1 <1>   0.0000 
 50 H        1.2630     8.5050    -1.5010 H     1 <1>   0.0800 
 51 H        2.1260    10.0040    -1.2340 H     1 <1>   0.0800 
 52 H        5.2950     7.6010     0.7840 H     1 <1>   0.0000 
 53 H        5.8450     8.9710    -0.2450 H     1 <1>   0.0000 
 54 H        0.2290     8.7340     0.4200 H     1 <1>   0.4000 
@<TRIPOS>BOND
  1   1   2  2   
  2   2   3  am  
  3   2   4  1   
  4   3   5  1   
  5   3   6  1   
  6   4   7  1   
  7   4  27  1   
  8   4  28  1   
  9   5   8  1   
 10   5   9  1   
 11   5  29  1   
 12   6  10  1   
 13   6  11  1   
 14   6  30  1   
 15   7   9  1   
 16   8  12  ar  
 17   8  13  ar  
 18   9  14  1   
 19   9  31  1   
 20  10  32  1   
 21  10  33  1   
 22  10  34  1   
 23  11  35  1   
 24  11  36  1   
 25  11  37  1   
 26  12  15  ar  
 27  12  38  1   
 28  13  16  ar  
 29  13  39  1   
 30  14  17  2   
 31  14  18  am  
 32  15  19  ar  
 33  15  40  1   
 34  16  19  ar  
 35  16  41  1   
 36  18  20  1   
 37  18  42  1   
 38  19  43  1   
 39  20  21  1   
 40  20  44  1   
 41  20  45  1   
 42  21  22  1   
 43  21  23  1   
 44  21  24  1   
 45  22  25  1   
 46  22  46  1   
 47  22  47  1   
 48  23  25  1   
 49  23  48  1   
 50  23  49  1   
 51  24  26  1   
 52  24  50  1   
 53  24  51  1   
 54  25  52  1   
 55  25  53  1   
 56  26  54  1   
@<TRIPOS>SUBSTRUCTURE
  1 ****   9 GROUP 4 **** **** 0

# MOE 2024.06 (io_trps.svl 2023.06)
