@<TRIPOS>MOLECULE
NONAME
54 56 1 0 0 
SMALL
USER_CHARGES


@<TRIPOS>ATOM
  1 O        2.3310    -0.7140    -1.5140 O.2   1 <1>  -0.5700 
  2 C        1.9190    -1.0550    -0.4310 C.2   1 <1>   0.5690 
  3 N        1.7190    -0.1920     0.6010 N.am  1 <1>  -0.7300 
  4 C        1.5920    -2.5340    -0.1950 C.3   1 <1>   0.1710 
  5 C        1.9040     1.2730     0.6380 C.3   1 <1>   0.2200 
  6 N        0.4860    -2.7770     0.7790 N.3   1 <1>  -0.8100 
  7 C        0.8440     1.9310    -0.2540 C.3   1 <1>  -0.1600 
  8 C        3.3610     1.6260     0.2980 C.3   1 <1>  -0.1600 
  9 C       -0.8100    -2.2770     0.2910 C.3   1 <1>   0.1100 
 10 C        0.2980    -4.2120     1.0700 C.3   1 <1>   0.1100 
 11 C        0.9070     3.4670    -0.3060 C.3   1 <1>  -0.1600 
 12 C        3.7310     3.0570     0.7240 C.3   1 <1>  -0.1600 
 13 C       -1.8430    -3.0800     1.0720 C.3   1 <1>   0.2000 
 14 C       -1.2190    -4.4710     1.1250 C.3   1 <1>  -0.0800 
 15 C        2.1090     3.9750    -1.1150 C.3   1 <1>  -0.1600 
 16 C        3.4080     4.1440    -0.3130 C.3   1 <1>  -0.1600 
 17 O       -1.8770    -2.5760     2.3580 O.3   1 <1>  -0.6800 
 18 C       -1.6980    -5.3370    -0.0570 C.3   1 <1>   0.0210 
 19 C       -1.0410    -6.7050    -0.0670 C.2   1 <1>   0.1080 
 20 N       -1.1320    -7.5390     0.9210 N.2   1 <1>  -0.7070 
 21 C       -0.2800    -7.2140    -1.1140 C.2   1 <1>  -0.1500 
 22 N       -0.4270    -8.6160     0.5260 N.pl3 1 <1>   0.3000 
 23 C        0.1010    -8.4420    -0.7040 C.2   1 <1>  -0.3320 
 24 C        0.9460    -9.4780    -1.4220 C.3   1 <1>  -0.0600 
 25 H        1.2820    -0.6060     1.4290 H     1 <1>   0.3700 
 26 H        2.4870    -3.0040     0.1690 H     1 <1>   0.0800 
 27 H        1.3480    -2.9820    -1.1420 H     1 <1>   0.0800 
 28 H        1.7200     1.5860     1.6520 H     1 <1>   0.0800 
 29 H        0.9300     1.5450    -1.2550 H     1 <1>   0.0800 
 30 H       -0.1240     1.6500     0.1200 H     1 <1>   0.0800 
 31 H        3.9980     0.9500     0.8400 H     1 <1>   0.0800 
 32 H        3.5520     1.4860    -0.7510 H     1 <1>   0.0800 
 33 H       -0.9200    -1.2190     0.4560 H     1 <1>   0.0800 
 34 H       -0.9170    -2.4840    -0.7600 H     1 <1>   0.0800 
 35 H        0.7680    -4.8250     0.3190 H     1 <1>   0.0800 
 36 H        0.7460    -4.4410     2.0220 H     1 <1>   0.0800 
 37 H        0.0120     3.8100    -0.7960 H     1 <1>   0.0800 
 38 H        0.9090     3.8860     0.6860 H     1 <1>   0.0800 
 39 H        3.2410     3.2920     1.6530 H     1 <1>   0.0800 
 40 H        4.7900     3.0930     0.9160 H     1 <1>   0.0800 
 41 H       -2.8360    -3.0470     0.6570 H     1 <1>   0.0800 
 42 H       -1.4840    -4.9790     2.0370 H     1 <1>   0.0800 
 43 H        2.2870     3.3110    -1.9450 H     1 <1>   0.0800 
 44 H        1.8590     4.9330    -1.5380 H     1 <1>   0.0800 
 45 H        3.3780     5.0910     0.1990 H     1 <1>   0.0800 
 46 H        4.2210     4.1980    -1.0170 H     1 <1>   0.0800 
 47 H       -0.9450    -2.5070     2.6540 H     1 <1>   0.4000 
 48 H       -1.4940    -4.8420    -0.9890 H     1 <1>   0.0800 
 49 H       -2.7610    -5.4810     0.0180 H     1 <1>   0.0800 
 50 H       -0.0590    -6.7160    -2.0420 H     1 <1>   0.1500 
 51 H       -0.3310    -9.4510     1.1150 H     1 <1>   0.2700 
 52 H        1.2490    -9.1050    -2.3850 H     1 <1>   0.0800 
 53 H        0.3810   -10.3820    -1.5690 H     1 <1>   0.0800 
 54 H        1.8270    -9.7030    -0.8490 H     1 <1>   0.0800 
@<TRIPOS>BOND
  1   1   2  2   
  2   2   3  am  
  3   2   4  1   
  4   3   5  1   
  5   3  25  1   
  6   4   6  1   
  7   4  26  1   
  8   4  27  1   
  9   5   7  1   
 10   5   8  1   
 11   5  28  1   
 12   6   9  1   
 13   6  10  1   
 14   7  11  1   
 15   7  29  1   
 16   7  30  1   
 17   8  12  1   
 18   8  31  1   
 19   8  32  1   
 20   9  13  1   
 21   9  33  1   
 22   9  34  1   
 23  10  14  1   
 24  10  35  1   
 25  10  36  1   
 26  11  15  1   
 27  11  37  1   
 28  11  38  1   
 29  12  16  1   
 30  12  39  1   
 31  12  40  1   
 32  13  14  1   
 33  13  17  1   
 34  13  41  1   
 35  14  18  1   
 36  14  42  1   
 37  15  16  1   
 38  15  43  1   
 39  15  44  1   
 40  16  45  1   
 41  16  46  1   
 42  17  47  1   
 43  18  19  1   
 44  18  48  1   
 45  18  49  1   
 46  19  20  2   
 47  19  21  1   
 48  20  22  1   
 49  21  23  2   
 50  21  50  1   
 51  22  23  1   
 52  22  51  1   
 53  23  24  1   
 54  24  52  1   
 55  24  53  1   
 56  24  54  1   
@<TRIPOS>SUBSTRUCTURE
  1 ****   6 GROUP 4 **** **** 0

# MOE 2024.06 (io_trps.svl 2023.06)
