@<TRIPOS>MOLECULE
NONAME
47 49 1 0 0 
SMALL
USER_CHARGES


@<TRIPOS>ATOM
  1 O       -2.1070     0.7740    -1.9330 O.2   1 <1>  -0.5700 
  2 C       -1.9920     0.7450    -0.7310 C.2   1 <1>   0.5690 
  3 N       -1.9180    -0.4150    -0.0260 N.am  1 <1>  -0.5790 
  4 C       -1.9300     2.0600     0.0480 C.3   1 <1>  -0.0190 
  5 C       -2.1100    -1.7640    -0.5700 C.3   1 <1>   0.1810 
  6 C       -2.8800     3.1330    -0.5250 C.3   1 <1>  -0.1600 
  7 C       -0.4810     2.5960     0.1190 C.3   1 <1>  -0.1600 
  8 C       -3.5660    -2.1990    -0.5140 C.ar  1 <1>  -0.0320 
  9 C       -1.2390    -2.2130    -1.6990 C.3   1 <1>  -0.2000 
 10 C       -1.0080    -2.7460    -0.3210 C.3   1 <1>  -0.2000 
 11 C       -2.9260     4.4020     0.3530 C.3   1 <1>   0.2000 
 12 C       -0.3910     4.1020     0.4420 C.3   1 <1>  -0.1600 
 13 C       -4.0350    -3.0020     0.5140 C.ar  1 <1>  -0.1500 
 14 C       -4.4430    -1.7760    -1.4990 C.ar  1 <1>  -0.1500 
 15 O       -3.1090     5.5190    -0.4830 O.3   1 <1>  -0.5600 
 16 C       -1.6320     4.6000     1.1880 C.3   1 <1>   0.2000 
 17 C       -5.3660    -3.3850     0.5610 C.ar  1 <1>  -0.1440 
 18 C       -5.7720    -2.1550    -1.4610 C.ar  1 <1>  -0.1500 
 19 C       -4.4070     5.7000    -0.9590 C.3   1 <1>   0.0400 
 20 O       -1.4630     5.9420     1.4540 O.3   1 <1>  -0.6800 
 21 C       -6.2320    -2.9600    -0.4330 C.ar  1 <1>  -0.1500 
 22 C       -5.8730    -4.2690     1.6870 C.3   1 <1>  -0.0970 
 23 H       -1.9020    -0.3840     0.9900 H     1 <1>   0.3700 
 24 H       -2.2600     1.8520     1.0500 H     1 <1>   0.0800 
 25 H       -3.8710     2.7230    -0.6140 H     1 <1>   0.0800 
 26 H       -2.5360     3.3920    -1.5130 H     1 <1>   0.0800 
 27 H        0.0570     2.0360     0.8640 H     1 <1>   0.0800 
 28 H        0.0100     2.4260    -0.8250 H     1 <1>   0.0800 
 29 H       -1.6630    -2.8670    -2.4400 H     1 <1>   0.1000 
 30 H       -0.5520    -1.5010    -2.1210 H     1 <1>   0.1000 
 31 H       -0.1270    -2.4260     0.2050 H     1 <1>   0.1000 
 32 H       -1.2470    -3.7800    -0.1490 H     1 <1>   0.1000 
 33 H       -3.7530     4.3470     1.0400 H     1 <1>   0.0800 
 34 H       -0.3100     4.6490    -0.4820 H     1 <1>   0.0800 
 35 H        0.4920     4.2960     1.0270 H     1 <1>   0.0800 
 36 H       -3.3570    -3.3310     1.2810 H     1 <1>   0.1500 
 37 H       -4.0820    -1.1460    -2.2950 H     1 <1>   0.1500 
 38 H       -1.7130     4.0850     2.1300 H     1 <1>   0.0800 
 39 H       -6.4470    -1.8250    -2.2310 H     1 <1>   0.1500 
 40 H       -4.4220     6.5970    -1.5530 H     1 <1>   0.0800 
 41 H       -5.0800     5.8070    -0.1260 H     1 <1>   0.0800 
 42 H       -4.6880     4.8600    -1.5700 H     1 <1>   0.0800 
 43 H       -1.8500     6.4170     0.6830 H     1 <1>   0.4000 
 44 H       -7.2670    -3.2530    -0.4110 H     1 <1>   0.1500 
 45 H       -6.8880    -4.0150     1.9330 H     1 <1>   0.0800 
 46 H       -5.2690    -4.1440     2.5670 H     1 <1>   0.0800 
 47 H       -5.8360    -5.3000     1.3830 H     1 <1>   0.0800 
@<TRIPOS>BOND
  1   1   2  2   
  2   2   3  am  
  3   2   4  1   
  4   3   5  1   
  5   3  23  1   
  6   4   6  1   
  7   4   7  1   
  8   4  24  1   
  9   5   8  1   
 10   5   9  1   
 11   5  10  1   
 12   6  11  1   
 13   6  25  1   
 14   6  26  1   
 15   7  12  1   
 16   7  27  1   
 17   7  28  1   
 18   8  13  ar  
 19   8  14  ar  
 20   9  10  1   
 21   9  29  1   
 22   9  30  1   
 23  10  31  1   
 24  10  32  1   
 25  11  15  1   
 26  11  16  1   
 27  11  33  1   
 28  12  16  1   
 29  12  34  1   
 30  12  35  1   
 31  13  17  ar  
 32  13  36  1   
 33  14  18  ar  
 34  14  37  1   
 35  15  19  1   
 36  16  20  1   
 37  16  38  1   
 38  17  21  ar  
 39  17  22  1   
 40  18  21  ar  
 41  18  39  1   
 42  19  40  1   
 43  19  41  1   
 44  19  42  1   
 45  20  43  1   
 46  21  44  1   
 47  22  45  1   
 48  22  46  1   
 49  22  47  1   
@<TRIPOS>SUBSTRUCTURE
  1 ****   2 GROUP 4 **** **** 0

# MOE 2024.06 (io_trps.svl 2023.06)
