@<TRIPOS>MOLECULE
NONAME
48 51 1 0 0 
SMALL
USER_CHARGES


@<TRIPOS>ATOM
  1 O        0.0130    -1.1030     1.0880 O.2   1 <1>  -0.5700 
  2 C        1.0830    -0.5520     0.8840 C.2   1 <1>   0.6900 
  3 N        2.2320    -1.1670     0.4740 N.am  1 <1>  -0.4770 
  4 N        1.3040     0.7760     1.0140 N.am  1 <1>  -0.5470 
  5 C        3.2040    -0.1810     0.3330 C.ar  1 <1>   0.1170 
  6 C        2.3750    -2.6140     0.2320 C.3   1 <1>   0.1400 
  7 C        2.6220     1.0310     0.6730 C.ar  1 <1>   0.1170 
  8 C        4.5330    -0.2390    -0.0610 C.ar  1 <1>  -0.1500 
  9 C        2.0060    -2.9380    -1.2140 C.3   1 <1>  -0.0990 
 10 C        3.3500     2.2100     0.6300 C.ar  1 <1>  -0.1500 
 11 C        5.2650     0.9360    -0.1060 C.ar  1 <1>  -0.1500 
 12 C        1.6870    -4.4110    -1.3220 C.2   1 <1>   0.5690 
 13 C        4.6780     2.1530     0.2380 C.ar  1 <1>  -0.1500 
 14 O        2.5960    -5.1650    -1.5690 O.2   1 <1>  -0.5700 
 15 N        0.4120    -4.8570    -1.1040 N.am  1 <1>  -0.6600 
 16 C       -0.7640    -4.0270    -0.7260 C.3   1 <1>   0.1400 
 17 C        0.0650    -6.2970    -1.0610 C.3   1 <1>   0.1400 
 18 C       -1.8840    -5.0310    -0.4470 C.3   1 <1>   0.2000 
 19 C       -1.1870    -6.3640    -0.1850 C.3   1 <1>  -0.0800 
 20 O       -2.6400    -4.6670     0.6560 O.3   1 <1>  -0.6800 
 21 C       -2.0940    -7.5730    -0.4680 C.3   1 <1>  -0.0170 
 22 C       -1.3820    -8.8840    -0.1810 C.ar  1 <1>   0.1670 
 23 N       -0.6760    -9.4050    -1.1720 N.ar  1 <1>  -0.6200 
 24 C       -1.4910    -9.4720     1.0780 C.ar  1 <1>   0.1600 
 25 C       -0.0890   -10.5370    -0.8220 C.ar  1 <1>   0.1600 
 26 N       -0.9050   -10.6040     1.4300 N.ar  1 <1>  -0.6200 
 27 C       -0.2000   -11.1170     0.4360 C.ar  1 <1>   0.1600 
 28 H        0.5830     1.4300     1.3080 H     1 <1>   0.3700 
 29 H        3.3840    -2.9270     0.4400 H     1 <1>   0.0800 
 30 H        1.7180    -3.1380     0.9050 H     1 <1>   0.0800 
 31 H        4.9790    -1.1800    -0.3260 H     1 <1>   0.1500 
 32 H        2.8340    -2.7070    -1.8590 H     1 <1>   0.0800 
 33 H        1.1600    -2.3590    -1.5310 H     1 <1>   0.0800 
 34 H        2.8870     3.1420     0.8970 H     1 <1>   0.1500 
 35 H        6.2980     0.9130    -0.4090 H     1 <1>   0.1500 
 36 H        5.2640     3.0550     0.1980 H     1 <1>   0.1500 
 37 H       -0.5340    -3.4530     0.1550 H     1 <1>   0.0800 
 38 H       -1.0370    -3.3720    -1.5340 H     1 <1>   0.0800 
 39 H       -0.1440    -6.6390    -2.0600 H     1 <1>   0.0800 
 40 H        0.8700    -6.8830    -0.6480 H     1 <1>   0.0800 
 41 H       -2.5380    -5.0950    -1.3000 H     1 <1>   0.0800 
 42 H       -0.8560    -6.3960     0.8390 H     1 <1>   0.0800 
 43 H       -2.0600    -4.4060     1.3990 H     1 <1>   0.4000 
 44 H       -2.4130    -7.5620    -1.4960 H     1 <1>   0.0800 
 45 H       -2.9760    -7.5030     0.1440 H     1 <1>   0.0800 
 46 H       -2.0870    -8.9820     1.8270 H     1 <1>   0.1500 
 47 H        0.5090   -11.0320    -1.5670 H     1 <1>   0.1500 
 48 H        0.3160   -12.0410     0.6260 H     1 <1>   0.1500 
@<TRIPOS>BOND
  1   1   2  2   
  2   2   3  am  
  3   2   4  am  
  4   3   5  1   
  5   3   6  1   
  6   4   7  1   
  7   4  28  1   
  8   5   7  ar  
  9   5   8  ar  
 10   6   9  1   
 11   6  29  1   
 12   6  30  1   
 13   7  10  ar  
 14   8  11  ar  
 15   8  31  1   
 16   9  12  1   
 17   9  32  1   
 18   9  33  1   
 19  10  13  ar  
 20  10  34  1   
 21  11  13  ar  
 22  11  35  1   
 23  12  14  2   
 24  12  15  am  
 25  13  36  1   
 26  15  16  1   
 27  15  17  1   
 28  16  18  1   
 29  16  37  1   
 30  16  38  1   
 31  17  19  1   
 32  17  39  1   
 33  17  40  1   
 34  18  19  1   
 35  18  20  1   
 36  18  41  1   
 37  19  21  1   
 38  19  42  1   
 39  20  43  1   
 40  21  22  1   
 41  21  44  1   
 42  21  45  1   
 43  22  23  ar  
 44  22  24  ar  
 45  23  25  ar  
 46  24  26  ar  
 47  24  46  1   
 48  25  27  ar  
 49  25  47  1   
 50  26  27  ar  
 51  27  48  1   
@<TRIPOS>SUBSTRUCTURE
  1 ****  15 GROUP 4 **** **** 0

# MOE 2024.06 (io_trps.svl 2023.06)
