@<TRIPOS>MOLECULE
NONAME
53 55 1 0 0 
SMALL
USER_CHARGES


@<TRIPOS>ATOM
  1 O       -0.2920    -0.5600    -0.0570 O.2   1 <1>  -0.5700 
  2 C       -1.1590     0.2790    -0.1650 C.2   1 <1>   0.5690 
  3 N       -2.4650    -0.0070     0.1300 N.am  1 <1>  -0.6600 
  4 C       -0.7630     1.6570    -0.6870 C.3   1 <1>   0.1810 
  5 C       -3.5950     0.9470     0.0670 C.3   1 <1>   0.1400 
  6 C       -2.9190    -1.3440     0.5570 C.3   1 <1>   0.1400 
  7 O       -1.0110     2.6690     0.2760 O.3   1 <1>  -0.3620 
  8 C       -4.7780     0.2250     0.7280 C.3   1 <1>  -0.0800 
  9 C       -4.4480    -1.2740     0.5890 C.3   1 <1>  -0.0800 
 10 C       -0.9260     3.9400    -0.1680 C.ar  1 <1>   0.0820 
 11 C       -6.1990     0.6390     0.2330 C.3   1 <1>   0.2800 
 12 C       -5.0930    -1.8630    -0.6740 C.3   1 <1>  -0.1600 
 13 C        0.1840     4.7260     0.1370 C.ar  1 <1>  -0.1430 
 14 C       -1.9710     4.4460    -0.9250 C.ar  1 <1>  -0.1500 
 15 O       -6.1450     1.0810    -1.0770 O.3   1 <1>  -0.6800 
 16 C       -7.1360    -0.5830     0.2400 C.3   1 <1>  -0.1600 
 17 C       -6.8130     1.7840     1.0680 C.3   1 <1>  -0.1600 
 18 C       -6.6290    -1.7560    -0.6280 C.3   1 <1>  -0.1600 
 19 C        0.2430     6.0270    -0.3570 C.ar  1 <1>  -0.1430 
 20 C        1.3170     4.1630     0.9930 C.3   1 <1>  -0.0970 
 21 C       -1.9090     5.7400    -1.4040 C.ar  1 <1>  -0.1500 
 22 C       -6.0210     3.1040     1.0740 C.3   1 <1>  -0.2400 
 23 C       -0.8050     6.5220    -1.1210 C.ar  1 <1>  -0.1500 
 24 C        1.4330     6.9360    -0.0810 C.3   1 <1>  -0.0970 
 25 H       -1.3260     1.8750    -1.5750 H     1 <1>   0.0800 
 26 H        0.2860     1.6710    -0.9190 H     1 <1>   0.0800 
 27 H       -3.3610     1.8550     0.5920 H     1 <1>   0.0800 
 28 H       -3.7850     1.1690    -0.9670 H     1 <1>   0.0800 
 29 H       -2.5610    -2.1000    -0.1210 H     1 <1>   0.0800 
 30 H       -2.5310    -1.5400     1.5420 H     1 <1>   0.0800 
 31 H       -4.7220     0.4400     1.7800 H     1 <1>   0.0800 
 32 H       -4.8080    -1.8230     1.4420 H     1 <1>   0.0800 
 33 H       -4.7300    -1.3190    -1.5310 H     1 <1>   0.0800 
 34 H       -4.8060    -2.8930    -0.7980 H     1 <1>   0.0800 
 35 H       -2.8280     3.8330    -1.1340 H     1 <1>   0.1500 
 36 H       -7.0500     1.2510    -1.3940 H     1 <1>   0.4000 
 37 H       -7.2180    -0.9280     1.2560 H     1 <1>   0.0800 
 38 H       -8.1270    -0.3030    -0.0730 H     1 <1>   0.0800 
 39 H       -7.8060     1.9840     0.7070 H     1 <1>   0.0800 
 40 H       -6.9170     1.4500     2.0860 H     1 <1>   0.0800 
 41 H       -7.0420    -2.6720    -0.2430 H     1 <1>   0.0800 
 42 H       -6.9900    -1.6390    -1.6350 H     1 <1>   0.0800 
 43 H        1.6280     4.8830     1.7270 H     1 <1>   0.0800 
 44 H        2.1550     3.9140     0.3690 H     1 <1>   0.0800 
 45 H        1.0140     3.2790     1.5230 H     1 <1>   0.0800 
 46 H       -2.7170     6.1370    -1.9930 H     1 <1>   0.1500 
 47 H       -5.8440     3.4500     0.0700 H     1 <1>   0.0800 
 48 H       -5.0760     2.9840     1.5720 H     1 <1>   0.0800 
 49 H       -6.5780     3.8610     1.5980 H     1 <1>   0.0800 
 50 H       -0.7680     7.5280    -1.5030 H     1 <1>   0.1500 
 51 H        1.3740     7.8380    -0.6630 H     1 <1>   0.0800 
 52 H        2.3500     6.4360    -0.3350 H     1 <1>   0.0800 
 53 H        1.4540     7.2050     0.9600 H     1 <1>   0.0800 
@<TRIPOS>BOND
  1   1   2  2   
  2   2   3  am  
  3   2   4  1   
  4   3   5  1   
  5   3   6  1   
  6   4   7  1   
  7   4  25  1   
  8   4  26  1   
  9   5   8  1   
 10   5  27  1   
 11   5  28  1   
 12   6   9  1   
 13   6  29  1   
 14   6  30  1   
 15   7  10  1   
 16   8   9  1   
 17   8  11  1   
 18   8  31  1   
 19   9  12  1   
 20   9  32  1   
 21  10  13  ar  
 22  10  14  ar  
 23  11  15  1   
 24  11  16  1   
 25  11  17  1   
 26  12  18  1   
 27  12  33  1   
 28  12  34  1   
 29  13  19  ar  
 30  13  20  1   
 31  14  21  ar  
 32  14  35  1   
 33  15  36  1   
 34  16  18  1   
 35  16  37  1   
 36  16  38  1   
 37  17  22  1   
 38  17  39  1   
 39  17  40  1   
 40  18  41  1   
 41  18  42  1   
 42  19  23  ar  
 43  19  24  1   
 44  20  43  1   
 45  20  44  1   
 46  20  45  1   
 47  21  23  ar  
 48  21  46  1   
 49  22  47  1   
 50  22  48  1   
 51  22  49  1   
 52  23  50  1   
 53  24  51  1   
 54  24  52  1   
 55  24  53  1   
@<TRIPOS>SUBSTRUCTURE
  1 ****   5 GROUP 4 **** **** 0

# MOE 2024.06 (io_trps.svl 2023.06)
