@<TRIPOS>MOLECULE
NONAME
43 46 1 0 0 
SMALL
USER_CHARGES


@<TRIPOS>ATOM
  1 S       -0.3840    -0.9830     1.3170 S.3   1 <1>  -0.0800 
  2 C       -0.7830     0.6600     0.7600 C.2   1 <1>  -0.0450 
  3 C       -1.7540    -1.6950     0.4760 C.2   1 <1>  -0.1100 
  4 C       -1.8990     0.5850    -0.0150 C.2   1 <1>   0.0620 
  5 C        0.0610     1.7440     1.1740 C.2   1 <1>   0.7150 
  6 C       -2.4410    -0.7340    -0.1640 C.2   1 <1>   0.0620 
  7 O       -2.4990     1.6390    -0.6130 O.3   1 <1>  -0.3420 
  8 O        0.9050     1.6100     2.0460 O.2   1 <1>  -0.5700 
  9 N        0.0330     2.9740     0.5640 N.am  1 <1>  -0.6600 
 10 O       -3.5660    -0.9530    -0.8940 O.3   1 <1>  -0.3420 
 11 C       -3.5200     1.3730    -1.5610 C.3   1 <1>   0.1200 
 12 C        0.1670     4.2150     1.4110 C.3   1 <1>   0.2200 
 13 C        0.3180     3.0530    -0.8950 C.3   1 <1>   0.1400 
 14 C       -4.3820     0.1810    -1.1150 C.3   1 <1>   0.1200 
 15 C       -0.4540     5.4560     0.7500 C.3   1 <1>   0.1200 
 16 C        1.6430     4.4920     1.7930 C.3   1 <1>   0.3430 
 17 C        1.3190     4.1600    -1.2780 C.3   1 <1>  -0.0800 
 18 O        0.4800     6.0890    -0.0760 O.3   1 <1>  -0.5600 
 19 N        2.6090     3.7280     0.9310 N.4   1 <1>  -0.9590 
 20 C        0.6450     5.5410    -1.3400 C.3   1 <1>   0.1200 
 21 C        2.6560     4.1840    -0.4990 C.3   1 <1>   0.3430 
 22 C        3.9620     3.6870     1.5500 C.3   1 <1>   0.2630 
 23 H       -1.9050    -2.7560     0.5510 H     1 <1>   0.1500 
 24 H       -4.1210     2.2590    -1.6580 H     1 <1>   0.0800 
 25 H       -3.0530     1.1580    -2.5050 H     1 <1>   0.0800 
 26 H       -0.3820     4.0450     2.3220 H     1 <1>   0.0800 
 27 H        0.7060     2.1040    -1.2260 H     1 <1>   0.0800 
 28 H       -0.6100     3.2130    -1.4190 H     1 <1>   0.0800 
 29 H       -5.1030    -0.0730    -1.8710 H     1 <1>   0.0800 
 30 H       -4.8970     0.4090    -0.1980 H     1 <1>   0.0800 
 31 H       -0.7170     6.1680     1.5130 H     1 <1>   0.0800 
 32 H       -1.3450     5.2140     0.1940 H     1 <1>   0.0800 
 33 H        1.7740     4.1870     2.8180 H     1 <1>   0.0800 
 34 H        1.8450     5.5490     1.7390 H     1 <1>   0.0800 
 35 H        1.5850     3.9570    -2.2990 H     1 <1>   0.0800 
 36 H        2.2130     2.7670     0.9530 H     1 <1>   0.4500 
 37 H       -0.3150     5.4960    -1.8280 H     1 <1>   0.0800 
 38 H        1.2650     6.2250    -1.8950 H     1 <1>   0.0800 
 39 H        3.0520     5.1870    -0.5360 H     1 <1>   0.0800 
 40 H        3.3500     3.5490    -1.0250 H     1 <1>   0.0800 
 41 H        4.3820     4.6780     1.6000 H     1 <1>   0.0800 
 42 H        4.6190     3.0590     0.9710 H     1 <1>   0.0800 
 43 H        3.9010     3.2850     2.5490 H     1 <1>   0.0800 
@<TRIPOS>BOND
  1   1   2  1   
  2   1   3  1   
  3   2   4  2   
  4   2   5  1   
  5   3   6  2   
  6   3  23  1   
  7   4   6  1   
  8   4   7  1   
  9   5   8  2   
 10   5   9  am  
 11   6  10  1   
 12   7  11  1   
 13   9  12  1   
 14   9  13  1   
 15  10  14  1   
 16  11  14  1   
 17  11  24  1   
 18  11  25  1   
 19  12  15  1   
 20  12  16  1   
 21  12  26  1   
 22  13  17  1   
 23  13  27  1   
 24  13  28  1   
 25  14  29  1   
 26  14  30  1   
 27  15  18  1   
 28  15  31  1   
 29  15  32  1   
 30  16  19  1   
 31  16  33  1   
 32  16  34  1   
 33  17  20  1   
 34  17  21  1   
 35  17  35  1   
 36  18  20  1   
 37  19  21  1   
 38  19  22  1   
 39  19  36  1   
 40  20  37  1   
 41  20  38  1   
 42  21  39  1   
 43  21  40  1   
 44  22  41  1   
 45  22  42  1   
 46  22  43  1   
@<TRIPOS>SUBSTRUCTURE
  1 ****   9 GROUP 4 **** **** 0

# MOE 2024.06 (io_trps.svl 2023.06)
