@<TRIPOS>MOLECULE
NONAME
43 44 1 0 0 
SMALL
USER_CHARGES


@<TRIPOS>ATOM
  1 S        0.9220    -0.6650    -0.7830 S.o2  1 <1>   1.3330 
  2 O        2.1490    -1.2130    -0.2480 O.2   1 <1>  -0.6500 
  3 O        0.5460    -0.9590    -2.1460 O.2   1 <1>  -0.6500 
  4 N       -0.3580    -1.1900     0.2050 N.am  1 <1>  -0.8490 
  5 C        0.9220     1.1200    -0.5520 C.3   1 <1>  -0.0550 
  6 C       -0.1560    -2.5570     0.6960 C.3   1 <1>   0.1160 
  7 C       -1.6730    -1.0860    -0.4380 C.3   1 <1>   0.1160 
  8 C        1.6050     1.6800     0.7170 C.3   1 <1>  -0.0800 
  9 C        3.1240     1.4840     0.7300 C.3   1 <1>   0.2200 
 10 C        1.1480     1.1050     2.0630 C.3   1 <1>   0.1200 
 11 N        3.7880     2.8050     0.7120 N.am  1 <1>  -0.7300 
 12 C        3.3730     0.7730     2.0590 C.3   1 <1>   0.1200 
 13 O        2.2870     1.1130     2.8590 O.3   1 <1>  -0.5600 
 14 C        4.0580     3.5360    -0.4070 C.2   1 <1>   0.7150 
 15 O        3.7320     3.0710    -1.4840 O.2   1 <1>  -0.5700 
 16 C        4.6880     4.8310    -0.2870 C.2   1 <1>   0.0550 
 17 O        4.9660     5.3190     0.9180 O.3   1 <1>  -0.2800 
 18 C        5.0860     5.7300    -1.2150 C.2   1 <1>   0.0460 
 19 C        5.5120     6.4800     0.6250 C.2   1 <1>   0.2980 
 20 N        5.6140     6.7880    -0.6120 N.2   1 <1>  -0.5650 
 21 C        5.0200     5.7000    -2.7290 C.3   1 <1>  -0.0590 
 22 C        5.9710     7.3530     1.7680 C.3   1 <1>  -0.0600 
 23 H        1.4180     1.5610    -1.3960 H     1 <1>   0.0800 
 24 H       -0.0910     1.4690    -0.5760 H     1 <1>   0.0800 
 25 H       -0.9790    -2.8550     1.3230 H     1 <1>   0.0800 
 26 H        0.7470    -2.6110     1.2800 H     1 <1>   0.0800 
 27 H       -0.0740    -3.2430    -0.1320 H     1 <1>   0.0800 
 28 H       -2.4490    -1.3390     0.2640 H     1 <1>   0.0800 
 29 H       -1.7340    -1.7540    -1.2820 H     1 <1>   0.0800 
 30 H       -1.8420    -0.0800    -0.7820 H     1 <1>   0.0800 
 31 H        1.3880     2.7330     0.7450 H     1 <1>   0.0800 
 32 H        3.4870     0.8890    -0.0910 H     1 <1>   0.0800 
 33 H        0.8190     0.0850     1.9960 H     1 <1>   0.0800 
 34 H        0.3870     1.7040     2.5320 H     1 <1>   0.0800 
 35 H        3.9370     3.2440     1.6230 H     1 <1>   0.3700 
 36 H        4.2870     1.0750     2.5370 H     1 <1>   0.0800 
 37 H        3.3620    -0.2960     1.9250 H     1 <1>   0.0800 
 38 H        4.5860     4.7870    -3.0890 H     1 <1>   0.0800 
 39 H        6.0120     5.7930    -3.1320 H     1 <1>   0.0800 
 40 H        4.4280     6.5260    -3.0780 H     1 <1>   0.0800 
 41 H        6.3930     8.2640     1.3860 H     1 <1>   0.0800 
 42 H        6.7150     6.8340     2.3420 H     1 <1>   0.0800 
 43 H        5.1350     7.5900     2.4000 H     1 <1>   0.0800 
@<TRIPOS>BOND
  1   1   2  2   
  2   1   3  2   
  3   1   4  am  
  4   1   5  1   
  5   4   6  1   
  6   4   7  1   
  7   5   8  1   
  8   5  23  1   
  9   5  24  1   
 10   6  25  1   
 11   6  26  1   
 12   6  27  1   
 13   7  28  1   
 14   7  29  1   
 15   7  30  1   
 16   8   9  1   
 17   8  10  1   
 18   8  31  1   
 19   9  11  1   
 20   9  12  1   
 21   9  32  1   
 22  10  13  1   
 23  10  33  1   
 24  10  34  1   
 25  11  14  am  
 26  11  35  1   
 27  12  13  1   
 28  12  36  1   
 29  12  37  1   
 30  14  15  2   
 31  14  16  1   
 32  16  17  1   
 33  16  18  2   
 34  17  19  1   
 35  18  20  1   
 36  18  21  1   
 37  19  20  2   
 38  19  22  1   
 39  21  38  1   
 40  21  39  1   
 41  21  40  1   
 42  22  41  1   
 43  22  42  1   
 44  22  43  1   
@<TRIPOS>SUBSTRUCTURE
  1 ****   9 GROUP 4 **** **** 0

# MOE 2024.06 (io_trps.svl 2023.06)
