@<TRIPOS>MOLECULE
NONAME
52 54 1 0 0 
SMALL
USER_CHARGES


@<TRIPOS>ATOM
  1 O       -0.1720     1.6130     2.0890 O.2   1 <1>  -0.5700 
  2 C       -0.0440     2.5050     1.2700 C.2   1 <1>   0.5440 
  3 N       -1.1650     3.1700     0.8160 N.am  1 <1>  -0.6600 
  4 C        1.2800     2.8480     0.7870 C.ar  1 <1>   0.0860 
  5 C       -2.5340     2.8530     1.3170 C.3   1 <1>   0.1400 
  6 C       -1.1530     4.1570    -0.2970 C.3   1 <1>   0.1400 
  7 C        1.9460     2.0910    -0.1800 C.ar  1 <1>  -0.1440 
  8 C        1.9180     3.9830     1.2810 C.ar  1 <1>  -0.1500 
  9 C       -3.3910     2.2410     0.1930 C.3   1 <1>   0.0000 
 10 C       -1.9840     3.6210    -1.4680 C.3   1 <1>  -0.1600 
 11 C        3.1970     2.4800    -0.6270 C.ar  1 <1>  -0.1500 
 12 C        1.3020     0.8340    -0.7500 C.3   1 <1>  -0.0970 
 13 C        3.1690     4.3760     0.8370 C.ar  1 <1>  -0.1430 
 14 C       -4.8030     1.9210     0.7150 C.3   1 <1>   0.2000 
 15 C       -3.4000     3.2020    -1.0300 C.3   1 <1>  -0.1600 
 16 C       -2.8980     0.8400    -0.2130 C.3   1 <1>  -0.1600 
 17 C        3.8160     3.6170    -0.1300 C.ar  1 <1>  -0.1430 
 18 C        3.8050     5.6290     1.4230 C.3   1 <1>  -0.0970 
 19 O       -5.6230     3.0530     0.7320 O.3   1 <1>  -0.5600 
 20 C       -5.3520     0.8420    -0.2220 C.3   1 <1>  -0.1600 
 21 C       -4.1230     0.1120    -0.7800 C.3   1 <1>  -0.1600 
 22 C        5.1920     4.0010    -0.6550 C.3   1 <1>  -0.0970 
 23 C       -6.8030     2.9140     1.4580 C.3   1 <1>   0.0400 
 24 H       -2.4850     2.1780     2.1530 H     1 <1>   0.0800 
 25 H       -2.9970     3.7620     1.6600 H     1 <1>   0.0800 
 26 H       -1.5780     5.0810     0.0560 H     1 <1>   0.0800 
 27 H       -0.1500     4.3580    -0.6300 H     1 <1>   0.0800 
 28 H        1.4070     4.5590     2.0310 H     1 <1>   0.1500 
 29 H       -2.0570     4.3840    -2.2230 H     1 <1>   0.0800 
 30 H       -1.4670     2.7890    -1.9090 H     1 <1>   0.0800 
 31 H        3.7000     1.8890    -1.3720 H     1 <1>   0.1500 
 32 H        1.9570     0.3420    -1.4450 H     1 <1>   0.0800 
 33 H        0.3900     1.0880    -1.2590 H     1 <1>   0.0800 
 34 H        1.0740     0.1470     0.0460 H     1 <1>   0.0800 
 35 H       -4.7280     1.5290     1.7160 H     1 <1>   0.0800 
 36 H       -3.9180     2.7540    -1.8590 H     1 <1>   0.0800 
 37 H       -3.9360     4.0970    -0.7660 H     1 <1>   0.0800 
 38 H       -2.0860     0.8630    -0.9160 H     1 <1>   0.0800 
 39 H       -2.5580     0.3160     0.6640 H     1 <1>   0.0800 
 40 H        3.1630     6.0810     2.1570 H     1 <1>   0.0800 
 41 H        3.9870     6.3480     0.6460 H     1 <1>   0.0800 
 42 H        4.7360     5.3800     1.8980 H     1 <1>   0.0800 
 43 H       -5.9940     0.1640     0.3110 H     1 <1>   0.0800 
 44 H       -5.8950     1.3000    -1.0300 H     1 <1>   0.0800 
 45 H       -4.1160    -0.9250    -0.4910 H     1 <1>   0.0800 
 46 H       -4.1230     0.1740    -1.8550 H     1 <1>   0.0800 
 47 H        5.5310     3.3040    -1.3990 H     1 <1>   0.0800 
 48 H        5.9040     4.0050     0.1510 H     1 <1>   0.0800 
 49 H        5.1580     4.9790    -1.0990 H     1 <1>   0.0800 
 50 H       -7.3300     3.8510     1.4190 H     1 <1>   0.0800 
 51 H       -6.5660     2.6740     2.4800 H     1 <1>   0.0800 
 52 H       -7.4080     2.1420     1.0160 H     1 <1>   0.0800 
@<TRIPOS>BOND
  1   1   2  2   
  2   2   3  am  
  3   2   4  1   
  4   3   5  1   
  5   3   6  1   
  6   4   7  ar  
  7   4   8  ar  
  8   5   9  1   
  9   5  24  1   
 10   5  25  1   
 11   6  10  1   
 12   6  26  1   
 13   6  27  1   
 14   7  11  ar  
 15   7  12  1   
 16   8  13  ar  
 17   8  28  1   
 18   9  14  1   
 19   9  15  1   
 20   9  16  1   
 21  10  15  1   
 22  10  29  1   
 23  10  30  1   
 24  11  17  ar  
 25  11  31  1   
 26  12  32  1   
 27  12  33  1   
 28  12  34  1   
 29  13  17  ar  
 30  13  18  1   
 31  14  19  1   
 32  14  20  1   
 33  14  35  1   
 34  15  36  1   
 35  15  37  1   
 36  16  21  1   
 37  16  38  1   
 38  16  39  1   
 39  17  22  1   
 40  18  40  1   
 41  18  41  1   
 42  18  42  1   
 43  19  23  1   
 44  20  21  1   
 45  20  43  1   
 46  20  44  1   
 47  21  45  1   
 48  21  46  1   
 49  22  47  1   
 50  22  48  1   
 51  22  49  1   
 52  23  50  1   
 53  23  51  1   
 54  23  52  1   
@<TRIPOS>SUBSTRUCTURE
  1 ****   3 GROUP 4 **** **** 0

# MOE 2024.06 (io_trps.svl 2023.06)
