@<TRIPOS>MOLECULE
NONAME
49 52 1 0 0 
SMALL
USER_CHARGES


@<TRIPOS>ATOM
  1 F        0.3460    -0.9770    -0.9830 F     1 <1>  -0.1900 
  2 C       -0.3690    -1.9890    -0.5610 C.ar  1 <1>   0.1900 
  3 C        0.1420    -2.9380     0.3310 C.ar  1 <1>   0.0820 
  4 C       -1.6620    -2.0700    -1.0400 C.ar  1 <1>  -0.1500 
  5 O        1.3950    -2.9660     0.8720 O.3   1 <1>  -0.3630 
  6 C       -0.6970    -3.9690     0.7210 C.ar  1 <1>  -0.1500 
  7 C       -2.4720    -3.1120    -0.6280 C.ar  1 <1>  -0.1500 
  8 C        2.3970    -2.0310     0.5380 C.3   1 <1>   0.0400 
  9 C       -2.0100    -4.0880     0.2580 C.ar  1 <1>   0.0530 
 10 C       -2.8500    -5.1810     0.6910 C.2   1 <1>   0.0870 
 11 O       -2.5910    -5.8110     1.8140 O.3   1 <1>  -0.0190 
 12 C       -3.9520    -5.7690     0.1630 C.2   1 <1>  -0.2330 
 13 N       -3.4450    -6.7690     2.0680 N.2   1 <1>  -0.4100 
 14 C       -4.2780    -6.7610     1.0870 C.2   1 <1>   0.3720 
 15 C       -4.6520    -5.4950    -1.0460 C.2   1 <1>   1.0330 
 16 N       -5.3500    -7.6540     1.0150 N.pl3 1 <1>  -0.8210 
 17 O       -5.5410    -4.6260    -1.0720 O.co2 1 <1>  -0.9000 
 18 O       -4.3740    -6.1020    -2.0940 O.co2 1 <1>  -0.9000 
 19 C       -5.2380    -8.6210    -0.1090 C.3   1 <1>   0.2090 
 20 C       -6.6800    -6.9930     1.0390 C.3   1 <1>   0.2090 
 21 C       -6.2870    -9.7290     0.0680 C.3   1 <1>  -0.0800 
 22 C       -7.7680    -8.0530     1.2380 C.3   1 <1>  -0.1600 
 23 C       -7.7020    -9.1190     0.1310 C.3   1 <1>  -0.0800 
 24 C       -6.2010   -10.7730    -1.0570 C.3   1 <1>  -0.1600 
 25 C       -8.7580   -10.2170     0.3360 C.3   1 <1>  -0.1600 
 26 C       -7.2610   -11.8700    -0.8740 C.3   1 <1>  -0.1600 
 27 C       -8.6720   -11.2740    -0.7740 C.3   1 <1>  -0.1600 
 28 H       -2.0330    -1.3300    -1.7250 H     1 <1>   0.1500 
 29 H       -0.3150    -4.7070     1.4030 H     1 <1>   0.1500 
 30 H       -3.4810    -3.1630    -1.0020 H     1 <1>   0.1500 
 31 H        3.2920    -2.2940     1.0720 H     1 <1>   0.0800 
 32 H        2.0720    -1.0490     0.8330 H     1 <1>   0.0800 
 33 H        2.5780    -2.0760    -0.5220 H     1 <1>   0.0800 
 34 H       -5.3970    -8.1170    -1.0470 H     1 <1>   0.0800 
 35 H       -4.2480    -9.0450    -0.1160 H     1 <1>   0.0800 
 36 H       -6.7090    -6.2750     1.8410 H     1 <1>   0.0800 
 37 H       -6.8500    -6.4710     0.1120 H     1 <1>   0.0800 
 38 H       -6.0760   -10.2210     1.0020 H     1 <1>   0.0800 
 39 H       -7.6300    -8.5080     2.2020 H     1 <1>   0.0800 
 40 H       -8.7290    -7.5730     1.2250 H     1 <1>   0.0800 
 41 H       -7.9000    -8.6310    -0.8090 H     1 <1>   0.0800 
 42 H       -6.3480   -10.2880    -2.0070 H     1 <1>   0.0800 
 43 H       -5.2210   -11.2190    -1.0620 H     1 <1>   0.0800 
 44 H       -8.6040   -10.6890     1.2910 H     1 <1>   0.0800 
 45 H       -9.7410    -9.7780     0.3360 H     1 <1>   0.0800 
 46 H       -7.2160   -12.5550    -1.7020 H     1 <1>   0.0800 
 47 H       -7.0450   -12.4220     0.0250 H     1 <1>   0.0800 
 48 H       -9.3820   -12.0590    -0.5800 H     1 <1>   0.0800 
 49 H       -8.9310   -10.8200    -1.7150 H     1 <1>   0.0800 
@<TRIPOS>BOND
  1   1   2  1   
  2   2   3  ar  
  3   2   4  ar  
  4   3   5  1   
  5   3   6  ar  
  6   4   7  ar  
  7   4  28  1   
  8   5   8  1   
  9   6   9  ar  
 10   6  29  1   
 11   7   9  ar  
 12   7  30  1   
 13   8  31  1   
 14   8  32  1   
 15   8  33  1   
 16   9  10  1   
 17  10  11  1   
 18  10  12  2   
 19  11  13  1   
 20  12  14  1   
 21  12  15  1   
 22  13  14  2   
 23  14  16  1   
 24  15  17  ar  
 25  15  18  ar  
 26  16  19  1   
 27  16  20  1   
 28  19  21  1   
 29  19  34  1   
 30  19  35  1   
 31  20  22  1   
 32  20  36  1   
 33  20  37  1   
 34  21  23  1   
 35  21  24  1   
 36  21  38  1   
 37  22  23  1   
 38  22  39  1   
 39  22  40  1   
 40  23  25  1   
 41  23  41  1   
 42  24  26  1   
 43  24  42  1   
 44  24  43  1   
 45  25  27  1   
 46  25  44  1   
 47  25  45  1   
 48  26  27  1   
 49  26  46  1   
 50  26  47  1   
 51  27  48  1   
 52  27  49  1   
@<TRIPOS>SUBSTRUCTURE
  1 ****  12 GROUP 4 **** **** 0

# MOE 2024.06 (io_trps.svl 2023.06)
