@<TRIPOS>MOLECULE
NONAME
45 47 1 0 0 
SMALL
USER_CHARGES


@<TRIPOS>ATOM
  1 O       -0.7410     0.1320    -0.7030 O.2   1 <1>  -0.5700 
  2 C       -1.7000     0.3620    -0.0140 C.2   1 <1>   0.4230 
  3 C       -3.0000    -0.1800    -0.2990 C.ar  1 <1>   0.0860 
  4 C       -1.4580     1.2020     1.2240 C.3   1 <1>  -0.1790 
  5 C       -4.2160     0.4930    -0.2110 C.ar  1 <1>   0.1660 
  6 C       -3.1000    -1.5000    -0.7040 C.ar  1 <1>   0.1600 
  7 N       -5.3620    -0.0990    -0.4320 N.ar  1 <1>  -0.6200 
  8 C       -4.3160     1.9730     0.1190 C.3   1 <1>  -0.0960 
  9 N       -4.2340    -2.1080    -0.9400 N.ar  1 <1>  -0.6200 
 10 C       -5.3390    -1.3820    -0.7880 C.ar  1 <1>   0.7200 
 11 N       -6.5420    -2.0010    -1.0140 N.pl3 1 <1>  -0.8380 
 12 C       -6.6700    -3.4180    -1.4870 C.3   1 <1>   0.2090 
 13 C       -7.8660    -1.3840    -0.6790 C.3   1 <1>   0.2090 
 14 C       -7.4210    -4.2830    -0.4560 C.3   1 <1>   0.2090 
 15 C       -8.6330    -2.2400     0.3490 C.3   1 <1>   0.2090 
 16 N       -8.7430    -3.6790    -0.0720 N.pl3 1 <1>  -0.8380 
 17 C       -9.9270    -4.3320    -0.1930 C.ar  1 <1>   0.1000 
 18 C      -10.2150    -5.5380     0.4760 C.ar  1 <1>  -0.1430 
 19 C      -10.9250    -3.7970    -1.0150 C.ar  1 <1>  -0.1500 
 20 C      -11.4330    -6.1460     0.2880 C.ar  1 <1>   0.2110 
 21 C       -9.2030    -6.1630     1.4330 C.3   1 <1>  -0.0970 
 22 C      -12.1260    -4.4330    -1.1730 C.ar  1 <1>   0.2110 
 23 N      -12.3700    -5.5990    -0.5270 N.ar  1 <1>  -0.1790 
 24 H       -2.2330     1.0460     1.9520 H     1 <1>   0.0800 
 25 H       -1.4110     2.2410     0.9580 H     1 <1>   0.0800 
 26 H       -0.5180     0.9220     1.6640 H     1 <1>   0.0800 
 27 H       -2.1920    -2.0690    -0.8290 H     1 <1>   0.1500 
 28 H       -3.4910     2.5180    -0.3020 H     1 <1>   0.0800 
 29 H       -4.3400     2.1130     1.1840 H     1 <1>   0.0800 
 30 H       -5.2210     2.3800    -0.2960 H     1 <1>   0.0800 
 31 H       -5.7100    -3.8610    -1.6790 H     1 <1>   0.0800 
 32 H       -7.2160    -3.4260    -2.4130 H     1 <1>   0.0800 
 33 H       -8.4490    -1.3040    -1.5780 H     1 <1>   0.0800 
 34 H       -7.7500    -0.3920    -0.2810 H     1 <1>   0.0800 
 35 H       -6.8080    -4.3820     0.4220 H     1 <1>   0.0800 
 36 H       -7.5750    -5.2620    -0.8720 H     1 <1>   0.0800 
 37 H       -9.6130    -1.8240     0.5010 H     1 <1>   0.0800 
 38 H       -8.1100    -2.1920     1.2880 H     1 <1>   0.0800 
 39 H      -10.7210    -2.8760    -1.5310 H     1 <1>   0.1500 
 40 H      -11.6710    -7.0700     0.7900 H     1 <1>   0.1500 
 41 H       -8.7700    -5.4030     2.0600 H     1 <1>   0.0800 
 42 H       -8.4140    -6.6420     0.8810 H     1 <1>   0.0800 
 43 H       -9.6630    -6.8960     2.0710 H     1 <1>   0.0800 
 44 H      -12.8920    -4.0210    -1.8120 H     1 <1>   0.1500 
 45 H      -13.2720    -6.0720    -0.6510 H     1 <1>   0.4570 
@<TRIPOS>BOND
  1   1   2  2   
  2   2   3  1   
  3   2   4  1   
  4   3   5  ar  
  5   3   6  ar  
  6   4  24  1   
  7   4  25  1   
  8   4  26  1   
  9   5   7  ar  
 10   5   8  1   
 11   6   9  ar  
 12   6  27  1   
 13   7  10  ar  
 14   8  28  1   
 15   8  29  1   
 16   8  30  1   
 17   9  10  ar  
 18  10  11  1   
 19  11  12  1   
 20  11  13  1   
 21  12  14  1   
 22  12  31  1   
 23  12  32  1   
 24  13  15  1   
 25  13  33  1   
 26  13  34  1   
 27  14  16  1   
 28  14  35  1   
 29  14  36  1   
 30  15  16  1   
 31  15  37  1   
 32  15  38  1   
 33  16  17  1   
 34  17  18  ar  
 35  17  19  ar  
 36  18  20  ar  
 37  18  21  1   
 38  19  22  ar  
 39  19  39  1   
 40  20  23  ar  
 41  20  40  1   
 42  21  41  1   
 43  21  42  1   
 44  21  43  1   
 45  22  23  ar  
 46  22  44  1   
 47  23  45  1   
@<TRIPOS>SUBSTRUCTURE
  1 ****  11 GROUP 4 **** **** 0

# MOE 2024.06 (io_trps.svl 2023.06)
