@<TRIPOS>MOLECULE
NONAME
54 57 1 0 0 
SMALL
USER_CHARGES


@<TRIPOS>ATOM
  1 F       -1.8430     0.4530    -0.0110 F     1 <1>  -0.1900 
  2 C       -1.9270     1.6420    -0.5450 C.ar  1 <1>   0.1900 
  3 C       -2.6540     2.6180     0.1110 C.ar  1 <1>  -0.1500 
  4 C       -1.2860     1.8780    -1.7450 C.ar  1 <1>  -0.1500 
  5 C       -2.7420     3.8830    -0.4520 C.ar  1 <1>  -0.1440 
  6 C       -1.3800     3.1410    -2.3060 C.ar  1 <1>  -0.1500 
  7 C       -2.1040     4.1340    -1.6610 C.ar  1 <1>  -0.1500 
  8 C       -3.5270     4.9780     0.2540 C.3   1 <1>   0.2640 
  9 O       -4.8740     4.5750     0.3660 O.3   1 <1>  -0.3620 
 10 C       -5.7930     5.3460     0.9960 C.ar  1 <1>   0.0830 
 11 C       -7.0670     4.8190     1.1170 C.ar  1 <1>  -0.1500 
 12 C       -5.5220     6.6100     1.5130 C.ar  1 <1>  -0.1500 
 13 C       -8.0940     5.5240     1.7370 C.ar  1 <1>   0.0860 
 14 C       -6.5260     7.3240     2.1430 C.ar  1 <1>  -0.1500 
 15 C       -9.4270     4.9600     1.8370 C.2   1 <1>   0.5440 
 16 C       -7.7950     6.7840     2.2540 C.ar  1 <1>  -0.1500 
 17 O       -9.5740     3.8700     2.3570 O.2   1 <1>  -0.5700 
 18 N      -10.5290     5.6280     1.3430 N.am  1 <1>  -0.6600 
 19 C      -11.9080     5.0880     1.5250 C.3   1 <1>   0.1400 
 20 C      -10.4210     6.7560     0.3670 C.3   1 <1>   0.1400 
 21 C      -12.4340     4.4850     0.2020 C.3   1 <1>   0.0000 
 22 C      -11.5830     6.7550    -0.6410 C.3   1 <1>  -0.1600 
 23 C      -13.9630     4.3150     0.2840 C.3   1 <1>   0.2000 
 24 C      -11.9700     5.3200    -1.0340 C.3   1 <1>  -0.1600 
 25 C      -11.9920     3.0230     0.0210 C.3   1 <1>  -0.1600 
 26 O      -14.6450     5.4780    -0.0220 O.3   1 <1>  -0.6800 
 27 C      -14.3260     3.2000    -0.6980 C.3   1 <1>  -0.1600 
 28 C      -13.0320     2.4020    -0.9180 C.3   1 <1>  -0.1600 
 29 H       -3.1430     2.3870     1.0410 H     1 <1>   0.1500 
 30 H       -0.7310     1.0930    -2.2250 H     1 <1>   0.1500 
 31 H       -0.8920     3.3510    -3.2420 H     1 <1>   0.1500 
 32 H       -2.1680     5.1090    -2.1130 H     1 <1>   0.1500 
 33 H       -3.4950     5.8950    -0.3060 H     1 <1>   0.0800 
 34 H       -3.1360     5.1350     1.2440 H     1 <1>   0.0800 
 35 H       -7.2680     3.8390     0.7230 H     1 <1>   0.1500 
 36 H       -4.5470     7.0530     1.4390 H     1 <1>   0.1500 
 37 H       -6.3190     8.2990     2.5500 H     1 <1>   0.1500 
 38 H       -8.5710     7.3390     2.7520 H     1 <1>   0.1500 
 39 H      -11.9310     4.3540     2.3130 H     1 <1>   0.0800 
 40 H      -12.5480     5.8980     1.8290 H     1 <1>   0.0800 
 41 H      -10.4020     7.6900     0.9000 H     1 <1>   0.0800 
 42 H       -9.4970     6.6590    -0.1780 H     1 <1>   0.0800 
 43 H      -12.4310     7.2570    -0.2070 H     1 <1>   0.0800 
 44 H      -11.2930     7.3120    -1.5140 H     1 <1>   0.0800 
 45 H      -14.2480     4.0170     1.2800 H     1 <1>   0.0800 
 46 H      -11.0930     4.8690    -1.4650 H     1 <1>   0.0800 
 47 H      -12.7180     5.3310    -1.8060 H     1 <1>   0.0800 
 48 H      -10.9870     2.9300    -0.3540 H     1 <1>   0.0800 
 49 H      -12.0350     2.5130     0.9690 H     1 <1>   0.0800 
 50 H      -14.3590     5.7970    -0.8980 H     1 <1>   0.4000 
 51 H      -15.0900     2.5730    -0.2730 H     1 <1>   0.0800 
 52 H      -14.6720     3.5990    -1.6350 H     1 <1>   0.0800 
 53 H      -13.1670     1.3550    -0.7080 H     1 <1>   0.0800 
 54 H      -12.7080     2.5130    -1.9390 H     1 <1>   0.0800 
@<TRIPOS>BOND
  1   1   2  1   
  2   2   3  ar  
  3   2   4  ar  
  4   3   5  ar  
  5   3  29  1   
  6   4   6  ar  
  7   4  30  1   
  8   5   7  ar  
  9   5   8  1   
 10   6   7  ar  
 11   6  31  1   
 12   7  32  1   
 13   8   9  1   
 14   8  33  1   
 15   8  34  1   
 16   9  10  1   
 17  10  11  ar  
 18  10  12  ar  
 19  11  13  ar  
 20  11  35  1   
 21  12  14  ar  
 22  12  36  1   
 23  13  15  1   
 24  13  16  ar  
 25  14  16  ar  
 26  14  37  1   
 27  15  17  2   
 28  15  18  am  
 29  16  38  1   
 30  18  19  1   
 31  18  20  1   
 32  19  21  1   
 33  19  39  1   
 34  19  40  1   
 35  20  22  1   
 36  20  41  1   
 37  20  42  1   
 38  21  23  1   
 39  21  24  1   
 40  21  25  1   
 41  22  24  1   
 42  22  43  1   
 43  22  44  1   
 44  23  26  1   
 45  23  27  1   
 46  23  45  1   
 47  24  46  1   
 48  24  47  1   
 49  25  28  1   
 50  25  48  1   
 51  25  49  1   
 52  26  50  1   
 53  27  28  1   
 54  27  51  1   
 55  27  52  1   
 56  28  53  1   
 57  28  54  1   
@<TRIPOS>SUBSTRUCTURE
  1 ****  11 GROUP 4 **** **** 0

# MOE 2024.06 (io_trps.svl 2023.06)
