@<TRIPOS>MOLECULE
NONAME
44 46 1 0 0 
SMALL
USER_CHARGES


@<TRIPOS>ATOM
  1 S        0.4640    -0.2130    -0.8530 S.3   1 <1>  -0.0800 
  2 C        1.4520    -1.4080    -0.0370 C.2   1 <1>  -0.0450 
  3 C        1.5320     1.0430    -0.2910 C.2   1 <1>   0.2280 
  4 C        2.4740    -0.7420     0.5500 C.2   1 <1>   0.0460 
  5 C        1.1030    -2.8030    -0.1200 C.2   1 <1>   0.7150 
  6 N        2.5090     0.6300     0.4120 N.2   1 <1>  -0.5650 
  7 C        3.5990    -1.3620     1.3540 C.3   1 <1>  -0.0590 
  8 O        1.9640    -3.6040    -0.4400 O.2   1 <1>  -0.5700 
  9 N       -0.1650    -3.2640     0.1600 N.am  1 <1>  -0.6600 
 10 C       -0.6270    -4.6310    -0.2340 C.3   1 <1>   0.1400 
 11 C       -1.1680    -2.5180     0.9690 C.3   1 <1>   0.1400 
 12 C       -1.9300    -4.5100    -1.0390 C.3   1 <1>   0.2000 
 13 C       -2.4800    -2.3970     0.1800 C.3   1 <1>  -0.1600 
 14 O       -2.3510    -5.7740    -1.4190 O.3   1 <1>  -0.6800 
 15 C       -3.0490    -3.7830    -0.2470 C.3   1 <1>  -0.1060 
 16 C       -3.4370    -4.6420     0.9740 C.2   1 <1>   0.9060 
 17 C       -4.2880    -3.6060    -1.1680 C.3   1 <1>  -0.0170 
 18 O       -3.6520    -5.8520     0.8030 O.co2 1 <1>  -0.9000 
 19 O       -3.5180    -4.1400     2.1010 O.co2 1 <1>  -0.9000 
 20 C       -5.2810    -2.5320    -0.7260 C.ar  1 <1>  -0.1430 
 21 C       -5.4400    -1.3750    -1.4750 C.ar  1 <1>  -0.1500 
 22 C       -6.0350    -2.6990     0.4250 C.ar  1 <1>  -0.1500 
 23 C       -6.3390    -0.4000    -1.0800 C.ar  1 <1>  -0.1500 
 24 C       -6.9330    -1.7240     0.8240 C.ar  1 <1>  -0.1500 
 25 C       -7.0860    -0.5730     0.0720 C.ar  1 <1>  -0.1500 
 26 H        1.2940     2.0540    -0.5710 H     1 <1>   0.1500 
 27 H        3.4820    -2.4280     1.4230 H     1 <1>   0.0800 
 28 H        3.6050    -0.9490     2.3460 H     1 <1>   0.0800 
 29 H        4.5390    -1.1470     0.8810 H     1 <1>   0.0800 
 30 H        0.1150    -5.1210    -0.8390 H     1 <1>   0.0800 
 31 H       -0.7950    -5.2170     0.6530 H     1 <1>   0.0800 
 32 H       -1.3410    -3.0530     1.8880 H     1 <1>   0.0800 
 33 H       -0.8090    -1.5400     1.2350 H     1 <1>   0.0800 
 34 H       -1.7100    -3.9740    -1.9450 H     1 <1>   0.0800 
 35 H       -3.1950    -1.8910     0.8050 H     1 <1>   0.0800 
 36 H       -2.3140    -1.7820    -0.6860 H     1 <1>   0.0800 
 37 H       -2.8840    -6.1240    -0.6390 H     1 <1>   0.4000 
 38 H       -3.9510    -3.3670    -2.1600 H     1 <1>   0.0800 
 39 H       -4.8100    -4.5450    -1.2430 H     1 <1>   0.0800 
 40 H       -4.8630    -1.2300    -2.3700 H     1 <1>   0.1500 
 41 H       -5.9190    -3.5890     1.0220 H     1 <1>   0.1500 
 42 H       -6.4570     0.4930    -1.6670 H     1 <1>   0.1500 
 43 H       -7.5040    -1.8680     1.7230 H     1 <1>   0.1500 
 44 H       -7.7830     0.1830     0.3840 H     1 <1>   0.1500 
@<TRIPOS>BOND
  1   1   2  1   
  2   1   3  1   
  3   2   4  2   
  4   2   5  1   
  5   3   6  2   
  6   3  26  1   
  7   4   6  1   
  8   4   7  1   
  9   5   8  2   
 10   5   9  am  
 11   7  27  1   
 12   7  28  1   
 13   7  29  1   
 14   9  10  1   
 15   9  11  1   
 16  10  12  1   
 17  10  30  1   
 18  10  31  1   
 19  11  13  1   
 20  11  32  1   
 21  11  33  1   
 22  12  14  1   
 23  12  15  1   
 24  12  34  1   
 25  13  15  1   
 26  13  35  1   
 27  13  36  1   
 28  14  37  1   
 29  15  16  1   
 30  15  17  1   
 31  16  18  ar  
 32  16  19  ar  
 33  17  20  1   
 34  17  38  1   
 35  17  39  1   
 36  20  21  ar  
 37  20  22  ar  
 38  21  23  ar  
 39  21  40  1   
 40  22  24  ar  
 41  22  41  1   
 42  23  25  ar  
 43  23  42  1   
 44  24  25  ar  
 45  24  43  1   
 46  25  44  1   
@<TRIPOS>SUBSTRUCTURE
  1 ****  13 GROUP 4 **** **** 0

# MOE 2024.06 (io_trps.svl 2023.06)
