@<TRIPOS>MOLECULE
NONAME
48 50 1 0 0 
SMALL
USER_CHARGES


@<TRIPOS>ATOM
  1 CL       1.1210     0.4850    -2.3350 Cl    1 <1>  -0.1230 
  2 C        2.3070     0.0360    -1.1240 C.2   1 <1>   0.3500 
  3 N        2.5720    -1.2570    -0.8810 N.2   1 <1>  -0.5650 
  4 C        3.0330     0.8740    -0.3600 C.2   1 <1>  -0.3320 
  5 C        3.4780    -1.1980     0.0450 C.2   1 <1>   0.0060 
  6 N        3.7960     0.0700     0.4050 N.pl3 1 <1>   0.0330 
  7 C        3.0300     2.3920    -0.3350 C.3   1 <1>   0.2900 
  8 C        4.1590    -2.3970     0.6930 C.3   1 <1>   0.0200 
  9 N        4.3890     2.9560    -0.3340 N.3   1 <1>  -0.8100 
 10 C        3.6030    -3.7450     0.2070 C.3   1 <1>  -0.1600 
 11 C        4.9990     3.0650     1.0150 C.3   1 <1>   0.1100 
 12 C        5.2360     2.4260    -1.4270 C.3   1 <1>   0.1100 
 13 C        4.3060    -4.9270     0.8870 C.3   1 <1>  -0.1600 
 14 C        6.2710     3.9470     1.1280 C.3   1 <1>   0.2200 
 15 C        6.5440     3.1990    -1.6730 C.3   1 <1>  -0.0190 
 16 C        3.7380    -6.2600     0.3930 C.3   1 <1>  -0.2400 
 17 N        6.3650     4.9930     0.0670 N.am  1 <1>  -0.6600 
 18 C        7.5600     3.1020     1.1870 C.3   1 <1>   0.1200 
 19 C        6.4800     4.6580    -1.2560 C.2   1 <1>   0.5690 
 20 C        7.7810     2.5010    -1.0860 C.3   1 <1>   0.1200 
 21 C        6.1980     6.4040     0.5120 C.3   1 <1>   0.0600 
 22 O        7.5830     2.0830     0.2310 O.3   1 <1>  -0.5600 
 23 O        6.5760     5.4950    -2.1250 O.2   1 <1>  -0.5700 
 24 H        4.5050     0.3620     1.0830 H     1 <1>   0.2700 
 25 H        2.4890     2.7430     0.5260 H     1 <1>   0.0800 
 26 H        2.5120     2.7560    -1.2060 H     1 <1>   0.0800 
 27 H        5.2110    -2.3520     0.4760 H     1 <1>   0.0800 
 28 H        4.0320    -2.3300     1.7590 H     1 <1>   0.0800 
 29 H        2.5470    -3.7830     0.4140 H     1 <1>   0.0800 
 30 H        3.7310    -3.8130    -0.8600 H     1 <1>   0.0800 
 31 H        4.2660     3.4990     1.6720 H     1 <1>   0.0800 
 32 H        5.2200     2.0870     1.3960 H     1 <1>   0.0800 
 33 H        5.4660     1.3900    -1.2520 H     1 <1>   0.0800 
 34 H        4.6590     2.4750    -2.3360 H     1 <1>   0.0800 
 35 H        5.3610    -4.8930     0.6750 H     1 <1>   0.0800 
 36 H        4.1750    -4.8630     1.9540 H     1 <1>   0.0800 
 37 H        6.2160     4.4520     2.0760 H     1 <1>   0.0800 
 38 H        6.7000     3.1990    -2.7360 H     1 <1>   0.0800 
 39 H        3.8750    -6.3560    -0.6700 H     1 <1>   0.0800 
 40 H        2.6860    -6.3250     0.6120 H     1 <1>   0.0800 
 41 H        4.2400    -7.0780     0.8770 H     1 <1>   0.0800 
 42 H        7.6160     2.6190     2.1460 H     1 <1>   0.0800 
 43 H        8.4330     3.7220     1.0730 H     1 <1>   0.0800 
 44 H        8.6450     3.1430    -1.1290 H     1 <1>   0.0800 
 45 H        7.9920     1.6160    -1.6600 H     1 <1>   0.0800 
 46 H        6.9710     6.6590     1.2140 H     1 <1>   0.0800 
 47 H        5.2350     6.5250     0.9760 H     1 <1>   0.0800 
 48 H        6.2600     7.0780    -0.3260 H     1 <1>   0.0800 
@<TRIPOS>BOND
  1   1   2  1   
  2   2   3  1   
  3   2   4  2   
  4   3   5  2   
  5   4   6  1   
  6   4   7  1   
  7   5   6  1   
  8   5   8  1   
  9   6  24  1   
 10   7   9  1   
 11   7  25  1   
 12   7  26  1   
 13   8  10  1   
 14   8  27  1   
 15   8  28  1   
 16   9  11  1   
 17   9  12  1   
 18  10  13  1   
 19  10  29  1   
 20  10  30  1   
 21  11  14  1   
 22  11  31  1   
 23  11  32  1   
 24  12  15  1   
 25  12  33  1   
 26  12  34  1   
 27  13  16  1   
 28  13  35  1   
 29  13  36  1   
 30  14  17  1   
 31  14  18  1   
 32  14  37  1   
 33  15  19  1   
 34  15  20  1   
 35  15  38  1   
 36  16  39  1   
 37  16  40  1   
 38  16  41  1   
 39  17  19  am  
 40  17  21  1   
 41  18  22  1   
 42  18  42  1   
 43  18  43  1   
 44  19  23  2   
 45  20  22  1   
 46  20  44  1   
 47  20  45  1   
 48  21  46  1   
 49  21  47  1   
 50  21  48  1   
@<TRIPOS>SUBSTRUCTURE
  1 ****  12 GROUP 4 **** **** 0

# MOE 2024.06 (io_trps.svl 2023.06)
