@<TRIPOS>MOLECULE
Untitled Document
54 57 1 0 0 
SMALL
USER_CHARGES


@<TRIPOS>ATOM
  1 O        0.7410     2.6060     0.8880 O.2   1 <1>  -0.5700 
  2 C        0.8710     3.7180     0.4150 C.2   1 <1>   0.5440 
  3 N        2.1310     4.2430     0.2280 N.am  1 <1>  -0.5470 
  4 C       -0.2920     4.5130     0.0820 C.ar  1 <1>   0.0860 
  5 C        3.3980     3.6550     0.3520 C.ar  1 <1>   0.1170 
  6 C       -1.4930     4.3560     0.7780 C.ar  1 <1>  -0.1500 
  7 C       -0.2760     5.4680    -0.9410 C.ar  1 <1>  -0.1500 
  8 C        3.6150     2.2910     0.1860 C.ar  1 <1>  -0.1500 
  9 C        4.4920     4.4640     0.6360 C.ar  1 <1>  -0.1500 
 10 C       -2.6070     5.1170     0.4860 C.ar  1 <1>  -0.1500 
 11 C       -1.3900     6.2300    -1.2340 C.ar  1 <1>  -0.1500 
 12 C        4.8830     1.7530     0.3040 C.ar  1 <1>  -0.1500 
 13 C        5.7630     3.9300     0.7530 C.ar  1 <1>  -0.1500 
 14 C       -2.5750     6.0730    -0.5240 C.ar  1 <1>   0.1000 
 15 C        5.9680     2.5690     0.5820 C.ar  1 <1>  -0.0320 
 16 N       -3.6810     6.8530    -0.8300 N.pl3 1 <1>  -0.8380 
 17 C        7.3580     1.9750     0.7070 C.3   1 <1>  -0.0680 
 18 C       -5.0480     6.2630    -0.9490 C.3   1 <1>   0.2090 
 19 C       -3.5950     8.3420    -0.7530 C.3   1 <1>   0.2090 
 20 C        8.4290     2.4340    -0.2270 C.3   1 <1>   0.2960 
 21 C        7.8820     1.0570    -0.3630 C.3   1 <1>  -0.2000 
 22 C       -6.0120     6.8730     0.0910 C.3   1 <1>   0.3430 
 23 C       -4.5910     8.9010     0.2860 C.3   1 <1>   0.3430 
 24 N        9.8030     2.5880     0.2740 N.4   1 <1>  -0.7460 
 25 N       -5.9970     8.3840     0.0870 N.4   1 <1>  -0.9590 
 26 C       -6.9270     8.9380     1.1170 C.3   1 <1>   0.2630 
 27 H        2.1400     5.2460     0.0580 H     1 <1>   0.3700 
 28 H       -1.5390     3.6190     1.5620 H     1 <1>   0.1500 
 29 H        0.6150     5.6050    -1.5260 H     1 <1>   0.1500 
 30 H        2.7860     1.6430    -0.0370 H     1 <1>   0.1500 
 31 H        4.3450     5.5200     0.7740 H     1 <1>   0.1500 
 32 H       -3.5060     4.9680     1.0530 H     1 <1>   0.1500 
 33 H       -1.3530     6.9480    -2.0320 H     1 <1>   0.1500 
 34 H        5.0140     0.6930     0.1790 H     1 <1>   0.1500 
 35 H        6.5830     4.5840     0.9840 H     1 <1>   0.1500 
 36 H        7.6090     1.7340     1.7260 H     1 <1>   0.1000 
 37 H       -5.4230     6.4460    -1.9410 H     1 <1>   0.0800 
 38 H       -5.0000     5.1950    -0.8170 H     1 <1>   0.0800 
 39 H       -2.5960     8.6340    -0.4750 H     1 <1>   0.0800 
 40 H       -3.8030     8.7600    -1.7220 H     1 <1>   0.0800 
 41 H        8.1560     3.1620    -0.9790 H     1 <1>   0.1000 
 42 H        7.2370     0.8360    -1.1960 H     1 <1>   0.1000 
 43 H        8.4550     0.2000    -0.0530 H     1 <1>   0.1000 
 44 H       -5.7200     6.5160     1.0650 H     1 <1>   0.0800 
 45 H       -7.0100     6.5150    -0.1050 H     1 <1>   0.0800 
 46 H       -4.5840     9.9770     0.2320 H     1 <1>   0.0800 
 47 H       -4.2420     8.6190     1.2660 H     1 <1>   0.0800 
 48 H       10.0090     1.8680     0.9740 H     1 <1>   0.4500 
 49 H        9.9320     3.5080     0.7090 H     1 <1>   0.4500 
 50 H       10.4770     2.4930    -0.4930 H     1 <1>   0.4500 
 51 H       -6.3080     8.6920    -0.8460 H     1 <1>   0.4500 
 52 H       -6.6210     8.6300     2.1030 H     1 <1>   0.0800 
 53 H       -7.9320     8.5870     0.9420 H     1 <1>   0.0800 
 54 H       -6.9300    10.0160     1.0780 H     1 <1>   0.0800 
@<TRIPOS>BOND
  1   1   2  2   
  2   2   3  am  
  3   2   4  1   
  4   3   5  1   
  5   3  27  1   
  6   4   6  ar  
  7   4   7  ar  
  8   5   8  ar  
  9   5   9  ar  
 10   6  10  ar  
 11   6  28  1   
 12   7  11  ar  
 13   7  29  1   
 14   8  12  ar  
 15   8  30  1   
 16   9  13  ar  
 17   9  31  1   
 18  10  14  ar  
 19  10  32  1   
 20  11  14  ar  
 21  11  33  1   
 22  12  15  ar  
 23  12  34  1   
 24  13  15  ar  
 25  13  35  1   
 26  14  16  1   
 27  15  17  1   
 28  16  18  1   
 29  16  19  1   
 30  17  20  1   
 31  17  21  1   
 32  17  36  1   
 33  18  22  1   
 34  18  37  1   
 35  18  38  1   
 36  19  23  1   
 37  19  39  1   
 38  19  40  1   
 39  20  21  1   
 40  20  24  1   
 41  20  41  1   
 42  21  42  1   
 43  21  43  1   
 44  22  25  1   
 45  22  44  1   
 46  22  45  1   
 47  23  25  1   
 48  23  46  1   
 49  23  47  1   
 50  24  48  1   
 51  24  49  1   
 52  24  50  1   
 53  25  26  1   
 54  25  51  1   
 55  26  52  1   
 56  26  53  1   
 57  26  54  1   
@<TRIPOS>SUBSTRUCTURE
  1 ****   2 GROUP 4 **** **** 0

# MOE 2024.06 (io_trps.svl 2023.06)
