@<TRIPOS>MOLECULE
NONAME
38 39 1 0 0 
SMALL
USER_CHARGES


@<TRIPOS>ATOM
  1 S        0.3620    -0.0630    -1.1410 S.o2  1 <1>   1.3330 
  2 O        1.6430    -0.6780    -1.4140 O.2   1 <1>  -0.6500 
  3 O       -0.5860     0.1110    -2.2170 O.2   1 <1>  -0.6500 
  4 N       -0.4160    -0.9890     0.0530 N.am  1 <1>  -0.8490 
  5 C        0.6280     1.5250    -0.3350 C.3   1 <1>  -0.0550 
  6 C       -0.1560    -2.4240    -0.0990 C.3   1 <1>   0.1160 
  7 C       -1.8640    -0.7550     0.1230 C.3   1 <1>   0.1160 
  8 C        1.8230     1.6510     0.6390 C.3   1 <1>  -0.0800 
  9 C        3.1870     1.5430    -0.0500 C.3   1 <1>   0.2200 
 10 C        1.9050     0.6280     1.7800 C.3   1 <1>   0.1200 
 11 N        3.9430     2.7960     0.1710 N.am  1 <1>  -0.7300 
 12 C        3.8570     0.3880     0.6900 C.3   1 <1>   0.1200 
 13 O        3.2630     0.3820     1.9480 O.3   1 <1>  -0.5600 
 14 C        3.7920     3.9340    -0.5680 C.2   1 <1>   0.7150 
 15 O        2.9850     3.9140    -1.4800 O.2   1 <1>  -0.5700 
 16 C        4.5600     5.1150    -0.2350 C.2   1 <1>   0.0550 
 17 O        4.3550     6.2730    -0.8600 O.3   1 <1>  -0.2800 
 18 C        5.5500     5.3010     0.6860 C.2   1 <1>  -0.1500 
 19 C        5.1730     7.1750    -0.3700 C.2   1 <1>  -0.0100 
 20 C        5.9440     6.6360     0.5970 C.2   1 <1>  -0.1500 
 21 H        0.7710     2.2630    -1.1020 H     1 <1>   0.0800 
 22 H       -0.2670     1.7980     0.1880 H     1 <1>   0.0800 
 23 H       -0.6560    -2.9800     0.6750 H     1 <1>   0.0800 
 24 H        0.9010    -2.6190    -0.0210 H     1 <1>   0.0800 
 25 H       -0.5000    -2.7670    -1.0610 H     1 <1>   0.0800 
 26 H       -2.2850    -1.2920     0.9560 H     1 <1>   0.0800 
 27 H       -2.3430    -1.0860    -0.7850 H     1 <1>   0.0800 
 28 H       -2.0670     0.2930     0.2570 H     1 <1>   0.0800 
 29 H        1.7370     2.6200     1.0990 H     1 <1>   0.0800 
 30 H        3.1230     1.3400    -1.1060 H     1 <1>   0.0800 
 31 H        1.4420    -0.3100     1.5400 H     1 <1>   0.0800 
 32 H        1.5010     1.0070     2.7030 H     1 <1>   0.0800 
 33 H        4.4490     2.8360     1.0560 H     1 <1>   0.3700 
 34 H        4.9210     0.5080     0.7880 H     1 <1>   0.0800 
 35 H        3.6350    -0.5520     0.2140 H     1 <1>   0.0800 
 36 H        5.9710     4.5800     1.3630 H     1 <1>   0.1500 
 37 H        5.1420     8.1760    -0.7640 H     1 <1>   0.1500 
 38 H        6.7080     7.1110     1.1870 H     1 <1>   0.1500 
@<TRIPOS>BOND
  1   1   2  2   
  2   1   3  2   
  3   1   4  am  
  4   1   5  1   
  5   4   6  1   
  6   4   7  1   
  7   5   8  1   
  8   5  21  1   
  9   5  22  1   
 10   6  23  1   
 11   6  24  1   
 12   6  25  1   
 13   7  26  1   
 14   7  27  1   
 15   7  28  1   
 16   8   9  1   
 17   8  10  1   
 18   8  29  1   
 19   9  11  1   
 20   9  12  1   
 21   9  30  1   
 22  10  13  1   
 23  10  31  1   
 24  10  32  1   
 25  11  14  am  
 26  11  33  1   
 27  12  13  1   
 28  12  34  1   
 29  12  35  1   
 30  14  15  2   
 31  14  16  1   
 32  16  17  1   
 33  16  18  2   
 34  17  19  1   
 35  18  20  1   
 36  18  36  1   
 37  19  20  2   
 38  19  37  1   
 39  20  38  1   
@<TRIPOS>SUBSTRUCTURE
  1 ****   9 GROUP 4 **** **** 0

# MOE 2024.06 (io_trps.svl 2023.06)
