@<TRIPOS>MOLECULE
NONAME
19 18 1 0 0 
SMALL
USER_CHARGES


@<TRIPOS>ATOM
  1 F       -0.6600    -0.0510     0.0090 F     1 <1>  -0.3400 
  2 C        0.5940    -0.5170    -0.1090 C.3   1 <1>   0.5740 
  3 F        0.7200    -0.7090    -1.4320 F     1 <1>  -0.3400 
  4 C        0.7600    -1.8530     0.7050 C.2   1 <1>   0.9060 
  5 C        1.5810     0.6240     0.2970 C.3   1 <1>  -0.0800 
  6 O        0.6160    -2.9710     0.1720 O.co2 1 <1>  -0.9000 
  7 O        1.0680    -1.7960     1.9130 O.co2 1 <1>  -0.9000 
  8 C        1.2720     1.9740    -0.4030 C.3   1 <1>  -0.1600 
  9 C        3.0530     0.2090     0.0630 C.3   1 <1>  -0.2400 
 10 C        2.1250     3.1470     0.0990 C.3   1 <1>  -0.2400 
 11 H        1.4570     0.7590     1.3580 H     1 <1>   0.0800 
 12 H        0.2390     2.2280    -0.2350 H     1 <1>   0.0800 
 13 H        1.4040     1.8660    -1.4660 H     1 <1>   0.0800 
 14 H        3.2570     0.1180    -0.9890 H     1 <1>   0.0800 
 15 H        3.2510    -0.7400     0.5310 H     1 <1>   0.0800 
 16 H        3.7290     0.9240     0.4930 H     1 <1>   0.0800 
 17 H        2.0610     3.2240     1.1700 H     1 <1>   0.0800 
 18 H        1.7690     4.0660    -0.3320 H     1 <1>   0.0800 
 19 H        3.1550     3.0240    -0.1840 H     1 <1>   0.0800 
@<TRIPOS>BOND
  1   1   2  1   
  2   2   3  1   
  3   2   4  1   
  4   2   5  1   
  5   4   6  ar  
  6   4   7  ar  
  7   5   8  1   
  8   5   9  1   
  9   5  11  1   
 10   8  10  1   
 11   8  12  1   
 12   8  13  1   
 13   9  14  1   
 14   9  15  1   
 15   9  16  1   
 16  10  17  1   
 17  10  18  1   
 18  10  19  1   
@<TRIPOS>SUBSTRUCTURE
  1 ****   2 GROUP 4 **** **** 0

# MOE 2024.06 (io_trps.svl 2023.06)
