@<TRIPOS>MOLECULE
NONAME
44 45 1 0 0 
SMALL
USER_CHARGES


@<TRIPOS>ATOM
  1 O       -2.9230     1.2740    -1.7690 O.2   1 <1>  -0.5700 
  2 C       -2.3710     0.9500    -0.7430 C.2   1 <1>   0.5690 
  3 N       -2.0950    -0.3580    -0.4990 N.am  1 <1>  -0.7300 
  4 C       -1.9930     2.0330     0.2990 C.3   1 <1>   0.0610 
  5 C       -2.3730    -1.4790    -1.4230 C.3   1 <1>   0.2200 
  6 C       -1.0040     3.0530    -0.3200 C.3   1 <1>  -0.1600 
  7 C       -3.2660     2.7960     0.7170 C.3   1 <1>  -0.2400 
  8 C       -1.3840     1.4340     1.5910 C.3   1 <1>  -0.2400 
  9 C       -3.5830    -2.2840    -0.9670 C.3   1 <1>  -0.0800 
 10 C       -1.2730    -2.5200    -1.2740 C.3   1 <1>   0.1200 
 11 C        0.3240     2.4540    -0.8140 C.3   1 <1>  -0.2400 
 12 C       -2.9860    -3.2530     0.0600 C.3   1 <1>   0.1200 
 13 C       -4.7790    -1.4650    -0.4470 C.3   1 <1>  -0.0170 
 14 O       -1.5980    -3.2260    -0.1150 O.3   1 <1>  -0.5600 
 15 C       -5.9570    -2.3710    -0.1270 C.ar  1 <1>  -0.1440 
 16 C       -6.2280    -2.7990     1.1570 C.ar  1 <1>  -0.1500 
 17 C       -6.8170    -2.8150    -1.1110 C.ar  1 <1>  -0.1500 
 18 C       -7.3120    -3.6310     1.3860 C.ar  1 <1>   0.1600 
 19 C       -7.8730    -3.6450    -0.7750 C.ar  1 <1>   0.1600 
 20 N       -8.1400    -4.0670     0.4510 N.ar  1 <1>  -0.6200 
 21 H       -1.6490    -0.6350     0.3770 H     1 <1>   0.3700 
 22 H       -2.4670    -1.1230    -2.4360 H     1 <1>   0.0800 
 23 H       -1.4840     3.5270    -1.1600 H     1 <1>   0.0800 
 24 H       -0.7880     3.8250     0.3980 H     1 <1>   0.0800 
 25 H       -3.0390     3.5580     1.4410 H     1 <1>   0.0800 
 26 H       -3.9860     2.1190     1.1420 H     1 <1>   0.0800 
 27 H       -3.7180     3.2660    -0.1400 H     1 <1>   0.0800 
 28 H       -1.1110     2.2190     2.2750 H     1 <1>   0.0800 
 29 H       -0.5030     0.8580     1.3770 H     1 <1>   0.0800 
 30 H       -2.0960     0.7950     2.0820 H     1 <1>   0.0800 
 31 H       -3.9180    -2.8710    -1.8040 H     1 <1>   0.0800 
 32 H       -0.2950    -2.0840    -1.1750 H     1 <1>   0.0800 
 33 H       -1.2870    -3.2120    -2.0980 H     1 <1>   0.0800 
 34 H        0.1480     1.6800    -1.5400 H     1 <1>   0.0800 
 35 H        0.8950     2.0480     0.0010 H     1 <1>   0.0800 
 36 H        0.9130     3.2230    -1.2820 H     1 <1>   0.0800 
 37 H       -3.3390    -4.2600    -0.0900 H     1 <1>   0.0800 
 38 H       -3.1910    -2.9420     1.0690 H     1 <1>   0.0800 
 39 H       -5.0720    -0.7490    -1.1960 H     1 <1>   0.0800 
 40 H       -4.5040    -0.9130     0.4340 H     1 <1>   0.0800 
 41 H       -5.6100    -2.4950     1.9810 H     1 <1>   0.1500 
 42 H       -6.6760    -2.5210    -2.1350 H     1 <1>   0.1500 
 43 H       -7.5080    -3.9560     2.3940 H     1 <1>   0.1500 
 44 H       -8.5340    -3.9810    -1.5560 H     1 <1>   0.1500 
@<TRIPOS>BOND
  1   1   2  2   
  2   2   3  am  
  3   2   4  1   
  4   3   5  1   
  5   3  21  1   
  6   4   6  1   
  7   4   7  1   
  8   4   8  1   
  9   5   9  1   
 10   5  10  1   
 11   5  22  1   
 12   6  11  1   
 13   6  23  1   
 14   6  24  1   
 15   7  25  1   
 16   7  26  1   
 17   7  27  1   
 18   8  28  1   
 19   8  29  1   
 20   8  30  1   
 21   9  12  1   
 22   9  13  1   
 23   9  31  1   
 24  10  14  1   
 25  10  32  1   
 26  10  33  1   
 27  11  34  1   
 28  11  35  1   
 29  11  36  1   
 30  12  14  1   
 31  12  37  1   
 32  12  38  1   
 33  13  15  1   
 34  13  39  1   
 35  13  40  1   
 36  15  16  ar  
 37  15  17  ar  
 38  16  18  ar  
 39  16  41  1   
 40  17  19  ar  
 41  17  42  1   
 42  18  20  ar  
 43  18  43  1   
 44  19  20  ar  
 45  19  44  1   
@<TRIPOS>SUBSTRUCTURE
  1 ****  13 GROUP 4 **** **** 0

# MOE 2024.06 (io_trps.svl 2023.06)
