@<TRIPOS>MOLECULE
NONAME
40 41 1 0 0 
SMALL
USER_CHARGES


@<TRIPOS>ATOM
  1 O       -0.5990    -0.1510    -0.5850 O.2   1 <1>  -0.5700 
  2 C       -1.5550     0.5760    -0.3890 C.2   1 <1>   0.5440 
  3 N       -1.3390     1.9360    -0.2520 N.am  1 <1>  -0.6600 
  4 C       -2.8720    -0.0070    -0.2930 C.ar  1 <1>   0.0860 
  5 C       -0.0320     2.5500    -0.6160 C.3   1 <1>   0.0600 
  6 C       -2.2770     2.8540     0.4510 C.3   1 <1>   0.0600 
  7 C       -3.0740    -1.1690     0.4460 C.ar  1 <1>   0.1600 
  8 C       -3.9870     0.5320    -0.9270 C.ar  1 <1>  -0.1500 
  9 N       -4.2290    -1.7850     0.6280 N.ar  1 <1>  -0.6200 
 10 C       -5.1950    -0.0980    -0.7540 C.ar  1 <1>  -0.1500 
 11 C       -5.2890    -1.2450     0.0330 C.ar  1 <1>   0.4100 
 12 N       -6.5080    -1.8640     0.2160 N.pl3 1 <1>  -0.8380 
 13 C       -6.5990    -3.3330     0.5090 C.3   1 <1>   0.2090 
 14 C       -7.7310    -1.0770     0.5320 C.3   1 <1>   0.1290 
 15 C       -7.5980    -4.0650    -0.4070 C.3   1 <1>   0.2000 
 16 O       -8.9220    -3.7470    -0.1000 O.3   1 <1>  -0.5600 
 17 C       -7.5520    -5.5820    -0.2740 C.3   1 <1>  -0.1600 
 18 C       -9.7760    -4.7250    -0.5970 C.3   1 <1>   0.1200 
 19 C       -8.9500    -6.0070    -0.6920 C.3   1 <1>  -0.1600 
 20 H        0.5150     1.9070    -1.2840 H     1 <1>   0.0800 
 21 H        0.5550     2.7040     0.2720 H     1 <1>   0.0800 
 22 H       -0.1930     3.4940    -1.1070 H     1 <1>   0.0800 
 23 H       -3.0410     2.3010     0.9690 H     1 <1>   0.0800 
 24 H       -2.7400     3.5150    -0.2610 H     1 <1>   0.0800 
 25 H       -1.7380     3.4400     1.1750 H     1 <1>   0.0800 
 26 H       -2.2130    -1.6080     0.9190 H     1 <1>   0.1500 
 27 H       -3.8940     1.4130    -1.5370 H     1 <1>   0.1500 
 28 H       -6.0800     0.2750    -1.2310 H     1 <1>   0.1500 
 29 H       -6.8730    -3.4810     1.5380 H     1 <1>   0.0800 
 30 H       -5.6350    -3.7860     0.3610 H     1 <1>   0.0800 
 31 H       -7.4810    -0.0500     0.7320 H     1 <1>   0.0800 
 32 H       -8.2160    -1.4860     1.4010 H     1 <1>   0.0800 
 33 H       -8.4140    -1.1220    -0.2980 H     1 <1>   0.0800 
 34 H       -7.4210    -3.7830    -1.4310 H     1 <1>   0.0800 
 35 H       -7.3760    -5.8510     0.7530 H     1 <1>   0.0800 
 36 H       -6.7840    -6.0120    -0.8920 H     1 <1>   0.0800 
 37 H      -10.1200    -4.4080    -1.5660 H     1 <1>   0.0800 
 38 H      -10.6090    -4.8250     0.0770 H     1 <1>   0.0800 
 39 H       -9.3430    -6.7700    -0.0430 H     1 <1>   0.0800 
 40 H       -8.9600    -6.3680    -1.7050 H     1 <1>   0.0800 
@<TRIPOS>BOND
  1   1   2  2   
  2   2   3  am  
  3   2   4  1   
  4   3   5  1   
  5   3   6  1   
  6   4   7  ar  
  7   4   8  ar  
  8   5  20  1   
  9   5  21  1   
 10   5  22  1   
 11   6  23  1   
 12   6  24  1   
 13   6  25  1   
 14   7   9  ar  
 15   7  26  1   
 16   8  10  ar  
 17   8  27  1   
 18   9  11  ar  
 19  10  11  ar  
 20  10  28  1   
 21  11  12  1   
 22  12  13  1   
 23  12  14  1   
 24  13  15  1   
 25  13  29  1   
 26  13  30  1   
 27  14  31  1   
 28  14  32  1   
 29  14  33  1   
 30  15  16  1   
 31  15  17  1   
 32  15  34  1   
 33  16  18  1   
 34  17  19  1   
 35  17  35  1   
 36  17  36  1   
 37  18  19  1   
 38  18  37  1   
 39  18  38  1   
 40  19  39  1   
 41  19  40  1   
@<TRIPOS>SUBSTRUCTURE
  1 ****  11 GROUP 4 **** **** 0

# MOE 2024.06 (io_trps.svl 2023.06)
