@<TRIPOS>MOLECULE
NONAME
44 47 1 0 0 
SMALL
USER_CHARGES


@<TRIPOS>ATOM
  1 F        0.7650     0.7910     1.3000 F     1 <1>  -0.1900 
  2 C        1.8380     1.4230     0.8990 C.ar  1 <1>   0.1900 
  3 C        2.0870     1.5220    -0.4560 C.ar  1 <1>  -0.1500 
  4 C        2.6840     1.9680     1.8470 C.ar  1 <1>  -0.1500 
  5 C        3.2250     2.1930    -0.8710 C.ar  1 <1>  -0.1500 
  6 C        3.8180     2.6350     1.4170 C.ar  1 <1>  -0.1500 
  7 C        4.0980     2.7530     0.0560 C.ar  1 <1>   0.1000 
  8 N        5.2320     3.4190    -0.3940 N.pl3 1 <1>  -0.8380 
  9 C        6.5410     2.7590    -0.1220 C.3   1 <1>   0.2090 
 10 C        5.2360     4.9020    -0.2320 C.3   1 <1>   0.2090 
 11 C        7.6630     3.4100    -0.9590 C.3   1 <1>   0.3430 
 12 C        6.3700     5.5380    -1.0630 C.3   1 <1>   0.3430 
 13 N        7.7210     4.9090    -0.7880 N.4   1 <1>  -0.9590 
 14 C        8.7810     5.5100    -1.6290 C.3   1 <1>   0.5230 
 15 C        8.8690     6.9740    -1.2900 C.2   1 <1>  -0.3320 
 16 N        9.3970     7.4740    -0.1520 N.pl3 1 <1>   0.2940 
 17 C        8.4670     8.0330    -2.0290 C.2   1 <1>   0.0770 
 18 C        9.2550     8.8120    -0.2750 C.2   1 <1>   0.0360 
 19 C        9.9620     6.7420     1.0060 C.3   1 <1>  -0.0910 
 20 N        8.6980     9.1840    -1.3820 N.2   1 <1>  -0.5650 
 21 C       11.3520     7.0720     1.4610 C.3   1 <1>  -0.2000 
 22 C       11.0760     5.7530     0.8140 C.3   1 <1>  -0.2000 
 23 H        1.4050     1.0850    -1.1630 H     1 <1>   0.1500 
 24 H        2.4530     1.8680     2.8930 H     1 <1>   0.1500 
 25 H        3.4440     2.2860    -1.9190 H     1 <1>   0.1500 
 26 H        4.4860     3.0650     2.1390 H     1 <1>   0.1500 
 27 H        6.4670     1.7140    -0.3740 H     1 <1>   0.0800 
 28 H        6.7740     2.8300     0.9260 H     1 <1>   0.0800 
 29 H        5.3550     5.1550     0.8070 H     1 <1>   0.0800 
 30 H        4.2880     5.2960    -0.5610 H     1 <1>   0.0800 
 31 H        7.4790     3.1730    -1.9950 H     1 <1>   0.0800 
 32 H        8.6060     2.9690    -0.6820 H     1 <1>   0.0800 
 33 H        6.4040     6.5950    -0.8520 H     1 <1>   0.0800 
 34 H        6.1230     5.4200    -2.1050 H     1 <1>   0.0800 
 35 H        7.9570     5.1110     0.1890 H     1 <1>   0.4500 
 36 H        8.5360     5.3910    -2.6730 H     1 <1>   0.0800 
 37 H        9.7300     5.0330    -1.4440 H     1 <1>   0.0800 
 38 H        8.0130     8.0420    -3.0090 H     1 <1>   0.1500 
 39 H        9.5850     9.4890     0.4950 H     1 <1>   0.1500 
 40 H        9.2290     6.5810     1.7770 H     1 <1>   0.1000 
 41 H       11.5770     7.0780     2.5150 H     1 <1>   0.1000 
 42 H       11.9320     7.7990     0.9160 H     1 <1>   0.1000 
 43 H       11.5270     5.5950    -0.1520 H     1 <1>   0.1000 
 44 H       11.1430     4.8830     1.4450 H     1 <1>   0.1000 
@<TRIPOS>BOND
  1   1   2  1   
  2   2   3  ar  
  3   2   4  ar  
  4   3   5  ar  
  5   3  23  1   
  6   4   6  ar  
  7   4  24  1   
  8   5   7  ar  
  9   5  25  1   
 10   6   7  ar  
 11   6  26  1   
 12   7   8  1   
 13   8   9  1   
 14   8  10  1   
 15   9  11  1   
 16   9  27  1   
 17   9  28  1   
 18  10  12  1   
 19  10  29  1   
 20  10  30  1   
 21  11  13  1   
 22  11  31  1   
 23  11  32  1   
 24  12  13  1   
 25  12  33  1   
 26  12  34  1   
 27  13  14  1   
 28  13  35  1   
 29  14  15  1   
 30  14  36  1   
 31  14  37  1   
 32  15  16  1   
 33  15  17  2   
 34  16  18  1   
 35  16  19  1   
 36  17  20  1   
 37  17  38  1   
 38  18  20  2   
 39  18  39  1   
 40  19  21  1   
 41  19  22  1   
 42  19  40  1   
 43  21  22  1   
 44  21  41  1   
 45  21  42  1   
 46  22  43  1   
 47  22  44  1   
@<TRIPOS>SUBSTRUCTURE
  1 ****  12 GROUP 4 **** **** 0

# MOE 2024.06 (io_trps.svl 2023.06)
