@<TRIPOS>MOLECULE
NONAME
55 58 1 0 0 
SMALL
USER_CHARGES


@<TRIPOS>ATOM
  1 S       -0.6190    -0.1410    -1.7580 S.3   1 <1>  -0.0800 
  2 C       -0.1500    -1.6790    -1.0550 C.2   1 <1>  -0.1100 
  3 C       -2.0960    -0.1150    -0.8130 C.2   1 <1>  -0.1100 
  4 C       -1.0750    -2.1080    -0.1760 C.2   1 <1>  -0.1810 
  5 C       -2.1840    -1.2110    -0.0380 C.2   1 <1>  -0.1500 
  6 C       -1.0020    -3.4020     0.6170 C.3   1 <1>   0.0210 
  7 C       -2.0390    -4.4120     0.1040 C.3   1 <1>  -0.0990 
  8 C       -2.0270    -5.7360     0.8550 C.2   1 <1>   0.5690 
  9 O       -1.1300    -5.9460     1.6380 O.2   1 <1>  -0.5700 
 10 N       -3.0200    -6.6570     0.6340 N.am  1 <1>  -0.6600 
 11 C       -4.0970    -6.4700    -0.3880 C.3   1 <1>   0.1400 
 12 C       -3.0590    -7.9200     1.4320 C.3   1 <1>   0.1400 
 13 C       -4.7300    -7.8100    -0.7580 C.3   1 <1>  -0.1600 
 14 C       -4.5050    -8.3210     1.7370 C.3   1 <1>  -0.1600 
 15 C       -5.3770    -8.4690     0.4710 C.3   1 <1>   0.4240 
 16 O       -6.5500    -7.7220     0.6860 O.3   1 <1>  -0.5600 
 17 C       -5.6950    -9.9510     0.1740 C.ar  1 <1>  -0.1430 
 18 C       -7.5580    -8.3290     1.4350 C.3   1 <1>   0.1200 
 19 C       -6.9920   -10.4390     0.2460 C.ar  1 <1>  -0.1430 
 20 C       -4.6790   -10.8370    -0.1580 C.ar  1 <1>  -0.1500 
 21 C       -8.1190    -9.5030     0.6370 C.3   1 <1>  -0.0170 
 22 C       -7.2600   -11.7700    -0.0300 C.ar  1 <1>  -0.1500 
 23 C       -4.9220   -12.1720    -0.4330 C.ar  1 <1>   0.0830 
 24 C       -6.2410   -12.6560    -0.3750 C.ar  1 <1>   0.0830 
 25 O       -3.7950   -12.8820    -0.7400 O.3   1 <1>  -0.3620 
 26 O       -6.5160   -13.9660    -0.6490 O.3   1 <1>  -0.3620 
 27 C       -3.7960   -14.2590    -1.0400 C.3   1 <1>   0.0400 
 28 C       -7.8320   -14.4720    -0.7030 C.3   1 <1>   0.0400 
 29 H        0.7830    -2.1050    -1.3810 H     1 <1>   0.1500 
 30 H       -2.7480     0.7310    -0.9380 H     1 <1>   0.1500 
 31 H       -2.9930    -1.4280     0.6380 H     1 <1>   0.1500 
 32 H       -1.1730    -3.1950     1.6600 H     1 <1>   0.0800 
 33 H       -0.0160    -3.8230     0.5230 H     1 <1>   0.0800 
 34 H       -1.8430    -4.6070    -0.9340 H     1 <1>   0.0800 
 35 H       -3.0160    -3.9770     0.1900 H     1 <1>   0.0800 
 36 H       -3.6880    -6.0210    -1.2760 H     1 <1>   0.0800 
 37 H       -4.8530    -5.8140     0.0120 H     1 <1>   0.0800 
 38 H       -2.5270    -7.7890     2.3600 H     1 <1>   0.0800 
 39 H       -2.5650    -8.6990     0.8780 H     1 <1>   0.0800 
 40 H       -3.9660    -8.4380    -1.1760 H     1 <1>   0.0800 
 41 H       -5.4780    -7.6720    -1.5170 H     1 <1>   0.0800 
 42 H       -4.9170    -7.5680     2.3840 H     1 <1>   0.0800 
 43 H       -4.4980    -9.2470     2.2830 H     1 <1>   0.0800 
 44 H       -8.3230    -7.5950     1.6160 H     1 <1>   0.0800 
 45 H       -7.1500    -8.6570     2.3750 H     1 <1>   0.0800 
 46 H       -3.6610   -10.5000    -0.2090 H     1 <1>   0.1500 
 47 H       -8.6080    -9.1330    -0.2460 H     1 <1>   0.0800 
 48 H       -8.8450   -10.0210     1.2360 H     1 <1>   0.0800 
 49 H       -8.2780   -12.0990     0.0330 H     1 <1>   0.1500 
 50 H       -2.7830   -14.5610    -1.2310 H     1 <1>   0.0800 
 51 H       -4.3980   -14.4230    -1.9150 H     1 <1>   0.0800 
 52 H       -4.1870   -14.7980    -0.1960 H     1 <1>   0.0800 
 53 H       -7.7790   -15.5080    -0.9840 H     1 <1>   0.0800 
 54 H       -8.3870   -13.9220    -1.4420 H     1 <1>   0.0800 
 55 H       -8.2820   -14.3800     0.2690 H     1 <1>   0.0800 
@<TRIPOS>BOND
  1   1   2  1   
  2   1   3  1   
  3   2   4  2   
  4   2  29  1   
  5   3   5  2   
  6   3  30  1   
  7   4   5  1   
  8   4   6  1   
  9   5  31  1   
 10   6   7  1   
 11   6  32  1   
 12   6  33  1   
 13   7   8  1   
 14   7  34  1   
 15   7  35  1   
 16   8   9  2   
 17   8  10  am  
 18  10  11  1   
 19  10  12  1   
 20  11  13  1   
 21  11  36  1   
 22  11  37  1   
 23  12  14  1   
 24  12  38  1   
 25  12  39  1   
 26  13  15  1   
 27  13  40  1   
 28  13  41  1   
 29  14  15  1   
 30  14  42  1   
 31  14  43  1   
 32  15  16  1   
 33  15  17  1   
 34  16  18  1   
 35  17  19  ar  
 36  17  20  ar  
 37  18  21  1   
 38  18  44  1   
 39  18  45  1   
 40  19  21  1   
 41  19  22  ar  
 42  20  23  ar  
 43  20  46  1   
 44  21  47  1   
 45  21  48  1   
 46  22  24  ar  
 47  22  49  1   
 48  23  24  ar  
 49  23  25  1   
 50  24  26  1   
 51  25  27  1   
 52  26  28  1   
 53  27  50  1   
 54  27  51  1   
 55  27  52  1   
 56  28  53  1   
 57  28  54  1   
 58  28  55  1   
@<TRIPOS>SUBSTRUCTURE
  1 ****  13 GROUP 4 **** **** 0

# MOE 2024.06 (io_trps.svl 2023.06)
