@<TRIPOS>MOLECULE
NONAME
59 62 1 0 0 
SMALL
USER_CHARGES


@<TRIPOS>ATOM
  1 O       -4.6020    -3.0960     0.6250 O.3   1 <1>  -0.3630 
  2 C       -4.8690    -1.7920     0.4180 C.ar  1 <1>   0.0830 
  3 C       -3.6020    -3.4210     1.5720 C.3   1 <1>   0.0400 
  4 C       -4.8570    -1.3220    -0.8840 C.ar  1 <1>  -0.1500 
  5 C       -5.2120    -0.9420     1.4620 C.ar  1 <1>  -0.1500 
  6 C       -5.2620    -0.0290    -1.1520 C.ar  1 <1>  -0.1500 
  7 C       -5.6300     0.3460     1.1830 C.ar  1 <1>  -0.1500 
  8 C       -5.7110     0.8010    -0.1300 C.ar  1 <1>   0.0530 
  9 C       -6.3240     2.0620    -0.4360 C.2   1 <1>  -0.2050 
 10 N       -5.6980     3.2610    -0.3380 N.pl3 1 <1>   0.3000 
 11 C       -7.5860     2.3410    -0.8750 C.2   1 <1>  -0.1810 
 12 N       -6.5030     4.2780    -0.6840 N.2   1 <1>  -0.7070 
 13 C       -7.6260     3.7220    -1.0080 C.2   1 <1>   0.1390 
 14 C       -8.7590     1.4260    -1.1780 C.3   1 <1>   0.5240 
 15 N       -8.7600     0.3470    -0.1560 N.4   1 <1>  -0.9590 
 16 C       -8.3460    -0.9840    -0.7270 C.3   1 <1>   0.3430 
 17 C      -10.0640     0.2390     0.5560 C.3   1 <1>   0.3430 
 18 C       -8.1920    -2.0710     0.3800 C.3   1 <1>   0.4230 
 19 C       -9.9370    -0.7870     1.6930 C.3   1 <1>  -0.1600 
 20 N       -7.5920    -3.4000    -0.0620 N.4   1 <1>  -0.9590 
 21 C       -9.4760    -2.2070     1.2470 C.3   1 <1>   0.0000 
 22 C       -7.7950    -4.5180     0.9170 C.3   1 <1>   0.3430 
 23 C       -7.9930    -3.8570    -1.4320 C.3   1 <1>   0.2630 
 24 C       -9.1250    -3.0300     2.5210 C.3   1 <1>  -0.1600 
 25 C      -10.6430    -2.9270     0.5130 C.3   1 <1>   0.1200 
 26 C       -7.9210    -3.9790     2.3420 C.3   1 <1>  -0.1600 
 27 O      -10.8950    -2.3600    -0.7280 O.3   1 <1>  -0.6800 
 28 H       -3.3650    -4.4660     1.4710 H     1 <1>   0.0800 
 29 H       -3.9670    -3.2260     2.5640 H     1 <1>   0.0800 
 30 H       -2.7240    -2.8310     1.3720 H     1 <1>   0.0800 
 31 H       -4.5240    -1.9680    -1.6800 H     1 <1>   0.1500 
 32 H       -5.1650    -1.2820     2.4820 H     1 <1>   0.1500 
 33 H       -5.2470     0.3410    -2.1650 H     1 <1>   0.1500 
 34 H       -5.9030     1.0060     1.9910 H     1 <1>   0.1500 
 35 H       -4.7230     3.4100    -0.0440 H     1 <1>   0.2700 
 36 H       -8.4770     4.2980    -1.3400 H     1 <1>   0.1500 
 37 H       -8.6630     1.0190    -2.1720 H     1 <1>   0.0800 
 38 H       -9.6740     1.9930    -1.1260 H     1 <1>   0.0800 
 39 H       -8.0420     0.6660     0.5120 H     1 <1>   0.4500 
 40 H       -9.0800    -1.3030    -1.4450 H     1 <1>   0.0800 
 41 H       -7.4120    -0.8790    -1.2430 H     1 <1>   0.0800 
 42 H      -10.3430     1.1970     0.9680 H     1 <1>   0.0800 
 43 H      -10.8370    -0.0700    -0.1300 H     1 <1>   0.0800 
 44 H       -7.4690    -1.6540     1.0570 H     1 <1>   0.0800 
 45 H       -9.2480    -0.3800     2.4130 H     1 <1>   0.0800 
 46 H      -10.8900    -0.8590     2.1910 H     1 <1>   0.0800 
 47 H       -6.5610    -3.2570    -0.0720 H     1 <1>   0.4500 
 48 H       -8.6940    -5.0610     0.6730 H     1 <1>   0.0800 
 49 H       -6.9670    -5.2070     0.8590 H     1 <1>   0.0800 
 50 H       -9.0620    -3.9850    -1.4890 H     1 <1>   0.0800 
 51 H       -7.5230    -4.8000    -1.6630 H     1 <1>   0.0800 
 52 H       -7.6900    -3.1400    -2.1770 H     1 <1>   0.0800 
 53 H       -8.8940    -2.3820     3.3500 H     1 <1>   0.0800 
 54 H       -9.9830    -3.6060     2.8300 H     1 <1>   0.0800 
 55 H      -11.5480    -2.8620     1.0960 H     1 <1>   0.0800 
 56 H      -10.4270    -3.9690     0.3550 H     1 <1>   0.0800 
 57 H       -8.0210    -4.8070     3.0230 H     1 <1>   0.0800 
 58 H       -7.0070    -3.4730     2.6010 H     1 <1>   0.0800 
 59 H      -11.7310    -2.7240    -1.1040 H     1 <1>   0.4000 
@<TRIPOS>BOND
  1   1   2  1   
  2   1   3  1   
  3   2   4  ar  
  4   2   5  ar  
  5   3  28  1   
  6   3  29  1   
  7   3  30  1   
  8   4   6  ar  
  9   4  31  1   
 10   5   7  ar  
 11   5  32  1   
 12   6   8  ar  
 13   6  33  1   
 14   7   8  ar  
 15   7  34  1   
 16   8   9  1   
 17   9  10  1   
 18   9  11  2   
 19  10  12  1   
 20  10  35  1   
 21  11  13  1   
 22  11  14  1   
 23  12  13  2   
 24  13  36  1   
 25  14  15  1   
 26  14  37  1   
 27  14  38  1   
 28  15  16  1   
 29  15  17  1   
 30  15  39  1   
 31  16  18  1   
 32  16  40  1   
 33  16  41  1   
 34  17  19  1   
 35  17  42  1   
 36  17  43  1   
 37  18  20  1   
 38  18  21  1   
 39  18  44  1   
 40  19  21  1   
 41  19  45  1   
 42  19  46  1   
 43  20  22  1   
 44  20  23  1   
 45  20  47  1   
 46  21  24  1   
 47  21  25  1   
 48  22  26  1   
 49  22  48  1   
 50  22  49  1   
 51  23  50  1   
 52  23  51  1   
 53  23  52  1   
 54  24  26  1   
 55  24  53  1   
 56  24  54  1   
 57  25  27  1   
 58  25  55  1   
 59  25  56  1   
 60  26  57  1   
 61  26  58  1   
 62  27  59  1   
@<TRIPOS>SUBSTRUCTURE
  1 ****  16 GROUP 4 **** **** 0

# MOE 2024.06 (io_trps.svl 2023.06)
