@<TRIPOS>MOLECULE
NONAME
51 53 1 0 0 
SMALL
USER_CHARGES


@<TRIPOS>ATOM
  1 O        0.6570    -1.6400    -2.1010 O.3   1 <1>  -0.6800 
  2 C        0.0050    -2.0690    -0.9530 C.3   1 <1>   0.1200 
  3 C        0.9610    -2.1060     0.2750 C.3   1 <1>   0.0000 
  4 C        2.3150    -2.8230    -0.0030 C.3   1 <1>   0.4230 
  5 C        1.2470    -0.6550     0.7470 C.3   1 <1>  -0.1600 
  6 C        0.2380    -2.8560     1.4310 C.3   1 <1>  -0.1600 
  7 N        2.1520    -4.2810    -0.4370 N.4   1 <1>  -0.9590 
  8 C        3.2780    -1.9620    -0.8840 C.3   1 <1>   0.3430 
  9 C        2.1280     0.1520    -0.2120 C.3   1 <1>   0.3430 
 10 C        0.6240    -4.3450     1.5460 C.3   1 <1>  -0.1600 
 11 C        0.9780    -4.9750     0.1980 C.3   1 <1>   0.3430 
 12 C        2.0940    -4.5000    -1.9230 C.3   1 <1>   0.2630 
 13 N        3.4390    -0.5420    -0.4010 N.4   1 <1>  -0.9590 
 14 C        4.3100     0.2560    -1.3070 C.3   1 <1>   0.5240 
 15 C        4.6590     1.5200    -0.5620 C.2   1 <1>  -0.1810 
 16 C        4.1360     2.7890    -0.8070 C.2   1 <1>   0.1080 
 17 C        5.5100     1.6860     0.4780 C.2   1 <1>  -0.3320 
 18 N        4.5980     3.6650     0.0200 N.2   1 <1>  -0.7070 
 19 C        3.1500     3.2020    -1.8810 C.3   1 <1>  -0.0590 
 20 N        5.4560     2.9960     0.8070 N.pl3 1 <1>   0.3000 
 21 C        6.4160     0.7070     1.2080 C.3   1 <1>  -0.0600 
 22 H        0.0020    -1.4720    -2.8180 H     1 <1>   0.4000 
 23 H       -0.8170    -1.3960    -0.7670 H     1 <1>   0.0800 
 24 H       -0.4090    -3.0400    -1.1600 H     1 <1>   0.0800 
 25 H        2.7970    -2.8640     0.9600 H     1 <1>   0.0800 
 26 H        1.7300    -0.6570     1.7090 H     1 <1>   0.0800 
 27 H        0.3170    -0.1270     0.8730 H     1 <1>   0.0800 
 28 H        0.4530    -2.3990     2.3830 H     1 <1>   0.0800 
 29 H       -0.8300    -2.7760     1.3040 H     1 <1>   0.0800 
 30 H        2.9800    -4.7900    -0.0920 H     1 <1>   0.4500 
 31 H        2.8950    -1.9380    -1.8890 H     1 <1>   0.0800 
 32 H        4.2450    -2.4370    -0.9060 H     1 <1>   0.0800 
 33 H        2.2890     1.1380     0.1990 H     1 <1>   0.0800 
 34 H        1.6290     0.2650    -1.1600 H     1 <1>   0.0800 
 35 H       -0.1990    -4.8880     1.9820 H     1 <1>   0.0800 
 36 H        1.4590    -4.4620     2.2160 H     1 <1>   0.0800 
 37 H        0.1170    -4.9030    -0.4470 H     1 <1>   0.0800 
 38 H        1.1980    -6.0230     0.3320 H     1 <1>   0.0800 
 39 H        1.2470    -3.9880    -2.3490 H     1 <1>   0.0800 
 40 H        1.9980    -5.5520    -2.1410 H     1 <1>   0.0800 
 41 H        2.9900    -4.1400    -2.4000 H     1 <1>   0.0800 
 42 H        3.9280    -0.4960     0.5040 H     1 <1>   0.4500 
 43 H        5.2180    -0.2810    -1.5290 H     1 <1>   0.0800 
 44 H        3.8030     0.4830    -2.2310 H     1 <1>   0.0800 
 45 H        2.7620     2.3610    -2.4200 H     1 <1>   0.0800 
 46 H        3.6410     3.8630    -2.5720 H     1 <1>   0.0800 
 47 H        2.3350     3.7370    -1.4290 H     1 <1>   0.0800 
 48 H        5.9900     3.4670     1.5500 H     1 <1>   0.2700 
 49 H        6.3680    -0.2730     0.7690 H     1 <1>   0.0800 
 50 H        6.1350     0.6390     2.2450 H     1 <1>   0.0800 
 51 H        7.4370     1.0450     1.1560 H     1 <1>   0.0800 
@<TRIPOS>BOND
  1   1   2  1   
  2   1  22  1   
  3   2   3  1   
  4   2  23  1   
  5   2  24  1   
  6   3   4  1   
  7   3   5  1   
  8   3   6  1   
  9   4   7  1   
 10   4   8  1   
 11   4  25  1   
 12   5   9  1   
 13   5  26  1   
 14   5  27  1   
 15   6  10  1   
 16   6  28  1   
 17   6  29  1   
 18   7  11  1   
 19   7  12  1   
 20   7  30  1   
 21   8  13  1   
 22   8  31  1   
 23   8  32  1   
 24   9  13  1   
 25   9  33  1   
 26   9  34  1   
 27  10  11  1   
 28  10  35  1   
 29  10  36  1   
 30  11  37  1   
 31  11  38  1   
 32  12  39  1   
 33  12  40  1   
 34  12  41  1   
 35  13  14  1   
 36  13  42  1   
 37  14  15  1   
 38  14  43  1   
 39  14  44  1   
 40  15  16  1   
 41  15  17  2   
 42  16  18  2   
 43  16  19  1   
 44  17  20  1   
 45  17  21  1   
 46  18  20  1   
 47  19  45  1   
 48  19  46  1   
 49  19  47  1   
 50  20  48  1   
 51  21  49  1   
 52  21  50  1   
 53  21  51  1   
@<TRIPOS>SUBSTRUCTURE
  1 ****  13 GROUP 4 **** **** 0

# MOE 2024.06 (io_trps.svl 2023.06)
