@<TRIPOS>MOLECULE
NONAME
44 46 1 0 0 
SMALL
USER_CHARGES


@<TRIPOS>ATOM
  1 CL       0.1910    -6.5720    -0.6570 Cl    1 <1>  -0.1770 
  2 C       -0.6480    -5.0370    -0.7010 C.ar  1 <1>   0.1770 
  3 C       -0.7540    -4.3470    -1.9010 C.ar  1 <1>   0.0830 
  4 C       -1.2020    -4.5330     0.4600 C.ar  1 <1>  -0.1500 
  5 O       -0.2210    -4.8400    -3.0340 O.3   1 <1>  -0.5330 
  6 C       -1.4160    -3.1330    -1.9320 C.ar  1 <1>  -0.1500 
  7 C       -1.8780    -3.3200     0.4280 C.ar  1 <1>  -0.1440 
  8 C       -1.9730    -2.6220    -0.7710 C.ar  1 <1>  -0.1500 
  9 C       -2.5160    -2.7680     1.7010 C.3   1 <1>   0.0440 
 10 C       -3.3990    -3.7830     2.4240 C.2   1 <1>   0.5690 
 11 O       -3.0360    -4.1150     3.5280 O.2   1 <1>  -0.5700 
 12 N       -4.5490    -4.2970     1.8630 N.am  1 <1>  -0.6600 
 13 C       -5.0520    -3.9020     0.5110 C.3   1 <1>   0.2200 
 14 C       -5.3360    -5.3200     2.6230 C.3   1 <1>   0.0600 
 15 C       -4.8320    -4.9870    -0.5390 C.3   1 <1>  -0.1600 
 16 C       -6.5510    -3.6150     0.4440 C.3   1 <1>  -0.1600 
 17 C       -5.7680    -4.5950    -1.6880 C.3   1 <1>  -0.0800 
 18 C       -6.8960    -3.7460    -1.0460 C.3   1 <1>  -0.0800 
 19 C       -6.2280    -5.8050    -2.5240 C.3   1 <1>   0.1400 
 20 C       -8.3170    -4.2920    -1.2920 C.3   1 <1>  -0.0990 
 21 N       -7.4590    -5.4610    -3.2650 N.am  1 <1>  -0.7300 
 22 C       -8.4700    -4.7480    -2.7270 C.2   1 <1>   0.5690 
 23 O       -9.4640    -4.4890    -3.3540 O.2   1 <1>  -0.5700 
 24 H       -1.1070    -5.0890     1.3770 H     1 <1>   0.1500 
 25 H        0.2560    -5.6800    -2.8820 H     1 <1>   0.4500 
 26 H       -1.4900    -2.5960    -2.8610 H     1 <1>   0.1500 
 27 H       -2.4820    -1.6740    -0.8100 H     1 <1>   0.1500 
 28 H       -3.1010    -1.8940     1.4900 H     1 <1>   0.0800 
 29 H       -1.7290    -2.4660     2.3680 H     1 <1>   0.0800 
 30 H       -4.5530    -3.0130     0.1740 H     1 <1>   0.0800 
 31 H       -5.7500    -6.0570     1.9600 H     1 <1>   0.0800 
 32 H       -6.1340    -4.8360     3.1570 H     1 <1>   0.0800 
 33 H       -4.7100    -5.8300     3.3350 H     1 <1>   0.0800 
 34 H       -3.8080    -5.0250    -0.8630 H     1 <1>   0.0800 
 35 H       -5.1160    -5.9450    -0.1440 H     1 <1>   0.0800 
 36 H       -7.1070    -4.3440     1.0020 H     1 <1>   0.0800 
 37 H       -6.7780    -2.6320     0.8170 H     1 <1>   0.0800 
 38 H       -5.2160    -3.9450    -2.3470 H     1 <1>   0.0800 
 39 H       -6.8450    -2.7660    -1.4930 H     1 <1>   0.0800 
 40 H       -6.4440    -6.6430    -1.8830 H     1 <1>   0.0800 
 41 H       -5.4520    -6.0930    -3.2130 H     1 <1>   0.0800 
 42 H       -9.0490    -3.5350    -1.0750 H     1 <1>   0.0800 
 43 H       -8.5100    -5.1400    -0.6630 H     1 <1>   0.0800 
 44 H       -7.5740    -5.7980    -4.2240 H     1 <1>   0.3700 
@<TRIPOS>BOND
  1   1   2  1   
  2   2   3  ar  
  3   2   4  ar  
  4   3   5  1   
  5   3   6  ar  
  6   4   7  ar  
  7   4  24  1   
  8   5  25  1   
  9   6   8  ar  
 10   6  26  1   
 11   7   8  ar  
 12   7   9  1   
 13   8  27  1   
 14   9  10  1   
 15   9  28  1   
 16   9  29  1   
 17  10  11  2   
 18  10  12  am  
 19  12  13  1   
 20  12  14  1   
 21  13  15  1   
 22  13  16  1   
 23  13  30  1   
 24  14  31  1   
 25  14  32  1   
 26  14  33  1   
 27  15  17  1   
 28  15  34  1   
 29  15  35  1   
 30  16  18  1   
 31  16  36  1   
 32  16  37  1   
 33  17  18  1   
 34  17  19  1   
 35  17  38  1   
 36  18  20  1   
 37  18  39  1   
 38  19  21  1   
 39  19  40  1   
 40  19  41  1   
 41  20  22  1   
 42  20  42  1   
 43  20  43  1   
 44  21  22  am  
 45  21  44  1   
 46  22  23  2   
@<TRIPOS>SUBSTRUCTURE
  1 ****  15 GROUP 4 **** **** 0

# MOE 2024.06 (io_trps.svl 2023.06)
