@<TRIPOS>MOLECULE
NONAME
51 54 1 0 0 
SMALL
USER_CHARGES


@<TRIPOS>ATOM
  1 O       -0.6200     1.1110    -2.3550 O.2   1 <1>  -0.5700 
  2 C       -1.4250     1.4610    -1.5140 C.2   1 <1>   0.5440 
  3 N       -2.1880     0.5090    -0.8690 N.am  1 <1>  -0.6600 
  4 C       -1.5460     2.8740    -1.2170 C.ar  1 <1>   0.0860 
  5 C       -2.2080    -0.9120    -1.3180 C.3   1 <1>   0.1400 
  6 C       -2.9000     0.7500     0.4190 C.3   1 <1>   0.1400 
  7 C       -0.4570     3.6450    -0.8600 C.ar  1 <1>  -0.1500 
  8 C       -2.7550     3.5540    -1.2780 C.ar  1 <1>  -0.1500 
  9 C       -1.5950    -1.8070    -0.2360 C.3   1 <1>  -0.1600 
 10 C       -2.2980    -0.1350     1.5160 C.3   1 <1>  -0.1600 
 11 C       -0.6020     4.9940    -0.5730 C.ar  1 <1>   0.4100 
 12 C       -2.8060     4.8990    -0.9740 C.ar  1 <1>   0.1600 
 13 C       -2.2960    -1.6170     1.1170 C.3   1 <1>  -0.1600 
 14 N       -1.7650     5.6300    -0.6190 N.ar  1 <1>  -0.6200 
 15 N        0.5030     5.7260    -0.2170 N.pl3 1 <1>  -0.8690 
 16 C        0.4890     7.1930    -0.2970 C.3   1 <1>   0.3890 
 17 C        1.8870     7.6560     0.0430 C.2   1 <1>  -0.3320 
 18 N        2.4630     7.3430     1.2420 N.pl3 1 <1>   0.0330 
 19 C        2.7570     8.3920    -0.6930 C.2   1 <1>  -0.1500 
 20 C        3.7230     7.8870     1.2690 C.ar  1 <1>  -0.1520 
 21 C        3.9350     8.5530     0.0670 C.ar  1 <1>   0.0000 
 22 C        4.7110     7.8540     2.2560 C.ar  1 <1>  -0.1500 
 23 C        5.1520     9.2020    -0.1640 C.ar  1 <1>  -0.1500 
 24 C        5.9050     8.4950     2.0170 C.ar  1 <1>  -0.1500 
 25 C        6.1330     9.1710     0.8110 C.ar  1 <1>   0.0830 
 26 O        7.3500     9.7680     0.6870 O.3   1 <1>  -0.3630 
 27 C        7.6830    10.4750    -0.4870 C.3   1 <1>   0.0400 
 28 H       -1.6600    -1.0300    -2.2380 H     1 <1>   0.0800 
 29 H       -3.2270    -1.2060    -1.5020 H     1 <1>   0.0800 
 30 H       -3.9430     0.5130     0.2910 H     1 <1>   0.0800 
 31 H       -2.8220     1.7790     0.7200 H     1 <1>   0.0800 
 32 H        0.5140     3.1920    -0.8050 H     1 <1>   0.1500 
 33 H       -3.6460     3.0270    -1.5650 H     1 <1>   0.1500 
 34 H       -0.5500    -1.5660    -0.1430 H     1 <1>   0.0800 
 35 H       -1.6680    -2.8350    -0.5420 H     1 <1>   0.0800 
 36 H       -2.8590    -0.0070     2.4250 H     1 <1>   0.0800 
 37 H       -1.2890     0.1880     1.7060 H     1 <1>   0.0800 
 38 H       -3.7560     5.4060    -1.0260 H     1 <1>   0.1500 
 39 H       -1.7930    -2.1980     1.8710 H     1 <1>   0.0800 
 40 H       -3.3110    -1.9700     1.0450 H     1 <1>   0.0800 
 41 H        1.3960     5.3630    -0.5540 H     1 <1>   0.4000 
 42 H       -0.2240     7.5930     0.4050 H     1 <1>   0.0800 
 43 H        0.2150     7.5050    -1.2910 H     1 <1>   0.0800 
 44 H        2.0370     6.7660     1.9750 H     1 <1>   0.2700 
 45 H        2.6200     8.7990    -1.6790 H     1 <1>   0.1500 
 46 H        4.5340     7.3350     3.1810 H     1 <1>   0.1500 
 47 H        5.2810     9.7050    -1.1010 H     1 <1>   0.1500 
 48 H        6.6880     8.4910     2.7530 H     1 <1>   0.1500 
 49 H        8.6790    10.8620    -0.3730 H     1 <1>   0.0800 
 50 H        6.9880    11.2860    -0.6150 H     1 <1>   0.0800 
 51 H        7.6470     9.7990    -1.3230 H     1 <1>   0.0800 
@<TRIPOS>BOND
  1   1   2  2   
  2   2   3  am  
  3   2   4  1   
  4   3   5  1   
  5   3   6  1   
  6   4   7  ar  
  7   4   8  ar  
  8   5   9  1   
  9   5  28  1   
 10   5  29  1   
 11   6  10  1   
 12   6  30  1   
 13   6  31  1   
 14   7  11  ar  
 15   7  32  1   
 16   8  12  ar  
 17   8  33  1   
 18   9  13  1   
 19   9  34  1   
 20   9  35  1   
 21  10  13  1   
 22  10  36  1   
 23  10  37  1   
 24  11  14  ar  
 25  11  15  1   
 26  12  14  ar  
 27  12  38  1   
 28  13  39  1   
 29  13  40  1   
 30  15  16  1   
 31  15  41  1   
 32  16  17  1   
 33  16  42  1   
 34  16  43  1   
 35  17  18  1   
 36  17  19  2   
 37  18  20  1   
 38  18  44  1   
 39  19  21  1   
 40  19  45  1   
 41  20  21  ar  
 42  20  22  ar  
 43  21  23  ar  
 44  22  24  ar  
 45  22  46  1   
 46  23  25  ar  
 47  23  47  1   
 48  24  25  ar  
 49  24  48  1   
 50  25  26  1   
 51  26  27  1   
 52  27  49  1   
 53  27  50  1   
 54  27  51  1   
@<TRIPOS>SUBSTRUCTURE
  1 ****  15 GROUP 4 **** **** 0

# MOE 2024.06 (io_trps.svl 2023.06)
