@<TRIPOS>MOLECULE
NONAME
47 48 1 0 0 
SMALL
USER_CHARGES


@<TRIPOS>ATOM
  1 S        0.7740     0.0500     0.0840 S.o2  1 <1>   1.3330 
  2 O        2.1330     0.2260    -0.3780 O.2   1 <1>  -0.6500 
  3 O        0.5040    -0.0380     1.5010 O.2   1 <1>  -0.6500 
  4 N        0.1390    -1.3300    -0.6730 N.am  1 <1>  -0.8490 
  5 C       -0.2370     1.3720    -0.5780 C.3   1 <1>  -0.0550 
  6 C        0.2880    -2.5330     0.1510 C.3   1 <1>   0.1160 
  7 C        0.6940    -1.5700    -2.0100 C.3   1 <1>   0.1160 
  8 C        0.0780     2.7430     0.0450 C.3   1 <1>  -0.0800 
  9 C       -0.8520     3.8410    -0.4640 C.3   1 <1>   0.2000 
 10 C        1.4790     3.2750    -0.2690 C.3   1 <1>   0.1400 
 11 O       -2.0450     3.8180     0.2390 O.3   1 <1>  -0.6800 
 12 C       -0.0910     5.1480    -0.2540 C.3   1 <1>   0.1400 
 13 N        1.3400     4.7510    -0.2580 N.am  1 <1>  -0.6600 
 14 C        2.4190     5.5880    -0.2900 C.2   1 <1>   0.5690 
 15 O        3.5460     5.1600    -0.3670 O.2   1 <1>  -0.5700 
 16 C        2.2160     7.0900    -0.2470 C.3   1 <1>  -0.0990 
 17 C        3.4570     7.8190     0.2840 C.3   1 <1>   0.0960 
 18 N        3.2230     9.2730     0.3190 N.pl3 1 <1>   0.3140 
 19 N        2.3060     9.8280     1.1330 N.2   1 <1>  -0.7070 
 20 C        3.8450    10.2070    -0.4260 C.2   1 <1>  -0.3020 
 21 C        2.3710    11.1010     0.8870 C.2   1 <1>   0.1390 
 22 C        3.3190    11.4010    -0.0850 C.2   1 <1>  -0.1810 
 23 C        3.6640    12.7750    -0.6220 C.3   1 <1>  -0.0590 
 24 H       -0.1090     1.4240    -1.6410 H     1 <1>   0.0800 
 25 H       -1.2670     1.1410    -0.3840 H     1 <1>   0.0800 
 26 H       -0.1390    -3.3850    -0.3500 H     1 <1>   0.0800 
 27 H       -0.2260    -2.4040     1.0890 H     1 <1>   0.0800 
 28 H        1.3300    -2.7230     0.3520 H     1 <1>   0.0800 
 29 H        0.1930    -2.4010    -2.4750 H     1 <1>   0.0800 
 30 H        1.7480    -1.7870    -1.9460 H     1 <1>   0.0800 
 31 H        0.5580    -0.7010    -2.6300 H     1 <1>   0.0800 
 32 H       -0.0040     2.6760     1.1160 H     1 <1>   0.0800 
 33 H       -1.0740     3.7150    -1.5110 H     1 <1>   0.0800 
 34 H        1.8070     2.9620    -1.2470 H     1 <1>   0.0800 
 35 H        2.2020     2.9530     0.4640 H     1 <1>   0.0800 
 36 H       -1.8790     3.8660     1.2010 H     1 <1>   0.4000 
 37 H       -0.3350     5.5840     0.6990 H     1 <1>   0.0800 
 38 H       -0.2960     5.8430    -1.0500 H     1 <1>   0.0800 
 39 H        1.9940     7.4310    -1.2400 H     1 <1>   0.0800 
 40 H        1.3870     7.3180     0.3970 H     1 <1>   0.0800 
 41 H        4.3060     7.6190    -0.3440 H     1 <1>   0.0800 
 42 H        3.6810     7.4880     1.2810 H     1 <1>   0.0800 
 43 H        4.6110     9.9750    -1.1430 H     1 <1>   0.1500 
 44 H        1.7560    11.8310     1.3850 H     1 <1>   0.1500 
 45 H        2.7950    13.2230    -1.0670 H     1 <1>   0.0800 
 46 H        4.4360    12.6980    -1.3660 H     1 <1>   0.0800 
 47 H        4.0140    13.4030     0.1780 H     1 <1>   0.0800 
@<TRIPOS>BOND
  1   1   2  2   
  2   1   3  2   
  3   1   4  am  
  4   1   5  1   
  5   4   6  1   
  6   4   7  1   
  7   5   8  1   
  8   5  24  1   
  9   5  25  1   
 10   6  26  1   
 11   6  27  1   
 12   6  28  1   
 13   7  29  1   
 14   7  30  1   
 15   7  31  1   
 16   8   9  1   
 17   8  10  1   
 18   8  32  1   
 19   9  11  1   
 20   9  12  1   
 21   9  33  1   
 22  10  13  1   
 23  10  34  1   
 24  10  35  1   
 25  11  36  1   
 26  12  13  1   
 27  12  37  1   
 28  12  38  1   
 29  13  14  am  
 30  14  15  2   
 31  14  16  1   
 32  16  17  1   
 33  16  39  1   
 34  16  40  1   
 35  17  18  1   
 36  17  41  1   
 37  17  42  1   
 38  18  19  1   
 39  18  20  1   
 40  19  21  2   
 41  20  22  2   
 42  20  43  1   
 43  21  22  1   
 44  21  44  1   
 45  22  23  1   
 46  23  45  1   
 47  23  46  1   
 48  23  47  1   
@<TRIPOS>SUBSTRUCTURE
  1 ****  13 GROUP 4 **** **** 0

# MOE 2024.06 (io_trps.svl 2023.06)
