@<TRIPOS>MOLECULE
NONAME
50 51 1 0 0 
SMALL
USER_CHARGES


@<TRIPOS>ATOM
  1 O        0.6240     0.4570    -1.3550 O.2   1 <1>  -0.5700 
  2 C       -0.4150     0.8890    -0.9210 C.2   1 <1>   0.5690 
  3 N       -1.4030     0.0920    -0.4510 N.am  1 <1>  -0.7300 
  4 C       -0.6120     2.3860    -0.8810 C.3   1 <1>  -0.0990 
  5 C       -1.3600    -1.3790    -0.4080 C.3   1 <1>   0.2200 
  6 C        0.0870     2.9990     0.3410 C.3   1 <1>  -0.0990 
  7 C       -2.5820    -1.9270    -1.1340 C.3   1 <1>  -0.1600 
  8 C       -1.5720    -1.8340     1.0300 C.3   1 <1>  -0.1600 
  9 C       -0.0430     4.5040     0.3350 C.2   1 <1>   0.5690 
 10 C       -3.7350    -1.8530    -0.1260 C.3   1 <1>  -0.1600 
 11 C       -3.0870    -1.7910     1.2630 C.3   1 <1>  -0.1600 
 12 O       -1.0160     4.9990     0.8460 O.2   1 <1>  -0.5700 
 13 N        0.9360     5.2260    -0.2680 N.am  1 <1>  -0.7300 
 14 C        0.9710     6.6900    -0.4990 C.3   1 <1>   0.2200 
 15 C        0.6320     7.4810     0.7770 C.3   1 <1>  -0.0170 
 16 C        0.0370     7.0010    -1.6700 C.3   1 <1>  -0.2400 
 17 C        1.3680     8.8110     0.8210 C.ar  1 <1>   0.1670 
 18 N        0.9790     9.7380    -0.0400 N.ar  1 <1>  -0.6200 
 19 C        2.3930     8.9940     1.7380 C.ar  1 <1>  -0.1500 
 20 C        1.6260    10.8900     0.0070 C.ar  1 <1>   0.1670 
 21 C        3.0640    10.1970     1.7810 C.ar  1 <1>  -0.1500 
 22 C        2.6610    11.1640     0.8860 C.ar  1 <1>  -0.1500 
 23 C        1.1680    11.9400    -0.9820 C.3   1 <1>  -0.0970 
 24 H       -2.2620     0.4940    -0.0780 H     1 <1>   0.3700 
 25 H       -1.6620     2.6170    -0.8560 H     1 <1>   0.0800 
 26 H       -0.2030     2.8050    -1.7830 H     1 <1>   0.0800 
 27 H       -0.4350    -1.7480    -0.8240 H     1 <1>   0.0800 
 28 H        1.1270     2.7280     0.3410 H     1 <1>   0.0800 
 29 H       -0.3560     2.6160     1.2420 H     1 <1>   0.0800 
 30 H       -2.3960    -2.9580    -1.3770 H     1 <1>   0.0800 
 31 H       -2.7870    -1.3930    -2.0450 H     1 <1>   0.0800 
 32 H       -1.0230    -1.2310     1.7330 H     1 <1>   0.0800 
 33 H       -1.2340    -2.8520     1.1160 H     1 <1>   0.0800 
 34 H       -4.3810    -2.7090    -0.2210 H     1 <1>   0.0800 
 35 H       -4.3140    -0.9610    -0.2960 H     1 <1>   0.0800 
 36 H       -3.3570    -0.8700     1.7490 H     1 <1>   0.0800 
 37 H       -3.4020    -2.6140     1.8810 H     1 <1>   0.0800 
 38 H        1.6920     4.7180    -0.7290 H     1 <1>   0.3700 
 39 H        1.9760     6.9480    -0.7880 H     1 <1>   0.0800 
 40 H        0.9100     6.9030     1.6390 H     1 <1>   0.0800 
 41 H       -0.4270     7.6610     0.8330 H     1 <1>   0.0800 
 42 H       -0.9800     6.7630    -1.4120 H     1 <1>   0.0800 
 43 H        0.3260     6.4410    -2.5390 H     1 <1>   0.0800 
 44 H        0.0860     8.0470    -1.9130 H     1 <1>   0.0800 
 45 H        2.6660     8.2060     2.4160 H     1 <1>   0.1500 
 46 H        3.8630    10.3720     2.4790 H     1 <1>   0.1500 
 47 H        3.1480    12.1210     0.8750 H     1 <1>   0.1500 
 48 H        0.1290    12.1590    -0.8150 H     1 <1>   0.0800 
 49 H        1.2850    11.5650    -1.9820 H     1 <1>   0.0800 
 50 H        1.7360    12.8460    -0.8800 H     1 <1>   0.0800 
@<TRIPOS>BOND
  1   1   2  2   
  2   2   3  am  
  3   2   4  1   
  4   3   5  1   
  5   3  24  1   
  6   4   6  1   
  7   4  25  1   
  8   4  26  1   
  9   5   7  1   
 10   5   8  1   
 11   5  27  1   
 12   6   9  1   
 13   6  28  1   
 14   6  29  1   
 15   7  10  1   
 16   7  30  1   
 17   7  31  1   
 18   8  11  1   
 19   8  32  1   
 20   8  33  1   
 21   9  12  2   
 22   9  13  am  
 23  10  11  1   
 24  10  34  1   
 25  10  35  1   
 26  11  36  1   
 27  11  37  1   
 28  13  14  1   
 29  13  38  1   
 30  14  15  1   
 31  14  16  1   
 32  14  39  1   
 33  15  17  1   
 34  15  40  1   
 35  15  41  1   
 36  16  42  1   
 37  16  43  1   
 38  16  44  1   
 39  17  18  ar  
 40  17  19  ar  
 41  18  20  ar  
 42  19  21  ar  
 43  19  45  1   
 44  20  22  ar  
 45  20  23  1   
 46  21  22  ar  
 47  21  46  1   
 48  22  47  1   
 49  23  48  1   
 50  23  49  1   
 51  23  50  1   
@<TRIPOS>SUBSTRUCTURE
  1 ****   9 GROUP 4 **** **** 0

# MOE 2024.06 (io_trps.svl 2023.06)
