@<TRIPOS>MOLECULE
NONAME
39 40 1 0 0 
SMALL
USER_CHARGES


@<TRIPOS>ATOM
  1 O       -1.8390    -1.2070     1.0520 O.3   1 <1>  -0.5600 
  2 C       -0.4430    -1.2470     1.1120 C.3   1 <1>   0.1200 
  3 C       -2.4090    -1.9050    -0.0190 C.3   1 <1>   0.1200 
  4 C        0.0470    -2.7050     1.2110 C.3   1 <1>   0.3430 
  5 C       -1.9930    -3.3870     0.0220 C.3   1 <1>   0.3430 
  6 N       -0.4950    -3.5440     0.0880 N.4   1 <1>  -0.9590 
  7 C       -0.1260    -4.9890     0.2770 C.3   1 <1>   0.3430 
  8 C       -0.3990    -5.8670    -0.9600 C.3   1 <1>   0.2090 
  9 N       -0.8950    -7.1980    -0.5220 N.pl3 1 <1>  -0.8380 
 10 C       -2.2330    -7.3900    -0.2200 C.ar  1 <1>   0.7200 
 11 C       -0.0100    -8.3630    -0.8370 C.3   1 <1>   0.1290 
 12 N       -2.6900    -8.6380    -0.2540 N.ar  1 <1>  -0.6200 
 13 N       -2.9400    -6.2980     0.0860 N.ar  1 <1>  -0.6200 
 14 C       -3.9580    -8.8090     0.0410 C.ar  1 <1>   0.1600 
 15 C       -4.2080    -6.5040     0.3800 C.ar  1 <1>   0.1600 
 16 C       -4.7860    -7.7540     0.3740 C.ar  1 <1>   0.0830 
 17 O       -6.1080    -7.8590     0.6920 O.3   1 <1>  -0.3620 
 18 C       -6.7390    -9.1220     0.7090 C.3   1 <1>   0.0400 
 19 H       -0.1390    -0.6950     1.9840 H     1 <1>   0.0800 
 20 H       -0.0430    -0.7580     0.2410 H     1 <1>   0.0800 
 21 H       -2.1020    -1.4390    -0.9390 H     1 <1>   0.0800 
 22 H       -3.4780    -1.8190     0.0680 H     1 <1>   0.0800 
 23 H       -0.2790    -3.1080     2.1560 H     1 <1>   0.0800 
 24 H        1.1250    -2.7210     1.1980 H     1 <1>   0.0800 
 25 H       -2.3840    -3.8920    -0.8460 H     1 <1>   0.0800 
 26 H       -2.4430    -3.8450     0.8880 H     1 <1>   0.0800 
 27 H       -0.0970    -3.1970    -0.7930 H     1 <1>   0.4500 
 28 H       -0.6980    -5.3880     1.0990 H     1 <1>   0.0800 
 29 H        0.9180    -5.0730     0.5290 H     1 <1>   0.0800 
 30 H        0.5050    -5.9790    -1.5330 H     1 <1>   0.0800 
 31 H       -1.1410    -5.4180    -1.5960 H     1 <1>   0.0800 
 32 H        1.0260    -8.0910    -0.7390 H     1 <1>   0.0800 
 33 H       -0.1970    -8.7010    -1.8420 H     1 <1>   0.0800 
 34 H       -0.2080    -9.1770    -0.1580 H     1 <1>   0.0800 
 35 H       -4.3350    -9.8150     0.0150 H     1 <1>   0.1500 
 36 H       -4.8240    -5.6610     0.6360 H     1 <1>   0.1500 
 37 H       -7.7690    -8.9770     0.9840 H     1 <1>   0.0800 
 38 H       -6.2540    -9.7490     1.4350 H     1 <1>   0.0800 
 39 H       -6.6850    -9.5560    -0.2750 H     1 <1>   0.0800 
@<TRIPOS>BOND
  1   1   2  1   
  2   1   3  1   
  3   2   4  1   
  4   2  19  1   
  5   2  20  1   
  6   3   5  1   
  7   3  21  1   
  8   3  22  1   
  9   4   6  1   
 10   4  23  1   
 11   4  24  1   
 12   5   6  1   
 13   5  25  1   
 14   5  26  1   
 15   6   7  1   
 16   6  27  1   
 17   7   8  1   
 18   7  28  1   
 19   7  29  1   
 20   8   9  1   
 21   8  30  1   
 22   8  31  1   
 23   9  10  1   
 24   9  11  1   
 25  10  12  ar  
 26  10  13  ar  
 27  11  32  1   
 28  11  33  1   
 29  11  34  1   
 30  12  14  ar  
 31  13  15  ar  
 32  14  16  ar  
 33  14  35  1   
 34  15  16  ar  
 35  15  36  1   
 36  16  17  1   
 37  17  18  1   
 38  18  37  1   
 39  18  38  1   
 40  18  39  1   
@<TRIPOS>SUBSTRUCTURE
  1 ****  13 GROUP 4 **** **** 0

# MOE 2024.06 (io_trps.svl 2023.06)
