@<TRIPOS>MOLECULE
NONAME
53 55 1 0 0 
SMALL
USER_CHARGES


@<TRIPOS>ATOM
  1 S       -0.0230    -0.1640     2.1660 S.o2  1 <1>   1.4470 
  2 O        0.2730     1.0680     2.8670 O.2   1 <1>  -0.6500 
  3 O       -0.7330    -1.2180     2.8590 O.2   1 <1>  -0.6500 
  4 N       -0.9580     0.2580     0.8170 N.am  1 <1>  -0.8490 
  5 C        1.4850    -0.8450     1.4230 C.ar  1 <1>  -0.0090 
  6 C       -2.3530     0.5240     1.2010 C.3   1 <1>   0.1960 
  7 C       -0.4010     1.4050     0.0930 C.3   1 <1>   0.1960 
  8 C        2.7430    -0.3720     1.7700 C.ar  1 <1>  -0.1500 
  9 C        1.4220    -1.8610     0.4810 C.ar  1 <1>  -0.1500 
 10 C       -3.2600     0.7340    -0.0380 C.3   1 <1>   0.0000 
 11 C       -1.1970     1.6600    -1.1910 C.3   1 <1>  -0.1600 
 12 C        3.8920    -0.8880     1.1950 C.ar  1 <1>  -0.1500 
 13 C        2.5680    -2.3790    -0.0960 C.ar  1 <1>  -0.1500 
 14 C       -4.7290     0.9990     0.3510 C.3   1 <1>   0.2000 
 15 C       -2.6880     1.8820    -0.8940 C.3   1 <1>  -0.1600 
 16 C       -3.3850    -0.5780    -0.8360 C.3   1 <1>  -0.1600 
 17 C        3.8280    -1.9040     0.2470 C.ar  1 <1>  -0.1430 
 18 O       -4.8580     1.7700     1.4930 O.3   1 <1>  -0.6800 
 19 C       -5.3880    -0.3660     0.5570 C.3   1 <1>  -0.1600 
 20 C       -4.4680    -1.3900    -0.1210 C.3   1 <1>  -0.1600 
 21 C        5.0790    -2.5130    -0.4240 C.3   1 <1>   0.1440 
 22 C        4.9990    -2.3070    -1.9440 C.3   1 <1>  -0.2400 
 23 C        6.3950    -1.8800     0.0610 C.3   1 <1>  -0.2400 
 24 C        5.1470    -4.0160    -0.1150 C.3   1 <1>  -0.2400 
 25 H       -2.7340    -0.3030     1.7750 H     1 <1>   0.0800 
 26 H       -2.3800     1.4000     1.8280 H     1 <1>   0.0800 
 27 H       -0.4290     2.2830     0.7180 H     1 <1>   0.0800 
 28 H        0.6260     1.2090    -0.1660 H     1 <1>   0.0800 
 29 H        2.8270     0.4130     2.5030 H     1 <1>   0.1500 
 30 H        0.4590    -2.2490     0.1950 H     1 <1>   0.1500 
 31 H       -0.7970     2.5250    -1.6880 H     1 <1>   0.0800 
 32 H       -1.0720     0.8180    -1.8500 H     1 <1>   0.0800 
 33 H        4.8310    -0.4740     1.5110 H     1 <1>   0.1500 
 34 H        2.4620    -3.1650    -0.8220 H     1 <1>   0.1500 
 35 H       -5.2260     1.5180    -0.4520 H     1 <1>   0.0800 
 36 H       -3.2340     1.9760    -1.8160 H     1 <1>   0.0800 
 37 H       -2.8010     2.8060    -0.3530 H     1 <1>   0.0800 
 38 H       -3.7190    -0.3630    -1.8360 H     1 <1>   0.0800 
 39 H       -2.4570    -1.1210    -0.8970 H     1 <1>   0.0800 
 40 H       -4.6510     1.2390     2.2840 H     1 <1>   0.4000 
 41 H       -5.4910    -0.6060     1.6010 H     1 <1>   0.0800 
 42 H       -6.3590    -0.3710     0.0950 H     1 <1>   0.0800 
 43 H       -4.0130    -2.0170     0.6270 H     1 <1>   0.0800 
 44 H       -5.0080    -2.0150    -0.8120 H     1 <1>   0.0800 
 45 H        5.8780    -2.6940    -2.4260 H     1 <1>   0.0800 
 46 H        4.9170    -1.2590    -2.1690 H     1 <1>   0.0800 
 47 H        4.1440    -2.8090    -2.3590 H     1 <1>   0.0800 
 48 H        7.2360    -2.3330    -0.4320 H     1 <1>   0.0800 
 49 H        6.5140    -2.0210     1.1200 H     1 <1>   0.0800 
 50 H        6.4100    -0.8270    -0.1570 H     1 <1>   0.0800 
 51 H        6.0310    -4.4530    -0.5430 H     1 <1>   0.0800 
 52 H        4.2940    -4.5330    -0.5130 H     1 <1>   0.0800 
 53 H        5.1680    -4.1710     0.9500 H     1 <1>   0.0800 
@<TRIPOS>BOND
  1   1   2  2   
  2   1   3  2   
  3   1   4  am  
  4   1   5  1   
  5   4   6  1   
  6   4   7  1   
  7   5   8  ar  
  8   5   9  ar  
  9   6  10  1   
 10   6  25  1   
 11   6  26  1   
 12   7  11  1   
 13   7  27  1   
 14   7  28  1   
 15   8  12  ar  
 16   8  29  1   
 17   9  13  ar  
 18   9  30  1   
 19  10  14  1   
 20  10  15  1   
 21  10  16  1   
 22  11  15  1   
 23  11  31  1   
 24  11  32  1   
 25  12  17  ar  
 26  12  33  1   
 27  13  17  ar  
 28  13  34  1   
 29  14  18  1   
 30  14  19  1   
 31  14  35  1   
 32  15  36  1   
 33  15  37  1   
 34  16  20  1   
 35  16  38  1   
 36  16  39  1   
 37  17  21  1   
 38  18  40  1   
 39  19  20  1   
 40  19  41  1   
 41  19  42  1   
 42  20  43  1   
 43  20  44  1   
 44  21  22  1   
 45  21  23  1   
 46  21  24  1   
 47  22  45  1   
 48  22  46  1   
 49  22  47  1   
 50  23  48  1   
 51  23  49  1   
 52  23  50  1   
 53  24  51  1   
 54  24  52  1   
 55  24  53  1   
@<TRIPOS>SUBSTRUCTURE
  1 ****   4 GROUP 4 **** **** 0

# MOE 2024.06 (io_trps.svl 2023.06)
