@<TRIPOS>MOLECULE
NONAME
49 52 1 0 0 
SMALL
USER_CHARGES


@<TRIPOS>ATOM
  1 O        1.9630    -0.2260    -1.4190 O.3   1 <1>  -0.6800 
  2 C        1.5390    -0.0440    -0.1120 C.3   1 <1>   0.4240 
  3 C        0.7440     1.2740    -0.0290 C.ar  1 <1>  -0.1440 
  4 C        2.8060     0.0370     0.7650 C.3   1 <1>  -0.0800 
  5 C        0.6820    -1.2800     0.2510 C.3   1 <1>  -0.1600 
  6 C        0.5930     2.1380    -1.1130 C.ar  1 <1>  -0.1500 
  7 C        0.1650     1.6440     1.1820 C.ar  1 <1>  -0.1500 
  8 C        3.6740    -1.2340     0.7340 C.3   1 <1>  -0.0800 
  9 C        3.7120     1.1710     0.2870 C.3   1 <1>   0.3430 
 10 C        1.4770    -2.4910     0.7910 C.3   1 <1>  -0.1600 
 11 C       -0.1120     3.3220    -0.9890 C.ar  1 <1>  -0.1500 
 12 C       -0.5400     2.8280     1.3080 C.ar  1 <1>  -0.1500 
 13 C        2.9280    -2.5120     0.2970 C.3   1 <1>  -0.1600 
 14 C        4.8200    -0.8700    -0.1990 C.3   1 <1>   0.3430 
 15 N        5.0610     0.5770     0.0460 N.4   1 <1>  -0.9590 
 16 C       -0.6790     3.6690     0.2220 C.ar  1 <1>  -0.1500 
 17 C        5.8130     1.2520    -1.0460 C.3   1 <1>   0.4230 
 18 C        7.2220     0.6680    -1.1470 C.3   1 <1>  -0.1600 
 19 C        6.1060     2.7010    -0.6570 C.3   1 <1>  -0.1600 
 20 C        8.0290     1.3270    -0.0210 C.3   1 <1>  -0.1600 
 21 C        7.3070     2.6430     0.2950 C.3   1 <1>  -0.1600 
 22 H        1.1670    -0.3190    -1.9800 H     1 <1>   0.4000 
 23 H        2.5050     0.2290     1.7780 H     1 <1>   0.0800 
 24 H       -0.0370    -1.0170     1.0050 H     1 <1>   0.0800 
 25 H        0.1100    -1.5790    -0.6100 H     1 <1>   0.0800 
 26 H        1.0190     1.9160    -2.0760 H     1 <1>   0.1500 
 27 H        0.2510     1.0150     2.0500 H     1 <1>   0.1500 
 28 H        4.0780    -1.3930     1.7190 H     1 <1>   0.0800 
 29 H        3.7600     1.9620     1.0170 H     1 <1>   0.0800 
 30 H        3.3220     1.5750    -0.6340 H     1 <1>   0.0800 
 31 H        1.4820    -2.4580     1.8680 H     1 <1>   0.0800 
 32 H        0.9800    -3.4030     0.5040 H     1 <1>   0.0800 
 33 H       -0.2210     3.9760    -1.8370 H     1 <1>   0.1500 
 34 H       -0.9830     3.0960     2.2520 H     1 <1>   0.1500 
 35 H        2.9220    -2.5990    -0.7770 H     1 <1>   0.0800 
 36 H        3.4330    -3.3800     0.6870 H     1 <1>   0.0800 
 37 H        4.5020    -1.0140    -1.2200 H     1 <1>   0.0800 
 38 H        5.6970    -1.4650    -0.0040 H     1 <1>   0.0800 
 39 H        5.6210     0.6770     0.9000 H     1 <1>   0.4500 
 40 H       -1.2290     4.5900     0.3170 H     1 <1>   0.1500 
 41 H        5.2750     1.1820    -1.9790 H     1 <1>   0.0800 
 42 H        7.2650    -0.4050    -1.1130 H     1 <1>   0.0800 
 43 H        7.6420     0.9800    -2.0880 H     1 <1>   0.0800 
 44 H        6.4070     3.2270    -1.5480 H     1 <1>   0.0800 
 45 H        5.2700     3.2290    -0.2370 H     1 <1>   0.0800 
 46 H        8.0430     0.6970     0.8520 H     1 <1>   0.0800 
 47 H        9.0460     1.5040    -0.3310 H     1 <1>   0.0800 
 48 H        7.9550     3.4910     0.1450 H     1 <1>   0.0800 
 49 H        6.9760     2.6450     1.3200 H     1 <1>   0.0800 
@<TRIPOS>BOND
  1   1   2  1   
  2   1  22  1   
  3   2   3  1   
  4   2   4  1   
  5   2   5  1   
  6   3   6  ar  
  7   3   7  ar  
  8   4   8  1   
  9   4   9  1   
 10   4  23  1   
 11   5  10  1   
 12   5  24  1   
 13   5  25  1   
 14   6  11  ar  
 15   6  26  1   
 16   7  12  ar  
 17   7  27  1   
 18   8  13  1   
 19   8  14  1   
 20   8  28  1   
 21   9  15  1   
 22   9  29  1   
 23   9  30  1   
 24  10  13  1   
 25  10  31  1   
 26  10  32  1   
 27  11  16  ar  
 28  11  33  1   
 29  12  16  ar  
 30  12  34  1   
 31  13  35  1   
 32  13  36  1   
 33  14  15  1   
 34  14  37  1   
 35  14  38  1   
 36  15  17  1   
 37  15  39  1   
 38  16  40  1   
 39  17  18  1   
 40  17  19  1   
 41  17  41  1   
 42  18  20  1   
 43  18  42  1   
 44  18  43  1   
 45  19  21  1   
 46  19  44  1   
 47  19  45  1   
 48  20  21  1   
 49  20  46  1   
 50  20  47  1   
 51  21  48  1   
 52  21  49  1   
@<TRIPOS>SUBSTRUCTURE
  1 ****   9 GROUP 4 **** **** 0

# MOE 2024.06 (io_trps.svl 2023.06)
