@<TRIPOS>MOLECULE
NONAME
41 42 1 0 0 
SMALL
USER_CHARGES


@<TRIPOS>ATOM
  1 O       -0.0240     4.2970    -1.7390 O.2   1 <1>  -0.5700 
  2 C       -0.3840     3.5270    -0.8780 C.2   1 <1>   0.5690 
  3 N       -1.5660     3.7030    -0.2170 N.am  1 <1>  -0.6600 
  4 C        0.5320     2.3640    -0.5390 C.3   1 <1>  -0.0990 
  5 C       -1.9320     2.9660     1.0170 C.3   1 <1>   0.1400 
  6 C       -2.4850     4.8300    -0.6000 C.3   1 <1>   0.2010 
  7 C       -0.1430     0.9890    -0.6860 C.3   1 <1>  -0.1600 
  8 C       -2.2700     1.5090     0.6920 C.3   1 <1>  -0.1600 
  9 C       -2.0810     6.1550     0.0440 C.2   1 <1>   0.5690 
 10 C       -1.0360     0.6120     0.5060 C.3   1 <1>  -0.1600 
 11 O       -2.8330     6.6960     0.8190 O.2   1 <1>  -0.5700 
 12 N       -0.8720     6.6780    -0.2650 N.am  1 <1>  -0.7300 
 13 C       -0.2190     7.8130     0.4310 C.3   1 <1>   0.3210 
 14 C        1.2320     7.4810     0.7680 C.2   1 <1>   0.3350 
 15 N        1.7260     7.4480     1.9420 N.2   1 <1>  -0.4100 
 16 N        2.1110     7.1830    -0.1830 N.2   1 <1>  -0.5650 
 17 O        2.9780     7.1240     1.8220 O.3   1 <1>  -0.0190 
 18 C        3.1470     6.9780     0.5310 C.2   1 <1>   0.2980 
 19 C        4.5150     6.5630     0.0100 C.3   1 <1>   0.3000 
 20 O        5.5000     7.4760     0.4070 O.3   1 <1>  -0.5600 
 21 C        6.7750     7.1810    -0.0640 C.3   1 <1>   0.0400 
 22 H        0.9190     2.4940     0.4540 H     1 <1>   0.0800 
 23 H        1.3680     2.4030    -1.2140 H     1 <1>   0.0800 
 24 H       -2.7880     3.4350     1.4730 H     1 <1>   0.0800 
 25 H       -1.1230     3.0160     1.7260 H     1 <1>   0.0800 
 26 H       -3.4940     4.5920    -0.3160 H     1 <1>   0.0800 
 27 H       -2.4690     4.9550    -1.6670 H     1 <1>   0.0800 
 28 H        0.6280     0.2440    -0.7710 H     1 <1>   0.0800 
 29 H       -0.7160     0.9640    -1.5980 H     1 <1>   0.0800 
 30 H       -2.9010     1.4680    -0.1800 H     1 <1>   0.0800 
 31 H       -2.8380     1.1130     1.5150 H     1 <1>   0.0800 
 32 H       -0.4480     0.6210     1.4080 H     1 <1>   0.0800 
 33 H       -1.3760    -0.3990     0.3610 H     1 <1>   0.0800 
 34 H       -0.2460     6.1260    -0.8740 H     1 <1>   0.3700 
 35 H       -0.7520     8.0440     1.3370 H     1 <1>   0.0800 
 36 H       -0.2400     8.6770    -0.2070 H     1 <1>   0.0800 
 37 H        4.4920     6.5270    -1.0650 H     1 <1>   0.0800 
 38 H        4.7680     5.5930     0.4000 H     1 <1>   0.0800 
 39 H        7.4480     7.9390     0.2990 H     1 <1>   0.0800 
 40 H        6.7700     7.1900    -1.1400 H     1 <1>   0.0800 
 41 H        7.0810     6.2180     0.3080 H     1 <1>   0.0800 
@<TRIPOS>BOND
  1   1   2  2   
  2   2   3  am  
  3   2   4  1   
  4   3   5  1   
  5   3   6  1   
  6   4   7  1   
  7   4  22  1   
  8   4  23  1   
  9   5   8  1   
 10   5  24  1   
 11   5  25  1   
 12   6   9  1   
 13   6  26  1   
 14   6  27  1   
 15   7  10  1   
 16   7  28  1   
 17   7  29  1   
 18   8  10  1   
 19   8  30  1   
 20   8  31  1   
 21   9  11  2   
 22   9  12  am  
 23  10  32  1   
 24  10  33  1   
 25  12  13  1   
 26  12  34  1   
 27  13  14  1   
 28  13  35  1   
 29  13  36  1   
 30  14  15  2   
 31  14  16  1   
 32  15  17  1   
 33  16  18  2   
 34  17  18  1   
 35  18  19  1   
 36  19  20  1   
 37  19  37  1   
 38  19  38  1   
 39  20  21  1   
 40  21  39  1   
 41  21  40  1   
 42  21  41  1   
@<TRIPOS>SUBSTRUCTURE
  1 ****  12 GROUP 4 **** **** 0

# MOE 2024.06 (io_trps.svl 2023.06)
