@<TRIPOS>MOLECULE
NONAME
42 43 1 0 0 
SMALL
USER_CHARGES


@<TRIPOS>ATOM
  1 F        4.1590     0.0860    -2.1960 F     1 <1>  -0.1900 
  2 C        4.2460     1.1120    -1.3920 C.ar  1 <1>   0.1900 
  3 C        5.3600     1.9250    -1.4680 C.ar  1 <1>  -0.1500 
  4 C        3.2210     1.3450    -0.4960 C.ar  1 <1>  -0.1500 
  5 C        5.4440     3.0110    -0.6130 C.ar  1 <1>  -0.1500 
  6 C        3.3180     2.4350     0.3530 C.ar  1 <1>  -0.1500 
  7 C        4.4280     3.2710     0.2980 C.ar  1 <1>  -0.1430 
  8 C        4.5380     4.4700     1.2320 C.3   1 <1>   0.2540 
  9 N        4.6810     5.7190     0.4630 N.3   1 <1>  -0.8100 
 10 C        5.0300     6.8680     1.3540 C.3   1 <1>   0.1710 
 11 C        3.4620     6.0070    -0.3170 C.3   1 <1>   0.0300 
 12 C        5.7120     8.0340     0.6280 C.2   1 <1>   0.5690 
 13 O        5.8370     9.0890     1.2020 O.2   1 <1>  -0.5700 
 14 N        6.1800     7.8020    -0.6250 N.am  1 <1>  -0.7300 
 15 C        6.8210     8.6740    -1.6330 C.3   1 <1>   0.4000 
 16 C        8.3350     8.4840    -1.6490 C.2   1 <1>   0.0070 
 17 C        6.4060    10.1410    -1.5160 C.3   1 <1>  -0.2400 
 18 N        8.9740     8.1220    -2.7120 N.2   1 <1>  -0.3380 
 19 N        9.1720     8.6560    -0.6150 N.pl3 1 <1>   0.0480 
 20 N       10.2650     8.0480    -2.3930 N.2   1 <1>  -0.3380 
 21 C       10.3590     8.3670    -1.1510 C.2   1 <1>   0.0360 
 22 C        8.9250     9.0450     0.7870 C.3   1 <1>   0.0160 
 23 H        6.1380     1.7130    -2.1790 H     1 <1>   0.1500 
 24 H        2.3710     0.6880    -0.4690 H     1 <1>   0.1500 
 25 H        6.3010     3.6620    -0.6580 H     1 <1>   0.1500 
 26 H        2.5250     2.6290     1.0550 H     1 <1>   0.1500 
 27 H        5.4070     4.3290     1.8520 H     1 <1>   0.0800 
 28 H        3.6750     4.5290     1.8730 H     1 <1>   0.0800 
 29 H        5.7180     6.5370     2.1100 H     1 <1>   0.0800 
 30 H        4.1480     7.2340     1.8500 H     1 <1>   0.0800 
 31 H        3.2830     5.2190    -1.0290 H     1 <1>   0.0800 
 32 H        3.5730     6.9280    -0.8620 H     1 <1>   0.0800 
 33 H        2.6070     6.0890     0.3330 H     1 <1>   0.0800 
 34 H        6.0340     6.8370    -0.9450 H     1 <1>   0.3700 
 35 H        6.4630     8.3390    -2.5920 H     1 <1>   0.0800 
 36 H        6.7860    10.5910    -0.6200 H     1 <1>   0.0800 
 37 H        5.3340    10.2230    -1.5270 H     1 <1>   0.0800 
 38 H        6.7990    10.6870    -2.3540 H     1 <1>   0.0800 
 39 H       11.2790     8.3990    -0.5970 H     1 <1>   0.1500 
 40 H        8.3190     9.9310     0.8210 H     1 <1>   0.0800 
 41 H        9.8600     9.2410     1.2790 H     1 <1>   0.0800 
 42 H        8.4190     8.2450     1.2940 H     1 <1>   0.0800 
@<TRIPOS>BOND
  1   1   2  1   
  2   2   3  ar  
  3   2   4  ar  
  4   3   5  ar  
  5   3  23  1   
  6   4   6  ar  
  7   4  24  1   
  8   5   7  ar  
  9   5  25  1   
 10   6   7  ar  
 11   6  26  1   
 12   7   8  1   
 13   8   9  1   
 14   8  27  1   
 15   8  28  1   
 16   9  10  1   
 17   9  11  1   
 18  10  12  1   
 19  10  29  1   
 20  10  30  1   
 21  11  31  1   
 22  11  32  1   
 23  11  33  1   
 24  12  13  2   
 25  12  14  am  
 26  14  15  1   
 27  14  34  1   
 28  15  16  1   
 29  15  17  1   
 30  15  35  1   
 31  16  18  2   
 32  16  19  1   
 33  17  36  1   
 34  17  37  1   
 35  17  38  1   
 36  18  20  1   
 37  19  21  1   
 38  19  22  1   
 39  20  21  2   
 40  21  39  1   
 41  22  40  1   
 42  22  41  1   
 43  22  42  1   
@<TRIPOS>SUBSTRUCTURE
  1 ****   9 GROUP 4 **** **** 0

# MOE 2024.06 (io_trps.svl 2023.06)
