@<TRIPOS>MOLECULE
NONAME
53 55 1 0 0 
SMALL
USER_CHARGES


@<TRIPOS>ATOM
  1 O        0.6770     2.9720    -3.6870 O.2   1 <1>  -0.5700 
  2 C        0.2260     3.9100    -3.0720 C.2   1 <1>   0.5690 
  3 N       -0.1050     3.8290    -1.7450 N.am  1 <1>  -0.6600 
  4 C        0.0090     5.2240    -3.8240 C.3   1 <1>   0.1810 
  5 C       -0.6740     5.0080    -1.0090 C.3   1 <1>   0.3640 
  6 C        0.1790     2.6120    -0.9280 C.3   1 <1>   0.0600 
  7 O       -0.0570     6.3370    -2.9650 O.3   1 <1>  -0.5600 
  8 C       -1.9040     4.5730    -0.2010 C.ar  1 <1>  -0.1430 
  9 C       -1.0250     6.1960    -1.9400 C.3   1 <1>   0.2610 
 10 C       -2.0220     4.8120     1.1680 C.ar  1 <1>  -0.1430 
 11 C       -2.9360     3.9150    -0.8620 C.ar  1 <1>  -0.1500 
 12 C       -1.1170     7.4810    -1.1170 C.2   1 <1>   0.5690 
 13 C       -3.1610     4.3930     1.8400 C.ar  1 <1>  -0.1500 
 14 C       -0.9410     5.5290     1.9680 C.3   1 <1>  -0.0960 
 15 C       -4.0670     3.5010    -0.1840 C.ar  1 <1>  -0.1500 
 16 O       -2.1940     7.8750    -0.7370 O.2   1 <1>  -0.5700 
 17 N        0.0260     8.1510    -0.8210 N.am  1 <1>  -0.7300 
 18 C       -4.1800     3.7410     1.1710 C.ar  1 <1>  -0.1500 
 19 C        0.1380     9.3240     0.0630 C.3   1 <1>   0.2840 
 20 C        1.2010     9.0310     1.1130 C.ar  1 <1>  -0.1430 
 21 C        2.5700     8.9940     0.8340 C.ar  1 <1>  -0.1430 
 22 C        0.7570     8.7820     2.4030 C.ar  1 <1>  -0.1500 
 23 C        3.4690     8.6970     1.8580 C.ar  1 <1>  -0.1430 
 24 C        3.1190     9.2700    -0.5680 C.3   1 <1>  -0.0970 
 25 C        1.6500     8.4940     3.4140 C.ar  1 <1>  -0.1500 
 26 C        3.0020     8.4500     3.1390 C.ar  1 <1>  -0.1500 
 27 C        4.9730     8.6310     1.6210 C.3   1 <1>  -0.0970 
 28 H       -0.9040     5.1710    -4.3890 H     1 <1>   0.0800 
 29 H        0.8270     5.3830    -4.5020 H     1 <1>   0.0800 
 30 H        0.0940     5.3480    -0.3400 H     1 <1>   0.0800 
 31 H        0.7130     2.8860    -0.0360 H     1 <1>   0.0800 
 32 H        0.7760     1.9110    -1.4850 H     1 <1>   0.0800 
 33 H       -0.7440     2.1330    -0.6520 H     1 <1>   0.0800 
 34 H       -1.9800     6.0300    -2.4050 H     1 <1>   0.0800 
 35 H       -2.8610     3.7130    -1.9160 H     1 <1>   0.1500 
 36 H       -3.2660     4.5740     2.8950 H     1 <1>   0.1500 
 37 H       -1.2290     5.6360     2.9990 H     1 <1>   0.0800 
 38 H       -0.7770     6.5120     1.5680 H     1 <1>   0.0800 
 39 H       -0.0210     4.9750     1.9360 H     1 <1>   0.0800 
 40 H       -4.8570     2.9940    -0.7090 H     1 <1>   0.1500 
 41 H        0.9100     7.8130    -1.2060 H     1 <1>   0.3700 
 42 H       -5.0590     3.4240     1.7050 H     1 <1>   0.1500 
 43 H        0.4010    10.1940    -0.5120 H     1 <1>   0.0800 
 44 H       -0.8120     9.5200     0.5320 H     1 <1>   0.0800 
 45 H       -0.2950     8.8100     2.6300 H     1 <1>   0.1500 
 46 H        3.8850    10.0220    -0.5200 H     1 <1>   0.0800 
 47 H        2.3740     9.6230    -1.2530 H     1 <1>   0.0800 
 48 H        3.5440     8.3700    -0.9740 H     1 <1>   0.0800 
 49 H        1.2960     8.3040     4.4120 H     1 <1>   0.1500 
 50 H        3.6890     8.2240     3.9350 H     1 <1>   0.1500 
 51 H        5.4900     8.2980     2.5030 H     1 <1>   0.0800 
 52 H        5.3470     9.6040     1.3610 H     1 <1>   0.0800 
 53 H        5.1960     7.9420     0.8270 H     1 <1>   0.0800 
@<TRIPOS>BOND
  1   1   2  2   
  2   2   3  am  
  3   2   4  1   
  4   3   5  1   
  5   3   6  1   
  6   4   7  1   
  7   4  28  1   
  8   4  29  1   
  9   5   8  1   
 10   5   9  1   
 11   5  30  1   
 12   6  31  1   
 13   6  32  1   
 14   6  33  1   
 15   7   9  1   
 16   8  10  ar  
 17   8  11  ar  
 18   9  12  1   
 19   9  34  1   
 20  10  13  ar  
 21  10  14  1   
 22  11  15  ar  
 23  11  35  1   
 24  12  16  2   
 25  12  17  am  
 26  13  18  ar  
 27  13  36  1   
 28  14  37  1   
 29  14  38  1   
 30  14  39  1   
 31  15  18  ar  
 32  15  40  1   
 33  17  19  1   
 34  17  41  1   
 35  18  42  1   
 36  19  20  1   
 37  19  43  1   
 38  19  44  1   
 39  20  21  ar  
 40  20  22  ar  
 41  21  23  ar  
 42  21  24  1   
 43  22  25  ar  
 44  22  45  1   
 45  23  26  ar  
 46  23  27  1   
 47  24  46  1   
 48  24  47  1   
 49  24  48  1   
 50  25  26  ar  
 51  25  49  1   
 52  26  50  1   
 53  27  51  1   
 54  27  52  1   
 55  27  53  1   
@<TRIPOS>SUBSTRUCTURE
  1 ****   5 GROUP 4 **** **** 0

# MOE 2024.06 (io_trps.svl 2023.06)
