@<TRIPOS>MOLECULE
NONAME
49 51 1 0 0 
SMALL
USER_CHARGES


@<TRIPOS>ATOM
  1 S       -0.1310     0.2770     0.7980 S.3   1 <1>  -0.0800 
  2 C        0.8460    -1.0990     0.2890 C.2   1 <1>   0.3250 
  3 C        1.1340     1.3600     0.3220 C.2   1 <1>  -0.1100 
  4 N        1.9910    -0.7320    -0.1770 N.2   1 <1>  -0.5650 
  5 C        0.3190    -2.4430     0.4260 C.ar  1 <1>   0.0530 
  6 C        2.1580     0.6410    -0.1620 C.2   1 <1>   0.0460 
  7 C        1.0710    -3.5330    -0.0180 C.ar  1 <1>  -0.1500 
  8 C       -0.9280    -2.7250     0.9900 C.ar  1 <1>  -0.1500 
  9 C        3.4760     1.1860    -0.6940 C.3   1 <1>   0.3210 
 10 C        0.6160    -4.8360     0.0890 C.ar  1 <1>  -0.1440 
 11 C       -1.3940    -4.0220     1.1030 C.ar  1 <1>  -0.1500 
 12 N        3.7600     2.5310    -0.1350 N.am  1 <1>  -0.7300 
 13 C       -0.6240    -5.0790     0.6530 C.ar  1 <1>  -0.1500 
 14 C        1.4610    -5.9970    -0.4040 C.3   1 <1>  -0.0970 
 15 C        3.9600     3.6470    -0.8780 C.2   1 <1>   0.5690 
 16 O        3.9340     3.6140    -2.0830 O.2   1 <1>  -0.5700 
 17 C        4.2250     4.9650    -0.1510 C.3   1 <1>  -0.0190 
 18 C        3.6690     6.1880    -0.9100 C.3   1 <1>  -0.1600 
 19 C        5.7330     5.1430     0.1410 C.3   1 <1>  -0.1600 
 20 C        3.8070     7.4920    -0.0950 C.3   1 <1>   0.2000 
 21 C        6.1420     6.6030     0.4300 C.3   1 <1>  -0.1600 
 22 O        4.0460     8.5530    -0.9870 O.3   1 <1>  -0.5600 
 23 C        4.9610     7.4320     0.9410 C.3   1 <1>   0.2000 
 24 C        2.9260     9.0160    -1.6760 C.3   1 <1>   0.0400 
 25 O        5.4120     8.7100     1.1940 O.3   1 <1>  -0.6800 
 26 H        0.9770     2.4150     0.4480 H     1 <1>   0.1500 
 27 H        2.0360    -3.3460    -0.4560 H     1 <1>   0.1500 
 28 H       -1.5550    -1.9310     1.3510 H     1 <1>   0.1500 
 29 H        3.4370     1.2190    -1.7700 H     1 <1>   0.0800 
 30 H        4.2720     0.5200    -0.4100 H     1 <1>   0.0800 
 31 H       -2.3580    -4.2130     1.5420 H     1 <1>   0.1500 
 32 H        3.8030     2.5680     0.8830 H     1 <1>   0.3700 
 33 H       -0.9910    -6.0860     0.7450 H     1 <1>   0.1500 
 34 H        0.8620    -6.6660    -0.9950 H     1 <1>   0.0800 
 35 H        1.8610    -6.5370     0.4350 H     1 <1>   0.0800 
 36 H        2.2780    -5.6470    -1.0100 H     1 <1>   0.0800 
 37 H        3.7050     4.9150     0.7900 H     1 <1>   0.0800 
 38 H        2.6330     6.0230    -1.1470 H     1 <1>   0.0800 
 39 H        4.2130     6.2840    -1.8350 H     1 <1>   0.0800 
 40 H        5.9980     4.5240     0.9800 H     1 <1>   0.0800 
 41 H        6.3040     4.7970    -0.7050 H     1 <1>   0.0800 
 42 H        2.8950     7.6920     0.4420 H     1 <1>   0.0800 
 43 H        6.4990     7.0490    -0.4820 H     1 <1>   0.0800 
 44 H        6.9420     6.6200     1.1500 H     1 <1>   0.0800 
 45 H        4.6090     7.0190     1.8700 H     1 <1>   0.0800 
 46 H        3.2340     9.8360    -2.3000 H     1 <1>   0.0800 
 47 H        2.1880     9.3560    -0.9700 H     1 <1>   0.0800 
 48 H        2.5280     8.2270    -2.2910 H     1 <1>   0.0800 
 49 H        5.2870     9.2080     0.3530 H     1 <1>   0.4000 
@<TRIPOS>BOND
  1   1   2  1   
  2   1   3  1   
  3   2   4  2   
  4   2   5  1   
  5   3   6  2   
  6   3  26  1   
  7   4   6  1   
  8   5   7  ar  
  9   5   8  ar  
 10   6   9  1   
 11   7  10  ar  
 12   7  27  1   
 13   8  11  ar  
 14   8  28  1   
 15   9  12  1   
 16   9  29  1   
 17   9  30  1   
 18  10  13  ar  
 19  10  14  1   
 20  11  13  ar  
 21  11  31  1   
 22  12  15  am  
 23  12  32  1   
 24  13  33  1   
 25  14  34  1   
 26  14  35  1   
 27  14  36  1   
 28  15  16  2   
 29  15  17  1   
 30  17  18  1   
 31  17  19  1   
 32  17  37  1   
 33  18  20  1   
 34  18  38  1   
 35  18  39  1   
 36  19  21  1   
 37  19  40  1   
 38  19  41  1   
 39  20  22  1   
 40  20  23  1   
 41  20  42  1   
 42  21  23  1   
 43  21  43  1   
 44  21  44  1   
 45  22  24  1   
 46  23  25  1   
 47  23  45  1   
 48  24  46  1   
 49  24  47  1   
 50  24  48  1   
 51  25  49  1   
@<TRIPOS>SUBSTRUCTURE
  1 ****   6 GROUP 4 **** **** 0

# MOE 2024.06 (io_trps.svl 2023.06)
