@<TRIPOS>MOLECULE
NONAME
49 52 1 0 0 
SMALL
USER_CHARGES


@<TRIPOS>ATOM
  1 F        1.1370    -0.4280    -0.0840 F     1 <1>  -0.1900 
  2 C        2.1660     0.2820     0.3020 C.ar  1 <1>   0.1900 
  3 C        3.2590     0.3750    -0.5240 C.ar  1 <1>  -0.1500 
  4 C        2.0920     0.9140     1.5470 C.ar  1 <1>  -0.1500 
  5 C        4.3360     1.1390    -0.0810 C.ar  1 <1>   0.2270 
  6 C        3.1590     1.6690     1.9830 C.ar  1 <1>  -0.1500 
  7 N        5.5250     1.3940    -0.6930 N.2   1 <1>  -0.5650 
  8 C        4.2800     1.7710     1.1510 C.ar  1 <1>  -0.1520 
  9 C        6.1580     2.1480     0.1350 C.2   1 <1>   0.0060 
 10 N        5.4660     2.4170     1.2720 N.pl3 1 <1>   0.0330 
 11 C        7.5510     2.6940    -0.1180 C.3   1 <1>   0.0200 
 12 C        7.5440     4.2260    -0.1990 C.3   1 <1>  -0.1600 
 13 C        8.9390     4.7710    -0.4880 C.3   1 <1>   0.2090 
 14 N        8.8800     6.2430    -0.4390 N.pl3 1 <1>  -0.8690 
 15 C        9.9880     7.0580    -0.4080 C.ar  1 <1>   0.4100 
 16 N       11.1500     6.4570    -0.1500 N.ar  1 <1>  -0.6200 
 17 C        9.8570     8.4400    -0.6410 C.ar  1 <1>   0.0860 
 18 C       12.2210     7.2240    -0.1420 C.ar  1 <1>   0.1600 
 19 C        8.5620     9.0330    -0.8770 C.2   1 <1>   0.5440 
 20 C       11.0110     9.2110    -0.6320 C.ar  1 <1>  -0.1500 
 21 C       12.2100     8.5870    -0.3760 C.ar  1 <1>  -0.1500 
 22 O        7.8210     8.5770    -1.7330 O.2   1 <1>  -0.5700 
 23 N        8.1270    10.1190    -0.1490 N.am  1 <1>  -0.6600 
 24 C        8.6760    10.5220     1.1650 C.3   1 <1>   0.1400 
 25 C        6.8100    10.7510    -0.3870 C.3   1 <1>   0.1400 
 26 C        7.5130    11.2020     1.8780 C.3   1 <1>  -0.1600 
 27 C        6.6410    11.7510     0.7520 C.3   1 <1>  -0.1600 
 28 H        3.3050    -0.1140    -1.4780 H     1 <1>   0.1500 
 29 H        1.2050     0.7980     2.1430 H     1 <1>   0.1500 
 30 H        3.1380     2.1690     2.9360 H     1 <1>   0.1500 
 31 H        5.7700     2.9990     2.0560 H     1 <1>   0.2700 
 32 H        7.9170     2.2870    -1.0450 H     1 <1>   0.0800 
 33 H        8.2080     2.3660     0.6690 H     1 <1>   0.0800 
 34 H        7.1980     4.6340     0.7330 H     1 <1>   0.0800 
 35 H        6.8730     4.5330    -0.9830 H     1 <1>   0.0800 
 36 H        9.2770     4.4580    -1.4610 H     1 <1>   0.0800 
 37 H        9.6360     4.4150     0.2530 H     1 <1>   0.0800 
 38 H        8.0820     6.6540    -0.9480 H     1 <1>   0.4000 
 39 H       13.1630     6.7430     0.0620 H     1 <1>   0.1500 
 40 H       10.9610    10.2690    -0.8250 H     1 <1>   0.1500 
 41 H       13.1300     9.1450    -0.3590 H     1 <1>   0.1500 
 42 H        9.4780    11.2220     1.0120 H     1 <1>   0.0800 
 43 H        9.0320     9.6700     1.7200 H     1 <1>   0.0800 
 44 H        6.0440     9.9950    -0.3460 H     1 <1>   0.0800 
 45 H        6.7890    11.2330    -1.3500 H     1 <1>   0.0800 
 46 H        7.8490    11.9720     2.5500 H     1 <1>   0.0800 
 47 H        6.9650    10.4630     2.4360 H     1 <1>   0.0800 
 48 H        5.6110    11.8530     1.0420 H     1 <1>   0.0800 
 49 H        7.0130    12.7090     0.4330 H     1 <1>   0.0800 
@<TRIPOS>BOND
  1   1   2  1   
  2   2   3  ar  
  3   2   4  ar  
  4   3   5  ar  
  5   3  28  1   
  6   4   6  ar  
  7   4  29  1   
  8   5   7  1   
  9   5   8  ar  
 10   6   8  ar  
 11   6  30  1   
 12   7   9  2   
 13   8  10  1   
 14   9  10  1   
 15   9  11  1   
 16  10  31  1   
 17  11  12  1   
 18  11  32  1   
 19  11  33  1   
 20  12  13  1   
 21  12  34  1   
 22  12  35  1   
 23  13  14  1   
 24  13  36  1   
 25  13  37  1   
 26  14  15  1   
 27  14  38  1   
 28  15  16  ar  
 29  15  17  ar  
 30  16  18  ar  
 31  17  19  1   
 32  17  20  ar  
 33  18  21  ar  
 34  18  39  1   
 35  19  22  2   
 36  19  23  am  
 37  20  21  ar  
 38  20  40  1   
 39  21  41  1   
 40  23  24  1   
 41  23  25  1   
 42  24  26  1   
 43  24  42  1   
 44  24  43  1   
 45  25  27  1   
 46  25  44  1   
 47  25  45  1   
 48  26  27  1   
 49  26  46  1   
 50  26  47  1   
 51  27  48  1   
 52  27  49  1   
@<TRIPOS>SUBSTRUCTURE
  1 ****  12 GROUP 4 **** **** 0

# MOE 2024.06 (io_trps.svl 2023.06)
