@<TRIPOS>MOLECULE
NONAME
49 52 1 0 0 
SMALL
USER_CHARGES


@<TRIPOS>ATOM
  1 CL      -0.7380    -0.4620    -1.1910 Cl    1 <1>  -0.1770 
  2 C        0.7560    -1.2890    -0.8080 C.ar  1 <1>   0.1770 
  3 C        1.1390    -2.4320    -1.5050 C.ar  1 <1>  -0.1440 
  4 C        1.5250    -0.7690     0.2160 C.ar  1 <1>  -0.1500 
  5 C        2.3330    -3.0490    -1.1540 C.ar  1 <1>  -0.1500 
  6 C        0.3010    -3.0410    -2.6310 C.3   1 <1>   0.0450 
  7 C        2.7050    -1.3990     0.5630 C.ar  1 <1>   0.0830 
  8 C        3.1150    -2.5390    -0.1320 C.ar  1 <1>   0.0830 
  9 C       -0.0460    -4.4990    -2.3700 C.2   1 <1>   0.5690 
 10 O        3.4420    -0.8960     1.5860 O.3   1 <1>  -0.3630 
 11 O        4.2790    -3.1650     0.1750 O.3   1 <1>  -0.3630 
 12 O        0.4340    -5.3320    -3.1030 O.2   1 <1>  -0.5700 
 13 N       -0.8780    -4.8500    -1.3420 N.am  1 <1>  -0.6600 
 14 C        4.4570    -1.7290     2.1160 C.3   1 <1>   0.1200 
 15 C        5.1970    -2.4530     0.9830 C.3   1 <1>   0.1200 
 16 C       -1.5170    -3.9330    -0.3630 C.3   1 <1>   0.1400 
 17 C       -1.1410    -6.2640    -0.9810 C.3   1 <1>   0.1400 
 18 C       -2.3630    -4.8410     0.5280 C.3   1 <1>   0.2000 
 19 C       -1.7010    -6.2130     0.4400 C.3   1 <1>  -0.0800 
 20 O       -2.3800    -4.3980     1.8400 O.3   1 <1>  -0.6800 
 21 C       -2.6510    -7.3740     0.7710 C.3   1 <1>   0.0210 
 22 C       -1.9630    -8.7090     0.5620 C.2   1 <1>   0.1080 
 23 N       -0.9000    -9.0600     1.2160 N.2   1 <1>  -0.7070 
 24 C       -2.3690    -9.6830    -0.3430 C.2   1 <1>  -0.1500 
 25 N       -0.5940   -10.2810     0.7390 N.pl3 1 <1>   0.3000 
 26 C       -1.4700   -10.6800    -0.2080 C.2   1 <1>  -0.3320 
 27 C       -1.3910   -12.0090    -0.9360 C.3   1 <1>  -0.0600 
 28 H        1.2100     0.1120     0.7420 H     1 <1>   0.1500 
 29 H        2.6680    -3.9340    -1.6700 H     1 <1>   0.1500 
 30 H        0.8640    -2.9830    -3.5440 H     1 <1>   0.0800 
 31 H       -0.6140    -2.5060    -2.7920 H     1 <1>   0.0800 
 32 H        5.1310    -1.1110     2.6800 H     1 <1>   0.0800 
 33 H        3.9950    -2.4420     2.7750 H     1 <1>   0.0800 
 34 H        5.9060    -3.1580     1.3780 H     1 <1>   0.0800 
 35 H        5.7130    -1.7450     0.3590 H     1 <1>   0.0800 
 36 H       -0.7540    -3.4460     0.2180 H     1 <1>   0.0800 
 37 H       -2.1310    -3.2060    -0.8650 H     1 <1>   0.0800 
 38 H       -1.8620    -6.6720    -1.6690 H     1 <1>   0.0800 
 39 H       -0.2370    -6.8500    -1.0240 H     1 <1>   0.0800 
 40 H       -3.3760    -4.8660     0.1640 H     1 <1>   0.0800 
 41 H       -0.8580    -6.2490     1.1090 H     1 <1>   0.0800 
 42 H       -1.4930    -4.4960     2.2400 H     1 <1>   0.4000 
 43 H       -3.5280    -7.3230     0.1520 H     1 <1>   0.0800 
 44 H       -2.9600    -7.3030     1.7980 H     1 <1>   0.0800 
 45 H       -3.2190    -9.6270    -1.0000 H     1 <1>   0.1500 
 46 H        0.2170   -10.8110     1.0770 H     1 <1>   0.2700 
 47 H       -2.1990   -12.0930    -1.6400 H     1 <1>   0.0800 
 48 H       -1.4620   -12.8220    -0.2350 H     1 <1>   0.0800 
 49 H       -0.4610   -12.0850    -1.4710 H     1 <1>   0.0800 
@<TRIPOS>BOND
  1   1   2  1   
  2   2   3  ar  
  3   2   4  ar  
  4   3   5  ar  
  5   3   6  1   
  6   4   7  ar  
  7   4  28  1   
  8   5   8  ar  
  9   5  29  1   
 10   6   9  1   
 11   6  30  1   
 12   6  31  1   
 13   7   8  ar  
 14   7  10  1   
 15   8  11  1   
 16   9  12  2   
 17   9  13  am  
 18  10  14  1   
 19  11  15  1   
 20  13  16  1   
 21  13  17  1   
 22  14  15  1   
 23  14  32  1   
 24  14  33  1   
 25  15  34  1   
 26  15  35  1   
 27  16  18  1   
 28  16  36  1   
 29  16  37  1   
 30  17  19  1   
 31  17  38  1   
 32  17  39  1   
 33  18  19  1   
 34  18  20  1   
 35  18  40  1   
 36  19  21  1   
 37  19  41  1   
 38  20  42  1   
 39  21  22  1   
 40  21  43  1   
 41  21  44  1   
 42  22  23  2   
 43  22  24  1   
 44  23  25  1   
 45  24  26  2   
 46  24  45  1   
 47  25  26  1   
 48  25  46  1   
 49  26  27  1   
 50  27  47  1   
 51  27  48  1   
 52  27  49  1   
@<TRIPOS>SUBSTRUCTURE
  1 ****  13 GROUP 4 **** **** 0

# MOE 2024.06 (io_trps.svl 2023.06)
