@<TRIPOS>MOLECULE
NONAME
53 56 1 0 0 
SMALL
USER_CHARGES


@<TRIPOS>ATOM
  1 O       -0.0630    -0.3830     0.6710 O.2   1 <1>  -0.5700 
  2 C       -1.1180     0.0880     0.2940 C.2   1 <1>   0.7160 
  3 N       -2.1850    -0.7440     0.2310 N.am  1 <1>  -0.7300 
  4 C       -1.2630     1.4720    -0.0500 C.2   1 <1>  -0.0860 
  5 C       -2.3070    -1.9670     1.0420 C.3   1 <1>   0.3200 
  6 C       -2.4710     2.1300    -0.3310 C.2   1 <1>   0.3720 
  7 C       -0.3330     2.4550    -0.2080 C.2   1 <1>   0.0870 
  8 C       -3.7780    -2.2720     1.2420 C.2   1 <1>   0.0060 
  9 N       -2.2680     3.3630    -0.6350 N.2   1 <1>  -0.4100 
 10 N       -3.7540     1.5560    -0.2920 N.pl3 1 <1>  -0.8210 
 11 O       -0.9780     3.5380    -0.5580 O.3   1 <1>  -0.0190 
 12 C        1.1010     2.5120    -0.0790 C.ar  1 <1>   0.0530 
 13 N       -4.4360    -1.9880     2.3140 N.2   1 <1>  -0.3380 
 14 N       -4.5590    -2.8570     0.3270 N.pl3 1 <1>   0.0480 
 15 C       -4.6940     2.1020    -1.3260 C.3   1 <1>   0.2090 
 16 C       -4.3950     1.6390     1.0630 C.3   1 <1>   0.2090 
 17 C        1.7710     1.9770     1.0200 C.ar  1 <1>  -0.1500 
 18 C        1.8720     3.1360    -1.0600 C.ar  1 <1>  -0.1500 
 19 N       -5.6900    -2.3960     2.1240 N.2   1 <1>  -0.3380 
 20 C       -5.7410    -2.9080     0.9430 C.2   1 <1>   0.0370 
 21 C       -4.2300    -3.3260    -1.0360 C.3   1 <1>   0.0960 
 22 C       -6.0780     1.4390    -1.2290 C.3   1 <1>   0.1200 
 23 C       -5.8040     1.0130     1.0580 C.3   1 <1>   0.1200 
 24 C        3.1470     2.0510     1.1320 C.ar  1 <1>  -0.1500 
 25 C        3.2480     3.2160    -0.9550 C.ar  1 <1>  -0.1500 
 26 C       -3.7460    -4.7810    -1.0030 C.3   1 <1>  -0.1600 
 27 O       -6.6040     1.5830     0.0590 O.3   1 <1>  -0.5600 
 28 C        3.8900     2.6710     0.1430 C.ar  1 <1>  -0.1500 
 29 C       -3.3830    -5.2750    -2.4080 C.3   1 <1>  -0.2400 
 30 H       -3.0750    -0.2620     0.0330 H     1 <1>   0.3700 
 31 H       -1.8400    -1.8130     2.0000 H     1 <1>   0.0800 
 32 H       -1.8100    -2.7820     0.5480 H     1 <1>   0.0800 
 33 H       -4.2830     1.9340    -2.3060 H     1 <1>   0.0800 
 34 H       -4.8120     3.1650    -1.1930 H     1 <1>   0.0800 
 35 H       -4.4680     2.6690     1.3660 H     1 <1>   0.0800 
 36 H       -3.7860     1.1220     1.7860 H     1 <1>   0.0800 
 37 H        1.2070     1.4970     1.7990 H     1 <1>   0.1500 
 38 H        1.3810     3.5640    -1.9170 H     1 <1>   0.1500 
 39 H       -6.6230    -3.3290     0.4960 H     1 <1>   0.1500 
 40 H       -3.4670    -2.6900    -1.4500 H     1 <1>   0.0800 
 41 H       -5.1080    -3.2440    -1.6510 H     1 <1>   0.0800 
 42 H       -6.0130     0.3910    -1.4610 H     1 <1>   0.0800 
 43 H       -6.7620     1.9060    -1.9150 H     1 <1>   0.0800 
 44 H       -6.2870     1.1770     2.0050 H     1 <1>   0.0800 
 45 H       -5.7450    -0.0440     0.8840 H     1 <1>   0.0800 
 46 H        3.6400     1.6250     1.9880 H     1 <1>   0.1500 
 47 H        3.8210     3.7000    -1.7260 H     1 <1>   0.1500 
 48 H       -4.5210    -5.4100    -0.5990 H     1 <1>   0.0800 
 49 H       -2.8790    -4.8630    -0.3700 H     1 <1>   0.0800 
 50 H        4.9610     2.7290     0.2280 H     1 <1>   0.1500 
 51 H       -4.2390    -5.2290    -3.0600 H     1 <1>   0.0800 
 52 H       -3.0480    -6.2970    -2.3620 H     1 <1>   0.0800 
 53 H       -2.5930    -4.6780    -2.8280 H     1 <1>   0.0800 
@<TRIPOS>BOND
  1   1   2  2   
  2   2   3  am  
  3   2   4  1   
  4   3   5  1   
  5   3  30  1   
  6   4   6  1   
  7   4   7  2   
  8   5   8  1   
  9   5  31  1   
 10   5  32  1   
 11   6   9  2   
 12   6  10  1   
 13   7  11  1   
 14   7  12  1   
 15   8  13  2   
 16   8  14  1   
 17   9  11  1   
 18  10  15  1   
 19  10  16  1   
 20  12  17  ar  
 21  12  18  ar  
 22  13  19  1   
 23  14  20  1   
 24  14  21  1   
 25  15  22  1   
 26  15  33  1   
 27  15  34  1   
 28  16  23  1   
 29  16  35  1   
 30  16  36  1   
 31  17  24  ar  
 32  17  37  1   
 33  18  25  ar  
 34  18  38  1   
 35  19  20  2   
 36  20  39  1   
 37  21  26  1   
 38  21  40  1   
 39  21  41  1   
 40  22  27  1   
 41  22  42  1   
 42  22  43  1   
 43  23  27  1   
 44  23  44  1   
 45  23  45  1   
 46  24  28  ar  
 47  24  46  1   
 48  25  28  ar  
 49  25  47  1   
 50  26  29  1   
 51  26  48  1   
 52  26  49  1   
 53  28  50  1   
 54  29  51  1   
 55  29  52  1   
 56  29  53  1   
@<TRIPOS>SUBSTRUCTURE
  1 ****   3 GROUP 4 **** **** 0

# MOE 2024.06 (io_trps.svl 2023.06)
