@<TRIPOS>MOLECULE
NONAME
47 50 1 0 0 
SMALL
USER_CHARGES


@<TRIPOS>ATOM
  1 F        0.7880     1.3630     0.6030 F     1 <1>  -0.1900 
  2 C        2.0480     1.6760     0.7260 C.ar  1 <1>   0.1900 
  3 C        2.9590     1.1440    -0.1500 C.ar  1 <1>  -0.1500 
  4 C        2.4130     2.5410     1.7500 C.ar  1 <1>  -0.1500 
  5 C        4.3210     1.4730    -0.0280 C.ar  1 <1>   0.0000 
  6 C        3.7400     2.8760     1.8840 C.ar  1 <1>  -0.1500 
  7 C        4.7020     2.3540     1.0050 C.ar  1 <1>   0.3610 
  8 C        5.3450     0.9680    -0.8850 C.ar  1 <1>  -0.1440 
  9 N        6.0400     2.6910     1.1370 N.ar  1 <1>  -0.1790 
 10 C        6.6380     1.3480    -0.6880 C.ar  1 <1>  -0.1500 
 11 C        4.9880     0.0080    -2.0150 C.3   1 <1>  -0.0970 
 12 C        7.0220     2.2380     0.3490 C.ar  1 <1>   0.4610 
 13 N        8.3090     2.6120     0.5600 N.pl3 1 <1>  -0.8380 
 14 C        8.7560     3.8830     1.2660 C.3   1 <1>   0.2090 
 15 C        9.4510     1.6630     0.2830 C.3   1 <1>   0.2090 
 16 C        9.8450     4.7630     0.5590 C.3   1 <1>   0.4230 
 17 C       10.4660     2.2200    -0.7360 C.3   1 <1>  -0.0800 
 18 N        9.8830     4.7110    -0.9580 N.4   1 <1>  -0.9590 
 19 C       11.2530     4.5240     1.1470 C.3   1 <1>   0.1200 
 20 C       11.8170     2.5710    -0.0900 C.3   1 <1>   0.1200 
 21 C        9.8770     3.3490    -1.5920 C.3   1 <1>   0.3430 
 22 C        8.8120     5.5560    -1.5720 C.3   1 <1>   0.2630 
 23 O       11.6170     3.1820     1.1440 O.3   1 <1>  -0.5600 
 24 H        2.6110     0.4790    -0.9200 H     1 <1>   0.1500 
 25 H        1.6520     2.9260     2.4100 H     1 <1>   0.1500 
 26 H        4.0290     3.5450     2.6760 H     1 <1>   0.1500 
 27 H        6.3010     3.2410     1.9480 H     1 <1>   0.4570 
 28 H        7.4020     0.9750    -1.3440 H     1 <1>   0.1500 
 29 H        5.8610    -0.2880    -2.5700 H     1 <1>   0.0800 
 30 H        4.3010     0.4740    -2.7000 H     1 <1>   0.0800 
 31 H        4.5320    -0.8820    -1.6180 H     1 <1>   0.0800 
 32 H        7.9040     4.5210     1.4150 H     1 <1>   0.0800 
 33 H        9.1170     3.6210     2.2480 H     1 <1>   0.0800 
 34 H        9.9460     1.4280     1.2120 H     1 <1>   0.0800 
 35 H        9.0770     0.7220    -0.0800 H     1 <1>   0.0800 
 36 H        9.6190     5.7820     0.8290 H     1 <1>   0.0800 
 37 H       10.6750     1.4160    -1.4180 H     1 <1>   0.0800 
 38 H       10.7840     5.1350    -1.2220 H     1 <1>   0.4500 
 39 H       11.2640     4.8380     2.1770 H     1 <1>   0.0800 
 40 H       12.0040     5.0920     0.6250 H     1 <1>   0.0800 
 41 H       12.4290     3.2000    -0.7150 H     1 <1>   0.0800 
 42 H       12.3650     1.6640     0.1070 H     1 <1>   0.0800 
 43 H        8.8640     3.0780    -1.8400 H     1 <1>   0.0800 
 44 H       10.4270     3.3990    -2.5190 H     1 <1>   0.0800 
 45 H        7.8390     5.1520    -1.3430 H     1 <1>   0.0800 
 46 H        8.9270     5.5850    -2.6440 H     1 <1>   0.0800 
 47 H        8.8670     6.5660    -1.1980 H     1 <1>   0.0800 
@<TRIPOS>BOND
  1   1   2  1   
  2   2   3  ar  
  3   2   4  ar  
  4   3   5  ar  
  5   3  24  1   
  6   4   6  ar  
  7   4  25  1   
  8   5   7  ar  
  9   5   8  ar  
 10   6   7  ar  
 11   6  26  1   
 12   7   9  ar  
 13   8  10  ar  
 14   8  11  1   
 15   9  12  ar  
 16   9  27  1   
 17  10  12  ar  
 18  10  28  1   
 19  11  29  1   
 20  11  30  1   
 21  11  31  1   
 22  12  13  1   
 23  13  14  1   
 24  13  15  1   
 25  14  16  1   
 26  14  32  1   
 27  14  33  1   
 28  15  17  1   
 29  15  34  1   
 30  15  35  1   
 31  16  18  1   
 32  16  19  1   
 33  16  36  1   
 34  17  20  1   
 35  17  21  1   
 36  17  37  1   
 37  18  21  1   
 38  18  22  1   
 39  18  38  1   
 40  19  23  1   
 41  19  39  1   
 42  19  40  1   
 43  20  23  1   
 44  20  41  1   
 45  20  42  1   
 46  21  43  1   
 47  21  44  1   
 48  22  45  1   
 49  22  46  1   
 50  22  47  1   
@<TRIPOS>SUBSTRUCTURE
  1 ****  12 GROUP 4 **** **** 0

# MOE 2024.06 (io_trps.svl 2023.06)
