@<TRIPOS>MOLECULE
NONAME
47 49 1 0 0 
SMALL
USER_CHARGES


@<TRIPOS>ATOM
  1 F        1.6620     0.3410    -0.9350 F     1 <1>  -0.1900 
  2 C        2.3960     1.3910    -1.2020 C.ar  1 <1>   0.1900 
  3 C        1.9070     2.6750    -0.8500 C.ar  1 <1>   0.3100 
  4 C        3.6010     1.1750    -1.8110 C.ar  1 <1>  -0.1500 
  5 N        0.6980     2.8050    -0.2420 N.ar  1 <1>  -0.6200 
  6 C        2.7290     3.7900    -1.1580 C.ar  1 <1>   0.0000 
  7 C        4.3780     2.2930    -2.0920 C.ar  1 <1>   0.1900 
  8 C        0.2920     4.0020     0.0510 C.ar  1 <1>   0.1660 
  9 C        2.2580     5.0820    -0.8130 C.ar  1 <1>   0.1000 
 10 C        3.9760     3.5630    -1.7840 C.ar  1 <1>  -0.1500 
 11 F        5.5330     2.1070    -2.6700 F     1 <1>  -0.1900 
 12 C        1.0270     5.1550    -0.2150 C.ar  1 <1>  -0.1500 
 13 C       -1.0640     4.1110     0.7160 C.3   1 <1>  -0.0960 
 14 N        3.0080     6.2180    -1.0850 N.pl3 1 <1>  -0.8690 
 15 C        2.9860     7.4500    -0.2730 C.3   1 <1>   0.2090 
 16 C        4.4250     7.9060    -0.0510 C.3   1 <1>  -0.1600 
 17 C        4.4730     9.1630     0.8250 C.3   1 <1>   0.0960 
 18 N        5.8730     9.5890     1.0280 N.pl3 1 <1>   0.0480 
 19 C        6.6260    10.4700     0.3170 C.2   1 <1>   0.0070 
 20 C        6.6860     9.1470     2.0040 C.2   1 <1>  -0.3020 
 21 N        7.8290    10.6030     0.7830 N.2   1 <1>  -0.5650 
 22 C        6.0970    11.2300    -0.9030 C.3   1 <1>   0.1000 
 23 C        7.8680     9.7740     1.8400 C.2   1 <1>   0.0770 
 24 C        7.2070    11.5150    -1.9230 C.3   1 <1>  -0.2400 
 25 C        5.4450    12.5430    -0.4580 C.3   1 <1>  -0.2400 
 26 H        3.9450     0.1890    -2.0650 H     1 <1>   0.1500 
 27 H        4.6190     4.3870    -2.0230 H     1 <1>   0.1500 
 28 H        0.6110     6.1070     0.0470 H     1 <1>   0.1500 
 29 H       -1.0550     3.5610     1.6390 H     1 <1>   0.0800 
 30 H       -1.8120     3.6880     0.0710 H     1 <1>   0.0800 
 31 H       -1.3200     5.1330     0.9210 H     1 <1>   0.0800 
 32 H        3.8450     6.1140    -1.6670 H     1 <1>   0.4000 
 33 H        2.5130     7.2550     0.6760 H     1 <1>   0.0800 
 34 H        2.4260     8.2080    -0.7950 H     1 <1>   0.0800 
 35 H        4.8810     8.1170    -1.0010 H     1 <1>   0.0800 
 36 H        4.9700     7.1170     0.4380 H     1 <1>   0.0800 
 37 H        4.0370     8.9620     1.7880 H     1 <1>   0.0800 
 38 H        3.9250     9.9660     0.3660 H     1 <1>   0.0800 
 39 H        6.3910     8.4290     2.7460 H     1 <1>   0.1500 
 40 H        5.3580    10.6260    -1.3970 H     1 <1>   0.0800 
 41 H        8.7610     9.6720     2.4340 H     1 <1>   0.1500 
 42 H        7.9590    12.1510    -1.4890 H     1 <1>   0.0800 
 43 H        6.8060    11.9960    -2.7960 H     1 <1>   0.0800 
 44 H        7.6760    10.5930    -2.2190 H     1 <1>   0.0800 
 45 H        6.1740    13.1630     0.0340 H     1 <1>   0.0800 
 46 H        4.6450    12.3500     0.2320 H     1 <1>   0.0800 
 47 H        5.0520    13.0750    -1.3060 H     1 <1>   0.0800 
@<TRIPOS>BOND
  1   1   2  1   
  2   2   3  ar  
  3   2   4  ar  
  4   3   5  ar  
  5   3   6  ar  
  6   4   7  ar  
  7   4  26  1   
  8   5   8  ar  
  9   6   9  ar  
 10   6  10  ar  
 11   7  10  ar  
 12   7  11  1   
 13   8  12  ar  
 14   8  13  1   
 15   9  12  ar  
 16   9  14  1   
 17  10  27  1   
 18  12  28  1   
 19  13  29  1   
 20  13  30  1   
 21  13  31  1   
 22  14  15  1   
 23  14  32  1   
 24  15  16  1   
 25  15  33  1   
 26  15  34  1   
 27  16  17  1   
 28  16  35  1   
 29  16  36  1   
 30  17  18  1   
 31  17  37  1   
 32  17  38  1   
 33  18  19  1   
 34  18  20  1   
 35  19  21  2   
 36  19  22  1   
 37  20  23  2   
 38  20  39  1   
 39  21  23  1   
 40  22  24  1   
 41  22  25  1   
 42  22  40  1   
 43  23  41  1   
 44  24  42  1   
 45  24  43  1   
 46  24  44  1   
 47  25  45  1   
 48  25  46  1   
 49  25  47  1   
@<TRIPOS>SUBSTRUCTURE
  1 ****  14 GROUP 4 **** **** 0

# MOE 2024.06 (io_trps.svl 2023.06)
