@<TRIPOS>MOLECULE
NONAME
52 54 1 0 0 
SMALL
USER_CHARGES


@<TRIPOS>ATOM
  1 CL      -3.7090    -1.6670    -3.8380 Cl    1 <1>  -0.1770 
  2 C       -3.2290    -1.8510    -2.1710 C.ar  1 <1>   0.1770 
  3 C       -3.4900    -3.0410    -1.5220 C.ar  1 <1>  -0.1500 
  4 C       -2.5990    -0.8030    -1.5270 C.ar  1 <1>  -0.1500 
  5 C       -3.1230    -3.1890    -0.1940 C.ar  1 <1>   0.0830 
  6 C       -2.2230    -0.9520    -0.2020 C.ar  1 <1>  -0.1500 
  7 O       -3.4250    -4.3730     0.3890 O.3   1 <1>  -0.3630 
  8 C       -2.4830    -2.1390     0.4640 C.ar  1 <1>  -0.1500 
  9 C       -3.2650    -4.5690     1.7880 C.3   1 <1>   0.1810 
 10 C       -3.8390    -5.9110     2.2450 C.2   1 <1>   0.5690 
 11 O       -3.0820    -6.6350     2.8510 O.2   1 <1>  -0.5700 
 12 N       -5.1530    -6.2730     2.0190 N.am  1 <1>  -0.6600 
 13 C       -6.1340    -5.3820     1.3270 C.3   1 <1>   0.2200 
 14 C       -5.6190    -7.6310     2.4470 C.3   1 <1>   0.0600 
 15 C       -7.5200    -5.3250     1.9710 C.3   1 <1>  -0.1600 
 16 C       -6.4020    -5.8170    -0.1120 C.3   1 <1>  -0.1600 
 17 C       -8.4330    -4.8120     0.8480 C.3   1 <1>  -0.0800 
 18 C       -7.7260    -5.1330    -0.4740 C.3   1 <1>  -0.0800 
 19 C       -9.8120    -5.4850     0.7590 C.3   1 <1>  -0.1600 
 20 C       -8.7110    -5.9930    -1.2790 C.3   1 <1>  -0.1600 
 21 C      -10.0990    -5.6340    -0.7400 C.3   1 <1>   0.4230 
 22 N      -10.5810    -4.3370    -1.3190 N.4   1 <1>  -0.9590 
 23 C      -11.8870    -3.8920    -0.7320 C.3   1 <1>   0.2630 
 24 C      -10.7240    -4.3830    -2.8100 C.3   1 <1>   0.2630 
 25 H       -3.9730    -3.8460    -2.0420 H     1 <1>   0.1500 
 26 H       -2.4050     0.1120    -2.0570 H     1 <1>   0.1500 
 27 H       -1.7280    -0.1430     0.3090 H     1 <1>   0.1500 
 28 H       -2.1740    -2.2280     1.4890 H     1 <1>   0.1500 
 29 H       -2.2130    -4.5410     2.0080 H     1 <1>   0.0800 
 30 H       -3.7660    -3.7750     2.3080 H     1 <1>   0.0800 
 31 H       -5.7620    -4.3730     1.3020 H     1 <1>   0.0800 
 32 H       -6.3020    -8.0450     1.7280 H     1 <1>   0.0800 
 33 H       -6.1070    -7.5590     3.4030 H     1 <1>   0.0800 
 34 H       -4.7860    -8.3060     2.5400 H     1 <1>   0.0800 
 35 H       -7.8360    -6.3020     2.2830 H     1 <1>   0.0800 
 36 H       -7.5260    -4.6630     2.8190 H     1 <1>   0.0800 
 37 H       -5.6060    -5.5070    -0.7650 H     1 <1>   0.0800 
 38 H       -6.4960    -6.8860    -0.1590 H     1 <1>   0.0800 
 39 H       -8.5420    -3.7430     0.9340 H     1 <1>   0.0800 
 40 H       -7.5220    -4.2110    -0.9940 H     1 <1>   0.0800 
 41 H      -10.5620    -4.9550     1.3150 H     1 <1>   0.0800 
 42 H       -9.7550    -6.4780     1.1690 H     1 <1>   0.0800 
 43 H       -8.5430    -7.0320    -1.0550 H     1 <1>   0.0800 
 44 H       -8.5880    -5.8740    -2.3390 H     1 <1>   0.0800 
 45 H      -10.8130    -6.4200    -0.9300 H     1 <1>   0.0800 
 46 H       -9.8620    -3.6380    -1.0840 H     1 <1>   0.4500 
 47 H      -12.6420    -4.6460    -0.8840 H     1 <1>   0.0800 
 48 H      -12.2140    -2.9780    -1.2010 H     1 <1>   0.0800 
 49 H      -11.7900    -3.7090     0.3250 H     1 <1>   0.0800 
 50 H      -11.3970    -5.1740    -3.0980 H     1 <1>   0.0800 
 51 H       -9.7700    -4.5500    -3.2820 H     1 <1>   0.0800 
 52 H      -11.1170    -3.4470    -3.1760 H     1 <1>   0.0800 
@<TRIPOS>BOND
  1   1   2  1   
  2   2   3  ar  
  3   2   4  ar  
  4   3   5  ar  
  5   3  25  1   
  6   4   6  ar  
  7   4  26  1   
  8   5   7  1   
  9   5   8  ar  
 10   6   8  ar  
 11   6  27  1   
 12   7   9  1   
 13   8  28  1   
 14   9  10  1   
 15   9  29  1   
 16   9  30  1   
 17  10  11  2   
 18  10  12  am  
 19  12  13  1   
 20  12  14  1   
 21  13  15  1   
 22  13  16  1   
 23  13  31  1   
 24  14  32  1   
 25  14  33  1   
 26  14  34  1   
 27  15  17  1   
 28  15  35  1   
 29  15  36  1   
 30  16  18  1   
 31  16  37  1   
 32  16  38  1   
 33  17  18  1   
 34  17  19  1   
 35  17  39  1   
 36  18  20  1   
 37  18  40  1   
 38  19  21  1   
 39  19  41  1   
 40  19  42  1   
 41  20  21  1   
 42  20  43  1   
 43  20  44  1   
 44  21  22  1   
 45  21  45  1   
 46  22  23  1   
 47  22  24  1   
 48  22  46  1   
 49  23  47  1   
 50  23  48  1   
 51  23  49  1   
 52  24  50  1   
 53  24  51  1   
 54  24  52  1   
@<TRIPOS>SUBSTRUCTURE
  1 ****  16 GROUP 4 **** **** 0

# MOE 2024.06 (io_trps.svl 2023.06)
