@<TRIPOS>MOLECULE
NONAME
52 54 1 0 0 
SMALL
USER_CHARGES


@<TRIPOS>ATOM
  1 O        0.6080     2.3950    -2.8570 O.2   1 <1>  -0.5700 
  2 C        0.2910     3.3820    -2.2370 C.2   1 <1>   0.5690 
  3 N       -0.7710     3.3980    -1.3720 N.am  1 <1>  -0.6600 
  4 C        1.1080     4.6580    -2.4530 C.3   1 <1>   0.1810 
  5 C       -1.1460     4.6410    -0.6170 C.3   1 <1>   0.3640 
  6 C       -1.5530     2.1670    -1.0550 C.3   1 <1>   0.0600 
  7 O        0.9890     5.5680    -1.3850 O.3   1 <1>  -0.5600 
  8 C       -2.6540     4.8940    -0.7460 C.ar  1 <1>  -0.1440 
  9 C       -0.3530     5.8930    -1.0670 C.3   1 <1>   0.2610 
 10 C       -3.4800     5.0830     0.3630 C.ar  1 <1>  -0.1440 
 11 C       -3.2140     4.9390    -2.0180 C.ar  1 <1>  -0.1500 
 12 C       -0.3830     6.9470     0.0390 C.2   1 <1>   0.5690 
 13 C       -4.8340     5.3140     0.1740 C.ar  1 <1>  -0.1500 
 14 C       -2.9530     5.0520     1.7920 C.3   1 <1>  -0.0960 
 15 C       -4.5650     5.1690    -2.1960 C.ar  1 <1>  -0.1500 
 16 O       -1.2250     7.8130     0.0220 O.2   1 <1>  -0.5700 
 17 N        0.5590     6.9090     1.0150 N.am  1 <1>  -0.7300 
 18 C       -5.3770     5.3580    -1.0960 C.ar  1 <1>  -0.1500 
 19 C        0.7130     7.9000     2.1010 C.3   1 <1>   0.3200 
 20 C        2.0420     8.6140     1.9480 C.2   1 <1>   0.0060 
 21 N        3.0490     8.4210     2.7310 N.2   1 <1>  -0.3380 
 22 N        2.3250     9.5060     0.9890 N.pl3 1 <1>   0.0480 
 23 N        4.0400     9.1970     2.2930 N.2   1 <1>  -0.3380 
 24 C        3.5920     9.8260     1.2640 C.2   1 <1>   0.0360 
 25 C        1.4720    10.0090    -0.1200 C.3   1 <1>   0.1760 
 26 C        1.9320     9.4040    -1.4510 C.3   1 <1>  -0.2400 
 27 C        1.4980    11.5410    -0.1750 C.3   1 <1>  -0.2400 
 28 H        0.7870     5.1430    -3.3560 H     1 <1>   0.0800 
 29 H        2.1470     4.4010    -2.5480 H     1 <1>   0.0800 
 30 H       -0.8960     4.4590     0.4110 H     1 <1>   0.0800 
 31 H       -1.6170     2.0360     0.0110 H     1 <1>   0.0800 
 32 H       -1.0840     1.2960    -1.4800 H     1 <1>   0.0800 
 33 H       -2.5480     2.2490    -1.4590 H     1 <1>   0.0800 
 34 H       -0.8060     6.3170    -1.9450 H     1 <1>   0.0800 
 35 H       -2.5980     4.7860    -2.8880 H     1 <1>   0.1500 
 36 H       -5.4830     5.4640     1.0190 H     1 <1>   0.1500 
 37 H       -3.7490     5.2070     2.4990 H     1 <1>   0.0800 
 38 H       -2.2270     5.8300     1.9390 H     1 <1>   0.0800 
 39 H       -2.5050     4.0980     2.0040 H     1 <1>   0.0800 
 40 H       -4.9830     5.2000    -3.1870 H     1 <1>   0.1500 
 41 H        1.3660     6.2880     0.8890 H     1 <1>   0.3700 
 42 H       -6.4300     5.5390    -1.2270 H     1 <1>   0.1500 
 43 H       -0.0940     8.6130     2.0850 H     1 <1>   0.0800 
 44 H        0.6910     7.3910     3.0490 H     1 <1>   0.0800 
 45 H        4.1610    10.5290     0.6840 H     1 <1>   0.1500 
 46 H        0.4590     9.7030     0.0660 H     1 <1>   0.0800 
 47 H        2.9320     9.7200    -1.6900 H     1 <1>   0.0800 
 48 H        1.2750     9.7180    -2.2420 H     1 <1>   0.0800 
 49 H        1.9050     8.3300    -1.3990 H     1 <1>   0.0800 
 50 H        2.4820    11.9050    -0.4140 H     1 <1>   0.0800 
 51 H        1.1870    11.9520     0.7690 H     1 <1>   0.0800 
 52 H        0.8180    11.8890    -0.9320 H     1 <1>   0.0800 
@<TRIPOS>BOND
  1   1   2  2   
  2   2   3  am  
  3   2   4  1   
  4   3   5  1   
  5   3   6  1   
  6   4   7  1   
  7   4  28  1   
  8   4  29  1   
  9   5   8  1   
 10   5   9  1   
 11   5  30  1   
 12   6  31  1   
 13   6  32  1   
 14   6  33  1   
 15   7   9  1   
 16   8  10  ar  
 17   8  11  ar  
 18   9  12  1   
 19   9  34  1   
 20  10  13  ar  
 21  10  14  1   
 22  11  15  ar  
 23  11  35  1   
 24  12  16  2   
 25  12  17  am  
 26  13  18  ar  
 27  13  36  1   
 28  14  37  1   
 29  14  38  1   
 30  14  39  1   
 31  15  18  ar  
 32  15  40  1   
 33  17  19  1   
 34  17  41  1   
 35  18  42  1   
 36  19  20  1   
 37  19  43  1   
 38  19  44  1   
 39  20  21  2   
 40  20  22  1   
 41  21  23  1   
 42  22  24  1   
 43  22  25  1   
 44  23  24  2   
 45  24  45  1   
 46  25  26  1   
 47  25  27  1   
 48  25  46  1   
 49  26  47  1   
 50  26  48  1   
 51  26  49  1   
 52  27  50  1   
 53  27  51  1   
 54  27  52  1   
@<TRIPOS>SUBSTRUCTURE
  1 ****  12 GROUP 4 **** **** 0

# MOE 2024.06 (io_trps.svl 2023.06)
