@<TRIPOS>MOLECULE
NONAME
55 58 1 0 0 
SMALL
USER_CHARGES


@<TRIPOS>ATOM
  1 F        0.8980     0.6130    -0.4230 F     1 <1>  -0.1900 
  2 C        1.6980    -0.4170    -0.4200 C.ar  1 <1>   0.1900 
  3 C        1.3980    -1.4870     0.4000 C.ar  1 <1>  -0.1500 
  4 C        2.8110    -0.4020    -1.2350 C.ar  1 <1>  -0.1500 
  5 C        2.2390    -2.5910     0.4080 C.ar  1 <1>  -0.1440 
  6 C        3.6500    -1.5010    -1.2240 C.ar  1 <1>  -0.1500 
  7 C        3.3830    -2.6000    -0.4070 C.ar  1 <1>  -0.0230 
  8 C        1.8840    -3.7680     1.3100 C.3   1 <1>   0.4870 
  9 N        4.2810    -3.7060    -0.4270 N.pl3 1 <1>   0.5930 
 10 N        1.4490    -4.9050     0.4710 N.4   1 <1>  -0.9590 
 11 N        3.9120    -4.9310    -0.8910 N.2   1 <1>  -0.7070 
 12 C        5.5290    -3.7680     0.1060 C.2   1 <1>  -0.3320 
 13 C        0.2660    -4.6370    -0.4040 C.3   1 <1>   0.3430 
 14 C        1.1670    -6.1480     1.2290 C.3   1 <1>   0.3430 
 15 C        4.9230    -5.7070    -0.6620 C.2   1 <1>   0.1080 
 16 C        5.9660    -5.0360    -0.0370 C.2   1 <1>  -0.1500 
 17 C        6.2600    -2.5930     0.7380 C.3   1 <1>  -0.0600 
 18 C       -0.6710    -5.8430    -0.2400 C.3   1 <1>   0.2000 
 19 C        0.2190    -6.9440     0.3330 C.3   1 <1>  -0.0800 
 20 C        4.9480    -7.1730    -1.0320 C.3   1 <1>  -0.0590 
 21 O       -1.6180    -5.5180     0.7210 O.3   1 <1>  -0.6800 
 22 C        0.9780    -7.7070    -0.7760 C.3   1 <1>   0.0210 
 23 C        1.8480    -8.8330    -0.2400 C.2   1 <1>   0.1080 
 24 N        2.2640    -8.9170     0.9880 N.2   1 <1>  -0.7070 
 25 C        2.2960    -9.8950    -1.0170 C.2   1 <1>  -0.1500 
 26 N        2.9840   -10.0580     1.0280 N.pl3 1 <1>   0.3000 
 27 C        3.0220   -10.6620    -0.1770 C.2   1 <1>  -0.3320 
 28 C        3.7570   -11.9610    -0.4560 C.3   1 <1>  -0.0600 
 29 H        0.5150    -1.4370     1.0140 H     1 <1>   0.1500 
 30 H        3.0090     0.4500    -1.8620 H     1 <1>   0.1500 
 31 H        4.5210    -1.5070    -1.8590 H     1 <1>   0.1500 
 32 H        1.0940    -3.4900     1.9870 H     1 <1>   0.0800 
 33 H        2.7490    -4.0520     1.8880 H     1 <1>   0.0800 
 34 H        2.2570    -5.1140    -0.1520 H     1 <1>   0.4500 
 35 H       -0.2460    -3.7330    -0.1190 H     1 <1>   0.0800 
 36 H        0.5920    -4.5540    -1.4280 H     1 <1>   0.0800 
 37 H        2.0730    -6.6860     1.4550 H     1 <1>   0.0800 
 38 H        0.6560    -5.9090     2.1480 H     1 <1>   0.0800 
 39 H        6.9070    -5.4670     0.2580 H     1 <1>   0.1500 
 40 H        7.2180    -2.9080     1.1120 H     1 <1>   0.0800 
 41 H        5.6910    -2.1890     1.5560 H     1 <1>   0.0800 
 42 H        6.4210    -1.8170     0.0100 H     1 <1>   0.0800 
 43 H       -1.1800    -6.1060    -1.1530 H     1 <1>   0.0800 
 44 H       -0.3460    -7.6540     0.9120 H     1 <1>   0.0800 
 45 H        5.9420    -7.4660    -1.3160 H     1 <1>   0.0800 
 46 H        4.2850    -7.3580    -1.8570 H     1 <1>   0.0800 
 47 H        4.6350    -7.7650    -0.1920 H     1 <1>   0.0800 
 48 H       -2.2960    -6.2220     0.8040 H     1 <1>   0.4000 
 49 H        1.6050    -7.0410    -1.3420 H     1 <1>   0.0800 
 50 H        0.2650    -8.1400    -1.4550 H     1 <1>   0.0800 
 51 H        2.0920   -10.0530    -2.0610 H     1 <1>   0.1500 
 52 H        3.4320   -10.4000     1.8870 H     1 <1>   0.2700 
 53 H        3.6370   -12.2410    -1.4880 H     1 <1>   0.0800 
 54 H        3.3630   -12.7510     0.1590 H     1 <1>   0.0800 
 55 H        4.8070   -11.8480    -0.2520 H     1 <1>   0.0800 
@<TRIPOS>BOND
  1   1   2  1   
  2   2   3  ar  
  3   2   4  ar  
  4   3   5  ar  
  5   3  29  1   
  6   4   6  ar  
  7   4  30  1   
  8   5   7  ar  
  9   5   8  1   
 10   6   7  ar  
 11   6  31  1   
 12   7   9  1   
 13   8  10  1   
 14   8  32  1   
 15   8  33  1   
 16   9  11  1   
 17   9  12  1   
 18  10  13  1   
 19  10  14  1   
 20  10  34  1   
 21  11  15  2   
 22  12  16  2   
 23  12  17  1   
 24  13  18  1   
 25  13  35  1   
 26  13  36  1   
 27  14  19  1   
 28  14  37  1   
 29  14  38  1   
 30  15  16  1   
 31  15  20  1   
 32  16  39  1   
 33  17  40  1   
 34  17  41  1   
 35  17  42  1   
 36  18  19  1   
 37  18  21  1   
 38  18  43  1   
 39  19  22  1   
 40  19  44  1   
 41  20  45  1   
 42  20  46  1   
 43  20  47  1   
 44  21  48  1   
 45  22  23  1   
 46  22  49  1   
 47  22  50  1   
 48  23  24  2   
 49  23  25  1   
 50  24  26  1   
 51  25  27  2   
 52  25  51  1   
 53  26  27  1   
 54  26  52  1   
 55  27  28  1   
 56  28  53  1   
 57  28  54  1   
 58  28  55  1   
@<TRIPOS>SUBSTRUCTURE
  1 ****  10 GROUP 4 **** **** 0

# MOE 2024.06 (io_trps.svl 2023.06)
