@<TRIPOS>MOLECULE
NONAME
48 50 1 0 0 
SMALL
USER_CHARGES


@<TRIPOS>ATOM
  1 O        0.1040    -0.1240     1.3780 O.2   1 <1>  -0.5700 
  2 C       -0.7480     0.7410     1.3420 C.2   1 <1>   0.5690 
  3 N       -1.8650     0.5650     0.5450 N.am  1 <1>  -0.6600 
  4 C       -0.4940     2.0030     2.2360 C.3   1 <1>   0.3410 
  5 C       -1.9230    -0.6420    -0.3580 C.3   1 <1>   0.1400 
  6 C       -3.0070     1.5280     0.4030 C.3   1 <1>   0.1400 
  7 O       -0.7110     3.2370     1.5560 O.3   1 <1>  -0.3630 
  8 C       -1.4690     2.0090     3.4260 C.3   1 <1>  -0.2400 
  9 C        0.9320     2.0810     2.8220 C.3   1 <1>  -0.2400 
 10 C       -3.2710    -0.7600    -1.0770 C.3   1 <1>  -0.1860 
 11 C       -3.2570     1.8060    -1.0780 C.3   1 <1>  -0.1600 
 12 C       -0.3390     3.5480     0.2840 C.ar  1 <1>   0.0820 
 13 C       -3.3270    -1.9240    -2.0350 C.2   1 <1>   0.9060 
 14 C       -3.5970     0.5220    -1.8440 C.3   1 <1>   0.2000 
 15 C       -0.9590     4.6940    -0.2830 C.ar  1 <1>   0.0000 
 16 C        0.5630     2.8140    -0.4530 C.ar  1 <1>  -0.1500 
 17 O       -2.3230    -2.6130    -2.2340 O.co2 1 <1>  -0.9000 
 18 O       -4.4010    -2.1280    -2.6170 O.co2 1 <1>  -0.9000 
 19 O       -4.9510     0.4940    -2.1030 O.3   1 <1>  -0.6800 
 20 C       -0.6440     5.0520    -1.6130 C.ar  1 <1>   0.0000 
 21 C       -1.8910     5.4950     0.4140 C.ar  1 <1>  -0.1500 
 22 C        0.8710     3.1760    -1.7660 C.ar  1 <1>  -0.1500 
 23 C        0.2790     4.2690    -2.3320 C.ar  1 <1>  -0.1500 
 24 C       -1.2660     6.1800    -2.1860 C.ar  1 <1>  -0.1500 
 25 C       -2.4810     6.5840    -0.1660 C.ar  1 <1>  -0.1500 
 26 C       -2.1660     6.9310    -1.4820 C.ar  1 <1>  -0.1500 
 27 H       -1.1360    -0.5680    -1.0890 H     1 <1>   0.0800 
 28 H       -1.7480    -1.5340     0.2190 H     1 <1>   0.0800 
 29 H       -3.8900     1.0960     0.8420 H     1 <1>   0.0800 
 30 H       -2.8180     2.4560     0.9030 H     1 <1>   0.0800 
 31 H       -1.3180     1.1260     4.0210 H     1 <1>   0.0800 
 32 H       -2.4880     2.0090     3.0900 H     1 <1>   0.0800 
 33 H       -1.3040     2.8720     4.0450 H     1 <1>   0.0800 
 34 H        1.1160     1.2290     3.4520 H     1 <1>   0.0800 
 35 H        1.0500     2.9730     3.4110 H     1 <1>   0.0800 
 36 H        1.6720     2.0760     2.0460 H     1 <1>   0.0800 
 37 H       -4.0210    -0.9440    -0.3310 H     1 <1>   0.0800 
 38 H       -2.3600     2.2290    -1.4920 H     1 <1>   0.0800 
 39 H       -4.0410     2.5330    -1.1940 H     1 <1>   0.0800 
 40 H       -3.0880     0.5230    -2.7950 H     1 <1>   0.0800 
 41 H        1.0540     1.9430    -0.0640 H     1 <1>   0.1500 
 42 H       -5.1340    -0.4280    -2.4400 H     1 <1>   0.4000 
 43 H       -2.1360     5.2350     1.4280 H     1 <1>   0.1500 
 44 H        1.5740     2.5770    -2.3200 H     1 <1>   0.1500 
 45 H        0.5120     4.5480    -3.3440 H     1 <1>   0.1500 
 46 H       -1.0180     6.4430    -3.1980 H     1 <1>   0.1500 
 47 H       -3.1900     7.1840     0.3790 H     1 <1>   0.1500 
 48 H       -2.6380     7.7900    -1.9260 H     1 <1>   0.1500 
@<TRIPOS>BOND
  1   1   2  2   
  2   2   3  am  
  3   2   4  1   
  4   3   5  1   
  5   3   6  1   
  6   4   7  1   
  7   4   8  1   
  8   4   9  1   
  9   5  10  1   
 10   5  27  1   
 11   5  28  1   
 12   6  11  1   
 13   6  29  1   
 14   6  30  1   
 15   7  12  1   
 16   8  31  1   
 17   8  32  1   
 18   8  33  1   
 19   9  34  1   
 20   9  35  1   
 21   9  36  1   
 22  10  13  1   
 23  10  14  1   
 24  10  37  1   
 25  11  14  1   
 26  11  38  1   
 27  11  39  1   
 28  12  15  ar  
 29  12  16  ar  
 30  13  17  ar  
 31  13  18  ar  
 32  14  19  1   
 33  14  40  1   
 34  15  20  ar  
 35  15  21  ar  
 36  16  22  ar  
 37  16  41  1   
 38  19  42  1   
 39  20  23  ar  
 40  20  24  ar  
 41  21  25  ar  
 42  21  43  1   
 43  22  23  ar  
 44  22  44  1   
 45  23  45  1   
 46  24  26  ar  
 47  24  46  1   
 48  25  26  ar  
 49  25  47  1   
 50  26  48  1   
@<TRIPOS>SUBSTRUCTURE
  1 ****   6 GROUP 4 **** **** 0

# MOE 2024.06 (io_trps.svl 2023.06)
