@<TRIPOS>MOLECULE
NONAME
47 47 1 0 0 
SMALL
USER_CHARGES


@<TRIPOS>ATOM
  1 O       -3.5740    -1.8390     1.4380 O.2   1 <1>  -0.5700 
  2 C       -2.7620    -1.5950     0.5850 C.2   1 <1>   0.5690 
  3 N       -2.6220    -0.3440     0.1170 N.am  1 <1>  -0.8000 
  4 C       -1.8970    -2.7130     0.0340 C.3   1 <1>  -0.0990 
  5 C       -2.7500    -3.9250    -0.3960 C.3   1 <1>  -0.1600 
  6 C       -1.9250    -5.1170    -0.9210 C.3   1 <1>  -0.0800 
  7 C       -2.8700    -6.2180    -1.4420 C.3   1 <1>   0.3430 
  8 C       -0.9470    -5.6490     0.1550 C.3   1 <1>  -0.1600 
  9 N       -3.2600    -7.1040    -0.3090 N.4   1 <1>  -0.9590 
 10 C       -0.7670    -7.1710     0.0450 C.3   1 <1>  -0.1600 
 11 C       -2.0990    -7.9320     0.1610 C.3   1 <1>   0.3430 
 12 C       -4.4550    -7.9310    -0.6540 C.3   1 <1>   0.3430 
 13 C       -5.0650    -8.5960     0.5810 C.3   1 <1>  -0.0220 
 14 C       -6.3070    -9.3640     0.1660 C.2   1 <1>  -0.2880 
 15 C       -6.4460   -10.6850    -0.0070 C.2   1 <1>  -0.2760 
 16 C       -7.7880   -11.2850    -0.4140 C.3   1 <1>  -0.0220 
 17 C       -5.3490   -11.7340     0.1560 C.3   1 <1>  -0.1020 
 18 C       -8.4240   -12.0750     0.7320 C.3   1 <1>  -0.2400 
 19 H       -3.2050     0.3980     0.5090 H     1 <1>   0.3700 
 20 H       -1.9420    -0.0580    -0.5860 H     1 <1>   0.3700 
 21 H       -1.3290    -2.3500    -0.8020 H     1 <1>   0.0800 
 22 H       -1.2090    -2.9920     0.8110 H     1 <1>   0.0800 
 23 H       -3.4300    -3.5940    -1.1640 H     1 <1>   0.0800 
 24 H       -3.3460    -4.2400     0.4430 H     1 <1>   0.0800 
 25 H       -1.3520    -4.7750    -1.7670 H     1 <1>   0.0800 
 26 H       -2.3670    -6.8010    -2.1960 H     1 <1>   0.0800 
 27 H       -3.7410    -5.7650    -1.8880 H     1 <1>   0.0800 
 28 H        0.0070    -5.1590     0.0560 H     1 <1>   0.0800 
 29 H       -1.3210    -5.4280     1.1410 H     1 <1>   0.0800 
 30 H       -3.5150    -6.4710     0.4610 H     1 <1>   0.4500 
 31 H       -0.0960    -7.5190     0.8110 H     1 <1>   0.0800 
 32 H       -0.3100    -7.4090    -0.9010 H     1 <1>   0.0800 
 33 H       -2.2590    -8.2080     1.1910 H     1 <1>   0.0800 
 34 H       -2.0330    -8.8390    -0.4180 H     1 <1>   0.0800 
 35 H       -5.2080    -7.3050    -1.1070 H     1 <1>   0.0800 
 36 H       -4.1850    -8.6910    -1.3690 H     1 <1>   0.0800 
 37 H       -4.3570    -9.2580     1.0410 H     1 <1>   0.0800 
 38 H       -5.3490    -7.8530     1.3050 H     1 <1>   0.0800 
 39 H       -7.1450    -8.7010     0.0140 H     1 <1>   0.1500 
 40 H       -8.4660   -10.4980    -0.6980 H     1 <1>   0.0800 
 41 H       -7.6630   -11.9230    -1.2720 H     1 <1>   0.0800 
 42 H       -5.3120   -12.3650    -0.7140 H     1 <1>   0.0800 
 43 H       -5.5480   -12.3500     1.0140 H     1 <1>   0.0800 
 44 H       -4.3780   -11.2960     0.2800 H     1 <1>   0.0800 
 45 H       -8.5140   -11.4530     1.6050 H     1 <1>   0.0800 
 46 H       -7.8320   -12.9370     0.9790 H     1 <1>   0.0800 
 47 H       -9.4060   -12.4100     0.4460 H     1 <1>   0.0800 
@<TRIPOS>BOND
  1   1   2  2   
  2   2   3  am  
  3   2   4  1   
  4   3  19  1   
  5   3  20  1   
  6   4   5  1   
  7   4  21  1   
  8   4  22  1   
  9   5   6  1   
 10   5  23  1   
 11   5  24  1   
 12   6   7  1   
 13   6   8  1   
 14   6  25  1   
 15   7   9  1   
 16   7  26  1   
 17   7  27  1   
 18   8  10  1   
 19   8  28  1   
 20   8  29  1   
 21   9  11  1   
 22   9  12  1   
 23   9  30  1   
 24  10  11  1   
 25  10  31  1   
 26  10  32  1   
 27  11  33  1   
 28  11  34  1   
 29  12  13  1   
 30  12  35  1   
 31  12  36  1   
 32  13  14  1   
 33  13  37  1   
 34  13  38  1   
 35  14  15  2   
 36  14  39  1   
 37  15  16  1   
 38  15  17  1   
 39  16  18  1   
 40  16  40  1   
 41  16  41  1   
 42  17  42  1   
 43  17  43  1   
 44  17  44  1   
 45  18  45  1   
 46  18  46  1   
 47  18  47  1   
@<TRIPOS>SUBSTRUCTURE
  1 ****   9 GROUP 4 **** **** 0

# MOE 2024.06 (io_trps.svl 2023.06)
