@<TRIPOS>MOLECULE
NONAME
41 44 1 0 0 
SMALL
USER_CHARGES


@<TRIPOS>ATOM
  1 S       -0.0710    -0.0520     0.3720 S.3   1 <1>  -0.0800 
  2 C       -1.2290    -0.8840    -0.6120 C.2   1 <1>   0.4420 
  3 C       -0.5640     1.4100    -0.4140 C.2   1 <1>   0.1980 
  4 N       -1.8660    -0.0880    -1.3910 N.2   1 <1>  -0.3380 
  5 N       -1.3120    -2.2480    -0.4380 N.am  1 <1>  -0.4940 
  6 N       -1.4810     1.2200    -1.2730 N.2   1 <1>  -0.3380 
  7 C        0.1160     2.7060    -0.0180 C.3   1 <1>   0.1640 
  8 C       -2.1340    -3.1520    -1.0380 C.2   1 <1>   0.6300 
  9 C        1.6220     2.6260    -0.2280 C.ar  1 <1>  -0.1440 
 10 O       -2.9610    -2.8710    -1.8660 O.2   1 <1>  -0.5700 
 11 C       -1.9740    -4.6060    -0.6270 C.3   1 <1>  -0.1000 
 12 C        2.4940     2.6820     0.8490 C.ar  1 <1>  -0.1500 
 13 C        2.1320     2.4890    -1.5100 C.ar  1 <1>  -0.1500 
 14 C       -3.0230    -5.2500     0.2180 C.3   1 <1>  -0.1520 
 15 C       -1.6640    -5.0240     0.7970 C.3   1 <1>  -0.2000 
 16 C        3.8640     2.6010     0.6540 C.ar  1 <1>  -0.1430 
 17 C        3.4980     2.4110    -1.7110 C.ar  1 <1>  -0.1500 
 18 C       -4.2890    -4.7020     0.9160 C.3   1 <1>   0.0760 
 19 C       -3.6620    -6.6570     0.2420 C.3   1 <1>   0.0760 
 20 C        4.3610     2.4670    -0.6310 C.ar  1 <1>  -0.1500 
 21 C        4.8160     2.6640     1.8340 C.3   1 <1>  -0.0970 
 22 C       -4.5090    -6.1480     1.4430 C.3   1 <1>   0.0000 
 23 H       -0.6650    -2.6400     0.2370 H     1 <1>   0.3700 
 24 H       -0.1100     2.9170     1.0110 H     1 <1>   0.0800 
 25 H       -0.2830     3.5070    -0.6140 H     1 <1>   0.0800 
 26 H       -1.5830    -5.2010    -1.4330 H     1 <1>   0.1000 
 27 H        2.1100     2.7880     1.8480 H     1 <1>   0.1500 
 28 H        1.4680     2.4410    -2.3570 H     1 <1>   0.1500 
 29 H       -1.5710    -4.2890     1.5770 H     1 <1>   0.1000 
 30 H       -1.0180    -5.8710     0.9520 H     1 <1>   0.1000 
 31 H        3.8900     2.3050    -2.7080 H     1 <1>   0.1500 
 32 H       -5.0460    -4.3990     0.2120 H     1 <1>   0.0000 
 33 H       -4.0950    -3.9730     1.6820 H     1 <1>   0.0000 
 34 H       -2.9800    -7.4530     0.4840 H     1 <1>   0.0000 
 35 H       -4.2600    -6.8500    -0.6320 H     1 <1>   0.0000 
 36 H        5.4230     2.4060    -0.7970 H     1 <1>   0.1500 
 37 H        4.3180     2.3740     2.7410 H     1 <1>   0.0800 
 38 H        5.1890     3.6660     1.9470 H     1 <1>   0.0800 
 39 H        5.6470     1.9990     1.6770 H     1 <1>   0.0800 
 40 H       -5.5350    -6.4680     1.4180 H     1 <1>   0.0000 
 41 H       -4.0270    -6.3200     2.3910 H     1 <1>   0.0000 
@<TRIPOS>BOND
  1   1   2  1   
  2   1   3  1   
  3   2   4  2   
  4   2   5  1   
  5   3   6  2   
  6   3   7  1   
  7   4   6  1   
  8   5   8  am  
  9   5  23  1   
 10   7   9  1   
 11   7  24  1   
 12   7  25  1   
 13   8  10  2   
 14   8  11  1   
 15   9  12  ar  
 16   9  13  ar  
 17  11  14  1   
 18  11  15  1   
 19  11  26  1   
 20  12  16  ar  
 21  12  27  1   
 22  13  17  ar  
 23  13  28  1   
 24  14  15  1   
 25  14  18  1   
 26  14  19  1   
 27  15  29  1   
 28  15  30  1   
 29  16  20  ar  
 30  16  21  1   
 31  17  20  ar  
 32  17  31  1   
 33  18  22  1   
 34  18  32  1   
 35  18  33  1   
 36  19  22  1   
 37  19  34  1   
 38  19  35  1   
 39  20  36  1   
 40  21  37  1   
 41  21  38  1   
 42  21  39  1   
 43  22  40  1   
 44  22  41  1   
@<TRIPOS>SUBSTRUCTURE
  1 ****   2 GROUP 4 **** **** 0

# MOE 2024.06 (io_trps.svl 2023.06)
