@<TRIPOS>MOLECULE
NONAME
43 45 1 0 0 
SMALL
USER_CHARGES


@<TRIPOS>ATOM
  1 S       -1.0170     1.6730    -1.2400 S.3   1 <1>  -0.0800 
  2 C        0.1020     2.4000    -0.1420 C.2   1 <1>   0.1980 
  3 C        0.2170     1.7900    -2.4460 C.2   1 <1>   0.1980 
  4 N        1.2250     2.6570    -0.6890 N.2   1 <1>  -0.3380 
  5 C       -0.3630     2.6450     1.2910 C.3   1 <1>   0.2900 
  6 N        1.2920     2.3110    -2.0070 N.2   1 <1>  -0.3380 
  7 C       -0.0980     1.2870    -3.8370 C.3   1 <1>  -0.0600 
  8 N        0.3240     3.7920     1.9400 N.3   1 <1>  -0.8100 
  9 C       -0.0090     5.1700     1.5230 C.3   1 <1>   0.1100 
 10 C        1.4220     3.5540     2.8830 C.3   1 <1>   0.1100 
 11 C        1.2380     6.0050     1.1790 C.3   1 <1>   0.3430 
 12 C        2.7640     3.3950     2.1560 C.3   1 <1>  -0.1600 
 13 N        2.2360     5.1490     0.4630 N.4   1 <1>  -0.9590 
 14 C        3.2700     4.6220     1.3860 C.3   1 <1>   0.3430 
 15 C        2.8080     5.7150    -0.7950 C.3   1 <1>   0.4860 
 16 C        1.7670     6.5030    -1.5680 C.ar  1 <1>  -0.1440 
 17 C        0.7210     5.8570    -2.2120 C.ar  1 <1>   0.1600 
 18 C        1.8340     7.8830    -1.6330 C.ar  1 <1>  -0.1500 
 19 N       -0.2500     6.4630    -2.8700 N.ar  1 <1>  -0.6200 
 20 C        0.8360     8.5270    -2.3310 C.ar  1 <1>  -0.1500 
 21 C       -0.1700     7.7820    -2.9210 C.ar  1 <1>   0.1600 
 22 H       -0.1990     1.7510     1.8660 H     1 <1>   0.0800 
 23 H       -1.4220     2.8370     1.2850 H     1 <1>   0.0800 
 24 H       -0.3550     0.2440    -3.8000 H     1 <1>   0.0800 
 25 H        0.7580     1.4130    -4.4740 H     1 <1>   0.0800 
 26 H       -0.9220     1.8410    -4.2480 H     1 <1>   0.0800 
 27 H       -0.5570     5.6590     2.3110 H     1 <1>   0.0800 
 28 H       -0.6500     5.1400     0.6580 H     1 <1>   0.0800 
 29 H        1.2150     2.6590     3.4470 H     1 <1>   0.0800 
 30 H        1.4770     4.3690     3.5870 H     1 <1>   0.0800 
 31 H        1.6690     6.3900     2.0880 H     1 <1>   0.0800 
 32 H        0.9330     6.8470     0.5810 H     1 <1>   0.0800 
 33 H        2.7170     2.5480     1.4970 H     1 <1>   0.0800 
 34 H        3.5070     3.1520     2.8940 H     1 <1>   0.0800 
 35 H        1.6910     4.3090     0.1870 H     1 <1>   0.4500 
 36 H        4.1430     4.3300     0.8250 H     1 <1>   0.0800 
 37 H        3.5630     5.3930     2.0810 H     1 <1>   0.0800 
 38 H        3.1830     4.9140    -1.4120 H     1 <1>   0.0800 
 39 H        3.6300     6.3690    -0.5550 H     1 <1>   0.0800 
 40 H        0.6690     4.7840    -2.1840 H     1 <1>   0.1500 
 41 H        2.6250     8.4460    -1.1660 H     1 <1>   0.1500 
 42 H        0.8310     9.5990    -2.4220 H     1 <1>   0.1500 
 43 H       -0.9470     8.2970    -3.4630 H     1 <1>   0.1500 
@<TRIPOS>BOND
  1   1   2  1   
  2   1   3  1   
  3   2   4  2   
  4   2   5  1   
  5   3   6  2   
  6   3   7  1   
  7   4   6  1   
  8   5   8  1   
  9   5  22  1   
 10   5  23  1   
 11   7  24  1   
 12   7  25  1   
 13   7  26  1   
 14   8   9  1   
 15   8  10  1   
 16   9  11  1   
 17   9  27  1   
 18   9  28  1   
 19  10  12  1   
 20  10  29  1   
 21  10  30  1   
 22  11  13  1   
 23  11  31  1   
 24  11  32  1   
 25  12  14  1   
 26  12  33  1   
 27  12  34  1   
 28  13  14  1   
 29  13  15  1   
 30  13  35  1   
 31  14  36  1   
 32  14  37  1   
 33  15  16  1   
 34  15  38  1   
 35  15  39  1   
 36  16  17  ar  
 37  16  18  ar  
 38  17  19  ar  
 39  17  40  1   
 40  18  20  ar  
 41  18  41  1   
 42  19  21  ar  
 43  20  21  ar  
 44  20  42  1   
 45  21  43  1   
@<TRIPOS>SUBSTRUCTURE
  1 ****  13 GROUP 4 **** **** 0

# MOE 2024.06 (io_trps.svl 2023.06)
