@<TRIPOS>MOLECULE
NONAME
43 45 1 0 0 
SMALL
USER_CHARGES


@<TRIPOS>ATOM
  1 O        0.9280     0.7530     1.0890 O.2   1 <1>  -0.5700 
  2 C        1.9100     0.4710     0.4400 C.2   1 <1>   0.7800 
  3 O        2.2350    -0.7850     0.1670 O.3   1 <1>  -0.4300 
  4 N        2.8280     1.3390    -0.0380 N.am  1 <1>  -0.6600 
  5 C        3.4390    -0.8400    -0.5740 C.3   1 <1>   0.1200 
  6 C        3.9780     0.5990    -0.5680 C.3   1 <1>   0.2200 
  7 C        3.0120     2.7460     0.4020 C.3   1 <1>   0.1400 
  8 C        5.2170     0.7730     0.3420 C.3   1 <1>   0.2090 
  9 C        4.2550     2.8750     1.2990 C.3   1 <1>   0.2090 
 10 N        5.4610     2.2190     0.6740 N.pl3 1 <1>  -0.8380 
 11 C        6.5790     2.9180     0.3440 C.ar  1 <1>   0.4100 
 12 N        6.4400     4.1990     0.0620 N.ar  1 <1>  -0.6200 
 13 C        7.8420     2.2970     0.3100 C.ar  1 <1>  -0.1500 
 14 C        7.5170     4.8980    -0.2680 C.ar  1 <1>   0.7710 
 15 C        8.9330     3.0230    -0.0350 C.ar  1 <1>   0.2180 
 16 N        8.7340     4.3300    -0.3260 N.ar  1 <1>  -0.1790 
 17 N        7.3960     6.2240    -0.5600 N.pl3 1 <1>  -0.8380 
 18 C       10.3440     2.4540    -0.1040 C.3   1 <1>  -0.0170 
 19 C        6.0450     6.8700    -0.6720 C.3   1 <1>   0.1290 
 20 C        8.5060     7.2130    -0.7380 C.3   1 <1>   0.1290 
 21 C       11.2820     3.1060     0.9220 C.3   1 <1>  -0.2400 
 22 H        3.2030    -1.1600    -1.5730 H     1 <1>   0.0800 
 23 H        4.1070    -1.5430    -0.1090 H     1 <1>   0.0800 
 24 H        4.2060     0.9260    -1.5680 H     1 <1>   0.0800 
 25 H        2.1400     3.0770     0.9400 H     1 <1>   0.0800 
 26 H        3.1320     3.3740    -0.4630 H     1 <1>   0.0800 
 27 H        6.0680     0.3460    -0.1560 H     1 <1>   0.0800 
 28 H        5.0620     0.2310     1.2600 H     1 <1>   0.0800 
 29 H        4.0490     2.4000     2.2430 H     1 <1>   0.0800 
 30 H        4.4400     3.9150     1.5020 H     1 <1>   0.0800 
 31 H        7.9180     1.2610     0.5760 H     1 <1>   0.1500 
 32 H        9.4880     4.9410    -0.6070 H     1 <1>   0.4570 
 33 H       10.7420     2.5870    -1.0950 H     1 <1>   0.0800 
 34 H       10.3120     1.3940     0.0860 H     1 <1>   0.0800 
 35 H        5.2840     6.1520    -0.9260 H     1 <1>   0.0800 
 36 H        6.0550     7.6240    -1.4410 H     1 <1>   0.0800 
 37 H        5.7830     7.3320     0.2650 H     1 <1>   0.0800 
 38 H        9.4310     6.8600    -0.3200 H     1 <1>   0.0800 
 39 H        8.2540     8.1350    -0.2390 H     1 <1>   0.0800 
 40 H        8.6440     7.4230    -1.7870 H     1 <1>   0.0800 
 41 H       11.4120     4.1550     0.7300 H     1 <1>   0.0800 
 42 H       12.2510     2.6370     0.8780 H     1 <1>   0.0800 
 43 H       10.8960     2.9790     1.9190 H     1 <1>   0.0800 
@<TRIPOS>BOND
  1   1   2  2   
  2   2   3  1   
  3   2   4  am  
  4   3   5  1   
  5   4   6  1   
  6   4   7  1   
  7   5   6  1   
  8   5  22  1   
  9   5  23  1   
 10   6   8  1   
 11   6  24  1   
 12   7   9  1   
 13   7  25  1   
 14   7  26  1   
 15   8  10  1   
 16   8  27  1   
 17   8  28  1   
 18   9  10  1   
 19   9  29  1   
 20   9  30  1   
 21  10  11  1   
 22  11  12  ar  
 23  11  13  ar  
 24  12  14  ar  
 25  13  15  ar  
 26  13  31  1   
 27  14  16  ar  
 28  14  17  1   
 29  15  16  ar  
 30  15  18  1   
 31  16  32  1   
 32  17  19  1   
 33  17  20  1   
 34  18  21  1   
 35  18  33  1   
 36  18  34  1   
 37  19  35  1   
 38  19  36  1   
 39  19  37  1   
 40  20  38  1   
 41  20  39  1   
 42  20  40  1   
 43  21  41  1   
 44  21  42  1   
 45  21  43  1   
@<TRIPOS>SUBSTRUCTURE
  1 ****  11 GROUP 4 **** **** 0

# MOE 2024.06 (io_trps.svl 2023.06)
