@<TRIPOS>MOLECULE
NONAME
62 64 1 0 0 
SMALL
USER_CHARGES


@<TRIPOS>ATOM
  1 S        0.7540    -0.0840     1.0280 S.o2  1 <1>   1.3330 
  2 O        2.0970     0.4000     1.2650 O.2   1 <1>  -0.6500 
  3 O        0.1470    -1.0460     1.9140 O.2   1 <1>  -0.6500 
  4 N        0.7050    -0.6950    -0.5540 N.am  1 <1>  -0.8490 
  5 C       -0.2960     1.3710     0.9200 C.3   1 <1>  -0.0550 
  6 C        1.8690    -1.5440    -0.8420 C.3   1 <1>   0.1160 
  7 C       -0.5140    -1.4680    -0.8320 C.3   1 <1>   0.1160 
  8 C        0.1740     2.3910    -0.1460 C.3   1 <1>  -0.0800 
  9 C       -0.6800     3.6540    -0.2930 C.3   1 <1>   0.2000 
 10 C        1.5950     2.9210     0.1070 C.3   1 <1>   0.3430 
 11 O       -1.0480     4.1080     0.9710 O.3   1 <1>  -0.6800 
 12 C        0.3250     4.6600    -0.8520 C.3   1 <1>   0.3430 
 13 N        1.5370     4.4110    -0.0150 N.4   1 <1>  -0.9590 
 14 C        2.8100     5.0730    -0.4110 C.3   1 <1>   0.4230 
 15 C        3.9120     4.7150     0.5940 C.3   1 <1>  -0.1600 
 16 C        2.6190     6.5930    -0.4590 C.3   1 <1>  -0.1600 
 17 C        5.2100     5.4610     0.2950 C.3   1 <1>   0.3430 
 18 C        3.9360     7.3170    -0.7400 C.3   1 <1>   0.3430 
 19 N        4.9620     6.9300     0.2730 N.4   1 <1>  -0.9590 
 20 C        6.2640     7.6440     0.0440 C.3   1 <1>   0.3430 
 21 C        6.1700     9.1430     0.3410 C.3   1 <1>  -0.0170 
 22 C        7.5530     9.7400     0.1880 C.ar  1 <1>  -0.1430 
 23 C        8.4140     9.7960     1.2740 C.ar  1 <1>  -0.1500 
 24 C        7.9750    10.2250    -1.0410 C.ar  1 <1>  -0.1500 
 25 C        9.6860    10.3220     1.1310 C.ar  1 <1>  -0.1500 
 26 C        9.2470    10.7510    -1.1840 C.ar  1 <1>  -0.1500 
 27 C       10.1030    10.7990    -0.0990 C.ar  1 <1>  -0.1500 
 28 H       -1.2980     1.0620     0.6930 H     1 <1>   0.0800 
 29 H       -0.3170     1.8410     1.8860 H     1 <1>   0.0800 
 30 H        1.8230    -1.9130    -1.8520 H     1 <1>   0.0800 
 31 H        1.9020    -2.3810    -0.1630 H     1 <1>   0.0800 
 32 H        2.7800    -0.9790    -0.7330 H     1 <1>   0.0800 
 33 H       -0.5270    -1.7820    -1.8620 H     1 <1>   0.0800 
 34 H       -1.3900    -0.8700    -0.6510 H     1 <1>   0.0800 
 35 H       -0.5600    -2.3430    -0.2020 H     1 <1>   0.0800 
 36 H        0.1890     1.8930    -1.1010 H     1 <1>   0.0800 
 37 H       -1.5570     3.5370    -0.9090 H     1 <1>   0.0800 
 38 H        2.2720     2.4960    -0.6180 H     1 <1>   0.0800 
 39 H        1.9330     2.6510     1.0950 H     1 <1>   0.0800 
 40 H       -1.9140     3.7370     1.2490 H     1 <1>   0.4000 
 41 H       -0.0430     5.6680    -0.7520 H     1 <1>   0.0800 
 42 H        0.5290     4.4420    -1.8880 H     1 <1>   0.0800 
 43 H        1.2430     4.7380     0.9210 H     1 <1>   0.4500 
 44 H        3.1020     4.7240    -1.3910 H     1 <1>   0.0800 
 45 H        3.6000     4.9470     1.5970 H     1 <1>   0.0800 
 46 H        4.1300     3.6620     0.5470 H     1 <1>   0.0800 
 47 H        1.9310     6.8530    -1.2430 H     1 <1>   0.0800 
 48 H        2.2170     6.9520     0.4730 H     1 <1>   0.0800 
 49 H        5.6030     5.1430    -0.6580 H     1 <1>   0.0800 
 50 H        5.9430     5.2230     1.0520 H     1 <1>   0.0800 
 51 H        3.7690     8.3830    -0.7090 H     1 <1>   0.0800 
 52 H        4.2880     7.0650    -1.7290 H     1 <1>   0.0800 
 53 H        4.6340     7.2180     1.2080 H     1 <1>   0.4500 
 54 H        7.0210     7.2270     0.6890 H     1 <1>   0.0800 
 55 H        6.5920     7.5040    -0.9740 H     1 <1>   0.0800 
 56 H        5.5000     9.6330    -0.3430 H     1 <1>   0.0800 
 57 H        5.8220     9.3070     1.3450 H     1 <1>   0.0800 
 58 H        8.1100     9.4360     2.2420 H     1 <1>   0.1500 
 59 H        7.3260    10.2040    -1.8990 H     1 <1>   0.1500 
 60 H       10.3520    10.3650     1.9750 H     1 <1>   0.1500 
 61 H        9.5730    11.1280    -2.1390 H     1 <1>   0.1500 
 62 H       11.0920    11.2100    -0.2100 H     1 <1>   0.1500 
@<TRIPOS>BOND
  1   1   2  2   
  2   1   3  2   
  3   1   4  am  
  4   1   5  1   
  5   4   6  1   
  6   4   7  1   
  7   5   8  1   
  8   5  28  1   
  9   5  29  1   
 10   6  30  1   
 11   6  31  1   
 12   6  32  1   
 13   7  33  1   
 14   7  34  1   
 15   7  35  1   
 16   8   9  1   
 17   8  10  1   
 18   8  36  1   
 19   9  11  1   
 20   9  12  1   
 21   9  37  1   
 22  10  13  1   
 23  10  38  1   
 24  10  39  1   
 25  11  40  1   
 26  12  13  1   
 27  12  41  1   
 28  12  42  1   
 29  13  14  1   
 30  13  43  1   
 31  14  15  1   
 32  14  16  1   
 33  14  44  1   
 34  15  17  1   
 35  15  45  1   
 36  15  46  1   
 37  16  18  1   
 38  16  47  1   
 39  16  48  1   
 40  17  19  1   
 41  17  49  1   
 42  17  50  1   
 43  18  19  1   
 44  18  51  1   
 45  18  52  1   
 46  19  20  1   
 47  19  53  1   
 48  20  21  1   
 49  20  54  1   
 50  20  55  1   
 51  21  22  1   
 52  21  56  1   
 53  21  57  1   
 54  22  23  ar  
 55  22  24  ar  
 56  23  25  ar  
 57  23  58  1   
 58  24  26  ar  
 59  24  59  1   
 60  25  27  ar  
 61  25  60  1   
 62  26  27  ar  
 63  26  61  1   
 64  27  62  1   
@<TRIPOS>SUBSTRUCTURE
  1 ****  15 GROUP 4 **** **** 0

# MOE 2024.06 (io_trps.svl 2023.06)
