@<TRIPOS>MOLECULE
NONAME
49 51 1 0 0 
SMALL
USER_CHARGES


@<TRIPOS>ATOM
  1 S        0.4610    -0.3930     0.7210 S.3   1 <1>  -0.0800 
  2 C       -1.1510     0.2840     0.7920 C.2   1 <1>   0.1980 
  3 C        0.9560     0.9500    -0.2690 C.2   1 <1>  -0.1400 
  4 N       -1.2870     1.3760     0.1550 N.2   1 <1>  -0.5650 
  5 C       -2.1970    -0.4690     1.5890 C.3   1 <1>   0.0200 
  6 C       -0.1020     1.7590    -0.4490 C.2   1 <1>   0.0460 
  7 C        2.4030     0.9630    -0.7230 C.3   1 <1>  -0.0600 
  8 C       -2.6480    -1.7480     0.8670 C.3   1 <1>  -0.1600 
  9 C       -0.1520     3.0490    -1.2390 C.3   1 <1>  -0.0590 
 10 C       -3.7080    -2.4930     1.6760 C.3   1 <1>   0.1400 
 11 N       -4.1170    -3.7050     0.9390 N.am  1 <1>  -0.7300 
 12 C       -5.3950    -4.1040     0.6940 C.2   1 <1>   0.5690 
 13 O       -6.3360    -3.4660     1.1020 O.2   1 <1>  -0.5700 
 14 C       -5.6280    -5.3950    -0.1070 C.3   1 <1>   0.2610 
 15 O       -4.4030    -6.1190    -0.2260 O.3   1 <1>  -0.5600 
 16 C       -6.7630    -6.2390     0.5450 C.3   1 <1>   0.3640 
 17 C       -4.4980    -7.3390    -0.9240 C.3   1 <1>   0.1810 
 18 N       -6.5820    -7.7020     0.3640 N.am  1 <1>  -0.7300 
 19 C       -8.1290    -5.8670    -0.0320 C.ar  1 <1>  -0.1440 
 20 C       -5.5730    -8.2550    -0.3410 C.2   1 <1>   0.5690 
 21 C       -8.9880    -5.0520     0.6920 C.ar  1 <1>  -0.1500 
 22 C       -8.5370    -6.3290    -1.2790 C.ar  1 <1>  -0.1500 
 23 O       -5.5320    -9.4430    -0.5360 O.2   1 <1>  -0.5700 
 24 C      -10.2270    -4.7040     0.1840 C.ar  1 <1>  -0.1500 
 25 C       -9.7770    -5.9830    -1.7870 C.ar  1 <1>  -0.1500 
 26 C      -10.6240    -5.1700    -1.0560 C.ar  1 <1>  -0.1500 
 27 H       -1.7910    -0.7090     2.5550 H     1 <1>   0.0800 
 28 H       -3.0430     0.1800     1.7330 H     1 <1>   0.0800 
 29 H        2.6070     1.8300    -1.3240 H     1 <1>   0.0800 
 30 H        2.6110     0.0830    -1.3040 H     1 <1>   0.0800 
 31 H        3.0530     0.9770     0.1340 H     1 <1>   0.0800 
 32 H       -1.7980    -2.3880     0.7120 H     1 <1>   0.0800 
 33 H       -3.0560    -1.4780    -0.0920 H     1 <1>   0.0800 
 34 H        0.8030     3.2750    -1.6730 H     1 <1>   0.0800 
 35 H       -0.4400     3.8550    -0.5900 H     1 <1>   0.0800 
 36 H       -0.8810     2.9600    -2.0240 H     1 <1>   0.0800 
 37 H       -4.5640    -1.8580     1.8360 H     1 <1>   0.0800 
 38 H       -3.3120    -2.7820     2.6350 H     1 <1>   0.0800 
 39 H       -3.3690    -4.3270     0.6140 H     1 <1>   0.3700 
 40 H       -5.9270    -5.1100    -1.0990 H     1 <1>   0.0800 
 41 H       -6.7680    -6.0420     1.6040 H     1 <1>   0.0800 
 42 H       -4.7200    -7.1300    -1.9550 H     1 <1>   0.0800 
 43 H       -3.5430    -7.8290    -0.8640 H     1 <1>   0.0800 
 44 H       -7.3350    -8.3050     0.6960 H     1 <1>   0.3700 
 45 H       -8.6940    -4.6710     1.6560 H     1 <1>   0.1500 
 46 H       -7.8950    -6.9650    -1.8630 H     1 <1>   0.1500 
 47 H      -10.8810    -4.0680     0.7550 H     1 <1>   0.1500 
 48 H      -10.0840    -6.3470    -2.7530 H     1 <1>   0.1500 
 49 H      -11.5880    -4.9000    -1.4500 H     1 <1>   0.1500 
@<TRIPOS>BOND
  1   1   2  1   
  2   1   3  1   
  3   2   4  2   
  4   2   5  1   
  5   3   6  2   
  6   3   7  1   
  7   4   6  1   
  8   5   8  1   
  9   5  27  1   
 10   5  28  1   
 11   6   9  1   
 12   7  29  1   
 13   7  30  1   
 14   7  31  1   
 15   8  10  1   
 16   8  32  1   
 17   8  33  1   
 18   9  34  1   
 19   9  35  1   
 20   9  36  1   
 21  10  11  1   
 22  10  37  1   
 23  10  38  1   
 24  11  12  am  
 25  11  39  1   
 26  12  13  2   
 27  12  14  1   
 28  14  15  1   
 29  14  16  1   
 30  14  40  1   
 31  15  17  1   
 32  16  18  1   
 33  16  19  1   
 34  16  41  1   
 35  17  20  1   
 36  17  42  1   
 37  17  43  1   
 38  18  20  am  
 39  18  44  1   
 40  19  21  ar  
 41  19  22  ar  
 42  20  23  2   
 43  21  24  ar  
 44  21  45  1   
 45  22  25  ar  
 46  22  46  1   
 47  24  26  ar  
 48  24  47  1   
 49  25  26  ar  
 50  25  48  1   
 51  26  49  1   
@<TRIPOS>SUBSTRUCTURE
  1 ****  11 GROUP 4 **** **** 0

# MOE 2024.06 (io_trps.svl 2023.06)
