@<TRIPOS>MOLECULE
NONAME
47 50 1 0 0 
SMALL
USER_CHARGES


@<TRIPOS>ATOM
  1 O       -0.8190     0.7800    -1.4240 O.2   1 <1>  -0.5700 
  2 C       -0.4520     1.7280    -0.7690 C.2   1 <1>   0.5690 
  3 N       -1.2590     2.8080    -0.5100 N.am  1 <1>  -0.5090 
  4 C        0.9940     1.7100    -0.2550 C.3   1 <1>   0.1810 
  5 C       -0.7270     4.0060     0.2070 C.3   1 <1>   0.3640 
  6 C       -2.7070     2.8220    -0.8400 C.3   1 <1>   0.0490 
  7 O        1.2950     2.7360     0.6640 O.3   1 <1>  -0.5600 
  8 C       -1.1610     5.3130    -0.4550 C.ar  1 <1>  -0.1440 
  9 C        0.8130     4.0020     0.2740 C.3   1 <1>   0.2610 
 10 C       -3.6970     3.0550     0.2610 C.3   1 <1>  -0.2000 
 11 C       -3.5800     1.7030    -0.3670 C.3   1 <1>  -0.2000 
 12 C       -1.5890     6.3640     0.3440 C.ar  1 <1>   0.1600 
 13 C       -1.0910     5.5070    -1.8230 C.ar  1 <1>  -0.1500 
 14 C        1.2830     5.1320     1.2040 C.2   1 <1>   0.5690 
 15 N       -1.9090     7.5680    -0.0980 N.ar  1 <1>  -0.6200 
 16 C       -1.4450     6.7500    -2.3010 C.ar  1 <1>  -0.1500 
 17 O        0.6900     5.3060     2.2470 O.2   1 <1>  -0.5700 
 18 N        2.2800     5.9890     0.8110 N.am  1 <1>  -0.6600 
 19 C       -1.8400     7.7330    -1.4110 C.ar  1 <1>   0.1600 
 20 C        2.4080     7.3350     1.4260 C.3   1 <1>   0.3200 
 21 C        3.2720     5.6870    -0.2600 C.3   1 <1>   0.0600 
 22 C        2.1810     8.3750     0.3480 C.2   1 <1>  -0.3320 
 23 N        0.9800     8.6050    -0.2270 N.pl3 1 <1>   0.3000 
 24 C        3.0590     9.2210    -0.2340 C.2   1 <1>  -0.1500 
 25 N        1.0650     9.5620    -1.1770 N.2   1 <1>  -0.7070 
 26 C        2.3090     9.9270    -1.1670 C.2   1 <1>   0.1390 
 27 H        1.6660     1.7980    -1.0890 H     1 <1>   0.0800 
 28 H        1.1810     0.7710     0.2350 H     1 <1>   0.0800 
 29 H       -1.1110     3.9740     1.2120 H     1 <1>   0.0800 
 30 H       -2.9070     3.2410    -1.8120 H     1 <1>   0.1000 
 31 H        1.1880     4.1980    -0.7120 H     1 <1>   0.0800 
 32 H       -3.3650     3.1610     1.2780 H     1 <1>   0.1000 
 33 H       -4.5740     3.6400     0.0480 H     1 <1>   0.1000 
 34 H       -4.3720     1.3650    -1.0120 H     1 <1>   0.1000 
 35 H       -3.1290     0.9000     0.1890 H     1 <1>   0.1000 
 36 H       -1.6530     6.2170     1.4110 H     1 <1>   0.1500 
 37 H       -0.7740     4.7270    -2.4950 H     1 <1>   0.1500 
 38 H       -1.4110     6.9640    -3.3540 H     1 <1>   0.1500 
 39 H       -2.1010     8.7050    -1.7970 H     1 <1>   0.1500 
 40 H        1.6940     7.4730     2.2210 H     1 <1>   0.0800 
 41 H        3.3940     7.4410     1.8430 H     1 <1>   0.0800 
 42 H        4.2320     6.0950     0.0060 H     1 <1>   0.0800 
 43 H        2.9530     6.1300    -1.1890 H     1 <1>   0.0800 
 44 H        3.3840     4.6240    -0.3880 H     1 <1>   0.0800 
 45 H        0.0840     8.1350    -0.0060 H     1 <1>   0.2700 
 46 H        4.1100     9.3460    -0.0480 H     1 <1>   0.1500 
 47 H        2.7060    10.6910    -1.8150 H     1 <1>   0.1500 
@<TRIPOS>BOND
  1   1   2  2   
  2   2   3  am  
  3   2   4  1   
  4   3   5  1   
  5   3   6  1   
  6   4   7  1   
  7   4  27  1   
  8   4  28  1   
  9   5   8  1   
 10   5   9  1   
 11   5  29  1   
 12   6  10  1   
 13   6  11  1   
 14   6  30  1   
 15   7   9  1   
 16   8  12  ar  
 17   8  13  ar  
 18   9  14  1   
 19   9  31  1   
 20  10  11  1   
 21  10  32  1   
 22  10  33  1   
 23  11  34  1   
 24  11  35  1   
 25  12  15  ar  
 26  12  36  1   
 27  13  16  ar  
 28  13  37  1   
 29  14  17  2   
 30  14  18  am  
 31  15  19  ar  
 32  16  19  ar  
 33  16  38  1   
 34  18  20  1   
 35  18  21  1   
 36  19  39  1   
 37  20  22  1   
 38  20  40  1   
 39  20  41  1   
 40  21  42  1   
 41  21  43  1   
 42  21  44  1   
 43  22  23  1   
 44  22  24  2   
 45  23  25  1   
 46  23  45  1   
 47  24  26  1   
 48  24  46  1   
 49  25  26  2   
 50  26  47  1   
@<TRIPOS>SUBSTRUCTURE
  1 ****   8 GROUP 4 **** **** 0

# MOE 2024.06 (io_trps.svl 2023.06)
