@<TRIPOS>MOLECULE
Untitled Document
55 57 1 0 0 
SMALL
USER_CHARGES


@<TRIPOS>ATOM
  1 CL      -0.4980     1.6370    -0.9920 Cl    1 <1>  -0.1770 
  2 C       -1.6940     1.6090     0.2830 C.ar  1 <1>   0.1770 
  3 C       -1.6330     2.4990     1.3550 C.ar  1 <1>  -0.1790 
  4 C       -2.6860     0.6530     0.1800 C.ar  1 <1>  -0.1500 
  5 C       -0.6330     3.5380     1.4710 C.2   1 <1>   0.9790 
  6 C       -2.6070     2.3500     2.3450 C.ar  1 <1>  -0.1500 
  7 C       -3.6570     0.5300     1.1630 C.ar  1 <1>   0.1000 
  8 O       -0.3940     4.3170     0.5330 O.co2 1 <1>  -0.9000 
  9 O       -0.0510     3.7160     2.5570 O.co2 1 <1>  -0.9000 
 10 C       -3.5990     1.3920     2.2510 C.ar  1 <1>  -0.1500 
 11 N       -4.7050    -0.3950     1.0730 N.pl3 1 <1>  -0.6000 
 12 C       -4.7360    -1.7180     0.7580 C.ar  1 <1>   0.4100 
 13 N       -5.9590    -2.2020     0.6020 N.ar  1 <1>  -0.6200 
 14 C       -3.5890    -2.5530     0.6160 C.ar  1 <1>   0.2270 
 15 C       -6.1140    -3.4820     0.2760 C.ar  1 <1>   0.7710 
 16 N       -2.2480    -2.3410     0.7570 N.2   1 <1>  -0.5650 
 17 C       -3.7900    -3.8630     0.2830 C.ar  1 <1>   0.1560 
 18 N       -5.0690    -4.3170     0.1070 N.ar  1 <1>  -0.1260 
 19 N       -7.3620    -3.9560     0.1020 N.pl3 1 <1>  -0.8690 
 20 C       -1.7000    -3.4770     0.5090 C.2   1 <1>   0.0360 
 21 N       -2.5850    -4.4670     0.2060 N.pl3 1 <1>   0.0480 
 22 C       -8.6120    -3.1700     0.3300 C.3   1 <1>   0.2890 
 23 C       -2.2090    -5.8690    -0.1120 C.3   1 <1>   0.1760 
 24 C       -9.7020    -4.1530     0.8400 C.3   1 <1>  -0.0800 
 25 C       -8.9590    -2.3830    -0.9550 C.3   1 <1>   0.1200 
 26 C       -2.6540    -6.2450    -1.5300 C.3   1 <1>  -0.2400 
 27 C       -2.7850    -6.8360     0.9290 C.3   1 <1>  -0.2400 
 28 C      -10.1240    -5.2190    -0.1890 C.3   1 <1>  -0.2400 
 29 C      -10.9580    -3.4420     1.3710 C.3   1 <1>  -0.2400 
 30 O       -9.9200    -1.4100    -0.7150 O.3   1 <1>  -0.6800 
 31 H       -2.6930     0.0030    -0.6720 H     1 <1>   0.1500 
 32 H       -2.5660     3.0100     3.1960 H     1 <1>   0.1500 
 33 H       -4.3310     1.3130     3.0320 H     1 <1>   0.1500 
 34 H       -5.6250     0.0020     1.2720 H     1 <1>   0.4000 
 35 H       -5.2660    -5.2800    -0.1360 H     1 <1>   0.4570 
 36 H       -7.5770    -4.9110    -0.1840 H     1 <1>   0.4000 
 37 H       -0.6340    -3.6490     0.5350 H     1 <1>   0.1500 
 38 H       -8.4240    -2.4480     1.1090 H     1 <1>   0.0800 
 39 H       -1.1330    -5.9360    -0.0710 H     1 <1>   0.0800 
 40 H       -9.2760    -4.6650     1.6880 H     1 <1>   0.0800 
 41 H       -9.3190    -3.0290    -1.7350 H     1 <1>   0.0800 
 42 H       -8.0830    -1.8650    -1.3070 H     1 <1>   0.0800 
 43 H       -3.7230    -6.2590    -1.6290 H     1 <1>   0.0800 
 44 H       -2.2860    -7.2270    -1.7740 H     1 <1>   0.0800 
 45 H       -2.2370    -5.5560    -2.2460 H     1 <1>   0.0800 
 46 H       -3.8580    -6.8660     0.9060 H     1 <1>   0.0800 
 47 H       -2.4560    -6.5610     1.9170 H     1 <1>   0.0800 
 48 H       -2.4230    -7.8320     0.7340 H     1 <1>   0.0800 
 49 H      -10.6170    -4.7700    -1.0330 H     1 <1>   0.0800 
 50 H      -10.8160    -5.9080     0.2650 H     1 <1>   0.0800 
 51 H       -9.2840    -5.7870    -0.5420 H     1 <1>   0.0800 
 52 H      -11.5570    -3.0450     0.5730 H     1 <1>   0.0800 
 53 H      -10.6880    -2.6410     2.0370 H     1 <1>   0.0800 
 54 H      -11.5680    -4.1380     1.9210 H     1 <1>   0.0800 
 55 H      -10.7810    -1.8100    -0.4870 H     1 <1>   0.4000 
@<TRIPOS>BOND
  1   1   2  1   
  2   2   3  ar  
  3   2   4  ar  
  4   3   5  1   
  5   3   6  ar  
  6   4   7  ar  
  7   4  31  1   
  8   5   8  ar  
  9   5   9  ar  
 10   6  10  ar  
 11   6  32  1   
 12   7  10  ar  
 13   7  11  1   
 14  10  33  1   
 15  11  12  1   
 16  11  34  1   
 17  12  13  ar  
 18  12  14  ar  
 19  13  15  ar  
 20  14  16  1   
 21  14  17  ar  
 22  15  18  ar  
 23  15  19  1   
 24  16  20  2   
 25  17  18  ar  
 26  17  21  1   
 27  18  35  1   
 28  19  22  1   
 29  19  36  1   
 30  20  21  1   
 31  20  37  1   
 32  21  23  1   
 33  22  24  1   
 34  22  25  1   
 35  22  38  1   
 36  23  26  1   
 37  23  27  1   
 38  23  39  1   
 39  24  28  1   
 40  24  29  1   
 41  24  40  1   
 42  25  30  1   
 43  25  41  1   
 44  25  42  1   
 45  26  43  1   
 46  26  44  1   
 47  26  45  1   
 48  27  46  1   
 49  27  47  1   
 50  27  48  1   
 51  28  49  1   
 52  28  50  1   
 53  28  51  1   
 54  29  52  1   
 55  29  53  1   
 56  29  54  1   
 57  30  55  1   
@<TRIPOS>SUBSTRUCTURE
  1 ****  12 GROUP 4 **** **** 0

# MOE 2024.06 (io_trps.svl 2023.06)
