@<TRIPOS>MOLECULE
NONAME
38 40 1 0 0 
SMALL
USER_CHARGES


@<TRIPOS>ATOM
  1 O        1.4140    -0.1240     1.5240 O.3   1 <1>  -0.6800 
  2 C        1.5860    -0.1770     0.1420 C.3   1 <1>   0.2000 
  3 C        2.3570    -1.4400    -0.2530 C.3   1 <1>  -0.0800 
  4 C        2.4940     0.9760    -0.3090 C.3   1 <1>   0.2090 
  5 C        3.8270    -1.0420    -0.1410 C.3   1 <1>   0.2090 
  6 C        2.0170    -2.7220     0.5300 C.3   1 <1>   0.0210 
  7 N        3.8680     0.4080    -0.4500 N.pl3 1 <1>  -0.8380 
  8 C        2.8460    -3.8920     0.0390 C.2   1 <1>   0.1080 
  9 C        4.9970     1.2000    -0.3120 C.ar  1 <1>   0.4100 
 10 N        2.7390    -4.3720    -1.1610 N.2   1 <1>  -0.7070 
 11 C        3.8000    -4.5670     0.7920 C.2   1 <1>  -0.1500 
 12 N        4.8070     2.5110    -0.3780 N.ar  1 <1>  -0.6200 
 13 C        6.2600     0.6340    -0.1330 C.ar  1 <1>  -0.1500 
 14 N        3.6320    -5.3790    -1.2050 N.pl3 1 <1>   0.3000 
 15 C        4.2880    -5.5160    -0.0340 C.2   1 <1>  -0.3320 
 16 C        5.8770     3.2940    -0.2540 C.ar  1 <1>   0.3830 
 17 C        7.3690     1.4330    -0.0030 C.ar  1 <1>  -0.1500 
 18 C        5.3550    -6.5630     0.2270 C.3   1 <1>  -0.0600 
 19 C        5.6950     4.7210    -0.3170 C.1   1 <1>   0.4840 
 20 C        7.1590     2.7940    -0.0650 C.ar  1 <1>  -0.1500 
 21 N        5.6070     5.8600    -0.3600 N.1   1 <1>  -0.5570 
 22 H        0.7480    -0.7750     1.8120 H     1 <1>   0.4000 
 23 H        0.6160    -0.1180    -0.3200 H     1 <1>   0.0800 
 24 H        2.1660    -1.6240    -1.2960 H     1 <1>   0.0800 
 25 H        2.4700     1.7830     0.4040 H     1 <1>   0.0800 
 26 H        2.1780     1.3400    -1.2700 H     1 <1>   0.0800 
 27 H        4.4300    -1.6020    -0.8360 H     1 <1>   0.0800 
 28 H        4.1830    -1.1970     0.8640 H     1 <1>   0.0800 
 29 H        0.9780    -2.9620     0.3970 H     1 <1>   0.0800 
 30 H        2.2040    -2.5840     1.5790 H     1 <1>   0.0800 
 31 H        4.0700    -4.3580     1.8120 H     1 <1>   0.1500 
 32 H        6.3690    -0.4320    -0.0990 H     1 <1>   0.1500 
 33 H        3.7670    -5.9510    -2.0480 H     1 <1>   0.2700 
 34 H        8.3530     1.0180     0.1380 H     1 <1>   0.1500 
 35 H        5.7260    -6.4710     1.2320 H     1 <1>   0.0800 
 36 H        6.1770    -6.4350    -0.4540 H     1 <1>   0.0800 
 37 H        4.9460    -7.5500     0.1030 H     1 <1>   0.0800 
 38 H        7.9910     3.4690     0.0300 H     1 <1>   0.1500 
@<TRIPOS>BOND
  1   1   2  1   
  2   1  22  1   
  3   2   3  1   
  4   2   4  1   
  5   2  23  1   
  6   3   5  1   
  7   3   6  1   
  8   3  24  1   
  9   4   7  1   
 10   4  25  1   
 11   4  26  1   
 12   5   7  1   
 13   5  27  1   
 14   5  28  1   
 15   6   8  1   
 16   6  29  1   
 17   6  30  1   
 18   7   9  1   
 19   8  10  2   
 20   8  11  1   
 21   9  12  ar  
 22   9  13  ar  
 23  10  14  1   
 24  11  15  2   
 25  11  31  1   
 26  12  16  ar  
 27  13  17  ar  
 28  13  32  1   
 29  14  15  1   
 30  14  33  1   
 31  15  18  1   
 32  16  19  1   
 33  16  20  ar  
 34  17  20  ar  
 35  17  34  1   
 36  18  35  1   
 37  18  36  1   
 38  18  37  1   
 39  19  21  3   
 40  20  38  1   
@<TRIPOS>SUBSTRUCTURE
  1 ****   5 GROUP 4 **** **** 0

# MOE 2024.06 (io_trps.svl 2023.06)
