@<TRIPOS>MOLECULE
NONAME
53 55 1 0 0 
SMALL
USER_CHARGES


@<TRIPOS>ATOM
  1 O       -1.5850     2.0310    -1.4400 O.2   1 <1>  -0.5700 
  2 C       -1.5860     1.0050    -0.7940 C.2   1 <1>   0.5690 
  3 N       -2.6740     0.1600    -0.8000 N.am  1 <1>  -0.6600 
  4 C       -0.3080     0.7340     0.0320 C.3   1 <1>   0.4040 
  5 C       -2.7660    -1.1330    -0.0110 C.3   1 <1>   0.3640 
  6 C       -3.9110     0.5890    -1.5320 C.3   1 <1>   0.1400 
  7 N        0.5670     1.9500     0.2250 N.4   1 <1>  -0.9590 
  8 C       -1.4510    -1.9020    -0.1720 C.ar  1 <1>  -0.1440 
  9 C       -3.9570    -2.0780    -0.3780 C.3   1 <1>   0.2000 
 10 C       -4.7350    -0.5990    -2.0240 C.3   1 <1>   0.1200 
 11 C        1.9540     1.5890     0.6050 C.3   1 <1>   0.3430 
 12 C       -0.0360     2.9170     1.1740 C.3   1 <1>   0.3430 
 13 C       -0.7430    -2.3260     0.9450 C.ar  1 <1>  -0.1500 
 14 C       -0.9330    -2.1610    -1.4350 C.ar  1 <1>  -0.1500 
 15 O       -5.0480    -1.4010    -0.9360 O.3   1 <1>  -0.5600 
 16 C       -4.5190    -2.8250     0.8440 C.3   1 <1>   0.1200 
 17 C        2.9480     2.6660     0.1620 C.3   1 <1>  -0.1600 
 18 C        0.0810     4.3390     0.6270 C.3   1 <1>  -0.1600 
 19 C        0.4670    -2.9810     0.8030 C.ar  1 <1>  -0.1500 
 20 C        0.2780    -2.8160    -1.5780 C.ar  1 <1>  -0.1500 
 21 O       -3.5170    -3.4750     1.5560 O.3   1 <1>  -0.6800 
 22 C        2.6560     4.0990     0.6440 C.3   1 <1>  -0.1600 
 23 C        1.4210     4.7160    -0.0300 C.3   1 <1>  -0.1600 
 24 C        0.9800    -3.2230    -0.4580 C.ar  1 <1>  -0.1500 
 25 H        0.2520    -0.0220    -0.4900 H     1 <1>   0.0800 
 26 H       -0.5900     0.3340     0.9890 H     1 <1>   0.0800 
 27 H       -2.8850    -0.8650     1.0250 H     1 <1>   0.0800 
 28 H       -4.5200     1.1880    -0.8780 H     1 <1>   0.0800 
 29 H       -3.6490     1.1950    -2.3830 H     1 <1>   0.0800 
 30 H        0.5740     2.4280    -0.6920 H     1 <1>   0.4500 
 31 H       -3.6350    -2.8020    -1.1060 H     1 <1>   0.0800 
 32 H       -4.2000    -1.1770    -2.7580 H     1 <1>   0.0800 
 33 H       -5.6590    -0.2550    -2.4560 H     1 <1>   0.0800 
 34 H        2.0170     1.4520     1.6720 H     1 <1>   0.0800 
 35 H        2.2300     0.6580     0.1340 H     1 <1>   0.0800 
 36 H       -1.0800     2.6940     1.3280 H     1 <1>   0.0800 
 37 H        0.4660     2.8530     2.1260 H     1 <1>   0.0800 
 38 H       -1.1360    -2.1620     1.9360 H     1 <1>   0.1500 
 39 H       -1.4690    -1.8520    -2.3180 H     1 <1>   0.1500 
 40 H       -5.2450    -3.5580     0.5380 H     1 <1>   0.0800 
 41 H       -4.9860    -2.1250     1.5150 H     1 <1>   0.0800 
 42 H        3.9170     2.3810     0.5360 H     1 <1>   0.0800 
 43 H        3.0230     2.6550    -0.9110 H     1 <1>   0.0800 
 44 H       -0.7120     4.5040    -0.0830 H     1 <1>   0.0800 
 45 H       -0.1010     5.0120     1.4470 H     1 <1>   0.0800 
 46 H        1.0060    -3.3150     1.6740 H     1 <1>   0.1500 
 47 H        0.6720    -3.0150    -2.5610 H     1 <1>   0.1500 
 48 H       -3.2060    -4.2720     1.0790 H     1 <1>   0.4000 
 49 H        2.5650     4.1360     1.7170 H     1 <1>   0.0800 
 50 H        3.5080     4.7070     0.3830 H     1 <1>   0.0800 
 51 H        1.4070     4.4460    -1.0730 H     1 <1>   0.0800 
 52 H        1.5120     5.7900     0.0020 H     1 <1>   0.0800 
 53 H        1.9200    -3.7390    -0.5690 H     1 <1>   0.1500 
@<TRIPOS>BOND
  1   1   2  2   
  2   2   3  am  
  3   2   4  1   
  4   3   5  1   
  5   3   6  1   
  6   4   7  1   
  7   4  25  1   
  8   4  26  1   
  9   5   8  1   
 10   5   9  1   
 11   5  27  1   
 12   6  10  1   
 13   6  28  1   
 14   6  29  1   
 15   7  11  1   
 16   7  12  1   
 17   7  30  1   
 18   8  13  ar  
 19   8  14  ar  
 20   9  15  1   
 21   9  16  1   
 22   9  31  1   
 23  10  15  1   
 24  10  32  1   
 25  10  33  1   
 26  11  17  1   
 27  11  34  1   
 28  11  35  1   
 29  12  18  1   
 30  12  36  1   
 31  12  37  1   
 32  13  19  ar  
 33  13  38  1   
 34  14  20  ar  
 35  14  39  1   
 36  16  21  1   
 37  16  40  1   
 38  16  41  1   
 39  17  22  1   
 40  17  42  1   
 41  17  43  1   
 42  18  23  1   
 43  18  44  1   
 44  18  45  1   
 45  19  24  ar  
 46  19  46  1   
 47  20  24  ar  
 48  20  47  1   
 49  21  48  1   
 50  22  23  1   
 51  22  49  1   
 52  22  50  1   
 53  23  51  1   
 54  23  52  1   
 55  24  53  1   
@<TRIPOS>SUBSTRUCTURE
  1 ****   4 GROUP 4 **** **** 0

# MOE 2024.06 (io_trps.svl 2023.06)
