@<TRIPOS>MOLECULE
NONAME
45 47 1 0 0 
SMALL
USER_CHARGES


@<TRIPOS>ATOM
  1 N        0.2430     0.1370    -1.0590 N.ar  1 <1>  -0.6200 
  2 C        1.1240     0.6290    -0.1830 C.ar  1 <1>   0.6200 
  3 C        0.1170    -1.1630    -1.1160 C.ar  1 <1>   0.1600 
  4 N        1.8680    -0.1150     0.6400 N.ar  1 <1>  -0.6200 
  5 C        1.2620     2.0710    -0.1140 C.ar  1 <1>   0.0000 
  6 C        0.8360    -2.0030    -0.2980 C.ar  1 <1>  -0.1440 
  7 C        1.7240    -1.4130     0.5690 C.ar  1 <1>   0.1600 
  8 C        2.4420     2.7450    -0.4610 C.ar  1 <1>  -0.1440 
  9 C        0.1780     2.8390     0.3130 C.ar  1 <1>  -0.1500 
 10 C        0.6520    -3.5020    -0.3520 C.3   1 <1>   0.4870 
 11 C        2.5150     4.1250    -0.3630 C.ar  1 <1>  -0.1500 
 12 C        3.6640     1.9820    -0.9560 C.3   1 <1>  -0.0960 
 13 C        0.2540     4.2150     0.4070 C.ar  1 <1>  -0.1500 
 14 N       -0.1820    -3.9510     0.8090 N.4   1 <1>  -0.9590 
 15 C        1.4280     4.8610     0.0690 C.ar  1 <1>  -0.1500 
 16 C       -0.2220    -5.4510     0.9350 C.3   1 <1>   0.3430 
 17 C       -1.5540    -3.3420     0.7930 C.3   1 <1>   0.2630 
 18 C       -0.7650    -6.1730    -0.3100 C.3   1 <1>   0.0000 
 19 C       -2.3050    -6.1530    -0.5080 C.3   1 <1>   0.0000 
 20 C       -0.8940    -7.7070    -0.1090 C.3   1 <1>   0.0000 
 21 C       -2.1890    -7.6320    -0.9580 C.3   1 <1>   0.0000 
 22 H       -0.5840    -1.5540    -1.8350 H     1 <1>   0.1500 
 23 H        2.3370    -2.0070     1.2270 H     1 <1>   0.1500 
 24 H       -0.7410     2.3450     0.5750 H     1 <1>   0.1500 
 25 H        1.6180    -3.9800    -0.3190 H     1 <1>   0.0800 
 26 H        0.1730    -3.7750    -1.2780 H     1 <1>   0.0800 
 27 H        3.4220     4.6410    -0.6250 H     1 <1>   0.1500 
 28 H        3.3840     1.2950    -1.7340 H     1 <1>   0.0800 
 29 H        4.1050     1.4320    -0.1440 H     1 <1>   0.0800 
 30 H        4.4040     2.6530    -1.3530 H     1 <1>   0.0800 
 31 H       -0.5960     4.7840     0.7410 H     1 <1>   0.1500 
 32 H        0.2810    -3.5910     1.6570 H     1 <1>   0.4500 
 33 H        1.4950     5.9330     0.1410 H     1 <1>   0.1500 
 34 H       -0.8280    -5.7230     1.7850 H     1 <1>   0.0800 
 35 H        0.7750    -5.8160     1.1240 H     1 <1>   0.0800 
 36 H       -2.0730    -3.6000    -0.1150 H     1 <1>   0.0800 
 37 H       -1.4900    -2.2670     0.8560 H     1 <1>   0.0800 
 38 H       -2.1320    -3.6960     1.6320 H     1 <1>   0.0800 
 39 H       -0.2230    -5.9560    -1.2150 H     1 <1>   0.0000 
 40 H       -2.6370    -5.4890    -1.2860 H     1 <1>   0.0000 
 41 H       -2.8510    -6.0470     0.4150 H     1 <1>   0.0000 
 42 H       -1.0890    -7.9870     0.9130 H     1 <1>   0.0000 
 43 H       -0.1050    -8.2750    -0.5680 H     1 <1>   0.0000 
 44 H       -2.0000    -7.7310    -2.0140 H     1 <1>   0.0000 
 45 H       -2.9830    -8.2610    -0.5990 H     1 <1>   0.0000 
@<TRIPOS>BOND
  1   1   2  ar  
  2   1   3  ar  
  3   2   4  ar  
  4   2   5  1   
  5   3   6  ar  
  6   3  22  1   
  7   4   7  ar  
  8   5   8  ar  
  9   5   9  ar  
 10   6   7  ar  
 11   6  10  1   
 12   7  23  1   
 13   8  11  ar  
 14   8  12  1   
 15   9  13  ar  
 16   9  24  1   
 17  10  14  1   
 18  10  25  1   
 19  10  26  1   
 20  11  15  ar  
 21  11  27  1   
 22  12  28  1   
 23  12  29  1   
 24  12  30  1   
 25  13  15  ar  
 26  13  31  1   
 27  14  16  1   
 28  14  17  1   
 29  14  32  1   
 30  15  33  1   
 31  16  18  1   
 32  16  34  1   
 33  16  35  1   
 34  17  36  1   
 35  17  37  1   
 36  17  38  1   
 37  18  19  1   
 38  18  20  1   
 39  18  39  1   
 40  19  21  1   
 41  19  40  1   
 42  19  41  1   
 43  20  21  1   
 44  20  42  1   
 45  20  43  1   
 46  21  44  1   
 47  21  45  1   
@<TRIPOS>SUBSTRUCTURE
  1 ****   6 GROUP 4 **** **** 0

# MOE 2024.06 (io_trps.svl 2023.06)
