@<TRIPOS>MOLECULE
NONAME
52 54 1 0 0 
SMALL
USER_CHARGES


@<TRIPOS>ATOM
  1 F       -0.9810    -0.9420    -1.1460 F     1 <1>  -0.3400 
  2 C       -2.3100    -0.8990    -1.2430 C.3   1 <1>   0.9600 
  3 F       -2.7040    -2.1040    -0.8390 F     1 <1>  -0.3400 
  4 O       -2.8070     0.0110    -0.2700 O.3   1 <1>  -0.3630 
  5 C       -2.8170    -0.6470    -2.6960 C.3   1 <1>   0.6000 
  6 C       -2.4880     1.3250    -0.1210 C.ar  1 <1>   0.0830 
  7 F       -2.3470    -1.5460    -3.5630 F     1 <1>  -0.3400 
  8 F       -2.4210     0.5250    -3.1950 F     1 <1>  -0.3400 
  9 C       -3.3090     2.0780     0.7280 C.ar  1 <1>   0.0860 
 10 C       -1.4100     1.9350    -0.7610 C.ar  1 <1>  -0.1500 
 11 C       -4.4550     1.4990     1.3930 C.2   1 <1>   0.5440 
 12 C       -3.0140     3.4290     0.9130 C.ar  1 <1>  -0.1500 
 13 C       -1.1440     3.2770    -0.5650 C.ar  1 <1>  -0.1500 
 14 O       -4.2910     0.7830     2.3640 O.2   1 <1>  -0.5700 
 15 N       -5.7360     1.7670     0.9560 N.am  1 <1>  -0.6600 
 16 C       -1.9460     4.0270     0.2750 C.ar  1 <1>  -0.1500 
 17 C       -6.9290     1.3420     1.7460 C.3   1 <1>   0.1400 
 18 C       -6.0000     2.5700    -0.2740 C.3   1 <1>   0.1400 
 19 C       -7.9740     2.4610     1.7540 C.3   1 <1>  -0.1600 
 20 C       -7.4440     2.3900    -0.7430 C.3   1 <1>  -0.1600 
 21 C       -8.4480     2.8600     0.3330 C.3   1 <1>   0.2800 
 22 O       -8.3830     4.2710     0.2910 O.3   1 <1>  -0.5600 
 23 C       -9.9000     2.3450     0.0740 C.3   1 <1>   0.2000 
 24 C       -9.5380     5.0120     0.0190 C.3   1 <1>   0.1200 
 25 O       -9.9650     0.9480    -0.0080 O.3   1 <1>  -0.6800 
 26 C      -10.6070     3.0280    -1.1350 C.3   1 <1>   0.2800 
 27 C      -10.1680     4.4960    -1.2760 C.3   1 <1>  -0.1600 
 28 O      -11.9610     3.0270    -0.8520 O.3   1 <1>  -0.6800 
 29 C      -10.4830     2.2930    -2.4780 C.3   1 <1>  -0.2400 
 30 H       -3.8890    -0.6740    -2.7470 H     1 <1>   0.0800 
 31 H       -0.7530     1.3950    -1.4150 H     1 <1>   0.1500 
 32 H       -3.6390     4.0090     1.5710 H     1 <1>   0.1500 
 33 H       -0.3090     3.7400    -1.0640 H     1 <1>   0.1500 
 34 H       -1.7360     5.0710     0.4310 H     1 <1>   0.1500 
 35 H       -7.3450     0.4500     1.3080 H     1 <1>   0.0800 
 36 H       -6.6440     1.1140     2.7590 H     1 <1>   0.0800 
 37 H       -5.8220     3.6110    -0.0590 H     1 <1>   0.0800 
 38 H       -5.3280     2.2640    -1.0570 H     1 <1>   0.0800 
 39 H       -7.5380     3.3090     2.2510 H     1 <1>   0.0800 
 40 H       -8.8050     2.1350     2.3500 H     1 <1>   0.0800 
 41 H       -7.5970     1.3510    -0.9730 H     1 <1>   0.0800 
 42 H       -7.5910     2.9490    -1.6470 H     1 <1>   0.0800 
 43 H      -10.4670     2.6050     0.9510 H     1 <1>   0.0800 
 44 H      -10.2130     4.9260     0.8540 H     1 <1>   0.0800 
 45 H       -9.2450     6.0420    -0.0860 H     1 <1>   0.0800 
 46 H      -10.9040     0.6960    -0.1280 H     1 <1>   0.4000 
 47 H       -9.4260     4.5890    -2.0480 H     1 <1>   0.0800 
 48 H      -10.9980     5.1210    -1.5540 H     1 <1>   0.0800 
 49 H      -12.4560     3.3710    -1.6190 H     1 <1>   0.4000 
 50 H       -9.4510     2.1820    -2.7520 H     1 <1>   0.0800 
 51 H      -10.9740     2.8440    -3.2600 H     1 <1>   0.0800 
 52 H      -10.9150     1.3100    -2.4200 H     1 <1>   0.0800 
@<TRIPOS>BOND
  1   1   2  1   
  2   2   3  1   
  3   2   4  1   
  4   2   5  1   
  5   4   6  1   
  6   5   7  1   
  7   5   8  1   
  8   5  30  1   
  9   6   9  ar  
 10   6  10  ar  
 11   9  11  1   
 12   9  12  ar  
 13  10  13  ar  
 14  10  31  1   
 15  11  14  2   
 16  11  15  am  
 17  12  16  ar  
 18  12  32  1   
 19  13  16  ar  
 20  13  33  1   
 21  15  17  1   
 22  15  18  1   
 23  16  34  1   
 24  17  19  1   
 25  17  35  1   
 26  17  36  1   
 27  18  20  1   
 28  18  37  1   
 29  18  38  1   
 30  19  21  1   
 31  19  39  1   
 32  19  40  1   
 33  20  21  1   
 34  20  41  1   
 35  20  42  1   
 36  21  22  1   
 37  21  23  1   
 38  22  24  1   
 39  23  25  1   
 40  23  26  1   
 41  23  43  1   
 42  24  27  1   
 43  24  44  1   
 44  24  45  1   
 45  25  46  1   
 46  26  27  1   
 47  26  28  1   
 48  26  29  1   
 49  27  47  1   
 50  27  48  1   
 51  28  49  1   
 52  29  50  1   
 53  29  51  1   
 54  29  52  1   
@<TRIPOS>SUBSTRUCTURE
  1 ****  18 GROUP 4 **** **** 0

# MOE 2024.06 (io_trps.svl 2023.06)
