@<TRIPOS>MOLECULE
NONAME
57 59 1 0 0 
SMALL
USER_CHARGES


@<TRIPOS>ATOM
  1 O       -0.8170    -1.7570    -1.8220 O.2   1 <1>  -0.5700 
  2 C       -1.7080    -1.8470    -0.9880 C.2   1 <1>   0.5350 
  3 N       -2.1270    -3.0790    -0.5540 N.am  1 <1>  -0.6600 
  4 C       -2.3180    -0.8000    -0.2790 C.3   1 <1>  -0.7150 
  5 C       -3.0020    -2.8940     0.6270 C.3   1 <1>   0.2810 
  6 C       -1.3090    -4.3040    -0.6980 C.3   1 <1>   0.0600 
  7 C       -3.0870    -1.3790     0.7280 C.2   1 <1>   0.4140 
  8 C       -2.1780     0.5580    -0.6170 C.2   1 <1>   0.4140 
  9 C       -4.3830    -3.5140     0.3780 C.3   1 <1>   0.1200 
 10 O       -3.8000    -0.8550     1.5750 O.2   1 <1>  -0.5700 
 11 O       -2.1980     0.8880    -1.7960 O.2   1 <1>  -0.5700 
 12 C       -1.9760     1.7050     0.4220 C.3   1 <1>   0.0610 
 13 O       -5.2140    -3.2870     1.4710 O.3   1 <1>  -0.6800 
 14 C       -3.3710     2.2530     0.8690 C.3   1 <1>   0.1960 
 15 C       -1.1420     2.8810    -0.2050 C.3   1 <1>  -0.0800 
 16 C       -1.2040     1.1700     1.6630 C.3   1 <1>  -0.2400 
 17 C       -3.2970     3.6370     1.5070 C.2   1 <1>  -0.2880 
 18 C       -4.3970     2.3540    -0.2520 C.2   1 <1>  -0.2880 
 19 C       -0.9480     4.0890     0.7430 C.3   1 <1>   0.0580 
 20 C        0.2450     2.4910    -0.7720 C.3   1 <1>  -0.1600 
 21 C       -2.2370     4.4480     1.4570 C.2   1 <1>  -0.2880 
 22 C       -5.5640     1.7020    -0.2860 C.2   1 <1>  -0.2880 
 23 C       -0.3880     5.2860    -0.0400 C.3   1 <1>  -0.1600 
 24 C        0.8650     3.6690    -1.5420 C.3   1 <1>  -0.1600 
 25 C       -6.5640     1.7910    -1.4200 C.3   1 <1>  -0.1020 
 26 C        0.9690     4.9350    -0.6760 C.3   1 <1>  -0.0800 
 27 C        1.4940     6.1110    -1.5060 C.3   1 <1>  -0.2400 
 28 H       -2.5370    -3.3040     1.5030 H     1 <1>   0.0800 
 29 H       -1.9450    -5.1710    -0.6970 H     1 <1>   0.0800 
 30 H       -0.6060    -4.3660     0.1130 H     1 <1>   0.0800 
 31 H       -0.7680    -4.2680    -1.6280 H     1 <1>   0.0800 
 32 H       -4.3050    -4.5760     0.2330 H     1 <1>   0.0800 
 33 H       -4.8350    -3.0570    -0.4860 H     1 <1>   0.0800 
 34 H       -5.1250    -2.3330     1.7210 H     1 <1>   0.4000 
 35 H       -3.7660     1.5860     1.6110 H     1 <1>   0.0800 
 36 H       -1.7230     3.2370    -1.0390 H     1 <1>   0.0800 
 37 H       -1.0010     1.9470     2.3740 H     1 <1>   0.0800 
 38 H       -0.2790     0.7170     1.3580 H     1 <1>   0.0800 
 39 H       -1.7700     0.4230     2.1810 H     1 <1>   0.0800 
 40 H       -4.2130     3.8990     2.0060 H     1 <1>   0.1500 
 41 H       -4.0710     3.0070    -1.0420 H     1 <1>   0.1500 
 42 H       -0.2250     3.8370     1.4990 H     1 <1>   0.0800 
 43 H        0.9050     2.2000     0.0260 H     1 <1>   0.0800 
 44 H        0.1580     1.6530    -1.4410 H     1 <1>   0.0800 
 45 H       -2.2170     5.4150     1.9290 H     1 <1>   0.1500 
 46 H       -5.8730     1.0350     0.5030 H     1 <1>   0.1500 
 47 H       -1.0910     5.5650    -0.8060 H     1 <1>   0.0800 
 48 H       -0.2660     6.1230     0.6240 H     1 <1>   0.0800 
 49 H        0.2530     3.8710    -2.4050 H     1 <1>   0.0800 
 50 H        1.8410     3.3840    -1.8930 H     1 <1>   0.0800 
 51 H       -7.5060     2.1560    -1.0540 H     1 <1>   0.0800 
 52 H       -6.7050     0.8160    -1.8510 H     1 <1>   0.0800 
 53 H       -6.2030     2.4540    -2.1860 H     1 <1>   0.0800 
 54 H        1.6730     4.7410     0.1170 H     1 <1>   0.0800 
 55 H        0.8160     6.3360    -2.3110 H     1 <1>   0.0800 
 56 H        2.4550     5.8720    -1.9240 H     1 <1>   0.0800 
 57 H        1.5990     6.9860    -0.8900 H     1 <1>   0.0800 
@<TRIPOS>BOND
  1   1   2  2   
  2   2   3  am  
  3   2   4  1   
  4   3   5  1   
  5   3   6  1   
  6   4   7  1   
  7   4   8  1   
  8   5   7  1   
  9   5   9  1   
 10   5  28  1   
 11   6  29  1   
 12   6  30  1   
 13   6  31  1   
 14   7  10  2   
 15   8  11  2   
 16   8  12  1   
 17   9  13  1   
 18   9  32  1   
 19   9  33  1   
 20  12  14  1   
 21  12  15  1   
 22  12  16  1   
 23  13  34  1   
 24  14  17  1   
 25  14  18  1   
 26  14  35  1   
 27  15  19  1   
 28  15  20  1   
 29  15  36  1   
 30  16  37  1   
 31  16  38  1   
 32  16  39  1   
 33  17  21  2   
 34  17  40  1   
 35  18  22  2   
 36  18  41  1   
 37  19  21  1   
 38  19  23  1   
 39  19  42  1   
 40  20  24  1   
 41  20  43  1   
 42  20  44  1   
 43  21  45  1   
 44  22  25  1   
 45  22  46  1   
 46  23  26  1   
 47  23  47  1   
 48  23  48  1   
 49  24  26  1   
 50  24  49  1   
 51  24  50  1   
 52  25  51  1   
 53  25  52  1   
 54  25  53  1   
 55  26  27  1   
 56  26  54  1   
 57  27  55  1   
 58  27  56  1   
 59  27  57  1   
@<TRIPOS>SUBSTRUCTURE
  1 ****   8 GROUP 4 **** **** 0

# MOE 2024.06 (io_trps.svl 2023.06)
