@<TRIPOS>MOLECULE
NONAME
43 44 1 0 0 
SMALL
USER_CHARGES


@<TRIPOS>ATOM
  1 CL      -0.0450     0.5470    -0.1040 Cl    1 <1>  -0.1770 
  2 C       -1.7610     0.8570    -0.0910 C.ar  1 <1>   0.1770 
  3 C       -2.6450    -0.2030    -0.1460 C.ar  1 <1>  -0.1500 
  4 C       -2.2180     2.1580    -0.0280 C.ar  1 <1>  -0.1500 
  5 C       -4.0050     0.0480    -0.1380 C.ar  1 <1>  -0.1500 
  6 C       -3.5810     2.3960    -0.0190 C.ar  1 <1>  -0.1500 
  7 C       -4.5080     1.3510    -0.0720 C.ar  1 <1>   0.0530 
  8 C       -5.9260     1.6280    -0.0660 C.2   1 <1>   0.0870 
  9 O       -6.3660     2.8040    -0.4410 O.3   1 <1>  -0.0190 
 10 C       -7.0220     0.8910     0.2600 C.2   1 <1>  -0.0860 
 11 N       -7.6660     2.9080    -0.3850 N.2   1 <1>  -0.4100 
 12 C       -8.0850     1.7710     0.0430 C.2   1 <1>   0.3720 
 13 C       -7.1370    -0.4480     0.7450 C.2   1 <1>   0.7160 
 14 N       -9.4280     1.4670     0.2650 N.pl3 1 <1>  -0.8520 
 15 O       -6.5320    -0.7640     1.7520 O.2   1 <1>  -0.5700 
 16 N       -7.9140    -1.3960     0.1030 N.am  1 <1>  -0.6600 
 17 C      -10.3410     2.5960     0.5990 C.3   1 <1>   0.2090 
 18 C       -8.2000    -2.7190     0.7180 C.3   1 <1>   0.1400 
 19 C       -8.4740    -1.2000    -1.2670 C.3   1 <1>   0.0600 
 20 C      -11.7960     2.1430     0.4870 C.3   1 <1>   0.1200 
 21 C       -9.5900    -2.6940     1.3470 C.3   1 <1>  -0.2400 
 22 O      -12.6240     3.1770     0.9180 O.3   1 <1>  -0.5600 
 23 C      -13.9820     2.8940     0.8180 C.3   1 <1>   0.0400 
 24 H       -2.2690    -1.2090    -0.1930 H     1 <1>   0.1500 
 25 H       -1.5140     2.9690     0.0140 H     1 <1>   0.1500 
 26 H       -4.6800    -0.7870    -0.1840 H     1 <1>   0.1500 
 27 H       -3.9330     3.4120     0.0330 H     1 <1>   0.1500 
 28 H       -9.5330     0.6900     0.9250 H     1 <1>   0.4000 
 29 H      -10.1790     3.4140    -0.0820 H     1 <1>   0.0800 
 30 H      -10.1410     2.9310     1.6020 H     1 <1>   0.0800 
 31 H       -7.4680    -2.9490     1.4750 H     1 <1>   0.0800 
 32 H       -8.1450    -3.4890    -0.0320 H     1 <1>   0.0800 
 33 H       -7.9940    -0.3780    -1.7690 H     1 <1>   0.0800 
 34 H       -9.5290    -0.9940    -1.2040 H     1 <1>   0.0800 
 35 H       -8.3250    -2.0870    -1.8570 H     1 <1>   0.0800 
 36 H      -11.9710     1.2850     1.1120 H     1 <1>   0.0800 
 37 H      -12.0310     1.9150    -0.5390 H     1 <1>   0.0800 
 38 H       -9.6360    -1.9380     2.1100 H     1 <1>   0.0800 
 39 H       -9.7960    -3.6460     1.8020 H     1 <1>   0.0800 
 40 H      -10.3420    -2.5040     0.6020 H     1 <1>   0.0800 
 41 H      -14.5290     3.7480     1.1750 H     1 <1>   0.0800 
 42 H      -14.2130     2.0360     1.4250 H     1 <1>   0.0800 
 43 H      -14.2320     2.7090    -0.2130 H     1 <1>   0.0800 
@<TRIPOS>BOND
  1   1   2  1   
  2   2   3  ar  
  3   2   4  ar  
  4   3   5  ar  
  5   3  24  1   
  6   4   6  ar  
  7   4  25  1   
  8   5   7  ar  
  9   5  26  1   
 10   6   7  ar  
 11   6  27  1   
 12   7   8  1   
 13   8   9  1   
 14   8  10  2   
 15   9  11  1   
 16  10  12  1   
 17  10  13  1   
 18  11  12  2   
 19  12  14  1   
 20  13  15  2   
 21  13  16  am  
 22  14  17  1   
 23  14  28  1   
 24  16  18  1   
 25  16  19  1   
 26  17  20  1   
 27  17  29  1   
 28  17  30  1   
 29  18  21  1   
 30  18  31  1   
 31  18  32  1   
 32  19  33  1   
 33  19  34  1   
 34  19  35  1   
 35  20  22  1   
 36  20  36  1   
 37  20  37  1   
 38  21  38  1   
 39  21  39  1   
 40  21  40  1   
 41  22  23  1   
 42  23  41  1   
 43  23  42  1   
 44  23  43  1   
@<TRIPOS>SUBSTRUCTURE
  1 ****  10 GROUP 4 **** **** 0

# MOE 2024.06 (io_trps.svl 2023.06)
