@<TRIPOS>MOLECULE
NONAME
50 52 1 0 0 
SMALL
USER_CHARGES


@<TRIPOS>ATOM
  1 O       -1.1720     0.3810    -1.1720 O.2   1 <1>  -0.5700 
  2 C       -2.2120     0.9620    -0.9640 C.2   1 <1>   0.5690 
  3 N       -3.4190     0.3180    -1.0680 N.am  1 <1>  -0.6600 
  4 C       -2.1520     2.4380    -0.5920 C.3   1 <1>  -0.0990 
  5 C       -3.4770    -1.1240    -1.4720 C.3   1 <1>   0.3210 
  6 C       -4.7500     0.9830    -0.8510 C.3   1 <1>   0.1400 
  7 C       -0.7310     2.9380    -0.2640 C.3   1 <1>  -0.0170 
  8 C       -4.0430    -1.9910    -0.3530 C.2   1 <1>   0.0460 
  9 C       -5.3200     0.7850     0.5680 C.3   1 <1>   0.1200 
 10 C       -0.6460     4.4160     0.1270 C.ar  1 <1>   0.1660 
 11 N       -5.3040    -2.4690    -0.4220 N.2   1 <1>  -0.5650 
 12 C       -3.4420    -2.3800     0.7960 C.2   1 <1>  -0.3320 
 13 O       -4.3000     0.7090     1.5040 O.3   1 <1>  -0.6800 
 14 N       -1.6630     5.1860    -0.1240 N.ar  1 <1>  -0.6200 
 15 C        0.5560     4.8850     0.7400 C.ar  1 <1>   0.3930 
 16 C       -5.4430    -3.1340     0.6780 C.2   1 <1>   0.0360 
 17 N       -4.3480    -3.1170     1.4640 N.pl3 1 <1>   0.0330 
 18 C       -2.0460    -2.1040     1.3310 C.3   1 <1>  -0.0600 
 19 C       -1.4990     6.4810     0.2520 C.ar  1 <1>   0.3100 
 20 O        1.5510     3.9910     0.9360 O.3   1 <1>  -0.3630 
 21 N        0.7450     6.1200     1.1140 N.ar  1 <1>  -0.6200 
 22 C       -0.3060     6.9390     0.8650 C.ar  1 <1>   0.3100 
 23 C       -2.5380     7.3960     0.0300 C.ar  1 <1>  -0.1500 
 24 C        2.7770     4.3660     1.5320 C.3   1 <1>   0.0400 
 25 C       -0.2130     8.2930     1.2260 C.ar  1 <1>  -0.1500 
 26 C       -2.4200     8.7140     0.3920 C.ar  1 <1>  -0.1500 
 27 C       -1.2450     9.1670     0.9970 C.ar  1 <1>  -0.1500 
 28 H       -2.7750     2.6100     0.2660 H     1 <1>   0.0800 
 29 H       -2.5420     3.0060    -1.4160 H     1 <1>   0.0800 
 30 H       -2.4980    -1.4910    -1.7250 H     1 <1>   0.0800 
 31 H       -4.0940    -1.2260    -2.3460 H     1 <1>   0.0800 
 32 H       -5.4600     0.6000    -1.5630 H     1 <1>   0.0800 
 33 H       -4.6680     2.0380    -1.0390 H     1 <1>   0.0800 
 34 H       -0.0950     2.7810    -1.1170 H     1 <1>   0.0800 
 35 H       -0.3470     2.3400     0.5440 H     1 <1>   0.0800 
 36 H       -5.8850    -0.1280     0.6200 H     1 <1>   0.0800 
 37 H       -5.9670     1.6020     0.8350 H     1 <1>   0.0800 
 38 H       -3.6940    -0.0070     1.2130 H     1 <1>   0.4000 
 39 H       -6.3400    -3.6570     0.9590 H     1 <1>   0.1500 
 40 H       -4.2360    -3.5710     2.3750 H     1 <1>   0.2700 
 41 H       -1.4740    -1.5350     0.6210 H     1 <1>   0.0800 
 42 H       -1.5290    -3.0280     1.5150 H     1 <1>   0.0800 
 43 H       -2.1020    -1.5450     2.2490 H     1 <1>   0.0800 
 44 H       -3.4340     7.0290    -0.4360 H     1 <1>   0.1500 
 45 H        3.4080     3.4970     1.5840 H     1 <1>   0.0800 
 46 H        2.5820     4.7430     2.5210 H     1 <1>   0.0800 
 47 H        3.2400     5.1240     0.9260 H     1 <1>   0.0800 
 48 H        0.6980     8.6240     1.6890 H     1 <1>   0.1500 
 49 H       -3.2250     9.4090     0.2170 H     1 <1>   0.1500 
 50 H       -1.1610    10.2030     1.2770 H     1 <1>   0.1500 
@<TRIPOS>BOND
  1   1   2  2   
  2   2   3  am  
  3   2   4  1   
  4   3   5  1   
  5   3   6  1   
  6   4   7  1   
  7   4  28  1   
  8   4  29  1   
  9   5   8  1   
 10   5  30  1   
 11   5  31  1   
 12   6   9  1   
 13   6  32  1   
 14   6  33  1   
 15   7  10  1   
 16   7  34  1   
 17   7  35  1   
 18   8  11  1   
 19   8  12  2   
 20   9  13  1   
 21   9  36  1   
 22   9  37  1   
 23  10  14  ar  
 24  10  15  ar  
 25  11  16  2   
 26  12  17  1   
 27  12  18  1   
 28  13  38  1   
 29  14  19  ar  
 30  15  20  1   
 31  15  21  ar  
 32  16  17  1   
 33  16  39  1   
 34  17  40  1   
 35  18  41  1   
 36  18  42  1   
 37  18  43  1   
 38  19  22  ar  
 39  19  23  ar  
 40  20  24  1   
 41  21  22  ar  
 42  22  25  ar  
 43  23  26  ar  
 44  23  44  1   
 45  24  45  1   
 46  24  46  1   
 47  24  47  1   
 48  25  27  ar  
 49  25  48  1   
 50  26  27  ar  
 51  26  49  1   
 52  27  50  1   
@<TRIPOS>SUBSTRUCTURE
  1 ****   4 GROUP 4 **** **** 0

# MOE 2024.06 (io_trps.svl 2023.06)
