@<TRIPOS>MOLECULE
NONAME
48 50 1 0 0 
SMALL
USER_CHARGES


@<TRIPOS>ATOM
  1 O       -0.3200     0.1660     0.5970 O.2   1 <1>  -0.5700 
  2 C       -0.4740    -0.9510     0.1600 C.2   1 <1>   0.5690 
  3 N        0.5760    -1.6820    -0.3490 N.am  1 <1>  -0.6600 
  4 C       -1.8980    -1.5270     0.1740 C.3   1 <1>   0.2010 
  5 C        0.3930    -3.0610    -0.8910 C.3   1 <1>   0.1400 
  6 C        1.9720    -1.1710    -0.3070 C.3   1 <1>   0.1400 
  7 N       -2.0030    -2.9660    -0.2670 N.am  1 <1>  -0.6600 
  8 C       -1.0490    -3.3070    -1.3600 C.3   1 <1>   0.1400 
  9 C        2.7170    -1.7880     0.8800 C.3   1 <1>  -0.1600 
 10 C       -2.7520    -3.8740     0.4480 C.2   1 <1>   0.5690 
 11 C        4.1530    -1.2630     0.9710 C.3   1 <1>  -0.2400 
 12 O       -3.3960    -3.5110     1.4080 O.2   1 <1>  -0.5700 
 13 C       -2.7880    -5.3620     0.0490 C.3   1 <1>   0.2610 
 14 O       -1.5150    -5.9620     0.2620 O.3   1 <1>  -0.5600 
 15 C       -3.9200    -6.1370     0.7790 C.3   1 <1>   0.3640 
 16 C       -1.4090    -7.3040    -0.1610 C.3   1 <1>   0.1810 
 17 N       -3.7000    -7.6040     0.7510 N.am  1 <1>  -0.7300 
 18 C       -5.2740    -5.8430     0.1350 C.ar  1 <1>  -0.1440 
 19 C       -2.5550    -8.1860     0.3380 C.2   1 <1>   0.5690 
 20 C       -5.6580    -6.4520    -1.0540 C.ar  1 <1>  -0.1500 
 21 C       -6.1430    -4.9440     0.7380 C.ar  1 <1>  -0.1500 
 22 O       -2.4410    -9.3850     0.3290 O.2   1 <1>  -0.5700 
 23 C       -6.8850    -6.1670    -1.6270 C.ar  1 <1>  -0.1500 
 24 C       -7.3700    -4.6570     0.1660 C.ar  1 <1>  -0.1500 
 25 C       -7.7420    -5.2680    -1.0180 C.ar  1 <1>  -0.1500 
 26 H       -2.5060    -0.9230    -0.4730 H     1 <1>   0.0800 
 27 H       -2.2790    -1.4140     1.1730 H     1 <1>   0.0800 
 28 H        1.0600    -3.2120    -1.7220 H     1 <1>   0.0800 
 29 H        0.6410    -3.7760    -0.1260 H     1 <1>   0.0800 
 30 H        2.4730    -1.4120    -1.2290 H     1 <1>   0.0800 
 31 H        1.9650    -0.0980    -0.2070 H     1 <1>   0.0800 
 32 H       -1.1490    -4.3310    -1.6670 H     1 <1>   0.0800 
 33 H       -1.2550    -2.6880    -2.2150 H     1 <1>   0.0800 
 34 H        2.1940    -1.5390     1.7880 H     1 <1>   0.0800 
 35 H        2.7410    -2.8590     0.7810 H     1 <1>   0.0800 
 36 H        4.1530    -0.1940     1.0950 H     1 <1>   0.0800 
 37 H        4.7040    -1.5090     0.0800 H     1 <1>   0.0800 
 38 H        4.6530    -1.7040     1.8150 H     1 <1>   0.0800 
 39 H       -2.9870    -5.4050    -1.0060 H     1 <1>   0.0800 
 40 H       -3.9450    -5.8360     1.8120 H     1 <1>   0.0800 
 41 H       -1.3880    -7.3220    -1.2350 H     1 <1>   0.0800 
 42 H       -0.4780    -7.6910     0.2110 H     1 <1>   0.0800 
 43 H       -4.4700    -8.1950     1.0690 H     1 <1>   0.3700 
 44 H       -5.0070    -7.1570    -1.5430 H     1 <1>   0.1500 
 45 H       -5.8670    -4.4540     1.6570 H     1 <1>   0.1500 
 46 H       -7.1750    -6.6450    -2.5470 H     1 <1>   0.1500 
 47 H       -8.0330    -3.9570     0.6420 H     1 <1>   0.1500 
 48 H       -8.6960    -5.0450    -1.4630 H     1 <1>   0.1500 
@<TRIPOS>BOND
  1   1   2  2   
  2   2   3  am  
  3   2   4  1   
  4   3   5  1   
  5   3   6  1   
  6   4   7  1   
  7   4  26  1   
  8   4  27  1   
  9   5   8  1   
 10   5  28  1   
 11   5  29  1   
 12   6   9  1   
 13   6  30  1   
 14   6  31  1   
 15   7   8  1   
 16   7  10  am  
 17   8  32  1   
 18   8  33  1   
 19   9  11  1   
 20   9  34  1   
 21   9  35  1   
 22  10  12  2   
 23  10  13  1   
 24  11  36  1   
 25  11  37  1   
 26  11  38  1   
 27  13  14  1   
 28  13  15  1   
 29  13  39  1   
 30  14  16  1   
 31  15  17  1   
 32  15  18  1   
 33  15  40  1   
 34  16  19  1   
 35  16  41  1   
 36  16  42  1   
 37  17  19  am  
 38  17  43  1   
 39  18  20  ar  
 40  18  21  ar  
 41  19  22  2   
 42  20  23  ar  
 43  20  44  1   
 44  21  24  ar  
 45  21  45  1   
 46  23  25  ar  
 47  23  46  1   
 48  24  25  ar  
 49  24  47  1   
 50  25  48  1   
@<TRIPOS>SUBSTRUCTURE
  1 ****  10 GROUP 4 **** **** 0

# MOE 2024.06 (io_trps.svl 2023.06)
