@<TRIPOS>MOLECULE
NONAME
39 41 1 0 0 
SMALL
USER_CHARGES


@<TRIPOS>ATOM
  1 F       -0.2090    -1.0230    -2.7010 F     1 <1>  -0.1900 
  2 C       -0.8900    -1.3300    -1.6290 C.ar  1 <1>   0.1900 
  3 C       -1.1450    -0.3540    -0.6810 C.ar  1 <1>   0.1600 
  4 C       -1.3410    -2.6180    -1.4700 C.ar  1 <1>  -0.1500 
  5 N       -1.8270    -0.5840     0.4350 N.ar  1 <1>  -0.6200 
  6 C       -2.0650    -2.8830    -0.3150 C.ar  1 <1>   0.0860 
  7 C       -2.2530    -1.8330     0.5870 C.ar  1 <1>   0.1600 
  8 C       -2.6030    -4.1950    -0.0400 C.2   1 <1>   0.5440 
  9 O       -1.8430    -5.1430    -0.0200 O.2   1 <1>  -0.5700 
 10 N       -3.9480    -4.4070     0.1970 N.am  1 <1>  -0.6600 
 11 C       -4.9960    -3.4400    -0.2530 C.3   1 <1>   0.2200 
 12 C       -4.3890    -5.7290     0.7440 C.3   1 <1>   0.0600 
 13 C       -6.0630    -4.0590    -1.1530 C.3   1 <1>  -0.1600 
 14 C       -5.7790    -2.8300     0.9070 C.3   1 <1>  -0.1600 
 15 C       -7.2370    -3.0750    -1.0820 C.3   1 <1>  -0.0800 
 16 C       -7.1040    -2.3590     0.2860 C.3   1 <1>  -0.0800 
 17 C       -8.5980    -3.7450    -1.3670 C.3   1 <1>   0.1400 
 18 C       -8.3110    -2.5630     1.2220 C.3   1 <1>  -0.0990 
 19 N       -9.6890    -2.9540    -0.7640 N.am  1 <1>  -0.7300 
 20 C       -9.6070    -2.3920     0.4590 C.2   1 <1>   0.5690 
 21 O      -10.5290    -1.7860     0.9390 O.2   1 <1>  -0.5700 
 22 H       -0.7730     0.6420    -0.8480 H     1 <1>   0.1500 
 23 H       -1.1430    -3.3850    -2.1980 H     1 <1>   0.1500 
 24 H       -2.7930    -2.0500     1.4930 H     1 <1>   0.1500 
 25 H       -4.5440    -2.6350    -0.8070 H     1 <1>   0.0800 
 26 H       -5.3020    -5.6320     1.3030 H     1 <1>   0.0800 
 27 H       -3.6330    -6.1290     1.3980 H     1 <1>   0.0800 
 28 H       -4.5390    -6.4210    -0.0660 H     1 <1>   0.0800 
 29 H       -5.7050    -4.1810    -2.1600 H     1 <1>   0.0800 
 30 H       -6.3790    -5.0110    -0.7670 H     1 <1>   0.0800 
 31 H       -5.9680    -3.5730     1.6600 H     1 <1>   0.0800 
 32 H       -5.2480    -2.0080     1.3500 H     1 <1>   0.0800 
 33 H       -7.0820    -2.3300    -1.8450 H     1 <1>   0.0800 
 34 H       -7.0280    -1.3030     0.0850 H     1 <1>   0.0800 
 35 H       -8.6260    -4.7330    -0.9400 H     1 <1>   0.0800 
 36 H       -8.7500    -3.8300    -2.4300 H     1 <1>   0.0800 
 37 H       -8.2760    -1.8570     2.0320 H     1 <1>   0.0800 
 38 H       -8.3060    -3.5540     1.6360 H     1 <1>   0.0800 
 39 H      -10.5790    -2.8730    -1.2620 H     1 <1>   0.3700 
@<TRIPOS>BOND
  1   1   2  1   
  2   2   3  ar  
  3   2   4  ar  
  4   3   5  ar  
  5   3  22  1   
  6   4   6  ar  
  7   4  23  1   
  8   5   7  ar  
  9   6   7  ar  
 10   6   8  1   
 11   7  24  1   
 12   8   9  2   
 13   8  10  am  
 14  10  11  1   
 15  10  12  1   
 16  11  13  1   
 17  11  14  1   
 18  11  25  1   
 19  12  26  1   
 20  12  27  1   
 21  12  28  1   
 22  13  15  1   
 23  13  29  1   
 24  13  30  1   
 25  14  16  1   
 26  14  31  1   
 27  14  32  1   
 28  15  16  1   
 29  15  17  1   
 30  15  33  1   
 31  16  18  1   
 32  16  34  1   
 33  17  19  1   
 34  17  35  1   
 35  17  36  1   
 36  18  20  1   
 37  18  37  1   
 38  18  38  1   
 39  19  20  am  
 40  19  39  1   
 41  20  21  2   
@<TRIPOS>SUBSTRUCTURE
  1 ****  11 GROUP 4 **** **** 0

# MOE 2024.06 (io_trps.svl 2023.06)
