@<TRIPOS>MOLECULE
NONAME
52 54 1 0 0 
SMALL
USER_CHARGES


@<TRIPOS>ATOM
  1 O       -1.9470     1.9220    -3.4060 O.2   1 <1>  -0.5700 
  2 C       -2.7590     2.2930    -2.5920 C.2   1 <1>   0.5690 
  3 N       -3.6210     1.4230    -1.9840 N.am  1 <1>  -0.6600 
  4 C       -2.6510     3.7200    -2.1280 C.3   1 <1>  -0.0380 
  5 C       -4.7810     1.7880    -1.1190 C.3   1 <1>   0.1400 
  6 C       -3.0770     0.1490    -1.4660 C.3   1 <1>   0.1400 
  7 C       -1.9690     3.6210    -0.7910 C.2   1 <1>   0.5690 
  8 C       -4.5360     1.0830     0.2190 C.3   1 <1>   0.2000 
  9 C       -3.2300     0.3040     0.0460 C.3   1 <1>  -0.0800 
 10 O       -2.6020     3.8950     0.2010 O.2   1 <1>  -0.5700 
 11 N       -0.6920     3.1350    -0.7840 N.am  1 <1>  -0.5470 
 12 O       -4.3880     2.0080     1.2400 O.3   1 <1>  -0.6800 
 13 C       -3.1880    -1.0170     0.8220 C.3   1 <1>  -0.0170 
 14 C        0.1650     2.7240     0.2510 C.ar  1 <1>   0.1170 
 15 C       -1.7940    -1.6180     0.7490 C.ar  1 <1>  -0.1430 
 16 C        1.1910     1.8140    -0.0320 C.ar  1 <1>  -0.1430 
 17 C        0.0300     3.2160     1.5430 C.ar  1 <1>  -0.1500 
 18 C       -1.4850    -2.7010    -0.0470 C.ar  1 <1>  -0.1500 
 19 C       -0.7550    -1.0870     1.4860 C.ar  1 <1>  -0.1500 
 20 C        2.0860     1.4450     0.9710 C.ar  1 <1>  -0.1430 
 21 C        1.3060     1.2390    -1.4480 C.3   1 <1>  -0.0970 
 22 C        0.9010     2.8280     2.5410 C.ar  1 <1>  -0.1500 
 23 C       -0.1870    -3.1850    -0.0680 C.ar  1 <1>   0.1600 
 24 C        0.5050    -1.6490     1.3970 C.ar  1 <1>   0.1600 
 25 C        1.9270     1.9500     2.2520 C.ar  1 <1>  -0.1500 
 26 C        3.2630     0.5080     0.7170 C.3   1 <1>  -0.0970 
 27 N        0.8180    -2.6850     0.6340 N.ar  1 <1>  -0.6200 
 28 H       -2.0440     4.2870    -2.8070 H     1 <1>   0.0800 
 29 H       -3.6110     4.1890    -2.0500 H     1 <1>   0.0800 
 30 H       -4.8900     2.8490    -0.9860 H     1 <1>   0.0800 
 31 H       -5.6780     1.4010    -1.5690 H     1 <1>   0.0800 
 32 H       -3.6670    -0.6700    -1.8400 H     1 <1>   0.0800 
 33 H       -2.0450     0.0060    -1.7430 H     1 <1>   0.0800 
 34 H       -5.3650     0.4410     0.4650 H     1 <1>   0.0800 
 35 H       -2.4130     0.9220     0.3810 H     1 <1>   0.0800 
 36 H       -0.3520     2.8580    -1.7070 H     1 <1>   0.3700 
 37 H       -3.6960     2.6780     1.0040 H     1 <1>   0.4000 
 38 H       -3.9170    -1.7060     0.4330 H     1 <1>   0.0800 
 39 H       -3.4310    -0.8280     1.8540 H     1 <1>   0.0800 
 40 H       -0.7510     3.9150     1.7780 H     1 <1>   0.1500 
 41 H       -2.2370    -3.1740    -0.6520 H     1 <1>   0.1500 
 42 H       -0.9100    -0.2360     2.1270 H     1 <1>   0.1500 
 43 H        1.9600     0.3900    -1.5000 H     1 <1>   0.0800 
 44 H        1.6800     1.9910    -2.1190 H     1 <1>   0.0800 
 45 H        0.3450     0.9040    -1.7960 H     1 <1>   0.0800 
 46 H        0.7840     3.2150     3.5380 H     1 <1>   0.1500 
 47 H        0.0370    -4.0300    -0.6960 H     1 <1>   0.1500 
 48 H        1.2950    -1.2190     1.9880 H     1 <1>   0.1500 
 49 H        2.6070     1.6680     3.0380 H     1 <1>   0.1500 
 50 H        3.8580     0.3800     1.6030 H     1 <1>   0.0800 
 51 H        3.8940     0.9160    -0.0520 H     1 <1>   0.0800 
 52 H        2.9160    -0.4600     0.4050 H     1 <1>   0.0800 
@<TRIPOS>BOND
  1   1   2  2   
  2   2   3  am  
  3   2   4  1   
  4   3   5  1   
  5   3   6  1   
  6   4   7  1   
  7   4  28  1   
  8   4  29  1   
  9   5   8  1   
 10   5  30  1   
 11   5  31  1   
 12   6   9  1   
 13   6  32  1   
 14   6  33  1   
 15   7  10  2   
 16   7  11  am  
 17   8   9  1   
 18   8  12  1   
 19   8  34  1   
 20   9  13  1   
 21   9  35  1   
 22  11  14  1   
 23  11  36  1   
 24  12  37  1   
 25  13  15  1   
 26  13  38  1   
 27  13  39  1   
 28  14  16  ar  
 29  14  17  ar  
 30  15  18  ar  
 31  15  19  ar  
 32  16  20  ar  
 33  16  21  1   
 34  17  22  ar  
 35  17  40  1   
 36  18  23  ar  
 37  18  41  1   
 38  19  24  ar  
 39  19  42  1   
 40  20  25  ar  
 41  20  26  1   
 42  21  43  1   
 43  21  44  1   
 44  21  45  1   
 45  22  25  ar  
 46  22  46  1   
 47  23  27  ar  
 48  23  47  1   
 49  24  27  ar  
 50  24  48  1   
 51  25  49  1   
 52  26  50  1   
 53  26  51  1   
 54  26  52  1   
@<TRIPOS>SUBSTRUCTURE
  1 ****   9 GROUP 4 **** **** 0

# MOE 2024.06 (io_trps.svl 2023.06)
