@<TRIPOS>MOLECULE
NONAME
55 59 1 0 0 
SMALL
USER_CHARGES


@<TRIPOS>ATOM
  1 O       -0.7830     0.1500     1.3350 O.2   1 <1>  -0.5700 
  2 C       -1.7830     0.8410     1.3000 C.2   1 <1>   0.7150 
  3 N       -2.9920     0.3000     1.6770 N.am  1 <1>  -0.6600 
  4 C       -1.6900     2.2100     0.8690 C.2   1 <1>  -0.2370 
  5 C       -3.0600    -0.9390     2.5010 C.3   1 <1>   0.1400 
  6 C       -4.2740     0.6560     1.0120 C.3   1 <1>   0.1400 
  7 N       -2.4030     3.2220     1.4650 N.pl3 1 <1>   0.0330 
  8 C       -0.9270     2.7680    -0.1160 C.2   1 <1>  -0.1500 
  9 C       -3.5000    -2.1120     1.6230 C.3   1 <1>  -0.1600 
 10 C       -4.7180    -0.5060     0.1200 C.3   1 <1>  -0.1600 
 11 C       -2.1100     4.4060     0.8450 C.ar  1 <1>  -0.1520 
 12 C       -1.1810     4.1510    -0.1560 C.ar  1 <1>   0.0000 
 13 C       -4.8250    -1.8250     0.9030 C.3   1 <1>   0.4240 
 14 C       -2.5790     5.7020     1.0730 C.ar  1 <1>  -0.1500 
 15 C       -0.7090     5.2050    -0.9470 C.ar  1 <1>  -0.1500 
 16 O       -5.7750    -1.6450     1.9290 O.3   1 <1>  -0.5600 
 17 C       -5.1970    -3.0000    -0.0280 C.ar  1 <1>  -0.1430 
 18 C       -2.1070     6.7270     0.2860 C.ar  1 <1>  -0.1500 
 19 C       -1.1690     6.4830    -0.7280 C.ar  1 <1>  -0.1430 
 20 C       -7.1180    -1.8270     1.6030 C.3   1 <1>   0.1200 
 21 C       -6.3910    -3.6970     0.1340 C.ar  1 <1>  -0.1430 
 22 C       -4.3420    -3.3810    -1.0560 C.ar  1 <1>  -0.1500 
 23 C       -0.6780     7.6480    -1.5690 C.3   1 <1>  -0.0970 
 24 C       -7.3430    -3.2920     1.2400 C.3   1 <1>  -0.0170 
 25 C       -6.7140    -4.7520    -0.7050 C.ar  1 <1>  -0.1500 
 26 C       -4.6650    -4.4310    -1.8960 C.ar  1 <1>  -0.1500 
 27 C       -5.8490    -5.1250    -1.7280 C.ar  1 <1>   0.0830 
 28 O       -6.0900    -6.1430    -2.5920 O.3   1 <1>  -0.3630 
 29 C       -7.2580    -6.9270    -2.4940 C.3   1 <1>   0.0400 
 30 H       -3.7670    -0.7930     3.3000 H     1 <1>   0.0800 
 31 H       -2.1000    -1.1520     2.9410 H     1 <1>   0.0800 
 32 H       -4.1620     1.5380     0.4050 H     1 <1>   0.0800 
 33 H       -5.0210     0.8520     1.7620 H     1 <1>   0.0800 
 34 H       -3.0270     3.1070     2.2690 H     1 <1>   0.2700 
 35 H       -0.2370     2.2580    -0.7650 H     1 <1>   0.1500 
 36 H       -3.6100    -2.9970     2.2230 H     1 <1>   0.0800 
 37 H       -2.7200    -2.3020     0.9100 H     1 <1>   0.0800 
 38 H       -3.9970    -0.6150    -0.6690 H     1 <1>   0.0800 
 39 H       -5.6580    -0.2760    -0.3450 H     1 <1>   0.0800 
 40 H       -3.2950     5.8870     1.8520 H     1 <1>   0.1500 
 41 H        0.0100     4.9880    -1.7150 H     1 <1>   0.1500 
 42 H       -2.4560     7.7310     0.4470 H     1 <1>   0.1500 
 43 H       -7.3760    -1.1810     0.7830 H     1 <1>   0.0800 
 44 H       -7.7050    -1.5590     2.4630 H     1 <1>   0.0800 
 45 H       -3.4120    -2.8640    -1.2160 H     1 <1>   0.1500 
 46 H        0.0330     7.3160    -2.3040 H     1 <1>   0.0800 
 47 H       -0.2030     8.3780    -0.9380 H     1 <1>   0.0800 
 48 H       -1.5060     8.1080    -2.0750 H     1 <1>   0.0800 
 49 H       -8.3620    -3.4240     0.9230 H     1 <1>   0.0800 
 50 H       -7.1750    -3.9060     2.1070 H     1 <1>   0.0800 
 51 H       -7.6390    -5.2720    -0.5520 H     1 <1>   0.1500 
 52 H       -3.9980    -4.7210    -2.6870 H     1 <1>   0.1500 
 53 H       -7.2270    -7.6700    -3.2700 H     1 <1>   0.0800 
 54 H       -8.1160    -6.2920    -2.6290 H     1 <1>   0.0800 
 55 H       -7.2780    -7.4040    -1.5310 H     1 <1>   0.0800 
@<TRIPOS>BOND
  1   1   2  2   
  2   2   3  am  
  3   2   4  1   
  4   3   5  1   
  5   3   6  1   
  6   4   7  1   
  7   4   8  2   
  8   5   9  1   
  9   5  30  1   
 10   5  31  1   
 11   6  10  1   
 12   6  32  1   
 13   6  33  1   
 14   7  11  1   
 15   7  34  1   
 16   8  12  1   
 17   8  35  1   
 18   9  13  1   
 19   9  36  1   
 20   9  37  1   
 21  10  13  1   
 22  10  38  1   
 23  10  39  1   
 24  11  12  ar  
 25  11  14  ar  
 26  12  15  ar  
 27  13  16  1   
 28  13  17  1   
 29  14  18  ar  
 30  14  40  1   
 31  15  19  ar  
 32  15  41  1   
 33  16  20  1   
 34  17  21  ar  
 35  17  22  ar  
 36  18  19  ar  
 37  18  42  1   
 38  19  23  1   
 39  20  24  1   
 40  20  43  1   
 41  20  44  1   
 42  21  24  1   
 43  21  25  ar  
 44  22  26  ar  
 45  22  45  1   
 46  23  46  1   
 47  23  47  1   
 48  23  48  1   
 49  24  49  1   
 50  24  50  1   
 51  25  27  ar  
 52  25  51  1   
 53  26  27  ar  
 54  26  52  1   
 55  27  28  1   
 56  28  29  1   
 57  29  53  1   
 58  29  54  1   
 59  29  55  1   
@<TRIPOS>SUBSTRUCTURE
  1 ****  10 GROUP 4 **** **** 0

# MOE 2024.06 (io_trps.svl 2023.06)
