@<TRIPOS>MOLECULE
Untitled Document
42 44 1 0 0 
SMALL
USER_CHARGES


@<TRIPOS>ATOM
  1 F       -0.1070     0.7640    -0.0750 F     1 <1>  -0.1900 
  2 C        0.1400     2.0370    -0.2260 C.ar  1 <1>   0.1900 
  3 C        1.4400     2.5040     0.0290 C.ar  1 <1>   0.0000 
  4 C       -0.8680     2.8780    -0.6270 C.ar  1 <1>  -0.1500 
  5 C        1.7040     3.8620    -0.1350 C.ar  1 <1>  -0.1520 
  6 C        2.6480     1.9160     0.4450 C.2   1 <1>  -0.1500 
  7 C       -0.5590     4.2320    -0.7760 C.ar  1 <1>   0.1900 
  8 N        3.0220     4.0790     0.1690 N.pl3 1 <1>   0.0330 
  9 C        0.6960     4.7460    -0.5410 C.ar  1 <1>  -0.1500 
 10 C        3.6080     2.8840     0.5180 C.2   1 <1>  -0.2370 
 11 F       -1.5140     5.0380    -1.1560 F     1 <1>  -0.1900 
 12 C        4.9880     2.7680     0.9020 C.2   1 <1>   0.7150 
 13 O        5.3500     1.9010     1.6690 O.2   1 <1>  -0.5700 
 14 N        5.8990     3.6370     0.3840 N.am  1 <1>  -0.7300 
 15 C        7.3360     3.6380     0.7000 C.3   1 <1>   0.2200 
 16 C        7.7870     5.0810     0.9430 C.3   1 <1>  -0.1600 
 17 C        8.1010     2.9980    -0.4610 C.3   1 <1>  -0.1600 
 18 C        9.3070     5.1560     1.1680 C.3   1 <1>  -0.1600 
 19 C        9.6210     3.0760    -0.2350 C.3   1 <1>  -0.1600 
 20 C       10.1270     4.5100     0.0310 C.3   1 <1>   0.0000 
 21 C       10.0470     5.3600    -1.2500 C.3   1 <1>  -0.2400 
 22 C       11.6010     4.4430     0.4570 C.3   1 <1>  -0.2400 
 23 H       -1.8610     2.5190    -0.8210 H     1 <1>   0.1500 
 24 H        2.7670     0.8680     0.6660 H     1 <1>   0.1500 
 25 H        3.4770     4.9970     0.2080 H     1 <1>   0.2700 
 26 H        0.8930     5.7960    -0.6660 H     1 <1>   0.1500 
 27 H        5.6530     4.1420    -0.4630 H     1 <1>   0.3700 
 28 H        7.5140     3.0630     1.5960 H     1 <1>   0.0800 
 29 H        7.2860     5.4640     1.8140 H     1 <1>   0.0800 
 30 H        7.5180     5.6950     0.1030 H     1 <1>   0.0800 
 31 H        7.8490     3.4890    -1.3830 H     1 <1>   0.0800 
 32 H        7.8130     1.9640    -0.5420 H     1 <1>   0.0800 
 33 H        9.5320     4.6500     2.0910 H     1 <1>   0.0800 
 34 H        9.6000     6.1850     1.2890 H     1 <1>   0.0800 
 35 H       10.1300     2.6600    -1.0880 H     1 <1>   0.0800 
 36 H        9.8620     2.4570     0.6120 H     1 <1>   0.0800 
 37 H        9.0400     5.4490    -1.6090 H     1 <1>   0.0800 
 38 H       10.6400     4.9180    -2.0310 H     1 <1>   0.0800 
 39 H       10.4230     6.3510    -1.0650 H     1 <1>   0.0800 
 40 H       11.7130     3.8570     1.3520 H     1 <1>   0.0800 
 41 H       11.9830     5.4300     0.6510 H     1 <1>   0.0800 
 42 H       12.1990     3.9950    -0.3160 H     1 <1>   0.0800 
@<TRIPOS>BOND
  1   1   2  1   
  2   2   3  ar  
  3   2   4  ar  
  4   3   5  ar  
  5   3   6  1   
  6   4   7  ar  
  7   4  23  1   
  8   5   8  1   
  9   5   9  ar  
 10   6  10  2   
 11   6  24  1   
 12   7   9  ar  
 13   7  11  1   
 14   8  10  1   
 15   8  25  1   
 16   9  26  1   
 17  10  12  1   
 18  12  13  2   
 19  12  14  am  
 20  14  15  1   
 21  14  27  1   
 22  15  16  1   
 23  15  17  1   
 24  15  28  1   
 25  16  18  1   
 26  16  29  1   
 27  16  30  1   
 28  17  19  1   
 29  17  31  1   
 30  17  32  1   
 31  18  20  1   
 32  18  33  1   
 33  18  34  1   
 34  19  20  1   
 35  19  35  1   
 36  19  36  1   
 37  20  21  1   
 38  20  22  1   
 39  21  37  1   
 40  21  38  1   
 41  21  39  1   
 42  22  40  1   
 43  22  41  1   
 44  22  42  1   
@<TRIPOS>SUBSTRUCTURE
  1 ****  12 GROUP 4 **** **** 0

# MOE 2024.06 (io_trps.svl 2023.06)
