@<TRIPOS>MOLECULE
NONAME
47 49 1 0 0 
SMALL
USER_CHARGES


@<TRIPOS>ATOM
  1 O        0.9480    -0.3800     0.4750 O.3   1 <1>  -0.5600 
  2 C        1.9670    -1.1320    -0.1490 C.3   1 <1>   0.4240 
  3 C       -0.3780    -0.7070     0.1700 C.3   1 <1>   0.1200 
  4 C        1.5800    -2.6130    -0.3240 C.ar  1 <1>  -0.1440 
  5 C        3.1830    -1.0110     0.7760 C.3   1 <1>  -0.1600 
  6 C        2.2870    -0.4500    -1.4940 C.3   1 <1>  -0.1600 
  7 C       -0.6720    -2.1220     0.6590 C.3   1 <1>  -0.0160 
  8 C        0.3340    -3.0840     0.0620 C.ar  1 <1>  -0.1440 
  9 C        2.4800    -3.5170    -0.8730 C.ar  1 <1>  -0.1500 
 10 C        3.5900     0.4420     1.0440 C.3   1 <1>   0.3430 
 11 C        3.1370     0.8190    -1.3550 C.3   1 <1>   0.3430 
 12 C        0.0070    -4.4210    -0.0930 C.ar  1 <1>  -0.1500 
 13 C        2.1740    -4.8570    -1.0410 C.ar  1 <1>   0.0830 
 14 N        3.0180     1.3700     0.0230 N.4   1 <1>  -0.9590 
 15 C        0.9110    -5.3280    -0.6420 C.ar  1 <1>   0.0830 
 16 O        3.1890    -5.5800    -1.6000 O.3   1 <1>  -0.3630 
 17 C        3.5330     2.7520     0.1810 C.3   1 <1>   0.3430 
 18 O        0.5820    -6.6450    -0.7910 O.3   1 <1>  -0.3620 
 19 C        3.1010    -6.9580    -1.8830 C.3   1 <1>   0.0400 
 20 C        2.6050     3.7300    -0.5300 C.3   1 <1>  -0.2400 
 21 C       -0.6510    -7.1760    -0.3560 C.3   1 <1>   0.0400 
 22 H       -0.5280    -0.6330    -0.8930 H     1 <1>   0.0800 
 23 H       -1.0200     0.0000     0.6670 H     1 <1>   0.0800 
 24 H        4.0220    -1.5210     0.3390 H     1 <1>   0.0800 
 25 H        2.9750    -1.5050     1.7080 H     1 <1>   0.0800 
 26 H        1.3770    -0.2240    -2.0170 H     1 <1>   0.0800 
 27 H        2.8320    -1.1270    -2.1250 H     1 <1>   0.0800 
 28 H       -1.6700    -2.3970     0.3650 H     1 <1>   0.0800 
 29 H       -0.6160    -2.1530     1.7330 H     1 <1>   0.0800 
 30 H        3.4570    -3.2000    -1.1870 H     1 <1>   0.1500 
 31 H        4.6650     0.5150     1.0560 H     1 <1>   0.0800 
 32 H        3.2240     0.7290     2.0180 H     1 <1>   0.0800 
 33 H        2.8110     1.5430    -2.0840 H     1 <1>   0.0800 
 34 H        4.1700     0.5840    -1.5550 H     1 <1>   0.0800 
 35 H       -0.9660    -4.7400     0.2240 H     1 <1>   0.1500 
 36 H        2.0010     1.3650     0.2290 H     1 <1>   0.4500 
 37 H        4.5320     2.8270    -0.2180 H     1 <1>   0.0800 
 38 H        3.5670     3.0070     1.2290 H     1 <1>   0.0800 
 39 H        4.0290    -7.2690    -2.3270 H     1 <1>   0.0800 
 40 H        2.2930    -7.1210    -2.5730 H     1 <1>   0.0800 
 41 H        2.9370    -7.4930    -0.9650 H     1 <1>   0.0800 
 42 H        2.6120     3.5790    -1.5940 H     1 <1>   0.0800 
 43 H        2.9430     4.7340    -0.3420 H     1 <1>   0.0800 
 44 H        1.6000     3.6440    -0.1570 H     1 <1>   0.0800 
 45 H       -0.6520    -8.2310    -0.5640 H     1 <1>   0.0800 
 46 H       -1.4480    -6.6980    -0.8970 H     1 <1>   0.0800 
 47 H       -0.7470    -7.0140     0.7030 H     1 <1>   0.0800 
@<TRIPOS>BOND
  1   1   2  1   
  2   1   3  1   
  3   2   4  1   
  4   2   5  1   
  5   2   6  1   
  6   3   7  1   
  7   3  22  1   
  8   3  23  1   
  9   4   8  ar  
 10   4   9  ar  
 11   5  10  1   
 12   5  24  1   
 13   5  25  1   
 14   6  11  1   
 15   6  26  1   
 16   6  27  1   
 17   7   8  1   
 18   7  28  1   
 19   7  29  1   
 20   8  12  ar  
 21   9  13  ar  
 22   9  30  1   
 23  10  14  1   
 24  10  31  1   
 25  10  32  1   
 26  11  14  1   
 27  11  33  1   
 28  11  34  1   
 29  12  15  ar  
 30  12  35  1   
 31  13  15  ar  
 32  13  16  1   
 33  14  17  1   
 34  14  36  1   
 35  15  18  1   
 36  16  19  1   
 37  17  20  1   
 38  17  37  1   
 39  17  38  1   
 40  18  21  1   
 41  19  39  1   
 42  19  40  1   
 43  19  41  1   
 44  20  42  1   
 45  20  43  1   
 46  20  44  1   
 47  21  45  1   
 48  21  46  1   
 49  21  47  1   
@<TRIPOS>SUBSTRUCTURE
  1 ****   4 GROUP 4 **** **** 0

# MOE 2024.06 (io_trps.svl 2023.06)
