@<TRIPOS>MOLECULE
NONAME
51 54 1 0 0 
SMALL
USER_CHARGES


@<TRIPOS>ATOM
  1 O       -2.4110     1.0070    -2.3230 O.2   1 <1>  -0.5700 
  2 C       -2.1700     1.1870    -1.1440 C.2   1 <1>   0.5440 
  3 N       -2.2800     0.0890    -0.3150 N.am  1 <1>  -0.6600 
  4 C       -1.9130     2.5290    -0.6530 C.ar  1 <1>   0.0860 
  5 C       -2.8410     0.1890     1.0610 C.3   1 <1>   0.1400 
  6 C       -2.3210    -1.2900    -0.8740 C.3   1 <1>   0.1400 
  7 C       -0.9190     2.8250     0.2910 C.ar  1 <1>   0.0830 
  8 C       -2.6920     3.5840    -1.1310 C.ar  1 <1>  -0.1500 
  9 C       -4.3010    -0.3210     1.0850 C.3   1 <1>   0.4230 
 10 C       -3.7770    -1.7820    -0.9020 C.3   1 <1>   0.3430 
 11 O       -0.1370     1.8130     0.7430 O.3   1 <1>  -0.3630 
 12 C       -0.7520     4.1310     0.7440 C.ar  1 <1>  -0.1500 
 13 C       -2.5250     4.8810    -0.6820 C.ar  1 <1>  -0.1440 
 14 N       -4.4370    -1.7030     0.4600 N.4   1 <1>  -0.9590 
 15 C       -5.2400     0.6930     0.3890 C.3   1 <1>   0.1200 
 16 C        1.0860     2.0470     1.4080 C.3   1 <1>   0.0400 
 17 C       -1.5520     5.1490     0.2630 C.ar  1 <1>  -0.1500 
 18 C       -3.3890     6.0100    -1.2160 C.3   1 <1>  -0.0970 
 19 C       -5.8850    -2.0910     0.4330 C.3   1 <1>   0.5180 
 20 O       -6.5620     0.2320     0.4150 O.3   1 <1>  -0.5600 
 21 C       -6.0480    -3.4550    -0.2490 C.3   1 <1>  -0.1950 
 22 C       -6.7650    -1.0010    -0.2190 C.3   1 <1>   0.1200 
 23 C       -7.0400    -4.4440     0.2800 C.3   1 <1>  -0.2000 
 24 C       -5.5690    -4.7210     0.3950 C.3   1 <1>  -0.2000 
 25 H       -2.2350    -0.3960     1.7310 H     1 <1>   0.0800 
 26 H       -2.8110     1.2060     1.4120 H     1 <1>   0.0800 
 27 H       -1.9150    -1.3030    -1.8720 H     1 <1>   0.0800 
 28 H       -1.7160    -1.9430    -0.2700 H     1 <1>   0.0800 
 29 H       -3.4410     3.3730    -1.8750 H     1 <1>   0.1500 
 30 H       -4.6090    -0.3720     2.1160 H     1 <1>   0.0800 
 31 H       -3.7930    -2.7970    -1.2630 H     1 <1>   0.0800 
 32 H       -4.3180    -1.1720    -1.6080 H     1 <1>   0.0800 
 33 H       -0.0050     4.3780     1.4740 H     1 <1>   0.1500 
 34 H       -3.9620    -2.3780     1.0670 H     1 <1>   0.4500 
 35 H       -4.9520     0.8620    -0.6350 H     1 <1>   0.0800 
 36 H       -5.2160     1.6370     0.9060 H     1 <1>   0.0800 
 37 H        1.5870     1.1040     1.5300 H     1 <1>   0.0800 
 38 H        0.8860     2.4810     2.3720 H     1 <1>   0.0800 
 39 H        1.6910     2.7050     0.8080 H     1 <1>   0.0800 
 40 H       -1.4120     6.1550     0.6210 H     1 <1>   0.1500 
 41 H       -2.7650     6.7880    -1.6200 H     1 <1>   0.0800 
 42 H       -3.9870     6.4220    -0.4230 H     1 <1>   0.0800 
 43 H       -4.0440     5.6620    -1.9950 H     1 <1>   0.0800 
 44 H       -6.2240    -2.1980     1.4510 H     1 <1>   0.0800 
 45 H       -6.0090    -3.3890    -1.3240 H     1 <1>   0.1000 
 46 H       -7.8050    -1.2560    -0.1110 H     1 <1>   0.0800 
 47 H       -6.5470    -0.8930    -1.2670 H     1 <1>   0.0800 
 48 H       -7.5890    -4.2370     1.1840 H     1 <1>   0.1000 
 49 H       -7.6150    -5.0350    -0.4140 H     1 <1>   0.1000 
 50 H       -5.1560    -5.5040    -0.2200 H     1 <1>   0.1000 
 51 H       -5.1430    -4.7150     1.3840 H     1 <1>   0.1000 
@<TRIPOS>BOND
  1   1   2  2   
  2   2   3  am  
  3   2   4  1   
  4   3   5  1   
  5   3   6  1   
  6   4   7  ar  
  7   4   8  ar  
  8   5   9  1   
  9   5  25  1   
 10   5  26  1   
 11   6  10  1   
 12   6  27  1   
 13   6  28  1   
 14   7  11  1   
 15   7  12  ar  
 16   8  13  ar  
 17   8  29  1   
 18   9  14  1   
 19   9  15  1   
 20   9  30  1   
 21  10  14  1   
 22  10  31  1   
 23  10  32  1   
 24  11  16  1   
 25  12  17  ar  
 26  12  33  1   
 27  13  17  ar  
 28  13  18  1   
 29  14  19  1   
 30  14  34  1   
 31  15  20  1   
 32  15  35  1   
 33  15  36  1   
 34  16  37  1   
 35  16  38  1   
 36  16  39  1   
 37  17  40  1   
 38  18  41  1   
 39  18  42  1   
 40  18  43  1   
 41  19  21  1   
 42  19  22  1   
 43  19  44  1   
 44  20  22  1   
 45  21  23  1   
 46  21  24  1   
 47  21  45  1   
 48  22  46  1   
 49  22  47  1   
 50  23  24  1   
 51  23  48  1   
 52  23  49  1   
 53  24  50  1   
 54  24  51  1   
@<TRIPOS>SUBSTRUCTURE
  1 ****   3 GROUP 4 **** **** 0

# MOE 2024.06 (io_trps.svl 2023.06)
