@<TRIPOS>MOLECULE
NONAME
43 44 1 0 0 
SMALL
USER_CHARGES


@<TRIPOS>ATOM
  1 S        0.5030     2.0510    -0.8520 S.o2  1 <1>   1.3330 
  2 O       -0.4970     2.7250    -1.6490 O.2   1 <1>  -0.6500 
  3 O        1.7330     2.7340    -0.5240 O.2   1 <1>  -0.6500 
  4 N        0.9210     0.6140    -1.6520 N.am  1 <1>  -0.8490 
  5 C       -0.3090     1.4410     0.6330 C.3   1 <1>  -0.0550 
  6 C        0.9570     0.7810    -3.1090 C.3   1 <1>   0.1160 
  7 C        2.1920     0.0410    -1.1910 C.3   1 <1>   0.1160 
  8 C       -0.8070     2.4770     1.6700 C.3   1 <1>  -0.0800 
  9 C       -1.6780     3.5940     1.0810 C.3   1 <1>   0.2000 
 10 C        0.3380     3.2160     2.3710 C.3   1 <1>   0.1400 
 11 O       -2.5620     3.9930     2.0710 O.3   1 <1>  -0.6800 
 12 C       -0.7230     4.7590     0.8020 C.3   1 <1>   0.1400 
 13 N        0.4340     4.5360     1.7080 N.am  1 <1>  -0.6600 
 14 C        1.6430     5.1810     1.5880 C.2   1 <1>   0.5440 
 15 O        2.5520     4.8660     2.3310 O.2   1 <1>  -0.5700 
 16 C        1.8450     6.2130     0.5990 C.ar  1 <1>   0.0860 
 17 C        2.6350     5.9660    -0.5190 C.ar  1 <1>   0.1600 
 18 C        1.2680     7.4700     0.7070 C.ar  1 <1>  -0.1500 
 19 N        2.8790     6.8280    -1.4970 N.ar  1 <1>  -0.6200 
 20 C        1.5120     8.3790    -0.2990 C.ar  1 <1>  -0.1500 
 21 C        2.3150     8.0160    -1.3690 C.ar  1 <1>   0.1670 
 22 C        2.5940     9.0000    -2.4850 C.3   1 <1>  -0.0970 
 23 H       -1.1570     0.8620     0.3210 H     1 <1>   0.0800 
 24 H        0.3560     0.7650     1.1330 H     1 <1>   0.0800 
 25 H        1.2180    -0.1480    -3.5860 H     1 <1>   0.0800 
 26 H        1.6770     1.5350    -3.3820 H     1 <1>   0.0800 
 27 H       -0.0120     1.0820    -3.4700 H     1 <1>   0.0800 
 28 H        2.3610    -0.9120    -1.6630 H     1 <1>   0.0800 
 29 H        2.1700    -0.1070    -0.1260 H     1 <1>   0.0800 
 30 H        3.0110     0.7000    -1.4310 H     1 <1>   0.0800 
 31 H       -1.3660     1.9240     2.4050 H     1 <1>   0.0800 
 32 H       -2.2520     3.2990     0.2180 H     1 <1>   0.0800 
 33 H        1.2710     2.6810     2.2960 H     1 <1>   0.0800 
 34 H        0.1080     3.3700     3.4110 H     1 <1>   0.0800 
 35 H       -2.0600     4.4100     2.7990 H     1 <1>   0.4000 
 36 H       -1.1930     5.7080     0.9950 H     1 <1>   0.0800 
 37 H       -0.3870     4.7410    -0.2190 H     1 <1>   0.0800 
 38 H        3.0850     4.9900    -0.6030 H     1 <1>   0.1500 
 39 H        0.6550     7.7170     1.5550 H     1 <1>   0.1500 
 40 H        1.0830     9.3630    -0.2510 H     1 <1>   0.1500 
 41 H        2.1060     9.9400    -2.3070 H     1 <1>   0.0800 
 42 H        2.2430     8.5940    -3.4150 H     1 <1>   0.0800 
 43 H        3.6530     9.1660    -2.5580 H     1 <1>   0.0800 
@<TRIPOS>BOND
  1   1   2  2   
  2   1   3  2   
  3   1   4  am  
  4   1   5  1   
  5   4   6  1   
  6   4   7  1   
  7   5   8  1   
  8   5  23  1   
  9   5  24  1   
 10   6  25  1   
 11   6  26  1   
 12   6  27  1   
 13   7  28  1   
 14   7  29  1   
 15   7  30  1   
 16   8   9  1   
 17   8  10  1   
 18   8  31  1   
 19   9  11  1   
 20   9  12  1   
 21   9  32  1   
 22  10  13  1   
 23  10  33  1   
 24  10  34  1   
 25  11  35  1   
 26  12  13  1   
 27  12  36  1   
 28  12  37  1   
 29  13  14  am  
 30  14  15  2   
 31  14  16  1   
 32  16  17  ar  
 33  16  18  ar  
 34  17  19  ar  
 35  17  38  1   
 36  18  20  ar  
 37  18  39  1   
 38  19  21  ar  
 39  20  21  ar  
 40  20  40  1   
 41  21  22  1   
 42  22  41  1   
 43  22  42  1   
 44  22  43  1   
@<TRIPOS>SUBSTRUCTURE
  1 ****  13 GROUP 4 **** **** 0

# MOE 2024.06 (io_trps.svl 2023.06)
