@<TRIPOS>MOLECULE
NONAME
45 46 1 0 0 
SMALL
USER_CHARGES


@<TRIPOS>ATOM
  1 O        0.9330    -0.6620    -1.5360 O.2   1 <1>  -0.5700 
  2 C        1.8010    -0.8600    -0.7210 C.2   1 <1>   0.5690 
  3 N        2.5990     0.1230    -0.2150 N.am  1 <1>  -0.4930 
  4 C        2.0030    -2.2980    -0.2420 C.3   1 <1>  -0.0190 
  5 C        2.5910     1.5100    -0.5110 C.2   1 <1>   0.0630 
  6 C        2.4010    -3.2100    -1.4200 C.3   1 <1>  -0.1600 
  7 C        0.7240    -2.8280     0.4370 C.3   1 <1>  -0.1600 
  8 C        3.4080     2.4450     0.0230 C.2   1 <1>  -0.3320 
  9 C        1.7700     2.2180    -1.3900 C.2   1 <1>   0.1390 
 10 C        2.4460    -4.6860    -1.0280 C.3   1 <1>   0.3430 
 11 C        0.8140    -4.3150     0.7780 C.3   1 <1>   0.3430 
 12 N        3.0550     3.6300    -0.5390 N.pl3 1 <1>   0.3140 
 13 C        4.5240     2.3010     1.0480 C.3   1 <1>  -0.0600 
 14 N        2.0450     3.4870    -1.4100 N.2   1 <1>  -0.7070 
 15 N        1.1300    -5.0890    -0.4580 N.4   1 <1>  -0.9590 
 16 C        3.6490     4.9490    -0.2850 C.3   1 <1>   0.0160 
 17 C        1.1020    -6.5720    -0.2240 C.3   1 <1>   0.3430 
 18 C       -0.3040    -7.1090     0.0670 C.3   1 <1>   0.1200 
 19 O       -0.1860    -8.4790     0.2400 O.3   1 <1>  -0.5600 
 20 C       -1.3890    -9.1370     0.4930 C.3   1 <1>   0.0400 
 21 H        3.3040    -0.1380     0.4680 H     1 <1>   0.3700 
 22 H        2.8000    -2.3120     0.4810 H     1 <1>   0.0800 
 23 H        3.3680    -2.9140    -1.7900 H     1 <1>   0.0800 
 24 H        1.7030    -3.0890    -2.2320 H     1 <1>   0.0800 
 25 H       -0.1260    -2.6720    -0.2070 H     1 <1>   0.0800 
 26 H        0.5410    -2.2700     1.3390 H     1 <1>   0.0800 
 27 H        0.9940     1.7730    -1.9890 H     1 <1>   0.1500 
 28 H        3.2260    -4.8470    -0.3000 H     1 <1>   0.0800 
 29 H        2.6700    -5.2800    -1.9000 H     1 <1>   0.0800 
 30 H       -0.1260    -4.6390     1.1930 H     1 <1>   0.0800 
 31 H        1.5840    -4.4740     1.5160 H     1 <1>   0.0800 
 32 H        4.6320     1.2790     1.3580 H     1 <1>   0.0800 
 33 H        4.3070     2.8980     1.9160 H     1 <1>   0.0800 
 34 H        5.4580     2.6280     0.6250 H     1 <1>   0.0800 
 35 H        0.4170    -4.8560    -1.1650 H     1 <1>   0.4500 
 36 H        4.6900     4.9230    -0.5460 H     1 <1>   0.0800 
 37 H        3.5320     5.1940     0.7530 H     1 <1>   0.0800 
 38 H        3.1450     5.6820    -0.8870 H     1 <1>   0.0800 
 39 H        1.7460    -6.8220     0.6030 H     1 <1>   0.0800 
 40 H        1.4700    -7.0780    -1.1020 H     1 <1>   0.0800 
 41 H       -0.9640    -6.9270    -0.7640 H     1 <1>   0.0800 
 42 H       -0.7060    -6.6900     0.9730 H     1 <1>   0.0800 
 43 H       -1.1790   -10.1860     0.6090 H     1 <1>   0.0800 
 44 H       -2.0580    -8.9950    -0.3390 H     1 <1>   0.0800 
 45 H       -1.8240    -8.7550     1.4000 H     1 <1>   0.0800 
@<TRIPOS>BOND
  1   1   2  2   
  2   2   3  am  
  3   2   4  1   
  4   3   5  1   
  5   3  21  1   
  6   4   6  1   
  7   4   7  1   
  8   4  22  1   
  9   5   8  2   
 10   5   9  1   
 11   6  10  1   
 12   6  23  1   
 13   6  24  1   
 14   7  11  1   
 15   7  25  1   
 16   7  26  1   
 17   8  12  1   
 18   8  13  1   
 19   9  14  2   
 20   9  27  1   
 21  10  15  1   
 22  10  28  1   
 23  10  29  1   
 24  11  15  1   
 25  11  30  1   
 26  11  31  1   
 27  12  14  1   
 28  12  16  1   
 29  13  32  1   
 30  13  33  1   
 31  13  34  1   
 32  15  17  1   
 33  15  35  1   
 34  16  36  1   
 35  16  37  1   
 36  16  38  1   
 37  17  18  1   
 38  17  39  1   
 39  17  40  1   
 40  18  19  1   
 41  18  41  1   
 42  18  42  1   
 43  19  20  1   
 44  20  43  1   
 45  20  44  1   
 46  20  45  1   
@<TRIPOS>SUBSTRUCTURE
  1 ****   4 GROUP 4 **** **** 0

# MOE 2024.06 (io_trps.svl 2023.06)
