@<TRIPOS>MOLECULE
NONAME
33 34 1 0 0 
SMALL
USER_CHARGES


@<TRIPOS>ATOM
  1 S       -2.3220     0.5050    -1.4960 S.3   1 <1>  -0.0800 
  2 C       -1.9120     0.6390     0.2030 C.2   1 <1>   0.1980 
  3 C       -0.8740     1.3840    -1.8870 C.2   1 <1>  -0.1100 
  4 N       -0.8250     1.2710     0.4290 N.2   1 <1>  -0.5650 
  5 C       -2.8720     0.0090     1.2050 C.3   1 <1>   0.3890 
  6 C       -0.2340     1.6920    -0.7490 C.2   1 <1>   0.0460 
  7 N       -2.8710    -1.4870     1.1230 N.pl3 1 <1>  -0.8380 
  8 C        1.0670     2.4520    -0.6260 C.3   1 <1>  -0.0590 
  9 C       -3.9040    -2.1780     0.5270 C.ar  1 <1>   0.7200 
 10 C       -1.5410    -2.1220     1.3560 C.3   1 <1>   0.1290 
 11 N       -5.0670    -1.5410     0.3960 N.ar  1 <1>  -0.6200 
 12 N       -3.6510    -3.4250     0.1360 N.ar  1 <1>  -0.6200 
 13 C       -6.0350    -2.2110    -0.1790 C.ar  1 <1>   0.1600 
 14 C       -4.6400    -4.0690    -0.4350 C.ar  1 <1>   0.1600 
 15 C       -5.8780    -3.5020    -0.6250 C.ar  1 <1>  -0.1430 
 16 C       -7.0130    -4.2630    -1.2920 C.3   1 <1>  -0.0170 
 17 C       -7.8380    -5.0200    -0.2500 C.3   1 <1>  -0.2400 
 18 H       -0.6620     1.5720    -2.9220 H     1 <1>   0.1500 
 19 H       -3.8520     0.4190     1.0440 H     1 <1>   0.0800 
 20 H       -2.5680     0.2960     2.1950 H     1 <1>   0.0800 
 21 H        1.4350     2.7280    -1.5970 H     1 <1>   0.0800 
 22 H        1.7990     1.8370    -0.1350 H     1 <1>   0.0800 
 23 H        0.9110     3.3410    -0.0430 H     1 <1>   0.0800 
 24 H       -0.9710    -1.5480     2.0650 H     1 <1>   0.0800 
 25 H       -0.9990    -2.1730     0.4270 H     1 <1>   0.0800 
 26 H       -1.6670    -3.1180     1.7440 H     1 <1>   0.0800 
 27 H       -6.9830    -1.7150    -0.2950 H     1 <1>   0.1500 
 28 H       -4.4560    -5.0780    -0.7590 H     1 <1>   0.1500 
 29 H       -6.6120    -4.9580    -2.0100 H     1 <1>   0.0800 
 30 H       -7.6480    -3.5750    -1.8250 H     1 <1>   0.0800 
 31 H       -7.2200    -5.7260     0.2760 H     1 <1>   0.0800 
 32 H       -8.6390    -5.5560    -0.7300 H     1 <1>   0.0800 
 33 H       -8.2610    -4.3350     0.4630 H     1 <1>   0.0800 
@<TRIPOS>BOND
  1   1   2  1   
  2   1   3  1   
  3   2   4  2   
  4   2   5  1   
  5   3   6  2   
  6   3  18  1   
  7   4   6  1   
  8   5   7  1   
  9   5  19  1   
 10   5  20  1   
 11   6   8  1   
 12   7   9  1   
 13   7  10  1   
 14   8  21  1   
 15   8  22  1   
 16   8  23  1   
 17   9  11  ar  
 18   9  12  ar  
 19  10  24  1   
 20  10  25  1   
 21  10  26  1   
 22  11  13  ar  
 23  12  14  ar  
 24  13  15  ar  
 25  13  27  1   
 26  14  15  ar  
 27  14  28  1   
 28  15  16  1   
 29  16  17  1   
 30  16  29  1   
 31  16  30  1   
 32  17  31  1   
 33  17  32  1   
 34  17  33  1   
@<TRIPOS>SUBSTRUCTURE
  1 ****   9 GROUP 4 **** **** 0

# MOE 2024.06 (io_trps.svl 2023.06)
