@<TRIPOS>MOLECULE
NONAME
52 54 1 0 0 
SMALL
USER_CHARGES


@<TRIPOS>ATOM
  1 O       -0.4210     1.3340    -2.3400 O.co2 1 <1>  -0.9000 
  2 C       -0.9510     1.1030    -1.2490 C.2   1 <1>   0.9060 
  3 O       -1.5730     0.0630    -1.0120 O.co2 1 <1>  -0.9000 
  4 C       -0.8760     2.1570    -0.1630 C.3   1 <1>  -0.1060 
  5 C       -2.3150     2.3960     0.3320 C.3   1 <1>   0.2000 
  6 C       -0.4240     3.4380    -0.8710 C.3   1 <1>   0.3430 
  7 C        0.1010     1.6530     0.9500 C.3   1 <1>  -0.0170 
  8 O       -2.6950     1.3440     1.1350 O.3   1 <1>  -0.6800 
  9 C       -2.5130     3.7100     1.1060 C.3   1 <1>  -0.1600 
 10 N       -0.5690     4.7100    -0.0680 N.4   1 <1>  -0.9590 
 11 C        1.5380     2.1540     0.8320 C.ar  1 <1>  -0.1440 
 12 C       -1.2200     4.5080     1.2580 C.3   1 <1>   0.3430 
 13 C        0.7570     5.3830     0.1150 C.3   1 <1>   0.3430 
 14 C        2.2890     1.8940    -0.3060 C.ar  1 <1>  -0.1500 
 15 C        2.1130     2.8740     1.8700 C.ar  1 <1>  -0.1500 
 16 C        1.4030     5.8160    -1.2010 C.3   1 <1>  -0.0170 
 17 C        3.5770     2.3850    -0.4240 C.ar  1 <1>  -0.1500 
 18 C        3.4020     3.3670     1.7520 C.ar  1 <1>  -0.1500 
 19 C        2.6640     6.5820    -0.8690 C.ar  1 <1>   0.1670 
 20 C        4.1320     3.1280     0.6020 C.ar  1 <1>  -0.1500 
 21 N        2.4940     7.6570    -0.1170 N.ar  1 <1>  -0.6200 
 22 C        3.8930     6.1420    -1.3350 C.ar  1 <1>  -0.1500 
 23 C        3.5910     8.3350     0.1800 C.ar  1 <1>   0.1670 
 24 C        5.0300     6.8520    -1.0160 C.ar  1 <1>  -0.1500 
 25 C        4.8620     7.9760    -0.2390 C.ar  1 <1>  -0.1500 
 26 C        3.3940     9.5720     1.0320 C.3   1 <1>  -0.0970 
 27 H       -2.9860     2.3910    -0.5140 H     1 <1>   0.0800 
 28 H       -1.0140     3.5330    -1.7690 H     1 <1>   0.0800 
 29 H        0.5920     3.3070    -1.1970 H     1 <1>   0.0800 
 30 H       -0.2780     1.9250     1.9180 H     1 <1>   0.0800 
 31 H        0.1200     0.5750     0.9470 H     1 <1>   0.0800 
 32 H       -2.5300     0.5180     0.6000 H     1 <1>   0.4000 
 33 H       -3.2310     4.3150     0.5840 H     1 <1>   0.0800 
 34 H       -2.9140     3.5090     2.0840 H     1 <1>   0.0800 
 35 H       -1.1670     5.3400    -0.6160 H     1 <1>   0.4500 
 36 H       -0.5490     3.9720     1.9080 H     1 <1>   0.0800 
 37 H       -1.4330     5.4610     1.7140 H     1 <1>   0.0800 
 38 H        0.6310     6.2590     0.7310 H     1 <1>   0.0800 
 39 H        1.4360     4.7250     0.6240 H     1 <1>   0.0800 
 40 H        1.8730     1.3050    -1.1100 H     1 <1>   0.1500 
 41 H        1.5650     3.0550     2.7780 H     1 <1>   0.1500 
 42 H        0.7420     6.4650    -1.7450 H     1 <1>   0.0800 
 43 H        1.6470     4.9640    -1.8090 H     1 <1>   0.0800 
 44 H        4.1460     2.1780    -1.3140 H     1 <1>   0.1500 
 45 H        3.8410     3.9300     2.5580 H     1 <1>   0.1500 
 46 H        5.1340     3.5110     0.5100 H     1 <1>   0.1500 
 47 H        3.9680     5.2570    -1.9400 H     1 <1>   0.1500 
 48 H        6.0030     6.5440    -1.3600 H     1 <1>   0.1500 
 49 H        5.7160     8.5690     0.0370 H     1 <1>   0.1500 
 50 H        4.3280    10.0700     1.2150 H     1 <1>   0.0800 
 51 H        2.9580     9.2970     1.9740 H     1 <1>   0.0800 
 52 H        2.7320    10.2530     0.5280 H     1 <1>   0.0800 
@<TRIPOS>BOND
  1   1   2  ar  
  2   2   3  ar  
  3   2   4  1   
  4   4   5  1   
  5   4   6  1   
  6   4   7  1   
  7   5   8  1   
  8   5   9  1   
  9   5  27  1   
 10   6  10  1   
 11   6  28  1   
 12   6  29  1   
 13   7  11  1   
 14   7  30  1   
 15   7  31  1   
 16   8  32  1   
 17   9  12  1   
 18   9  33  1   
 19   9  34  1   
 20  10  12  1   
 21  10  13  1   
 22  10  35  1   
 23  11  14  ar  
 24  11  15  ar  
 25  12  36  1   
 26  12  37  1   
 27  13  16  1   
 28  13  38  1   
 29  13  39  1   
 30  14  17  ar  
 31  14  40  1   
 32  15  18  ar  
 33  15  41  1   
 34  16  19  1   
 35  16  42  1   
 36  16  43  1   
 37  17  20  ar  
 38  17  44  1   
 39  18  20  ar  
 40  18  45  1   
 41  19  21  ar  
 42  19  22  ar  
 43  20  46  1   
 44  21  23  ar  
 45  22  24  ar  
 46  22  47  1   
 47  23  25  ar  
 48  23  26  1   
 49  24  25  ar  
 50  24  48  1   
 51  25  49  1   
 52  26  50  1   
 53  26  51  1   
 54  26  52  1   
@<TRIPOS>SUBSTRUCTURE
  1 ****  13 GROUP 4 **** **** 0

# MOE 2024.06 (io_trps.svl 2023.06)
