@<TRIPOS>MOLECULE
NONAME
19 20 1 0 0 
SMALL
USER_CHARGES


@<TRIPOS>ATOM
  1 BR      -0.1200     0.1010     1.1840 Br    1 <1>  -0.1110 
  2 C       -1.4970    -1.0680     0.5360 C.ar  1 <1>   0.4210 
  3 N       -1.0900    -2.2490     0.1030 N.ar  1 <1>  -0.6200 
  4 C       -2.7990    -0.6000     0.5650 C.ar  1 <1>  -0.1500 
  5 C       -2.0720    -3.0240    -0.3340 C.ar  1 <1>   0.1600 
  6 C       -3.7980    -1.4300     0.1020 C.ar  1 <1>  -0.1500 
  7 C       -3.4180    -2.6780    -0.3590 C.ar  1 <1>  -0.0320 
  8 C       -4.4650    -3.6440    -0.8850 C.3   1 <1>   0.1800 
  9 O       -4.9200    -3.2750    -2.1280 O.3   1 <1>  -0.5480 
 10 C       -4.4310    -5.1130    -0.6140 C.3   1 <1>  -0.2000 
 11 C       -5.4830    -4.2550     0.0180 C.3   1 <1>  -0.2000 
 12 H       -3.0130     0.3840     0.9390 H     1 <1>   0.1500 
 13 H       -1.7870    -3.9960    -0.6970 H     1 <1>   0.1500 
 14 H       -4.8310    -1.1260     0.0920 H     1 <1>   0.1500 
 15 H       -4.1980    -3.3540    -2.7770 H     1 <1>   0.4000 
 16 H       -3.6810    -5.5250     0.0380 H     1 <1>   0.1000 
 17 H       -4.7240    -5.7940    -1.3940 H     1 <1>   0.1000 
 18 H       -6.4990    -4.3150    -0.3330 H     1 <1>   0.1000 
 19 H       -5.4180    -4.0710     1.0750 H     1 <1>   0.1000 
@<TRIPOS>BOND
  1   1   2  1   
  2   2   3  ar  
  3   2   4  ar  
  4   3   5  ar  
  5   4   6  ar  
  6   4  12  1   
  7   5   7  ar  
  8   5  13  1   
  9   6   7  ar  
 10   6  14  1   
 11   7   8  1   
 12   8   9  1   
 13   8  10  1   
 14   8  11  1   
 15   9  15  1   
 16  10  11  1   
 17  10  16  1   
 18  10  17  1   
 19  11  18  1   
 20  11  19  1   
@<TRIPOS>SUBSTRUCTURE
  1 ****   7 GROUP 4 **** **** 0

# MOE 2024.06 (io_trps.svl 2023.06)
