@<TRIPOS>MOLECULE
NONAME
42 43 1 0 0 
SMALL
USER_CHARGES


@<TRIPOS>ATOM
  1 O       -0.3400     0.3400     0.0410 O.2   1 <1>  -0.5700 
  2 C       -1.4030     0.7930     0.3950 C.2   1 <1>   0.5690 
  3 N       -2.4690    -0.0240     0.6770 N.am  1 <1>  -0.6600 
  4 C       -1.5290     2.3100     0.5310 C.3   1 <1>  -0.0990 
  5 C       -2.3030    -1.5060     0.5880 C.3   1 <1>   0.3200 
  6 C       -3.7790     0.4670     1.2120 C.3   1 <1>   0.1400 
  7 C       -0.2710     3.0910     0.1010 C.3   1 <1>  -0.1600 
  8 C       -3.4430    -2.1280    -0.1920 C.2   1 <1>  -0.3320 
  9 C       -4.7640     0.8040     0.0850 C.3   1 <1>   0.1200 
 10 C       -0.4730     4.6070     0.2330 C.3   1 <1>   0.0960 
 11 N       -4.5490    -2.6650     0.3590 N.pl3 1 <1>   0.0330 
 12 C       -3.5830    -2.2660    -1.5280 C.2   1 <1>   0.0770 
 13 O       -5.9390     1.2700     0.6560 O.3   1 <1>  -0.6800 
 14 N        0.7610     5.3400    -0.1100 N.pl3 1 <1>   0.3140 
 15 C       -5.2980    -3.0830    -0.6830 C.2   1 <1>   0.0060 
 16 N       -4.7530    -2.8590    -1.8320 N.2   1 <1>  -0.5650 
 17 N        1.4910     5.9760     0.8240 N.2   1 <1>  -0.7070 
 18 C        1.3030     5.4850    -1.3360 C.2   1 <1>  -0.3020 
 19 C       -6.6460    -3.7470    -0.5100 C.3   1 <1>  -0.0600 
 20 C        2.4810     6.5040     0.1710 C.2   1 <1>   0.1390 
 21 C        2.4180     6.2320    -1.1900 C.2   1 <1>  -0.1500 
 22 H       -1.7360     2.5370     1.5610 H     1 <1>   0.0800 
 23 H       -2.3600     2.6350    -0.0650 H     1 <1>   0.0800 
 24 H       -2.2560    -1.9210     1.5800 H     1 <1>   0.0800 
 25 H       -1.3810    -1.7540     0.0900 H     1 <1>   0.0800 
 26 H       -3.6250     1.3440     1.8150 H     1 <1>   0.0800 
 27 H       -4.2110    -0.2870     1.8450 H     1 <1>   0.0800 
 28 H       -0.0340     2.8470    -0.9200 H     1 <1>   0.0800 
 29 H        0.5580     2.7910     0.7210 H     1 <1>   0.0800 
 30 H       -5.0020    -0.0650    -0.5020 H     1 <1>   0.0800 
 31 H       -4.3720     1.5750    -0.5540 H     1 <1>   0.0800 
 32 H       -0.7360     4.8580     1.2450 H     1 <1>   0.0800 
 33 H       -1.2580     4.9420    -0.4200 H     1 <1>   0.0800 
 34 H       -4.7890    -2.7420     1.3510 H     1 <1>   0.2700 
 35 H       -2.8950    -1.9590    -2.2990 H     1 <1>   0.1500 
 36 H       -6.6220     1.4070    -0.0320 H     1 <1>   0.4000 
 37 H        0.8760     5.0570    -2.2240 H     1 <1>   0.1500 
 38 H       -7.3220    -3.0850    -0.0010 H     1 <1>   0.0800 
 39 H       -6.5410    -4.6560     0.0540 H     1 <1>   0.0800 
 40 H       -7.0590    -3.9860    -1.4740 H     1 <1>   0.0800 
 41 H        3.2560     7.0860     0.6410 H     1 <1>   0.1500 
 42 H        3.1190     6.5580    -1.9360 H     1 <1>   0.1500 
@<TRIPOS>BOND
  1   1   2  2   
  2   2   3  am  
  3   2   4  1   
  4   3   5  1   
  5   3   6  1   
  6   4   7  1   
  7   4  22  1   
  8   4  23  1   
  9   5   8  1   
 10   5  24  1   
 11   5  25  1   
 12   6   9  1   
 13   6  26  1   
 14   6  27  1   
 15   7  10  1   
 16   7  28  1   
 17   7  29  1   
 18   8  11  1   
 19   8  12  2   
 20   9  13  1   
 21   9  30  1   
 22   9  31  1   
 23  10  14  1   
 24  10  32  1   
 25  10  33  1   
 26  11  15  1   
 27  11  34  1   
 28  12  16  1   
 29  12  35  1   
 30  13  36  1   
 31  14  17  1   
 32  14  18  1   
 33  15  16  2   
 34  15  19  1   
 35  17  20  2   
 36  18  21  2   
 37  18  37  1   
 38  19  38  1   
 39  19  39  1   
 40  19  40  1   
 41  20  21  1   
 42  20  41  1   
 43  21  42  1   
@<TRIPOS>SUBSTRUCTURE
  1 ****   2 GROUP 4 **** **** 0

# MOE 2024.06 (io_trps.svl 2023.06)
