@<TRIPOS>MOLECULE
NONAME
56 59 1 0 0 
SMALL
USER_CHARGES


@<TRIPOS>ATOM
  1 O        0.3740     1.1520    -0.8430 O.2   1 <1>  -0.5700 
  2 C        0.5140     2.2240    -0.2960 C.2   1 <1>   0.5440 
  3 N        1.7670     2.5220     0.1390 N.am  1 <1>  -0.7300 
  4 C       -0.6110     3.1200    -0.1090 C.ar  1 <1>   0.0860 
  5 C        2.1560     3.5280     1.1480 C.3   1 <1>   0.2840 
  6 C       -0.5550     4.4440    -0.5330 C.ar  1 <1>  -0.1500 
  7 C       -1.7850     2.6880     0.5050 C.ar  1 <1>  -0.1500 
  8 C        3.3880     4.2920     0.6870 C.ar  1 <1>  -0.1440 
  9 C       -1.6060     5.3180    -0.3290 C.ar  1 <1>   0.0830 
 10 C       -2.8480     3.5510     0.7110 C.ar  1 <1>  -0.1500 
 11 C        4.4630     4.4610     1.5460 C.ar  1 <1>  -0.1500 
 12 C        3.4470     4.8470    -0.5830 C.ar  1 <1>  -0.1500 
 13 O       -1.4300     6.5860    -0.7670 O.3   1 <1>  -0.3630 
 14 C       -2.7630     4.8690     0.3000 C.ar  1 <1>  -0.1500 
 15 C        5.5730     5.1870     1.1480 C.ar  1 <1>  -0.1500 
 16 C        4.5540     5.5740    -0.9810 C.ar  1 <1>  -0.1500 
 17 C       -2.2280     7.6440    -0.2840 C.3   1 <1>   0.1200 
 18 C        5.6210     5.7540    -0.1150 C.ar  1 <1>  -0.1440 
 19 C       -1.6510     8.9670    -0.7870 C.3   1 <1>   0.0960 
 20 C        6.8050     6.5940    -0.5520 C.3   1 <1>   0.2840 
 21 N       -0.3000     9.1980    -0.2460 N.pl3 1 <1>   0.3140 
 22 N        6.5040     7.9880    -0.1840 N.am  1 <1>  -0.7300 
 23 N       -0.0770    10.0090     0.7920 N.2   1 <1>  -0.4180 
 24 C        0.8610     8.7120    -0.6880 C.2   1 <1>  -0.3020 
 25 C        6.0950     8.9330    -1.0620 C.2   1 <1>   0.5690 
 26 N        1.1910    10.0460     1.0140 N.2   1 <1>  -0.2270 
 27 C        1.7870     9.2570     0.1140 C.2   1 <1>   0.0460 
 28 O        6.1430     8.7700    -2.2560 O.2   1 <1>  -0.5700 
 29 C        5.5150    10.2210    -0.5100 C.3   1 <1>  -0.0990 
 30 C        3.2900     9.0690     0.0830 C.3   1 <1>   0.0210 
 31 C        3.9770    10.2700    -0.5880 C.3   1 <1>  -0.1600 
 32 H        2.4970     1.8550    -0.1160 H     1 <1>   0.3700 
 33 H        2.3640     3.0220     2.0750 H     1 <1>   0.0800 
 34 H        1.3540     4.2230     1.3240 H     1 <1>   0.0800 
 35 H        0.3250     4.8050    -1.0300 H     1 <1>   0.1500 
 36 H       -1.8560     1.6610     0.8210 H     1 <1>   0.1500 
 37 H       -3.7440     3.1930     1.1900 H     1 <1>   0.1500 
 38 H        4.4430     4.0350     2.5340 H     1 <1>   0.1500 
 39 H        2.6310     4.7180    -1.2710 H     1 <1>   0.1500 
 40 H       -3.5990     5.5220     0.4670 H     1 <1>   0.1500 
 41 H        6.3950     5.3130     1.8310 H     1 <1>   0.1500 
 42 H        4.5810     6.0100    -1.9660 H     1 <1>   0.1500 
 43 H       -2.2270     7.6180     0.7920 H     1 <1>   0.0800 
 44 H       -3.2280     7.5080    -0.6550 H     1 <1>   0.0800 
 45 H       -2.2810     9.7770    -0.4720 H     1 <1>   0.0800 
 46 H       -1.6040     8.9670    -1.8600 H     1 <1>   0.0800 
 47 H        6.9530     6.5080    -1.6160 H     1 <1>   0.0800 
 48 H        7.7040     6.2730    -0.0560 H     1 <1>   0.0800 
 49 H        6.3560     8.1360     0.8130 H     1 <1>   0.3700 
 50 H        0.9530     8.0330    -1.5140 H     1 <1>   0.1500 
 51 H        5.9220    11.0400    -1.0750 H     1 <1>   0.0800 
 52 H        5.8270    10.3440     0.5100 H     1 <1>   0.0800 
 53 H        3.5130     8.1690    -0.4620 H     1 <1>   0.0800 
 54 H        3.6440     8.9470     1.0910 H     1 <1>   0.0800 
 55 H        3.6770    10.3040    -1.6220 H     1 <1>   0.0800 
 56 H        3.6340    11.1780    -0.1200 H     1 <1>   0.0800 
@<TRIPOS>BOND
  1   1   2  2   
  2   2   3  am  
  3   2   4  1   
  4   3   5  1   
  5   3  32  1   
  6   4   6  ar  
  7   4   7  ar  
  8   5   8  1   
  9   5  33  1   
 10   5  34  1   
 11   6   9  ar  
 12   6  35  1   
 13   7  10  ar  
 14   7  36  1   
 15   8  11  ar  
 16   8  12  ar  
 17   9  13  1   
 18   9  14  ar  
 19  10  14  ar  
 20  10  37  1   
 21  11  15  ar  
 22  11  38  1   
 23  12  16  ar  
 24  12  39  1   
 25  13  17  1   
 26  14  40  1   
 27  15  18  ar  
 28  15  41  1   
 29  16  18  ar  
 30  16  42  1   
 31  17  19  1   
 32  17  43  1   
 33  17  44  1   
 34  18  20  1   
 35  19  21  1   
 36  19  45  1   
 37  19  46  1   
 38  20  22  1   
 39  20  47  1   
 40  20  48  1   
 41  21  23  1   
 42  21  24  1   
 43  22  25  am  
 44  22  49  1   
 45  23  26  2   
 46  24  27  2   
 47  24  50  1   
 48  25  28  2   
 49  25  29  1   
 50  26  27  1   
 51  27  30  1   
 52  29  31  1   
 53  29  51  1   
 54  29  52  1   
 55  30  31  1   
 56  30  53  1   
 57  30  54  1   
 58  31  55  1   
 59  31  56  1   
@<TRIPOS>SUBSTRUCTURE
  1 ****  12 GROUP 4 **** **** 0

# MOE 2024.06 (io_trps.svl 2023.06)
