@<TRIPOS>MOLECULE
NONAME
51 52 1 0 0 
SMALL
USER_CHARGES


@<TRIPOS>ATOM
  1 O        1.0350     0.3830     2.1940 O.2   1 <1>  -0.5700 
  2 C        1.3740    -0.3510     1.2940 C.2   1 <1>   0.5690 
  3 N        1.8820     0.1300     0.1040 N.am  1 <1>  -0.6600 
  4 C        1.2030    -1.8460     1.5390 C.3   1 <1>   0.0440 
  5 C        1.8600     1.5820    -0.2570 C.3   1 <1>   0.2200 
  6 C        2.2880    -0.7670    -1.0200 C.3   1 <1>   0.0600 
  7 C        0.1550    -2.4790     0.6200 C.ar  1 <1>  -0.1440 
  8 C        2.5630     2.4580     0.7940 C.3   1 <1>  -0.0160 
  9 C        0.4150     2.0120    -0.5260 C.3   1 <1>  -0.2400 
 10 C        0.4410    -3.5780    -0.1890 C.ar  1 <1>   0.0820 
 11 C       -1.1190    -1.9310     0.5990 C.ar  1 <1>  -0.1500 
 12 C        3.2250     3.6640     0.1400 C.ar  1 <1>   0.1670 
 13 O        1.6980    -4.0970    -0.1460 O.3   1 <1>  -0.3630 
 14 C       -0.5530    -4.1040    -1.0080 C.ar  1 <1>  -0.1500 
 15 C       -2.1040    -2.4580    -0.2160 C.ar  1 <1>  -0.1500 
 16 N        2.4470     4.7310     0.0200 N.ar  1 <1>  -0.6200 
 17 C        4.5510     3.6160    -0.2970 C.ar  1 <1>  -0.1440 
 18 C        2.0190    -5.3060    -0.7980 C.3   1 <1>   0.0400 
 19 C       -1.8210    -3.5520    -1.0270 C.ar  1 <1>   0.0820 
 20 C        2.9960     5.7930    -0.5420 C.ar  1 <1>   0.1600 
 21 C        5.1000     4.7400    -0.8820 C.ar  1 <1>  -0.1500 
 22 C        5.4220     2.3730    -0.1570 C.3   1 <1>  -0.0970 
 23 O       -2.7260    -4.1290    -1.8580 O.3   1 <1>  -0.3620 
 24 C        4.2970     5.8510    -1.0040 C.ar  1 <1>  -0.1500 
 25 C       -4.0510    -3.6530    -1.9400 C.3   1 <1>   0.0400 
 26 H        0.8860    -1.9900     2.5550 H     1 <1>   0.0800 
 27 H        2.1620    -2.3160     1.4480 H     1 <1>   0.0800 
 28 H        2.4040     1.7050    -1.1780 H     1 <1>   0.0800 
 29 H        2.6790    -1.6960    -0.6490 H     1 <1>   0.0800 
 30 H        3.0550    -0.3020    -1.6130 H     1 <1>   0.0800 
 31 H        1.4340    -0.9700    -1.6430 H     1 <1>   0.0800 
 32 H        3.2970     1.8780     1.3190 H     1 <1>   0.0800 
 33 H        1.8510     2.7980     1.5250 H     1 <1>   0.0800 
 34 H       -0.1720     1.9490     0.3720 H     1 <1>   0.0800 
 35 H       -0.0240     1.3890    -1.2840 H     1 <1>   0.0800 
 36 H        0.3970     3.0310    -0.8690 H     1 <1>   0.0800 
 37 H       -1.3490    -1.0820     1.2220 H     1 <1>   0.1500 
 38 H       -0.3740    -4.9460    -1.6470 H     1 <1>   0.1500 
 39 H       -3.0770    -2.0050    -0.2050 H     1 <1>   0.1500 
 40 H        3.0380    -5.5530    -0.5630 H     1 <1>   0.0800 
 41 H        1.9100    -5.1710    -1.8590 H     1 <1>   0.0800 
 42 H        1.3630    -6.0810    -0.4390 H     1 <1>   0.0800 
 43 H        2.3730     6.6660    -0.6410 H     1 <1>   0.1500 
 44 H        6.1170     4.7580    -1.2330 H     1 <1>   0.1500 
 45 H        4.9120     1.5100    -0.5450 H     1 <1>   0.0800 
 46 H        5.6560     2.2050     0.8800 H     1 <1>   0.0800 
 47 H        6.3450     2.4850    -0.6970 H     1 <1>   0.0800 
 48 H        4.6730     6.7530    -1.4500 H     1 <1>   0.1500 
 49 H       -4.5810    -4.2620    -2.6500 H     1 <1>   0.0800 
 50 H       -4.0360    -2.6310    -2.2740 H     1 <1>   0.0800 
 51 H       -4.5130    -3.7370    -0.9720 H     1 <1>   0.0800 
@<TRIPOS>BOND
  1   1   2  2   
  2   2   3  am  
  3   2   4  1   
  4   3   5  1   
  5   3   6  1   
  6   4   7  1   
  7   4  26  1   
  8   4  27  1   
  9   5   8  1   
 10   5   9  1   
 11   5  28  1   
 12   6  29  1   
 13   6  30  1   
 14   6  31  1   
 15   7  10  ar  
 16   7  11  ar  
 17   8  12  1   
 18   8  32  1   
 19   8  33  1   
 20   9  34  1   
 21   9  35  1   
 22   9  36  1   
 23  10  13  1   
 24  10  14  ar  
 25  11  15  ar  
 26  11  37  1   
 27  12  16  ar  
 28  12  17  ar  
 29  13  18  1   
 30  14  19  ar  
 31  14  38  1   
 32  15  19  ar  
 33  15  39  1   
 34  16  20  ar  
 35  17  21  ar  
 36  17  22  1   
 37  18  40  1   
 38  18  41  1   
 39  18  42  1   
 40  19  23  1   
 41  20  24  ar  
 42  20  43  1   
 43  21  24  ar  
 44  21  44  1   
 45  22  45  1   
 46  22  46  1   
 47  22  47  1   
 48  23  25  1   
 49  24  48  1   
 50  25  49  1   
 51  25  50  1   
 52  25  51  1   
@<TRIPOS>SUBSTRUCTURE
  1 ****   3 GROUP 4 **** **** 0

# MOE 2024.06 (io_trps.svl 2023.06)
