@<TRIPOS>MOLECULE
NONAME
50 51 1 0 0 
SMALL
USER_CHARGES


@<TRIPOS>ATOM
  1 S        0.8280     0.9470    -1.5430 S.o2  1 <1>   1.3330 
  2 O        0.9460    -0.2730    -2.3090 O.2   1 <1>  -0.6500 
  3 O        0.1690     2.0980    -2.1160 O.2   1 <1>  -0.6500 
  4 N        0.0310     0.5770    -0.0870 N.am  1 <1>  -0.8490 
  5 C        2.4750     1.4280    -1.0180 C.3   1 <1>  -0.0550 
  6 C       -0.5320     1.7550     0.5830 C.3   1 <1>   0.1160 
  7 C       -1.0140    -0.4350    -0.2690 C.3   1 <1>   0.1160 
  8 C        3.3040     0.2880    -0.3890 C.3   1 <1>  -0.0800 
  9 C        4.7730     0.6180    -0.1620 C.3   1 <1>   0.2200 
 10 C        2.8360    -0.1690     0.9990 C.3   1 <1>   0.1200 
 11 N        4.9310     1.9940     0.3700 N.am  1 <1>  -0.7300 
 12 C        5.1120    -0.3710     0.9430 C.3   1 <1>   0.1200 
 13 O        3.9880    -0.3720     1.7660 O.3   1 <1>  -0.5600 
 14 C        5.3750     3.0540    -0.3440 C.2   1 <1>   0.5690 
 15 O        5.6030     2.9730    -1.5240 O.2   1 <1>  -0.5700 
 16 C        5.5760     4.3760     0.3600 C.3   1 <1>  -0.0990 
 17 C        5.0660     5.5370    -0.5030 C.3   1 <1>   0.0960 
 18 N        5.2650     6.8220     0.1970 N.pl3 1 <1>   0.0480 
 19 C        6.1410     7.8280    -0.0630 C.2   1 <1>   0.0070 
 20 C        4.5770     7.2400     1.2770 C.2   1 <1>  -0.3020 
 21 N        6.0520     8.8170     0.7660 N.2   1 <1>  -0.5650 
 22 C        7.1350     7.8260    -1.2150 C.3   1 <1>   0.0200 
 23 C        5.0710     8.4520     1.6080 C.2   1 <1>   0.0770 
 24 C        8.3340     6.9140    -0.9370 C.3   1 <1>  -0.2400 
 25 H        3.0060     1.7850    -1.8800 H     1 <1>   0.0800 
 26 H        2.4020     2.2450    -0.3290 H     1 <1>   0.0800 
 27 H       -0.9400     1.4760     1.5400 H     1 <1>   0.0800 
 28 H       -1.3150     2.1910    -0.0170 H     1 <1>   0.0800 
 29 H        0.2330     2.4940     0.7420 H     1 <1>   0.0800 
 30 H       -1.4910    -0.6530     0.6700 H     1 <1>   0.0800 
 31 H       -0.5830    -1.3480    -0.6460 H     1 <1>   0.0800 
 32 H       -1.7540    -0.0870    -0.9720 H     1 <1>   0.0800 
 33 H        3.2590    -0.5660    -1.0440 H     1 <1>   0.0800 
 34 H        5.3760     0.4750    -1.0440 H     1 <1>   0.0800 
 35 H        2.2820    -1.0920     0.9480 H     1 <1>   0.0800 
 36 H        2.2440     0.5800     1.4950 H     1 <1>   0.0800 
 37 H        4.7400     2.0640     1.3730 H     1 <1>   0.3700 
 38 H        5.9810    -0.0890     1.5090 H     1 <1>   0.0800 
 39 H        5.2360    -1.3650     0.5470 H     1 <1>   0.0800 
 40 H        5.0520     4.3650     1.2980 H     1 <1>   0.0800 
 41 H        6.6260     4.4990     0.5510 H     1 <1>   0.0800 
 42 H        4.0170     5.4150    -0.7050 H     1 <1>   0.0800 
 43 H        5.5890     5.5570    -1.4420 H     1 <1>   0.0800 
 44 H        3.7930     6.6730     1.7420 H     1 <1>   0.1500 
 45 H        6.6430     7.5300    -2.1240 H     1 <1>   0.0800 
 46 H        7.4910     8.8320    -1.3550 H     1 <1>   0.0800 
 47 H        4.7670     9.0920     2.4190 H     1 <1>   0.1500 
 48 H        8.0270     5.8880    -0.8650 H     1 <1>   0.0800 
 49 H        8.8020     7.2030    -0.0120 H     1 <1>   0.0800 
 50 H        9.0550     7.0030    -1.7300 H     1 <1>   0.0800 
@<TRIPOS>BOND
  1   1   2  2   
  2   1   3  2   
  3   1   4  am  
  4   1   5  1   
  5   4   6  1   
  6   4   7  1   
  7   5   8  1   
  8   5  25  1   
  9   5  26  1   
 10   6  27  1   
 11   6  28  1   
 12   6  29  1   
 13   7  30  1   
 14   7  31  1   
 15   7  32  1   
 16   8   9  1   
 17   8  10  1   
 18   8  33  1   
 19   9  11  1   
 20   9  12  1   
 21   9  34  1   
 22  10  13  1   
 23  10  35  1   
 24  10  36  1   
 25  11  14  am  
 26  11  37  1   
 27  12  13  1   
 28  12  38  1   
 29  12  39  1   
 30  14  15  2   
 31  14  16  1   
 32  16  17  1   
 33  16  40  1   
 34  16  41  1   
 35  17  18  1   
 36  17  42  1   
 37  17  43  1   
 38  18  19  1   
 39  18  20  1   
 40  19  21  2   
 41  19  22  1   
 42  20  23  2   
 43  20  44  1   
 44  21  23  1   
 45  22  24  1   
 46  22  45  1   
 47  22  46  1   
 48  23  47  1   
 49  24  48  1   
 50  24  49  1   
 51  24  50  1   
@<TRIPOS>SUBSTRUCTURE
  1 ****  14 GROUP 4 **** **** 0

# MOE 2024.06 (io_trps.svl 2023.06)
