@<TRIPOS>MOLECULE
NONAME
54 57 1 0 0 
SMALL
USER_CHARGES


@<TRIPOS>ATOM
  1 O        0.2060    -0.5660    -1.8200 O.2   1 <1>  -0.5700 
  2 C        1.0460    -1.0570    -1.0900 C.2   1 <1>   0.5440 
  3 N        1.8750    -0.2250    -0.3760 N.am  1 <1>  -0.6600 
  4 C        1.1470    -2.4980    -0.9830 C.ar  1 <1>   0.0860 
  5 C        2.6610    -0.6280     0.8120 C.3   1 <1>   0.1400 
  6 C        1.7790     1.2490    -0.4690 C.3   1 <1>   0.1400 
  7 C        0.0490    -3.2900    -0.7110 C.ar  1 <1>  -0.1500 
  8 C        2.3410    -3.1870    -1.1480 C.ar  1 <1>  -0.1500 
  9 C        2.8060     0.6480     1.6310 C.3   1 <1>  -0.1600 
 10 C        2.7240     1.7750     0.6050 C.3   1 <1>  -0.1600 
 11 C        0.1660    -4.6680    -0.6020 C.ar  1 <1>   0.4100 
 12 C        2.3690    -4.5600    -1.0200 C.ar  1 <1>   0.1600 
 13 N        1.3190    -5.3120    -0.7460 N.ar  1 <1>  -0.6200 
 14 N       -0.9590    -5.4240    -0.3380 N.pl3 1 <1>  -0.8380 
 15 C       -0.8140    -6.6960     0.4180 C.3   1 <1>   0.2090 
 16 C       -2.0200    -5.4600    -1.3750 C.3   1 <1>   0.2090 
 17 C       -2.1400    -7.0260     1.1070 C.3   1 <1>  -0.1600 
 18 C       -3.3630    -5.7620    -0.7100 C.3   1 <1>  -0.1600 
 19 C       -3.2980    -7.0700     0.0960 C.3   1 <1>   0.0630 
 20 C       -4.6370    -7.3610     0.7880 C.ar  1 <1>  -0.1430 
 21 C       -5.3920    -8.4960     0.4820 C.ar  1 <1>   0.0830 
 22 C       -5.1150    -6.4740     1.7440 C.ar  1 <1>  -0.1500 
 23 O       -4.9140    -9.3560    -0.4570 O.3   1 <1>  -0.3630 
 24 C       -6.6020    -8.7180     1.1380 C.ar  1 <1>  -0.1500 
 25 C       -6.3170    -6.7000     2.3900 C.ar  1 <1>  -0.1500 
 26 C       -5.6030   -10.5330    -0.8180 C.3   1 <1>   0.0400 
 27 C       -7.0610    -7.8230     2.0860 C.ar  1 <1>  -0.1500 
 28 H        3.6290    -0.9760     0.4920 H     1 <1>   0.0800 
 29 H        2.1600    -1.4000     1.3710 H     1 <1>   0.0800 
 30 H        0.7650     1.5490    -0.2640 H     1 <1>   0.0800 
 31 H        2.0600     1.5860    -1.4530 H     1 <1>   0.0800 
 32 H       -0.9140    -2.8370    -0.5750 H     1 <1>   0.1500 
 33 H        3.2390    -2.6450    -1.3800 H     1 <1>   0.1500 
 34 H        3.7250     0.6650     2.1890 H     1 <1>   0.0800 
 35 H        1.9780     0.7190     2.3160 H     1 <1>   0.0800 
 36 H        2.3690     2.6960     1.0320 H     1 <1>   0.0800 
 37 H        3.6920     1.9410     0.1660 H     1 <1>   0.0800 
 38 H        3.3070    -5.0730    -1.1500 H     1 <1>   0.1500 
 39 H       -0.0360    -6.5940     1.1560 H     1 <1>   0.0800 
 40 H       -0.5370    -7.4840    -0.2610 H     1 <1>   0.0800 
 41 H       -1.7830    -6.2240    -2.0960 H     1 <1>   0.0800 
 42 H       -2.0720    -4.5160    -1.8900 H     1 <1>   0.0800 
 43 H       -2.3230    -6.2800     1.8580 H     1 <1>   0.0800 
 44 H       -2.0590    -7.9780     1.5980 H     1 <1>   0.0800 
 45 H       -4.1240    -5.8460    -1.4640 H     1 <1>   0.0800 
 46 H       -3.6190    -4.9380    -0.0710 H     1 <1>   0.0800 
 47 H       -3.0700    -7.8550    -0.6020 H     1 <1>   0.0800 
 48 H       -4.5520    -5.5930     1.9950 H     1 <1>   0.1500 
 49 H       -7.2040    -9.5790     0.9240 H     1 <1>   0.1500 
 50 H       -6.6710    -6.0010     3.1280 H     1 <1>   0.1500 
 51 H       -5.0240   -11.0420    -1.5670 H     1 <1>   0.0800 
 52 H       -6.5650   -10.2650    -1.2170 H     1 <1>   0.0800 
 53 H       -5.7040   -11.1580     0.0520 H     1 <1>   0.0800 
 54 H       -7.9960    -8.0010     2.5880 H     1 <1>   0.1500 
@<TRIPOS>BOND
  1   1   2  2   
  2   2   3  am  
  3   2   4  1   
  4   3   5  1   
  5   3   6  1   
  6   4   7  ar  
  7   4   8  ar  
  8   5   9  1   
  9   5  28  1   
 10   5  29  1   
 11   6  10  1   
 12   6  30  1   
 13   6  31  1   
 14   7  11  ar  
 15   7  32  1   
 16   8  12  ar  
 17   8  33  1   
 18   9  10  1   
 19   9  34  1   
 20   9  35  1   
 21  10  36  1   
 22  10  37  1   
 23  11  13  ar  
 24  11  14  1   
 25  12  13  ar  
 26  12  38  1   
 27  14  15  1   
 28  14  16  1   
 29  15  17  1   
 30  15  39  1   
 31  15  40  1   
 32  16  18  1   
 33  16  41  1   
 34  16  42  1   
 35  17  19  1   
 36  17  43  1   
 37  17  44  1   
 38  18  19  1   
 39  18  45  1   
 40  18  46  1   
 41  19  20  1   
 42  19  47  1   
 43  20  21  ar  
 44  20  22  ar  
 45  21  23  1   
 46  21  24  ar  
 47  22  25  ar  
 48  22  48  1   
 49  23  26  1   
 50  24  27  ar  
 51  24  49  1   
 52  25  27  ar  
 53  25  50  1   
 54  26  51  1   
 55  26  52  1   
 56  26  53  1   
 57  27  54  1   
@<TRIPOS>SUBSTRUCTURE
  1 ****  14 GROUP 4 **** **** 0

# MOE 2024.06 (io_trps.svl 2023.06)
