@<TRIPOS>MOLECULE
NONAME
33 35 1 0 0 
SMALL
USER_CHARGES


@<TRIPOS>ATOM
  1 O       -0.9680     0.0750    -1.9070 O.2   1 <1>  -0.5700 
  2 C       -1.8370     0.7150    -1.3320 C.2   1 <1>   0.5440 
  3 N       -2.9930     0.0530    -0.9770 N.am  1 <1>  -0.6600 
  4 C       -1.6130     2.1210    -0.9910 C.ar  1 <1>   0.3960 
  5 C       -4.2070     0.7650    -0.4700 C.3   1 <1>   0.2350 
  6 C       -2.8650    -1.2890    -0.3470 C.3   1 <1>   0.2350 
  7 N       -1.6760     3.0430    -1.9720 N.ar  1 <1>  -0.6200 
  8 C       -1.3510     2.4790     0.3430 C.ar  1 <1>  -0.1440 
  9 C       -4.7730    -0.0950     0.6440 C.3   1 <1>  -0.2420 
 10 C       -3.9230    -1.3440     0.7390 C.3   1 <1>  -0.2420 
 11 C       -1.4880     4.3000    -1.6260 C.ar  1 <1>   0.1600 
 12 C       -1.1640     3.8050     0.6750 C.ar  1 <1>  -0.1500 
 13 C       -1.2860     1.4380     1.4620 C.3   1 <1>  -0.0970 
 14 C       -5.4370     0.7730     1.7180 C.2   1 <1>   0.9470 
 15 C       -5.3700    -1.4450     0.3500 C.3   1 <1>  -0.2000 
 16 C       -3.4010    -2.0650     1.9820 C.2   1 <1>   0.9470 
 17 C       -1.2340     4.7320    -0.3380 C.ar  1 <1>  -0.1500 
 18 O       -6.6470     0.6350     1.9440 O.co2 1 <1>  -0.9000 
 19 O       -4.7960     1.7070     2.2190 O.co2 1 <1>  -0.9000 
 20 O       -3.9210    -3.1370     2.3220 O.co2 1 <1>  -0.9000 
 21 O       -2.3710    -1.6460     2.5290 O.co2 1 <1>  -0.9000 
 22 H       -3.9570     1.7420    -0.0960 H     1 <1>   0.0800 
 23 H       -4.9310     0.8690    -1.2570 H     1 <1>   0.0800 
 24 H       -3.0290    -2.0610    -1.0760 H     1 <1>   0.0800 
 25 H       -1.8800    -1.4040     0.0740 H     1 <1>   0.0800 
 26 H       -1.5410     5.0320    -2.4120 H     1 <1>   0.1500 
 27 H       -0.9800     4.1040     1.6930 H     1 <1>   0.1500 
 28 H       -0.8200     1.8380     2.3430 H     1 <1>   0.0800 
 29 H       -0.7290     0.5690     1.1580 H     1 <1>   0.0800 
 30 H       -2.2770     1.1190     1.7360 H     1 <1>   0.0800 
 31 H       -5.6380    -1.6920    -0.6600 H     1 <1>   0.1000 
 32 H       -6.0520    -1.8640     1.0720 H     1 <1>   0.1000 
 33 H       -1.0970     5.7770    -0.1330 H     1 <1>   0.1500 
@<TRIPOS>BOND
  1   1   2  2   
  2   2   3  am  
  3   2   4  1   
  4   3   5  1   
  5   3   6  1   
  6   4   7  ar  
  7   4   8  ar  
  8   5   9  1   
  9   5  22  1   
 10   5  23  1   
 11   6  10  1   
 12   6  24  1   
 13   6  25  1   
 14   7  11  ar  
 15   8  12  ar  
 16   8  13  1   
 17   9  10  1   
 18   9  14  1   
 19   9  15  1   
 20  10  15  1   
 21  10  16  1   
 22  11  17  ar  
 23  11  26  1   
 24  12  17  ar  
 25  12  27  1   
 26  13  28  1   
 27  13  29  1   
 28  13  30  1   
 29  14  18  ar  
 30  14  19  ar  
 31  15  31  1   
 32  15  32  1   
 33  16  20  ar  
 34  16  21  ar  
 35  17  33  1   
@<TRIPOS>SUBSTRUCTURE
  1 ****   5 GROUP 4 **** **** 0

# MOE 2024.06 (io_trps.svl 2023.06)
