@<TRIPOS>MOLECULE
NONAME
56 60 1 0 0 
SMALL
USER_CHARGES


@<TRIPOS>ATOM
  1 N        1.3980     0.4020     1.3090 N.ar  1 <1>  -0.6200 
  2 C        0.5510     1.3870     1.0330 C.ar  1 <1>   0.4760 
  3 C        2.2200     0.1150     0.3270 C.ar  1 <1>   0.1660 
  4 N        0.4590     2.0910    -0.0870 N.ar  1 <1>  -0.6200 
  5 C       -0.4280     1.7470     2.1240 C.3   1 <1>  -0.0960 
  6 C        2.2250     0.7690    -0.8670 C.ar  1 <1>  -0.1440 
  7 C        3.2770    -0.9610     0.3830 C.3   1 <1>   0.1430 
  8 C        1.3070     1.7750    -1.0430 C.ar  1 <1>   0.1600 
  9 C        3.2890     0.2310    -1.7910 C.3   1 <1>  -0.0160 
 10 C        4.0320    -0.8350     1.7170 C.3   1 <1>   0.3430 
 11 C        2.6220    -2.3530     0.2570 C.3   1 <1>  -0.1600 
 12 C        4.1600    -0.6190    -0.8460 C.3   1 <1>  -0.1600 
 13 N        4.9900    -1.9740     1.9300 N.4   1 <1>  -0.9590 
 14 C        3.6110    -3.4900     0.5700 C.3   1 <1>  -0.1600 
 15 C        4.3010    -3.2910     1.9210 C.3   1 <1>   0.3430 
 16 C        5.8030    -1.7680     3.1550 C.3   1 <1>   0.5240 
 17 C        6.7360    -0.5980     2.9210 C.2   1 <1>  -0.1810 
 18 C        7.6260    -0.4750     1.8480 C.2   1 <1>   0.2350 
 19 C        6.8870     0.5310     3.6450 C.2   1 <1>  -0.3020 
 20 N        8.2600     0.6640     1.9030 N.2   1 <1>  -0.7070 
 21 C        7.7810    -1.4450     0.7870 C.ar  1 <1>   0.0540 
 22 N        7.8180     1.2730     3.0140 N.pl3 1 <1>   0.3000 
 23 C        7.6160    -1.0670    -0.5410 C.ar  1 <1>  -0.1500 
 24 C        8.0370    -2.7880     1.0530 C.ar  1 <1>  -0.1500 
 25 C        7.6380    -2.0010    -1.5600 C.ar  1 <1>  -0.1500 
 26 C        8.0590    -3.7270     0.0380 C.ar  1 <1>  -0.1500 
 27 C        7.8460    -3.3400    -1.2740 C.ar  1 <1>  -0.1440 
 28 C        7.8760    -4.3650    -2.3940 C.3   1 <1>  -0.0970 
 29 H        0.0340     1.6380     3.0870 H     1 <1>   0.0800 
 30 H       -1.2800     1.0960     2.0640 H     1 <1>   0.0800 
 31 H       -0.7560     2.7640     2.0090 H     1 <1>   0.0800 
 32 H        1.2640     2.3250    -1.9680 H     1 <1>   0.1500 
 33 H        3.8550     1.0220    -2.2530 H     1 <1>   0.0800 
 34 H        2.8320    -0.3820    -2.5490 H     1 <1>   0.0800 
 35 H        3.3080    -0.8190     2.5160 H     1 <1>   0.0800 
 36 H        4.5590     0.1050     1.7320 H     1 <1>   0.0800 
 37 H        2.2100    -2.4810    -0.7300 H     1 <1>   0.0800 
 38 H        1.7990    -2.4120     0.9510 H     1 <1>   0.0800 
 39 H        4.5490    -1.4880    -1.3470 H     1 <1>   0.0800 
 40 H        4.9860    -0.0060    -0.5310 H     1 <1>   0.0800 
 41 H        5.6550    -1.9670     1.1410 H     1 <1>   0.4500 
 42 H        4.3570    -3.5650    -0.2030 H     1 <1>   0.0800 
 43 H        3.0780    -4.4250     0.5860 H     1 <1>   0.0800 
 44 H        3.5650    -3.3260     2.7100 H     1 <1>   0.0800 
 45 H        5.0130    -4.0850     2.0800 H     1 <1>   0.0800 
 46 H        6.3890    -2.6480     3.3640 H     1 <1>   0.0800 
 47 H        5.1660    -1.5700     4.0020 H     1 <1>   0.0800 
 48 H        6.4050     0.8580     4.5510 H     1 <1>   0.1500 
 49 H        8.1710     2.1940     3.3110 H     1 <1>   0.2700 
 50 H        7.4730    -0.0250    -0.7720 H     1 <1>   0.1500 
 51 H        8.2360    -3.1020     2.0630 H     1 <1>   0.1500 
 52 H        7.5050    -1.6810    -2.5800 H     1 <1>   0.1500 
 53 H        8.2580    -4.7600     0.2660 H     1 <1>   0.1500 
 54 H        7.2070    -4.0800    -3.1860 H     1 <1>   0.0800 
 55 H        7.5800    -5.3340    -2.0320 H     1 <1>   0.0800 
 56 H        8.8720    -4.4360    -2.7930 H     1 <1>   0.0800 
@<TRIPOS>BOND
  1   1   2  ar  
  2   1   3  ar  
  3   2   4  ar  
  4   2   5  1   
  5   3   6  ar  
  6   3   7  1   
  7   4   8  ar  
  8   5  29  1   
  9   5  30  1   
 10   5  31  1   
 11   6   8  ar  
 12   6   9  1   
 13   7  10  1   
 14   7  11  1   
 15   7  12  1   
 16   8  32  1   
 17   9  12  1   
 18   9  33  1   
 19   9  34  1   
 20  10  13  1   
 21  10  35  1   
 22  10  36  1   
 23  11  14  1   
 24  11  37  1   
 25  11  38  1   
 26  12  39  1   
 27  12  40  1   
 28  13  15  1   
 29  13  16  1   
 30  13  41  1   
 31  14  15  1   
 32  14  42  1   
 33  14  43  1   
 34  15  44  1   
 35  15  45  1   
 36  16  17  1   
 37  16  46  1   
 38  16  47  1   
 39  17  18  1   
 40  17  19  2   
 41  18  20  2   
 42  18  21  1   
 43  19  22  1   
 44  19  48  1   
 45  20  22  1   
 46  21  23  ar  
 47  21  24  ar  
 48  22  49  1   
 49  23  25  ar  
 50  23  50  1   
 51  24  26  ar  
 52  24  51  1   
 53  25  27  ar  
 54  25  52  1   
 55  26  27  ar  
 56  26  53  1   
 57  27  28  1   
 58  28  54  1   
 59  28  55  1   
 60  28  56  1   
@<TRIPOS>SUBSTRUCTURE
  1 ****  10 GROUP 4 **** **** 0

# MOE 2024.06 (io_trps.svl 2023.06)
