@<TRIPOS>MOLECULE
NONAME
52 55 1 0 0 
SMALL
USER_CHARGES


@<TRIPOS>ATOM
  1 O        0.2230     1.2570    -4.0460 O.2   1 <1>  -0.5700 
  2 C        0.4270     1.9740    -3.0930 C.2   1 <1>   0.5690 
  3 N       -0.5850     2.3320    -2.2330 N.am  1 <1>  -0.6600 
  4 C        1.8570     2.4670    -2.8980 C.3   1 <1>   0.0440 
  5 C       -1.9590     1.7690    -2.4160 C.3   1 <1>   0.1400 
  6 C       -0.3700     3.1990    -1.0330 C.3   1 <1>   0.1400 
  7 C        2.4840     2.0440    -1.5710 C.ar  1 <1>  -0.1440 
  8 C       -2.6050     1.4860    -1.0590 C.3   1 <1>  -0.1600 
  9 C       -1.6900     3.8220    -0.5840 C.3   1 <1>  -0.1600 
 10 C        2.3350     0.7460    -1.1070 C.ar  1 <1>  -0.1500 
 11 C        3.2020     2.9550    -0.8120 C.ar  1 <1>  -0.1500 
 12 C       -2.6960     2.7370    -0.1650 C.3   1 <1>   0.4180 
 13 C        2.8890     0.3650     0.1020 C.ar  1 <1>  -0.1500 
 14 C        3.7590     2.5750     0.3950 C.ar  1 <1>  -0.1500 
 15 O       -2.3680     2.2920     1.1280 O.3   1 <1>  -0.5600 
 16 C       -4.1190     3.2950    -0.1960 C.2   1 <1>  -0.2880 
 17 C        3.6140     1.2740     0.8650 C.ar  1 <1>  -0.0230 
 18 C       -2.8160     3.0470     2.2200 C.3   1 <1>   0.1200 
 19 C       -4.8890     3.4510     0.8830 C.2   1 <1>  -0.2760 
 20 N        4.2020     0.8860     2.1010 N.pl3 1 <1>   0.5930 
 21 C       -4.3490     3.0960     2.2560 C.3   1 <1>  -0.0220 
 22 C       -6.3180     3.9640     0.8560 C.3   1 <1>  -0.1020 
 23 N        3.9150     1.4350     3.2710 N.2   1 <1>  -0.4180 
 24 C        5.1380    -0.0310     2.3370 C.2   1 <1>   0.0060 
 25 N        4.6470     0.8510     4.1480 N.2   1 <1>   0.0000 
 26 N        5.4190    -0.0680     3.5820 N.2   1 <1>  -0.3380 
 27 C        5.7950    -0.9040     1.2810 C.3   1 <1>  -0.0600 
 28 H        1.8580     3.5370    -2.9910 H     1 <1>   0.0800 
 29 H        2.4630     2.0790    -3.6970 H     1 <1>   0.0800 
 30 H       -1.9130     0.8540    -2.9820 H     1 <1>   0.0800 
 31 H       -2.5550     2.4730    -2.9710 H     1 <1>   0.0800 
 32 H        0.3290     3.9830    -1.2640 H     1 <1>   0.0800 
 33 H        0.0370     2.6020    -0.2330 H     1 <1>   0.0800 
 34 H       -2.0140     0.7310    -0.5710 H     1 <1>   0.0800 
 35 H       -3.5860     1.0770    -1.2120 H     1 <1>   0.0800 
 36 H       -2.0890     4.3910    -1.4030 H     1 <1>   0.0800 
 37 H       -1.5180     4.5100     0.2210 H     1 <1>   0.0800 
 38 H        1.7780     0.0260    -1.6840 H     1 <1>   0.1500 
 39 H        3.3310     3.9670    -1.1550 H     1 <1>   0.1500 
 40 H        2.7480    -0.6440     0.4500 H     1 <1>   0.1500 
 41 H        4.3090     3.2950     0.9790 H     1 <1>   0.1500 
 42 H       -4.4460     3.5410    -1.1900 H     1 <1>   0.1500 
 43 H       -2.4120     4.0400     2.1450 H     1 <1>   0.0800 
 44 H       -2.4360     2.5870     3.1150 H     1 <1>   0.0800 
 45 H       -4.6500     3.8320     2.9790 H     1 <1>   0.0800 
 46 H       -4.7360     2.1410     2.5650 H     1 <1>   0.0800 
 47 H       -6.9830     3.2260     1.2660 H     1 <1>   0.0800 
 48 H       -6.6230     4.1750    -0.1540 H     1 <1>   0.0800 
 49 H       -6.4010     4.8680     1.4330 H     1 <1>   0.0800 
 50 H        6.1650    -0.2980     0.4740 H     1 <1>   0.0800 
 51 H        5.0880    -1.6150     0.8950 H     1 <1>   0.0800 
 52 H        6.6210    -1.4420     1.7130 H     1 <1>   0.0800 
@<TRIPOS>BOND
  1   1   2  2   
  2   2   3  am  
  3   2   4  1   
  4   3   5  1   
  5   3   6  1   
  6   4   7  1   
  7   4  28  1   
  8   4  29  1   
  9   5   8  1   
 10   5  30  1   
 11   5  31  1   
 12   6   9  1   
 13   6  32  1   
 14   6  33  1   
 15   7  10  ar  
 16   7  11  ar  
 17   8  12  1   
 18   8  34  1   
 19   8  35  1   
 20   9  12  1   
 21   9  36  1   
 22   9  37  1   
 23  10  13  ar  
 24  10  38  1   
 25  11  14  ar  
 26  11  39  1   
 27  12  15  1   
 28  12  16  1   
 29  13  17  ar  
 30  13  40  1   
 31  14  17  ar  
 32  14  41  1   
 33  15  18  1   
 34  16  19  2   
 35  16  42  1   
 36  17  20  1   
 37  18  21  1   
 38  18  43  1   
 39  18  44  1   
 40  19  21  1   
 41  19  22  1   
 42  20  23  1   
 43  20  24  1   
 44  21  45  1   
 45  21  46  1   
 46  22  47  1   
 47  22  48  1   
 48  22  49  1   
 49  23  25  2   
 50  24  26  2   
 51  24  27  1   
 52  25  26  1   
 53  27  50  1   
 54  27  51  1   
 55  27  52  1   
@<TRIPOS>SUBSTRUCTURE
  1 ****   6 GROUP 4 **** **** 0

# MOE 2024.06 (io_trps.svl 2023.06)
