@<TRIPOS>MOLECULE
NONAME
53 56 1 0 0 
SMALL
USER_CHARGES


@<TRIPOS>ATOM
  1 O        0.5830     0.0890    -1.1380 O.2   1 <1>  -0.5700 
  2 C        1.4530    -0.7330    -0.9210 C.2   1 <1>   0.5440 
  3 N        2.6670    -0.3210    -0.4110 N.am  1 <1>  -0.6600 
  4 C        1.1790    -2.1260    -1.1990 C.ar  1 <1>   0.0860 
  5 C        2.9920     1.1220    -0.2270 C.3   1 <1>   0.1400 
  6 C        3.6770    -1.2500     0.1720 C.3   1 <1>   0.1400 
  7 C        0.1950    -2.8270    -0.5310 C.ar  1 <1>  -0.1500 
  8 C        1.8830    -2.8530    -2.1480 C.ar  1 <1>  -0.1500 
  9 C        3.1430     1.4290     1.2670 C.3   1 <1>  -0.1600 
 10 C        3.8340    -0.9640     1.6690 C.3   1 <1>  -0.1600 
 11 C       -0.0410    -4.1690    -0.8020 C.ar  1 <1>   0.4100 
 12 C        1.5860    -4.1840    -2.3530 C.ar  1 <1>   0.1600 
 13 C        4.1760     0.5090     1.9330 C.3   1 <1>  -0.1600 
 14 N        0.6530    -4.8530    -1.7030 N.ar  1 <1>  -0.6200 
 15 N       -1.0360    -4.8380    -0.1100 N.pl3 1 <1>  -0.8380 
 16 C       -2.4040    -4.2550    -0.0760 C.3   1 <1>   0.2090 
 17 C       -1.1420    -6.3230    -0.1820 C.3   1 <1>   0.2090 
 18 C       -3.3680    -5.4450    -0.0370 C.3   1 <1>   0.2000 
 19 C       -2.5250    -6.6460     0.3790 C.3   1 <1>  -0.0800 
 20 O       -4.3910    -5.2510     0.8820 O.3   1 <1>  -0.6800 
 21 C       -3.1070    -7.9820    -0.1120 C.3   1 <1>  -0.0170 
 22 C       -2.2660    -9.1620     0.3440 C.ar  1 <1>   0.1670 
 23 N       -1.2090    -9.4530    -0.3980 N.ar  1 <1>  -0.6200 
 24 C       -2.6280    -9.8630     1.4850 C.ar  1 <1>  -0.1500 
 25 C       -0.4820   -10.4790     0.0130 C.ar  1 <1>   0.1600 
 26 C       -1.8630   -10.9310     1.9020 C.ar  1 <1>  -0.1500 
 27 C       -0.7590   -11.2400     1.1370 C.ar  1 <1>  -0.1500 
 28 H        3.9120     1.3400    -0.7400 H     1 <1>   0.0800 
 29 H        2.2220     1.7450    -0.6490 H     1 <1>   0.0800 
 30 H        3.3870    -2.2770     0.0400 H     1 <1>   0.0800 
 31 H        4.6190    -1.1010    -0.3280 H     1 <1>   0.0800 
 32 H       -0.3920    -2.3290     0.2150 H     1 <1>   0.1500 
 33 H        2.6550    -2.3720    -2.7190 H     1 <1>   0.1500 
 34 H        3.4380     2.4560     1.3890 H     1 <1>   0.0800 
 35 H        2.1840     1.3050     1.7400 H     1 <1>   0.0800 
 36 H        2.9140    -1.2170     2.1680 H     1 <1>   0.0800 
 37 H        4.6080    -1.5920     2.0730 H     1 <1>   0.0800 
 38 H        2.1450    -4.7330    -3.0920 H     1 <1>   0.1500 
 39 H        4.1970     0.6940     2.9940 H     1 <1>   0.0800 
 40 H        5.1530     0.7260     1.5380 H     1 <1>   0.0800 
 41 H       -2.5070    -3.6470     0.8060 H     1 <1>   0.0800 
 42 H       -2.5790    -3.6590    -0.9550 H     1 <1>   0.0800 
 43 H       -1.0710    -6.6480    -1.2080 H     1 <1>   0.0800 
 44 H       -0.3600    -6.7920     0.3910 H     1 <1>   0.0800 
 45 H       -3.8050    -5.5890    -1.0100 H     1 <1>   0.0800 
 46 H       -2.4300    -6.6680     1.4500 H     1 <1>   0.0800 
 47 H       -4.0150    -5.1250     1.7750 H     1 <1>   0.4000 
 48 H       -3.1640    -7.9880    -1.1860 H     1 <1>   0.0800 
 49 H       -4.1090    -8.0900     0.2640 H     1 <1>   0.0800 
 50 H       -3.5000    -9.5770     2.0450 H     1 <1>   0.1500 
 51 H        0.3820   -10.7280    -0.5780 H     1 <1>   0.1500 
 52 H       -2.1140   -11.4970     2.7830 H     1 <1>   0.1500 
 53 H       -0.1180   -12.0600     1.4040 H     1 <1>   0.1500 
@<TRIPOS>BOND
  1   1   2  2   
  2   2   3  am  
  3   2   4  1   
  4   3   5  1   
  5   3   6  1   
  6   4   7  ar  
  7   4   8  ar  
  8   5   9  1   
  9   5  28  1   
 10   5  29  1   
 11   6  10  1   
 12   6  30  1   
 13   6  31  1   
 14   7  11  ar  
 15   7  32  1   
 16   8  12  ar  
 17   8  33  1   
 18   9  13  1   
 19   9  34  1   
 20   9  35  1   
 21  10  13  1   
 22  10  36  1   
 23  10  37  1   
 24  11  14  ar  
 25  11  15  1   
 26  12  14  ar  
 27  12  38  1   
 28  13  39  1   
 29  13  40  1   
 30  15  16  1   
 31  15  17  1   
 32  16  18  1   
 33  16  41  1   
 34  16  42  1   
 35  17  19  1   
 36  17  43  1   
 37  17  44  1   
 38  18  19  1   
 39  18  20  1   
 40  18  45  1   
 41  19  21  1   
 42  19  46  1   
 43  20  47  1   
 44  21  22  1   
 45  21  48  1   
 46  21  49  1   
 47  22  23  ar  
 48  22  24  ar  
 49  23  25  ar  
 50  24  26  ar  
 51  24  50  1   
 52  25  27  ar  
 53  25  51  1   
 54  26  27  ar  
 55  26  52  1   
 56  27  53  1   
@<TRIPOS>SUBSTRUCTURE
  1 ****  11 GROUP 4 **** **** 0

# MOE 2024.06 (io_trps.svl 2023.06)
