@<TRIPOS>MOLECULE
NONAME
56 58 1 0 0 
SMALL
USER_CHARGES


@<TRIPOS>ATOM
  1 F       -0.8830    -0.0780     0.9700 F     1 <1>  -0.1900 
  2 C       -2.0860     0.3030     0.6220 C.ar  1 <1>   0.1900 
  3 C       -2.7130     1.4090     1.2060 C.ar  1 <1>   0.0830 
  4 C       -2.7080    -0.4480    -0.3570 C.ar  1 <1>  -0.1500 
  5 O       -2.2060     2.2250     2.1750 O.3   1 <1>  -0.3630 
  6 C       -3.9870     1.7310     0.7680 C.ar  1 <1>  -0.1500 
  7 C       -3.9810    -0.0990    -0.7710 C.ar  1 <1>  -0.1500 
  8 C       -0.9340     2.0330     2.7540 C.3   1 <1>   0.0400 
  9 C       -4.6490     0.9930    -0.2150 C.ar  1 <1>   0.0530 
 10 C       -5.9730     1.3710    -0.6430 C.2   1 <1>   0.0870 
 11 O       -6.2390     2.6350    -0.8500 O.3   1 <1>  -0.0190 
 12 C       -7.1130     0.6750    -0.9110 C.2   1 <1>  -0.0860 
 13 N       -7.4640     2.8420    -1.2490 N.2   1 <1>  -0.4100 
 14 C       -8.0110     1.6800    -1.2970 C.2   1 <1>   0.3720 
 15 C       -7.4010    -0.7260    -0.8190 C.2   1 <1>   0.7160 
 16 N       -9.3480     1.4900    -1.6830 N.pl3 1 <1>  -0.8210 
 17 O       -6.6010    -1.5170    -0.3550 O.2   1 <1>  -0.5700 
 18 N       -8.6000    -1.2130    -1.2400 N.am  1 <1>  -0.7300 
 19 C      -10.3110     2.0130    -0.6750 C.3   1 <1>   0.1290 
 20 C       -9.6440     2.0320    -3.0380 C.3   1 <1>   0.1290 
 21 C       -9.0230    -2.6340    -1.2350 C.3   1 <1>   0.1400 
 22 C       -9.4220    -3.0610     0.1760 C.3   1 <1>   0.0960 
 23 N       -9.6660    -4.5090     0.1870 N.pl3 1 <1>   0.3140 
 24 N      -10.8730    -5.0050    -0.1320 N.2   1 <1>  -0.7070 
 25 C       -8.7770    -5.4940     0.4550 C.2   1 <1>  -0.3320 
 26 C      -10.7340    -6.2890    -0.0530 C.2   1 <1>   0.1080 
 27 C       -9.4430    -6.6620     0.3130 C.2   1 <1>  -0.1810 
 28 C       -7.3240    -5.2350     0.8310 C.3   1 <1>  -0.0600 
 29 C      -11.8770    -7.2380    -0.3340 C.3   1 <1>  -0.0590 
 30 C       -8.9510    -8.0860     0.4950 C.3   1 <1>  -0.0590 
 31 H       -2.2010    -1.2930    -0.7880 H     1 <1>   0.1500 
 32 H       -4.4800     2.5800     1.2070 H     1 <1>   0.1500 
 33 H       -4.4640    -0.6820    -1.5350 H     1 <1>   0.1500 
 34 H       -0.7850     2.7990     3.4930 H     1 <1>   0.0800 
 35 H       -0.1840     2.1160     1.9880 H     1 <1>   0.0800 
 36 H       -0.9040     1.0650     3.2220 H     1 <1>   0.0800 
 37 H       -9.2700    -0.5010    -1.5730 H     1 <1>   0.3700 
 38 H      -10.0730     1.6180     0.2980 H     1 <1>   0.0800 
 39 H      -11.3130     1.7170    -0.9330 H     1 <1>   0.0800 
 40 H      -10.2570     3.0880    -0.6330 H     1 <1>   0.0800 
 41 H       -8.9010     1.6910    -3.7390 H     1 <1>   0.0800 
 42 H       -9.6330     3.1090    -3.0200 H     1 <1>   0.0800 
 43 H      -10.6110     1.6930    -3.3680 H     1 <1>   0.0800 
 44 H       -8.2020    -3.2430    -1.5750 H     1 <1>   0.0800 
 45 H       -9.8550    -2.7670    -1.9050 H     1 <1>   0.0800 
 46 H      -10.3230    -2.5610     0.4760 H     1 <1>   0.0800 
 47 H       -8.6380    -2.8360     0.8740 H     1 <1>   0.0800 
 48 H       -6.8440    -4.6350     0.0780 H     1 <1>   0.0800 
 49 H       -6.7800    -6.1550     0.9240 H     1 <1>   0.0800 
 50 H       -7.2730    -4.7140     1.7710 H     1 <1>   0.0800 
 51 H      -12.6870    -6.7050    -0.7970 H     1 <1>   0.0800 
 52 H      -12.2230    -7.6680     0.5870 H     1 <1>   0.0800 
 53 H      -11.5520    -8.0190    -0.9950 H     1 <1>   0.0800 
 54 H       -7.9520    -8.1010     0.8870 H     1 <1>   0.0800 
 55 H       -8.9580    -8.5960    -0.4510 H     1 <1>   0.0800 
 56 H       -9.5930    -8.6080     1.1800 H     1 <1>   0.0800 
@<TRIPOS>BOND
  1   1   2  1   
  2   2   3  ar  
  3   2   4  ar  
  4   3   5  1   
  5   3   6  ar  
  6   4   7  ar  
  7   4  31  1   
  8   5   8  1   
  9   6   9  ar  
 10   6  32  1   
 11   7   9  ar  
 12   7  33  1   
 13   8  34  1   
 14   8  35  1   
 15   8  36  1   
 16   9  10  1   
 17  10  11  1   
 18  10  12  2   
 19  11  13  1   
 20  12  14  1   
 21  12  15  1   
 22  13  14  2   
 23  14  16  1   
 24  15  17  2   
 25  15  18  am  
 26  16  19  1   
 27  16  20  1   
 28  18  21  1   
 29  18  37  1   
 30  19  38  1   
 31  19  39  1   
 32  19  40  1   
 33  20  41  1   
 34  20  42  1   
 35  20  43  1   
 36  21  22  1   
 37  21  44  1   
 38  21  45  1   
 39  22  23  1   
 40  22  46  1   
 41  22  47  1   
 42  23  24  1   
 43  23  25  1   
 44  24  26  2   
 45  25  27  2   
 46  25  28  1   
 47  26  27  1   
 48  26  29  1   
 49  27  30  1   
 50  28  48  1   
 51  28  49  1   
 52  28  50  1   
 53  29  51  1   
 54  29  52  1   
 55  29  53  1   
 56  30  54  1   
 57  30  55  1   
 58  30  56  1   
@<TRIPOS>SUBSTRUCTURE
  1 ****  17 GROUP 4 **** **** 0

# MOE 2024.06 (io_trps.svl 2023.06)
