@<TRIPOS>MOLECULE
NONAME
45 47 1 0 0 
SMALL
USER_CHARGES


@<TRIPOS>ATOM
  1 S        0.7610    -0.4980    -1.1410 S.3   1 <1>  -0.4600 
  2 C        1.0810     1.2230    -1.6220 C.3   1 <1>   0.0700 
  3 C        1.6850    -0.6300     0.4170 C.3   1 <1>   0.0700 
  4 C        2.5940     1.4770    -1.6290 C.3   1 <1>   0.1400 
  5 C        3.1320    -0.1880     0.1770 C.3   1 <1>   0.1400 
  6 N        3.1880     1.2350    -0.2780 N.am  1 <1>  -0.6600 
  7 C        3.6620     2.2440     0.5380 C.2   1 <1>   0.7160 
  8 O        4.0450     1.9600     1.6590 O.2   1 <1>  -0.5700 
  9 C        3.7640     3.5990     0.1010 C.2   1 <1>  -0.0860 
 10 C        2.6970     4.4730    -0.1280 C.2   1 <1>   0.3720 
 11 C        4.8620     4.3500    -0.1810 C.2   1 <1>   0.0870 
 12 N        3.1200     5.6200    -0.5300 N.2   1 <1>  -0.4100 
 13 N        1.3400     4.1600     0.0500 N.pl3 1 <1>  -0.8210 
 14 O        4.4230     5.5280    -0.5500 O.3   1 <1>  -0.0190 
 15 C        6.2820     4.0820    -0.1490 C.ar  1 <1>   0.0530 
 16 C        0.3760     5.0480    -0.6610 C.3   1 <1>   0.1290 
 17 C        0.9460     3.9470     1.4710 C.3   1 <1>   0.1290 
 18 C        7.2020     5.1320    -0.0780 C.ar  1 <1>  -0.1500 
 19 C        6.7920     2.7810    -0.1910 C.ar  1 <1>  -0.1500 
 20 C        8.5710     4.9260    -0.0480 C.ar  1 <1>   0.0830 
 21 C        8.1540     2.5400    -0.1600 C.ar  1 <1>  -0.1500 
 22 O        9.3310     6.0570     0.0220 O.3   1 <1>  -0.3630 
 23 C        9.0300     3.6050    -0.0900 C.ar  1 <1>   0.1900 
 24 C       10.7390     6.0350     0.1000 C.3   1 <1>   0.0400 
 25 F       10.3040     3.3100    -0.0670 F     1 <1>  -0.1900 
 26 H        0.5800     1.8570    -0.9140 H     1 <1>   0.0800 
 27 H        0.6570     1.3640    -2.6000 H     1 <1>   0.0800 
 28 H        1.6370    -1.6570     0.7300 H     1 <1>   0.0800 
 29 H        1.2020    -0.0020     1.1430 H     1 <1>   0.0800 
 30 H        2.7750     2.4860    -1.9540 H     1 <1>   0.0800 
 31 H        3.0590     0.8200    -2.3430 H     1 <1>   0.0800 
 32 H        3.5790    -0.8190    -0.5720 H     1 <1>   0.0800 
 33 H        3.6930    -0.3180     1.0870 H     1 <1>   0.0800 
 34 H        0.6760     5.1650    -1.6890 H     1 <1>   0.0800 
 35 H        0.3550     6.0190    -0.1950 H     1 <1>   0.0800 
 36 H       -0.6100     4.6190    -0.6350 H     1 <1>   0.0800 
 37 H        1.6430     3.2930     1.9650 H     1 <1>   0.0800 
 38 H       -0.0310     3.4990     1.5160 H     1 <1>   0.0800 
 39 H        0.9300     4.8890     1.9920 H     1 <1>   0.0800 
 40 H        6.8450     6.1460    -0.0430 H     1 <1>   0.1500 
 41 H        6.1260     1.9410    -0.2500 H     1 <1>   0.1500 
 42 H        8.5360     1.5350    -0.1900 H     1 <1>   0.1500 
 43 H       11.0860     7.0500     0.1660 H     1 <1>   0.0800 
 44 H       11.1320     5.5720    -0.7870 H     1 <1>   0.0800 
 45 H       11.0330     5.4920     0.9820 H     1 <1>   0.0800 
@<TRIPOS>BOND
  1   1   2  1   
  2   1   3  1   
  3   2   4  1   
  4   2  26  1   
  5   2  27  1   
  6   3   5  1   
  7   3  28  1   
  8   3  29  1   
  9   4   6  1   
 10   4  30  1   
 11   4  31  1   
 12   5   6  1   
 13   5  32  1   
 14   5  33  1   
 15   6   7  am  
 16   7   8  2   
 17   7   9  1   
 18   9  10  1   
 19   9  11  2   
 20  10  12  2   
 21  10  13  1   
 22  11  14  1   
 23  11  15  1   
 24  12  14  1   
 25  13  16  1   
 26  13  17  1   
 27  15  18  ar  
 28  15  19  ar  
 29  16  34  1   
 30  16  35  1   
 31  16  36  1   
 32  17  37  1   
 33  17  38  1   
 34  17  39  1   
 35  18  20  ar  
 36  18  40  1   
 37  19  21  ar  
 38  19  41  1   
 39  20  22  1   
 40  20  23  ar  
 41  21  23  ar  
 42  21  42  1   
 43  22  24  1   
 44  23  25  1   
 45  24  43  1   
 46  24  44  1   
 47  24  45  1   
@<TRIPOS>SUBSTRUCTURE
  1 ****   9 GROUP 4 **** **** 0

# MOE 2024.06 (io_trps.svl 2023.06)
