@<TRIPOS>MOLECULE
NONAME
50 53 1 0 0 
SMALL
USER_CHARGES


@<TRIPOS>ATOM
  1 O       -0.8770     0.8820     0.5710 O.2   1 <1>  -0.5700 
  2 C       -0.0040     1.7090     0.5470 C.2   1 <1>   0.5950 
  3 C       -0.0740     2.9700    -0.1300 C.2   1 <1>  -0.0860 
  4 C        1.2950     1.4300     1.2990 C.3   1 <1>  -0.0990 
  5 C       -1.0160     3.5080    -1.0410 C.2   1 <1>  -0.0860 
  6 C        0.8680     3.9320     0.0080 C.2   1 <1>  -0.0400 
  7 C        1.9260     2.7070     1.9080 C.3   1 <1>  -0.1600 
  8 C       -0.5270     4.7390    -1.3530 C.2   1 <1>  -0.0400 
  9 C       -2.2160     2.8750    -1.5300 C.2   1 <1>   0.7160 
 10 O        0.5970     4.9800    -0.7210 O.3   1 <1>  -0.2800 
 11 C        2.1030     3.8420     0.8780 C.3   1 <1>   0.0200 
 12 C       -1.0840     5.7990    -2.2790 C.3   1 <1>  -0.0600 
 13 O       -2.2580     2.5070    -2.6900 O.2   1 <1>  -0.5700 
 14 N       -3.3230     2.7250    -0.7220 N.am  1 <1>  -0.6600 
 15 C       -3.3370     3.2250     0.6850 C.3   1 <1>   0.1400 
 16 C       -4.6020     2.1730    -1.2420 C.3   1 <1>   0.1400 
 17 C       -4.7640     3.3980     1.2190 C.3   1 <1>  -0.1600 
 18 C       -5.7300     3.2060    -1.1130 C.3   1 <1>  -0.1600 
 19 C       -5.6700     4.0570     0.1720 C.3   1 <1>   0.4180 
 20 O       -5.1110     5.2960    -0.1990 O.3   1 <1>  -0.5600 
 21 C       -7.0770     4.2650     0.7320 C.2   1 <1>  -0.2880 
 22 C       -5.3200     6.3860     0.6530 C.3   1 <1>   0.1200 
 23 C       -7.6190     5.4600     0.9830 C.2   1 <1>  -0.2760 
 24 C       -6.8140     6.7230     0.7400 C.3   1 <1>  -0.0220 
 25 C       -9.0300     5.6740     1.5020 C.3   1 <1>  -0.1020 
 26 H        1.9850     0.9790     0.6100 H     1 <1>   0.0800 
 27 H        1.0970     0.7190     2.0810 H     1 <1>   0.0800 
 28 H        2.8770     2.4710     2.3530 H     1 <1>   0.0800 
 29 H        1.2780     3.0620     2.6920 H     1 <1>   0.0800 
 30 H        2.2590     4.7780     1.3860 H     1 <1>   0.0800 
 31 H        2.9550     3.6510     0.2500 H     1 <1>   0.0800 
 32 H       -2.0060     5.4660    -2.7200 H     1 <1>   0.0800 
 33 H       -0.3770     6.0030    -3.0620 H     1 <1>   0.0800 
 34 H       -1.2680     6.7020    -1.7270 H     1 <1>   0.0800 
 35 H       -2.8410     4.1800     0.7190 H     1 <1>   0.0800 
 36 H       -2.7970     2.5380     1.3130 H     1 <1>   0.0800 
 37 H       -4.8450     1.2950    -0.6690 H     1 <1>   0.0800 
 38 H       -4.5060     1.8710    -2.2710 H     1 <1>   0.0800 
 39 H       -4.7500     3.9770     2.1230 H     1 <1>   0.0800 
 40 H       -5.1620     2.4340     1.4760 H     1 <1>   0.0800 
 41 H       -6.6580     2.6670    -1.1500 H     1 <1>   0.0800 
 42 H       -5.7160     3.8560    -1.9700 H     1 <1>   0.0800 
 43 H       -7.5980     3.3410     0.9030 H     1 <1>   0.1500 
 44 H       -4.7710     7.2220     0.2570 H     1 <1>   0.0800 
 45 H       -4.9290     6.1450     1.6250 H     1 <1>   0.0800 
 46 H       -7.1350     7.1890    -0.1740 H     1 <1>   0.0800 
 47 H       -6.9610     7.4200     1.5440 H     1 <1>   0.0800 
 48 H       -9.5940     6.2680     0.8050 H     1 <1>   0.0800 
 49 H       -9.0050     6.1800     2.4510 H     1 <1>   0.0800 
 50 H       -9.5320     4.7320     1.6310 H     1 <1>   0.0800 
@<TRIPOS>BOND
  1   1   2  2   
  2   2   3  1   
  3   2   4  1   
  4   3   5  1   
  5   3   6  2   
  6   4   7  1   
  7   4  26  1   
  8   4  27  1   
  9   5   8  2   
 10   5   9  1   
 11   6  10  1   
 12   6  11  1   
 13   7  11  1   
 14   7  28  1   
 15   7  29  1   
 16   8  10  1   
 17   8  12  1   
 18   9  13  2   
 19   9  14  am  
 20  11  30  1   
 21  11  31  1   
 22  12  32  1   
 23  12  33  1   
 24  12  34  1   
 25  14  15  1   
 26  14  16  1   
 27  15  17  1   
 28  15  35  1   
 29  15  36  1   
 30  16  18  1   
 31  16  37  1   
 32  16  38  1   
 33  17  19  1   
 34  17  39  1   
 35  17  40  1   
 36  18  19  1   
 37  18  41  1   
 38  18  42  1   
 39  19  20  1   
 40  19  21  1   
 41  20  22  1   
 42  21  23  2   
 43  21  43  1   
 44  22  24  1   
 45  22  44  1   
 46  22  45  1   
 47  23  24  1   
 48  23  25  1   
 49  24  46  1   
 50  24  47  1   
 51  25  48  1   
 52  25  49  1   
 53  25  50  1   
@<TRIPOS>SUBSTRUCTURE
  1 ****  15 GROUP 4 **** **** 0

# MOE 2024.06 (io_trps.svl 2023.06)
