@<TRIPOS>MOLECULE
NONAME
57 59 1 0 0 
SMALL
USER_CHARGES


@<TRIPOS>ATOM
  1 O       -0.7730     1.1320     1.7960 O.2   1 <1>  -0.5700 
  2 C       -1.6840     1.6400     1.1850 C.2   1 <1>   0.5690 
  3 N       -2.9830     1.2160     1.3550 N.am  1 <1>  -0.6600 
  4 C       -1.3530     2.7710     0.2120 C.3   1 <1>  -0.0990 
  5 C       -4.1250     1.6980     0.5190 C.3   1 <1>   0.2200 
  6 C       -3.2720     0.1970     2.4150 C.3   1 <1>   0.0600 
  7 C        0.0740     3.3370     0.3460 C.3   1 <1>  -0.1600 
  8 C       -5.0400     2.6530     1.2820 C.3   1 <1>  -0.1600 
  9 C       -5.0550     0.5950     0.0090 C.3   1 <1>  -0.1600 
 10 C        0.3290     4.4780    -0.6460 C.3   1 <1>  -0.0170 
 11 C       -6.3650     2.6190     0.5060 C.3   1 <1>  -0.0800 
 12 C       -6.3670     1.3240    -0.3150 C.3   1 <1>  -0.0800 
 13 C        1.7380     5.0240    -0.4880 C.ar  1 <1>  -0.1440 
 14 C       -7.6320     2.5660     1.3720 C.3   1 <1>  -0.1600 
 15 C       -7.6500     0.5760     0.0810 C.3   1 <1>  -0.1600 
 16 C        1.9880     6.0820     0.3730 C.ar  1 <1>  -0.1500 
 17 C        2.7880     4.4700    -1.2040 C.ar  1 <1>  -0.1500 
 18 C       -8.6030     1.6490     0.6200 C.3   1 <1>   0.4230 
 19 C        3.2710     6.5820     0.5140 C.ar  1 <1>  -0.1500 
 20 C        4.0720     4.9690    -1.0650 C.ar  1 <1>  -0.1500 
 21 N       -9.2700     2.3830    -0.5050 N.4   1 <1>  -0.9590 
 22 C        4.3140     6.0270    -0.2060 C.ar  1 <1>  -0.1500 
 23 C      -10.1030     3.5360    -0.0320 C.3   1 <1>   0.2630 
 24 C      -10.1360     1.4910    -1.3430 C.3   1 <1>   0.2630 
 25 H       -1.4850     2.3960    -0.7870 H     1 <1>   0.0800 
 26 H       -2.0490     3.5720     0.3750 H     1 <1>   0.0800 
 27 H       -3.7560     2.2150    -0.3490 H     1 <1>   0.0800 
 28 H       -4.2370     0.3630     2.8550 H     1 <1>   0.0800 
 29 H       -2.5350     0.2500     3.1990 H     1 <1>   0.0800 
 30 H       -3.2390    -0.7880     1.9850 H     1 <1>   0.0800 
 31 H        0.2230     3.6960     1.3500 H     1 <1>   0.0800 
 32 H        0.7900     2.5500     0.1730 H     1 <1>   0.0800 
 33 H       -5.1770     2.3020     2.2880 H     1 <1>   0.0800 
 34 H       -4.6260     3.6450     1.3110 H     1 <1>   0.0800 
 35 H       -4.6440     0.1150    -0.8610 H     1 <1>   0.0800 
 36 H       -5.2250    -0.1440     0.7690 H     1 <1>   0.0800 
 37 H       -0.3810     5.2700    -0.4820 H     1 <1>   0.0800 
 38 H        0.1960     4.1220    -1.6530 H     1 <1>   0.0800 
 39 H       -6.4080     3.4590    -0.1670 H     1 <1>   0.0800 
 40 H       -6.3880     1.5750    -1.3630 H     1 <1>   0.0800 
 41 H       -8.0130     3.5430     1.6020 H     1 <1>   0.0800 
 42 H       -7.4050     2.0860     2.3080 H     1 <1>   0.0800 
 43 H       -7.4380    -0.0940     0.8970 H     1 <1>   0.0800 
 44 H       -8.0410    -0.0180    -0.7220 H     1 <1>   0.0800 
 45 H        1.1840     6.5180     0.9390 H     1 <1>   0.1500 
 46 H        2.6100     3.6460    -1.8720 H     1 <1>   0.1500 
 47 H       -9.3400     1.2260     1.2830 H     1 <1>   0.0800 
 48 H        3.4570     7.4030     1.1840 H     1 <1>   0.1500 
 49 H        4.8810     4.5340    -1.6230 H     1 <1>   0.1500 
 50 H       -8.5110     2.7500    -1.0970 H     1 <1>   0.4500 
 51 H        5.3110     6.4150    -0.0970 H     1 <1>   0.1500 
 52 H      -10.8520     3.1960     0.6650 H     1 <1>   0.0800 
 53 H      -10.5980     4.0050    -0.8670 H     1 <1>   0.0800 
 54 H       -9.4910     4.2780     0.4520 H     1 <1>   0.0800 
 55 H      -10.8880     1.0170    -0.7330 H     1 <1>   0.0800 
 56 H       -9.5480     0.7260    -1.8230 H     1 <1>   0.0800 
 57 H      -10.6280     2.0640    -2.1120 H     1 <1>   0.0800 
@<TRIPOS>BOND
  1   1   2  2   
  2   2   3  am  
  3   2   4  1   
  4   3   5  1   
  5   3   6  1   
  6   4   7  1   
  7   4  25  1   
  8   4  26  1   
  9   5   8  1   
 10   5   9  1   
 11   5  27  1   
 12   6  28  1   
 13   6  29  1   
 14   6  30  1   
 15   7  10  1   
 16   7  31  1   
 17   7  32  1   
 18   8  11  1   
 19   8  33  1   
 20   8  34  1   
 21   9  12  1   
 22   9  35  1   
 23   9  36  1   
 24  10  13  1   
 25  10  37  1   
 26  10  38  1   
 27  11  12  1   
 28  11  14  1   
 29  11  39  1   
 30  12  15  1   
 31  12  40  1   
 32  13  16  ar  
 33  13  17  ar  
 34  14  18  1   
 35  14  41  1   
 36  14  42  1   
 37  15  18  1   
 38  15  43  1   
 39  15  44  1   
 40  16  19  ar  
 41  16  45  1   
 42  17  20  ar  
 43  17  46  1   
 44  18  21  1   
 45  18  47  1   
 46  19  22  ar  
 47  19  48  1   
 48  20  22  ar  
 49  20  49  1   
 50  21  23  1   
 51  21  24  1   
 52  21  50  1   
 53  22  51  1   
 54  23  52  1   
 55  23  53  1   
 56  23  54  1   
 57  24  55  1   
 58  24  56  1   
 59  24  57  1   
@<TRIPOS>SUBSTRUCTURE
  1 ****   4 GROUP 4 **** **** 0

# MOE 2024.06 (io_trps.svl 2023.06)
