@<TRIPOS>MOLECULE
NONAME
58 60 1 0 0 
SMALL
USER_CHARGES


@<TRIPOS>ATOM
  1 O       -3.9820     2.5860     0.5870 O.2   1 <1>  -0.5700 
  2 C       -3.0560     2.3660    -0.1690 C.2   1 <1>   0.5690 
  3 N       -3.0570     1.1640    -0.8560 N.am  1 <1>  -0.6600 
  4 C       -1.9110     3.4230    -0.2640 C.3   1 <1>   0.2040 
  5 C       -1.9300     0.6290    -1.6780 C.3   1 <1>   0.3200 
  6 C       -4.2010     0.2170    -0.6570 C.3   1 <1>   0.1400 
  7 C       -0.6360     2.8320     0.3730 C.ar  1 <1>  -0.1440 
  8 C       -2.2610     4.7360     0.4700 C.3   1 <1>  -0.1600 
  9 C       -1.7700     3.9680    -1.7030 C.3   1 <1>  -0.1600 
 10 C       -1.5070    -0.7140    -1.1180 C.2   1 <1>  -0.3320 
 11 C       -4.0320    -0.5300     0.6840 C.3   1 <1>   0.3430 
 12 C        0.5650     2.6650    -0.3100 C.ar  1 <1>  -0.1500 
 13 C       -0.6960     2.4350     1.7040 C.ar  1 <1>  -0.1500 
 14 C       -3.1690     5.5330    -0.4720 C.3   1 <1>  -0.1600 
 15 C       -2.9070     4.9770    -1.8720 C.3   1 <1>  -0.1600 
 16 N       -1.6220    -1.8910    -1.7670 N.pl3 1 <1>   0.0330 
 17 C       -0.9740    -0.9960     0.0920 C.2   1 <1>   0.0770 
 18 N       -5.2950    -0.6550     1.4850 N.4   1 <1>  -0.9590 
 19 C        1.6640     2.0970     0.3120 C.ar  1 <1>  -0.1500 
 20 C        0.4010     1.8740     2.3300 C.ar  1 <1>  -0.1500 
 21 C       -1.1890    -2.8170    -0.8860 C.2   1 <1>   0.0360 
 22 N       -0.8110    -2.3220     0.2460 N.2   1 <1>  -0.5650 
 23 C       -5.7390     0.6870     1.9890 C.3   1 <1>   0.2630 
 24 C       -5.0600    -1.5820     2.6330 C.3   1 <1>   0.2630 
 25 C        1.5850     1.6920     1.6400 C.ar  1 <1>   0.0830 
 26 O        2.6070     1.1180     2.3200 O.3   1 <1>  -0.3630 
 27 C        3.8020     0.7500     1.6690 C.3   1 <1>   0.0400 
 28 H       -1.0850     1.2860    -1.6700 H     1 <1>   0.0800 
 29 H       -2.2550     0.5250    -2.6990 H     1 <1>   0.0800 
 30 H       -4.2400    -0.4890    -1.4670 H     1 <1>   0.0800 
 31 H       -5.1190     0.7790    -0.6670 H     1 <1>   0.0800 
 32 H       -1.3560     5.2980     0.6290 H     1 <1>   0.0800 
 33 H       -2.7220     4.5780     1.4290 H     1 <1>   0.0800 
 34 H       -1.8070     3.2150    -2.4660 H     1 <1>   0.0800 
 35 H       -0.8450     4.5090    -1.7940 H     1 <1>   0.0800 
 36 H       -3.3020     0.0020     1.2720 H     1 <1>   0.0800 
 37 H       -3.6300    -1.5090     0.4790 H     1 <1>   0.0800 
 38 H        0.6720     2.9650    -1.3360 H     1 <1>   0.1500 
 39 H       -1.6030     2.5620     2.2690 H     1 <1>   0.1500 
 40 H       -2.9450     6.5850    -0.4170 H     1 <1>   0.0800 
 41 H       -4.2030     5.3830    -0.2070 H     1 <1>   0.0800 
 42 H       -3.7920     4.4780    -2.2320 H     1 <1>   0.0800 
 43 H       -2.6400     5.7560    -2.5660 H     1 <1>   0.0800 
 44 H       -1.9430    -2.0680    -2.7250 H     1 <1>   0.2700 
 45 H       -0.7050    -0.3050     0.8760 H     1 <1>   0.1500 
 46 H       -6.0350    -1.0490     0.8870 H     1 <1>   0.4500 
 47 H        2.5720     1.9800    -0.2480 H     1 <1>   0.1500 
 48 H        0.3480     1.5710     3.3610 H     1 <1>   0.1500 
 49 H       -1.1640    -3.8680    -1.1240 H     1 <1>   0.1500 
 50 H       -4.9580     1.1430     2.5750 H     1 <1>   0.0800 
 51 H       -6.6220     0.5890     2.5990 H     1 <1>   0.0800 
 52 H       -5.9630     1.3460     1.1650 H     1 <1>   0.0800 
 53 H       -4.2880    -1.1910     3.2770 H     1 <1>   0.0800 
 54 H       -4.7500    -2.5510     2.2760 H     1 <1>   0.0800 
 55 H       -5.9630    -1.7010     3.2100 H     1 <1>   0.0800 
 56 H        4.4370     0.2640     2.3870 H     1 <1>   0.0800 
 57 H        4.2840     1.6360     1.2960 H     1 <1>   0.0800 
 58 H        3.5680     0.0700     0.8690 H     1 <1>   0.0800 
@<TRIPOS>BOND
  1   1   2  2   
  2   2   3  am  
  3   2   4  1   
  4   3   5  1   
  5   3   6  1   
  6   4   7  1   
  7   4   8  1   
  8   4   9  1   
  9   5  10  1   
 10   5  28  1   
 11   5  29  1   
 12   6  11  1   
 13   6  30  1   
 14   6  31  1   
 15   7  12  ar  
 16   7  13  ar  
 17   8  14  1   
 18   8  32  1   
 19   8  33  1   
 20   9  15  1   
 21   9  34  1   
 22   9  35  1   
 23  10  16  1   
 24  10  17  2   
 25  11  18  1   
 26  11  36  1   
 27  11  37  1   
 28  12  19  ar  
 29  12  38  1   
 30  13  20  ar  
 31  13  39  1   
 32  14  15  1   
 33  14  40  1   
 34  14  41  1   
 35  15  42  1   
 36  15  43  1   
 37  16  21  1   
 38  16  44  1   
 39  17  22  1   
 40  17  45  1   
 41  18  23  1   
 42  18  24  1   
 43  18  46  1   
 44  19  25  ar  
 45  19  47  1   
 46  20  25  ar  
 47  20  48  1   
 48  21  22  2   
 49  21  49  1   
 50  23  50  1   
 51  23  51  1   
 52  23  52  1   
 53  24  53  1   
 54  24  54  1   
 55  24  55  1   
 56  25  26  1   
 57  26  27  1   
 58  27  56  1   
 59  27  57  1   
 60  27  58  1   
@<TRIPOS>SUBSTRUCTURE
  1 ****   3 GROUP 4 **** **** 0

# MOE 2024.06 (io_trps.svl 2023.06)
