@<TRIPOS>MOLECULE
NONAME
36 38 1 0 0 
SMALL
USER_CHARGES


@<TRIPOS>ATOM
  1 O       -0.8260     0.0100     1.7680 O.2   1 <1>  -0.5700 
  2 C       -1.7690     0.6810     1.3880 C.2   1 <1>   0.5440 
  3 N       -3.0060     0.0970     1.2970 N.am  1 <1>  -0.6600 
  4 C       -1.5460     2.0720     1.0620 C.ar  1 <1>   0.0860 
  5 C       -4.3020     0.7860     1.0320 C.3   1 <1>   0.2350 
  6 C       -3.1850    -1.3580     1.0310 C.3   1 <1>   0.2350 
  7 C       -0.8870     2.9000     1.9620 C.ar  1 <1>   0.1600 
  8 C       -1.9460     2.6440    -0.1370 C.ar  1 <1>  -0.1500 
  9 C       -4.9900    -0.0730    -0.0110 C.3   1 <1>  -0.2420 
 10 C       -4.3190    -1.4250     0.0170 C.3   1 <1>  -0.2420 
 11 N       -0.6250     4.1850     1.7850 N.ar  1 <1>  -0.6200 
 12 C       -1.6930     3.9840    -0.3520 C.ar  1 <1>  -0.1440 
 13 C       -6.4430     0.3750    -0.1740 C.2   1 <1>   0.9470 
 14 C       -4.2650    -0.5840    -1.2330 C.3   1 <1>  -0.2000 
 15 C       -4.9040    -2.8370    -0.0550 C.2   1 <1>   0.9470 
 16 C       -1.0280     4.7060     0.6370 C.ar  1 <1>   0.1670 
 17 C       -2.1630     4.6140    -1.6570 C.3   1 <1>  -0.0970 
 18 O       -6.8200     0.8120    -1.2710 O.co2 1 <1>  -0.9000 
 19 O       -7.1560     0.4730     0.8330 O.co2 1 <1>  -0.9000 
 20 O       -4.9240    -3.4340    -1.1400 O.co2 1 <1>  -0.9000 
 21 O       -5.2040    -3.4160     0.9990 O.co2 1 <1>  -0.9000 
 22 C       -0.7150     6.1810     0.4640 C.3   1 <1>  -0.0970 
 23 H       -4.8890     0.7890     1.9350 H     1 <1>   0.0800 
 24 H       -4.1900     1.7940     0.6850 H     1 <1>   0.0800 
 25 H       -2.2880    -1.8020     0.6350 H     1 <1>   0.0800 
 26 H       -3.4660    -1.8560     1.9430 H     1 <1>   0.0800 
 27 H       -0.5580     2.4580     2.8880 H     1 <1>   0.1500 
 28 H       -2.4490     2.0390    -0.8720 H     1 <1>   0.1500 
 29 H       -3.3310    -0.1500    -1.5330 H     1 <1>   0.1000 
 30 H       -4.8610    -0.9010    -2.0730 H     1 <1>   0.1000 
 31 H       -2.8120     3.9430    -2.1930 H     1 <1>   0.0800 
 32 H       -1.3180     4.8420    -2.2810 H     1 <1>   0.0800 
 33 H       -2.7120     5.5170    -1.4590 H     1 <1>   0.0800 
 34 H       -0.4290     6.3990    -0.5470 H     1 <1>   0.0800 
 35 H        0.0980     6.4640     1.1080 H     1 <1>   0.0800 
 36 H       -1.5790     6.7630     0.7260 H     1 <1>   0.0800 
@<TRIPOS>BOND
  1   1   2  2   
  2   2   3  am  
  3   2   4  1   
  4   3   5  1   
  5   3   6  1   
  6   4   7  ar  
  7   4   8  ar  
  8   5   9  1   
  9   5  23  1   
 10   5  24  1   
 11   6  10  1   
 12   6  25  1   
 13   6  26  1   
 14   7  11  ar  
 15   7  27  1   
 16   8  12  ar  
 17   8  28  1   
 18   9  10  1   
 19   9  13  1   
 20   9  14  1   
 21  10  14  1   
 22  10  15  1   
 23  11  16  ar  
 24  12  16  ar  
 25  12  17  1   
 26  13  18  ar  
 27  13  19  ar  
 28  14  29  1   
 29  14  30  1   
 30  15  20  ar  
 31  15  21  ar  
 32  16  22  1   
 33  17  31  1   
 34  17  32  1   
 35  17  33  1   
 36  22  34  1   
 37  22  35  1   
 38  22  36  1   
@<TRIPOS>SUBSTRUCTURE
  1 ****   5 GROUP 4 **** **** 0

# MOE 2024.06 (io_trps.svl 2023.06)
