@<TRIPOS>MOLECULE
NONAME
62 65 1 0 0 
SMALL
USER_CHARGES


@<TRIPOS>ATOM
  1 S        0.3090     0.3350    -2.3480 S.o2  1 <1>   1.4470 
  2 O        1.4780    -0.1380    -3.0600 O.2   1 <1>  -0.6500 
  3 O       -0.7690     0.9170    -3.1180 O.2   1 <1>  -0.6500 
  4 N       -0.3490    -1.0400    -1.6070 N.am  1 <1>  -0.8490 
  5 C        0.8840     1.4950    -1.0570 C.ar  1 <1>  -0.0090 
  6 C        0.4160    -1.9670    -0.8130 C.3   1 <1>   0.2760 
  7 C       -1.5620    -1.0310    -0.8600 C.3   1 <1>   0.2760 
  8 C        0.1120     2.5240    -0.5030 C.ar  1 <1>  -0.1440 
  9 C        2.1830     1.3420    -0.5830 C.ar  1 <1>  -0.1500 
 10 C       -0.4980    -3.2200    -0.9200 C.3   1 <1>   0.0610 
 11 C        0.3130    -1.3190     0.5870 C.3   1 <1>  -0.1600 
 12 C       -1.9010    -2.5300    -0.9150 C.3   1 <1>  -0.1600 
 13 C       -1.0850    -0.6910     0.5570 C.3   1 <1>  -0.1600 
 14 C        0.6440     3.3280     0.4940 C.ar  1 <1>  -0.1500 
 15 C       -1.3090     2.8290    -0.9620 C.3   1 <1>  -0.0970 
 16 C        2.7340     2.1310     0.4210 C.ar  1 <1>   0.0530 
 17 C       -0.2610    -4.1930     0.2490 C.2   1 <1>   0.5690 
 18 C       -0.2620    -4.0550    -2.2180 C.3   1 <1>  -0.1600 
 19 C        1.9310     3.1330     0.9510 C.ar  1 <1>  -0.1500 
 20 C        4.0830     1.9070     0.8920 C.2   1 <1>   0.0870 
 21 O        0.8650    -4.3600     0.6560 O.2   1 <1>  -0.5700 
 22 N       -1.3070    -4.8870     0.7730 N.am  1 <1>  -0.7300 
 23 C       -0.2850    -3.3290    -3.5750 C.3   1 <1>  -0.2400 
 24 O        4.5810     2.5980     1.8900 O.3   1 <1>  -0.2800 
 25 C        5.0620     1.0580     0.5110 C.2   1 <1>   0.0770 
 26 C       -1.2240    -5.8530     1.8710 C.3   1 <1>   0.2200 
 27 C        5.8000     2.1590     2.0750 C.2   1 <1>   0.2980 
 28 N        6.1580     1.2240     1.2740 N.2   1 <1>  -0.5650 
 29 C       -1.6820    -7.2090     1.3450 C.3   1 <1>  -0.2400 
 30 C       -2.1190    -5.3630     3.0030 C.3   1 <1>  -0.2400 
 31 C        6.6400     2.7690     3.1700 C.3   1 <1>  -0.0600 
 32 H        1.4210    -2.1320    -1.1670 H     1 <1>   0.0800 
 33 H       -2.3290    -0.3910    -1.2650 H     1 <1>   0.0800 
 34 H        2.7920     0.5660    -1.0120 H     1 <1>   0.1500 
 35 H        0.4190    -2.0140     1.3990 H     1 <1>   0.0800 
 36 H        1.0710    -0.5760     0.7200 H     1 <1>   0.0800 
 37 H       -2.5200    -2.7990    -0.0800 H     1 <1>   0.0800 
 38 H       -2.4480    -2.7390    -1.8150 H     1 <1>   0.0800 
 39 H       -1.0370     0.3710     0.7090 H     1 <1>   0.0800 
 40 H       -1.7320    -1.1120     1.3060 H     1 <1>   0.0800 
 41 H        0.0570     4.1210     0.9240 H     1 <1>   0.1500 
 42 H       -1.7790     3.5540    -0.3220 H     1 <1>   0.0800 
 43 H       -1.9170     1.9440    -0.9560 H     1 <1>   0.0800 
 44 H       -1.2930     3.2290    -1.9610 H     1 <1>   0.0800 
 45 H        0.6980    -4.5370    -2.1340 H     1 <1>   0.0800 
 46 H       -0.9970    -4.8400    -2.2500 H     1 <1>   0.0800 
 47 H        2.3190     3.7680     1.7280 H     1 <1>   0.1500 
 48 H       -2.2320    -4.7920     0.3560 H     1 <1>   0.3700 
 49 H        0.5330    -2.6340    -3.6470 H     1 <1>   0.0800 
 50 H       -1.2040    -2.7920    -3.7230 H     1 <1>   0.0800 
 51 H       -0.1800    -4.0430    -4.3730 H     1 <1>   0.0800 
 52 H        5.0410     0.3270    -0.2780 H     1 <1>   0.1500 
 53 H       -0.2060    -5.9270     2.2210 H     1 <1>   0.0800 
 54 H       -2.6970    -7.1640     0.9960 H     1 <1>   0.0800 
 55 H       -1.6220    -7.9410     2.1300 H     1 <1>   0.0800 
 56 H       -1.0400    -7.5250     0.5430 H     1 <1>   0.0800 
 57 H       -3.1420    -5.2890     2.6810 H     1 <1>   0.0800 
 58 H       -1.7800    -4.4010     3.3450 H     1 <1>   0.0800 
 59 H       -2.0690    -6.0490     3.8290 H     1 <1>   0.0800 
 60 H        7.6070     2.3020     3.1900 H     1 <1>   0.0800 
 61 H        6.1570     2.6230     4.1180 H     1 <1>   0.0800 
 62 H        6.7590     3.8210     2.9890 H     1 <1>   0.0800 
@<TRIPOS>BOND
  1   1   2  2   
  2   1   3  2   
  3   1   4  am  
  4   1   5  1   
  5   4   6  1   
  6   4   7  1   
  7   5   8  ar  
  8   5   9  ar  
  9   6  10  1   
 10   6  11  1   
 11   6  32  1   
 12   7  12  1   
 13   7  13  1   
 14   7  33  1   
 15   8  14  ar  
 16   8  15  1   
 17   9  16  ar  
 18   9  34  1   
 19  10  12  1   
 20  10  17  1   
 21  10  18  1   
 22  11  13  1   
 23  11  35  1   
 24  11  36  1   
 25  12  37  1   
 26  12  38  1   
 27  13  39  1   
 28  13  40  1   
 29  14  19  ar  
 30  14  41  1   
 31  15  42  1   
 32  15  43  1   
 33  15  44  1   
 34  16  19  ar  
 35  16  20  1   
 36  17  21  2   
 37  17  22  am  
 38  18  23  1   
 39  18  45  1   
 40  18  46  1   
 41  19  47  1   
 42  20  24  1   
 43  20  25  2   
 44  22  26  1   
 45  22  48  1   
 46  23  49  1   
 47  23  50  1   
 48  23  51  1   
 49  24  27  1   
 50  25  28  1   
 51  25  52  1   
 52  26  29  1   
 53  26  30  1   
 54  26  53  1   
 55  27  28  2   
 56  27  31  1   
 57  29  54  1   
 58  29  55  1   
 59  29  56  1   
 60  30  57  1   
 61  30  58  1   
 62  30  59  1   
 63  31  60  1   
 64  31  61  1   
 65  31  62  1   
@<TRIPOS>SUBSTRUCTURE
  1 ****  11 GROUP 4 **** **** 0

# MOE 2024.06 (io_trps.svl 2023.06)
