@<TRIPOS>MOLECULE
NONAME
53 56 1 0 0 
SMALL
USER_CHARGES


@<TRIPOS>ATOM
  1 O        0.4340     0.8590     1.0490 O.2   1 <1>  -0.5700 
  2 C        1.1280    -0.0890     1.3200 C.2   1 <1>   0.5690 
  3 N        2.4090     0.0910     1.7880 N.am  1 <1>  -0.6600 
  4 C        0.5000    -1.4500     1.0930 C.3   1 <1>  -0.0990 
  5 C        3.4590    -0.9610     1.9510 C.3   1 <1>   0.1400 
  6 C        2.9010     1.4740     2.0390 C.3   1 <1>   0.1400 
  7 C        0.3270    -1.7370    -0.4040 C.3   1 <1>   0.0960 
  8 C        4.4210    -1.0470     0.7440 C.3   1 <1>   0.3430 
  9 C        3.3580     2.1170     0.7260 C.3   1 <1>  -0.1600 
 10 N        1.5710    -2.2290    -1.0350 N.pl3 1 <1>   0.3140 
 11 N        4.9470     0.2680     0.2320 N.4   1 <1>  -0.9590 
 12 C        3.8560     1.1270    -0.3260 C.3   1 <1>   0.3430 
 13 N        2.3920    -1.4520    -1.7750 N.2   1 <1>  -0.7070 
 14 C        1.9720    -3.5160    -1.0660 C.2   1 <1>  -0.3020 
 15 C        5.9840     0.0390    -0.8030 C.3   1 <1>   0.4860 
 16 C        3.2480    -2.2770    -2.3010 C.2   1 <1>   0.1390 
 17 C        3.0490    -3.5820    -1.8750 C.2   1 <1>  -0.1500 
 18 C        6.7500     1.3320    -1.0040 C.ar  1 <1>  -0.1440 
 19 C        7.6790     1.7450    -0.0520 C.ar  1 <1>  -0.1500 
 20 C        6.5230     2.1080    -2.1380 C.ar  1 <1>  -0.1500 
 21 C        8.3540     2.9340    -0.2500 C.ar  1 <1>  -0.1440 
 22 C        7.2050     3.3000    -2.3240 C.ar  1 <1>  -0.1500 
 23 C        8.1150     3.6930    -1.3640 C.ar  1 <1>   0.0820 
 24 C        9.3950     3.6250     0.5810 C.3   1 <1>  -0.0170 
 25 O        8.8490     4.8150    -1.4030 O.3   1 <1>  -0.3630 
 26 C        9.6990     4.8750    -0.2660 C.3   1 <1>   0.1200 
 27 H       -0.4800    -1.4060     1.5320 H     1 <1>   0.0800 
 28 H        1.0200    -2.2470     1.5830 H     1 <1>   0.0800 
 29 H        3.0120    -1.9240     2.1020 H     1 <1>   0.0800 
 30 H        4.0300    -0.7510     2.8390 H     1 <1>   0.0800 
 31 H        3.7150     1.4490     2.7430 H     1 <1>   0.0800 
 32 H        2.1160     2.0680     2.4790 H     1 <1>   0.0800 
 33 H        0.0050    -0.8510    -0.9220 H     1 <1>   0.0800 
 34 H       -0.4280    -2.4900    -0.5390 H     1 <1>   0.0800 
 35 H        3.9080    -1.5550    -0.0500 H     1 <1>   0.0800 
 36 H        5.2490    -1.6740     1.0280 H     1 <1>   0.0800 
 37 H        4.1080     2.8620     0.9230 H     1 <1>   0.0800 
 38 H        2.5140     2.6350     0.3040 H     1 <1>   0.0800 
 39 H        5.3910     0.8000     0.9870 H     1 <1>   0.4500 
 40 H        4.2110     1.6850    -1.1760 H     1 <1>   0.0800 
 41 H        3.0340     0.5130    -0.6570 H     1 <1>   0.0800 
 42 H        1.4630    -4.3060    -0.5430 H     1 <1>   0.1500 
 43 H        5.5260    -0.2740    -1.7280 H     1 <1>   0.0800 
 44 H        6.6700    -0.7270    -0.4820 H     1 <1>   0.0800 
 45 H        4.0200    -1.9780    -2.9920 H     1 <1>   0.1500 
 46 H        3.6280    -4.4440    -2.1610 H     1 <1>   0.1500 
 47 H        7.8890     1.1600     0.8270 H     1 <1>   0.1500 
 48 H        5.8160     1.7980    -2.8900 H     1 <1>   0.1500 
 49 H        7.0460     3.9170    -3.1910 H     1 <1>   0.1500 
 50 H       10.2750     3.0180     0.6970 H     1 <1>   0.0800 
 51 H        9.0100     3.9030     1.5460 H     1 <1>   0.0800 
 52 H       10.7180     4.8800    -0.6120 H     1 <1>   0.0800 
 53 H        9.4820     5.7830     0.2680 H     1 <1>   0.0800 
@<TRIPOS>BOND
  1   1   2  2   
  2   2   3  am  
  3   2   4  1   
  4   3   5  1   
  5   3   6  1   
  6   4   7  1   
  7   4  27  1   
  8   4  28  1   
  9   5   8  1   
 10   5  29  1   
 11   5  30  1   
 12   6   9  1   
 13   6  31  1   
 14   6  32  1   
 15   7  10  1   
 16   7  33  1   
 17   7  34  1   
 18   8  11  1   
 19   8  35  1   
 20   8  36  1   
 21   9  12  1   
 22   9  37  1   
 23   9  38  1   
 24  10  13  1   
 25  10  14  1   
 26  11  12  1   
 27  11  15  1   
 28  11  39  1   
 29  12  40  1   
 30  12  41  1   
 31  13  16  2   
 32  14  17  2   
 33  14  42  1   
 34  15  18  1   
 35  15  43  1   
 36  15  44  1   
 37  16  17  1   
 38  16  45  1   
 39  17  46  1   
 40  18  19  ar  
 41  18  20  ar  
 42  19  21  ar  
 43  19  47  1   
 44  20  22  ar  
 45  20  48  1   
 46  21  23  ar  
 47  21  24  1   
 48  22  23  ar  
 49  22  49  1   
 50  23  25  1   
 51  24  26  1   
 52  24  50  1   
 53  24  51  1   
 54  25  26  1   
 55  26  52  1   
 56  26  53  1   
@<TRIPOS>SUBSTRUCTURE
  1 ****  11 GROUP 4 **** **** 0

# MOE 2024.06 (io_trps.svl 2023.06)
