@<TRIPOS>MOLECULE
NONAME
43 44 1 0 0 
SMALL
USER_CHARGES


@<TRIPOS>ATOM
  1 O        0.2540     0.1830    -0.5780 O.2   1 <1>  -0.5700 
  2 C        1.3120    -0.4000    -0.4140 C.2   1 <1>   0.7160 
  3 N        2.5080     0.2660    -0.5300 N.am  1 <1>  -0.4940 
  4 C        1.3510    -1.8120    -0.0910 C.2   1 <1>   0.2030 
  5 C        2.8010     1.6210    -0.8190 C.2   1 <1>  -0.0880 
  6 N        2.4290    -2.5140     0.1010 N.2   1 <1>  -0.4100 
  7 C        0.2550    -2.6450     0.0670 C.2   1 <1>  -0.1500 
  8 N        4.0550     2.1520    -0.9160 N.pl3 1 <1>   0.3140 
  9 C        1.9400     2.6390    -1.0510 C.2   1 <1>  -0.1500 
 10 O        2.1160    -3.7570     0.3750 O.3   1 <1>  -0.0190 
 11 C        0.8010    -3.8310     0.3530 C.2   1 <1>  -0.0400 
 12 N        4.0030     3.4760    -1.2060 N.2   1 <1>  -0.7070 
 13 C        5.3770     1.4700    -0.7740 C.3   1 <1>   0.1760 
 14 C        2.7380     3.7500    -1.2820 C.2   1 <1>   0.1390 
 15 C        0.1650    -5.1810     0.6420 C.3   1 <1>   0.0200 
 16 C        5.5860     0.4790    -1.9390 C.3   1 <1>  -0.1600 
 17 C        5.5600     0.8160     0.6170 C.3   1 <1>  -0.1600 
 18 C       -1.3690    -5.1380     0.5870 C.3   1 <1>  -0.1600 
 19 C        7.0130    -0.0820    -2.0200 C.3   1 <1>  -0.2400 
 20 C        5.2740     1.7720     1.7840 C.3   1 <1>  -0.2400 
 21 C       -1.9810    -6.5120     0.8820 C.3   1 <1>  -0.2400 
 22 H        3.3050    -0.3510    -0.3610 H     1 <1>   0.3700 
 23 H       -0.7740    -2.3470    -0.0310 H     1 <1>   0.1500 
 24 H        0.8660     2.6180    -1.0610 H     1 <1>   0.1500 
 25 H        6.1210     2.2430    -0.8660 H     1 <1>   0.0800 
 26 H        2.3580     4.7350    -1.5000 H     1 <1>   0.1500 
 27 H        0.4800    -5.5060     1.6190 H     1 <1>   0.0800 
 28 H        0.5300    -5.8930    -0.0770 H     1 <1>   0.0800 
 29 H        5.3800     0.9960    -2.8620 H     1 <1>   0.0800 
 30 H        4.8950    -0.3410    -1.8600 H     1 <1>   0.0800 
 31 H        6.5790     0.4860     0.7090 H     1 <1>   0.0800 
 32 H        4.9390    -0.0570     0.7070 H     1 <1>   0.0800 
 33 H       -1.6830    -4.8150    -0.3910 H     1 <1>   0.0800 
 34 H       -1.7340    -4.4280     1.3090 H     1 <1>   0.0800 
 35 H        7.7320     0.7180    -2.0630 H     1 <1>   0.0800 
 36 H        7.1200    -0.6800    -2.9080 H     1 <1>   0.0800 
 37 H        7.2350    -0.7060    -1.1720 H     1 <1>   0.0800 
 38 H        5.8760     2.6600     1.6990 H     1 <1>   0.0800 
 39 H        5.5020     1.2920     2.7190 H     1 <1>   0.0800 
 40 H        4.2370     2.0630     1.8000 H     1 <1>   0.0800 
 41 H       -1.6490    -7.2370     0.1590 H     1 <1>   0.0800 
 42 H       -3.0540    -6.4540     0.8370 H     1 <1>   0.0800 
 43 H       -1.7000    -6.8480     1.8650 H     1 <1>   0.0800 
@<TRIPOS>BOND
  1   1   2  2   
  2   2   3  am  
  3   2   4  1   
  4   3   5  1   
  5   3  22  1   
  6   4   6  2   
  7   4   7  1   
  8   5   8  1   
  9   5   9  2   
 10   6  10  1   
 11   7  11  2   
 12   7  23  1   
 13   8  12  1   
 14   8  13  1   
 15   9  14  1   
 16   9  24  1   
 17  10  11  1   
 18  11  15  1   
 19  12  14  2   
 20  13  16  1   
 21  13  17  1   
 22  13  25  1   
 23  14  26  1   
 24  15  18  1   
 25  15  27  1   
 26  15  28  1   
 27  16  19  1   
 28  16  29  1   
 29  16  30  1   
 30  17  20  1   
 31  17  31  1   
 32  17  32  1   
 33  18  21  1   
 34  18  33  1   
 35  18  34  1   
 36  19  35  1   
 37  19  36  1   
 38  19  37  1   
 39  20  38  1   
 40  20  39  1   
 41  20  40  1   
 42  21  41  1   
 43  21  42  1   
 44  21  43  1   
@<TRIPOS>SUBSTRUCTURE
  1 ****   3 GROUP 4 **** **** 0

# MOE 2024.06 (io_trps.svl 2023.06)
