@<TRIPOS>MOLECULE
NONAME
52 54 1 0 0 
SMALL
USER_CHARGES


@<TRIPOS>ATOM
  1 O       -0.4500    -0.0490    -1.0140 O.2   1 <1>  -0.5700 
  2 C       -0.7300     0.2090     0.1400 C.2   1 <1>   0.5440 
  3 N       -1.3790    -0.7440     0.8700 N.am  1 <1>  -0.7300 
  4 C       -0.4100     1.5060     0.7140 C.ar  1 <1>   0.0860 
  5 C       -1.7210    -2.1070     0.3980 C.3   1 <1>   0.2200 
  6 C       -0.1900     2.6110    -0.1060 C.ar  1 <1>  -0.1500 
  7 C       -0.3100     1.7030     2.0930 C.ar  1 <1>  -0.1500 
  8 C       -3.2000    -2.2160     0.0480 C.3   1 <1>  -0.0800 
  9 C       -1.6460    -3.0630     1.5800 C.3   1 <1>   0.1200 
 10 C        0.1050     3.8690     0.3990 C.ar  1 <1>   0.1170 
 11 C       -0.0170     2.9470     2.6190 C.ar  1 <1>  -0.1500 
 12 C       -3.8580    -2.4950     1.4040 C.3   1 <1>   0.1200 
 13 C       -3.8020    -1.0220    -0.7160 C.3   1 <1>  -0.0160 
 14 O       -2.8320    -2.8560     2.2850 O.3   1 <1>  -0.5600 
 15 N        0.3220     4.9220    -0.5020 N.am  1 <1>  -0.5470 
 16 C        0.1890     4.0230     1.7780 C.ar  1 <1>  -0.1500 
 17 C       -5.2530    -1.2900    -1.0850 C.ar  1 <1>  -0.1440 
 18 C        0.2090     6.2770    -0.3400 C.2   1 <1>   0.5690 
 19 C       -6.3040    -0.7850    -0.3470 C.ar  1 <1>  -0.1500 
 20 C       -5.5910    -2.0570    -2.1810 C.ar  1 <1>  -0.1500 
 21 O       -0.1630     6.7930     0.6860 O.2   1 <1>  -0.5700 
 22 C        0.5570     7.1660    -1.5400 C.3   1 <1>  -0.0190 
 23 C       -7.6050    -1.0680    -0.7270 C.ar  1 <1>   0.1600 
 24 C       -6.9260    -2.2810    -2.4750 C.ar  1 <1>   0.1600 
 25 C        1.5970     8.2380    -1.1740 C.3   1 <1>  -0.2400 
 26 C       -0.7010     7.8310    -2.1230 C.3   1 <1>  -0.2400 
 27 N       -7.9420    -1.8070    -1.7720 N.ar  1 <1>  -0.6200 
 28 H       -1.7330    -0.5350     1.8060 H     1 <1>   0.3700 
 29 H       -1.0760    -2.4050    -0.4120 H     1 <1>   0.0800 
 30 H       -0.2570     2.4760    -1.1710 H     1 <1>   0.1500 
 31 H       -0.4550     0.8780     2.7670 H     1 <1>   0.1500 
 32 H       -3.3270    -3.0960    -0.5570 H     1 <1>   0.0800 
 33 H       -0.8020    -2.8730     2.2190 H     1 <1>   0.0800 
 34 H       -1.6330    -4.0850     1.2460 H     1 <1>   0.0800 
 35 H        0.0540     3.0830     3.6850 H     1 <1>   0.1500 
 36 H       -4.5680    -3.3030     1.3430 H     1 <1>   0.0800 
 37 H       -4.3370    -1.6190     1.8050 H     1 <1>   0.0800 
 38 H       -3.2310    -0.8480    -1.6120 H     1 <1>   0.0800 
 39 H       -3.7460    -0.1270    -0.1220 H     1 <1>   0.0800 
 40 H        0.5630     4.6260    -1.4450 H     1 <1>   0.3700 
 41 H        0.4210     4.9840     2.2000 H     1 <1>   0.1500 
 42 H       -6.1260    -0.1730     0.5180 H     1 <1>   0.1500 
 43 H       -4.8300    -2.4820    -2.8100 H     1 <1>   0.1500 
 44 H        0.9870     6.5460    -2.3060 H     1 <1>   0.0800 
 45 H       -8.4130    -0.6660    -0.1400 H     1 <1>   0.1500 
 46 H       -7.1710    -2.8820    -3.3340 H     1 <1>   0.1500 
 47 H        1.2020     8.9000    -0.4220 H     1 <1>   0.0800 
 48 H        1.8640     8.8180    -2.0390 H     1 <1>   0.0800 
 49 H        2.4850     7.7740    -0.7830 H     1 <1>   0.0800 
 50 H       -1.1560     8.4730    -1.3880 H     1 <1>   0.0800 
 51 H       -1.4180     7.0820    -2.4100 H     1 <1>   0.0800 
 52 H       -0.4510     8.4180    -2.9890 H     1 <1>   0.0800 
@<TRIPOS>BOND
  1   1   2  2   
  2   2   3  am  
  3   2   4  1   
  4   3   5  1   
  5   3  28  1   
  6   4   6  ar  
  7   4   7  ar  
  8   5   8  1   
  9   5   9  1   
 10   5  29  1   
 11   6  10  ar  
 12   6  30  1   
 13   7  11  ar  
 14   7  31  1   
 15   8  12  1   
 16   8  13  1   
 17   8  32  1   
 18   9  14  1   
 19   9  33  1   
 20   9  34  1   
 21  10  15  1   
 22  10  16  ar  
 23  11  16  ar  
 24  11  35  1   
 25  12  14  1   
 26  12  36  1   
 27  12  37  1   
 28  13  17  1   
 29  13  38  1   
 30  13  39  1   
 31  15  18  am  
 32  15  40  1   
 33  16  41  1   
 34  17  19  ar  
 35  17  20  ar  
 36  18  21  2   
 37  18  22  1   
 38  19  23  ar  
 39  19  42  1   
 40  20  24  ar  
 41  20  43  1   
 42  22  25  1   
 43  22  26  1   
 44  22  44  1   
 45  23  27  ar  
 46  23  45  1   
 47  24  27  ar  
 48  24  46  1   
 49  25  47  1   
 50  25  48  1   
 51  25  49  1   
 52  26  50  1   
 53  26  51  1   
 54  26  52  1   
@<TRIPOS>SUBSTRUCTURE
  1 ****   2 GROUP 4 **** **** 0

# MOE 2024.06 (io_trps.svl 2023.06)
