@<TRIPOS>MOLECULE
NONAME
53 57 1 0 0 
SMALL
USER_CHARGES


@<TRIPOS>ATOM
  1 S       -0.3460     0.6670     0.2640 S.3   1 <1>  -0.0800 
  2 C        0.7490     1.8540     0.9910 C.2   1 <1>  -0.0130 
  3 C        0.5890    -0.6870     0.8660 C.2   1 <1>  -0.1400 
  4 C        0.4810     3.2660     0.8210 C.ar  1 <1>   0.3630 
  5 C        1.7360     1.1780     1.6340 C.2   1 <1>  -0.1500 
  6 C        1.6480    -0.2440     1.5650 C.2   1 <1>  -0.1500 
  7 C        0.0920    -2.0760     0.5300 C.3   1 <1>  -0.0600 
  8 N       -0.6960     3.6390     0.3250 N.ar  1 <1>  -0.6200 
  9 C        1.4500     4.1980     1.1810 C.ar  1 <1>  -0.1500 
 10 C       -0.9340     4.9390     0.1760 C.ar  1 <1>   0.4100 
 11 C        1.2140     5.5410     1.0280 C.ar  1 <1>  -0.1500 
 12 N       -2.1830     5.2360    -0.3390 N.pl3 1 <1>  -0.8380 
 13 C       -0.0070     5.9370     0.5110 C.ar  1 <1>  -0.1790 
 14 C       -3.1860     5.9080     0.5460 C.3   1 <1>   0.2090 
 15 C       -2.7760     4.3470    -1.3680 C.3   1 <1>   0.2090 
 16 C       -0.2740     7.3360     0.3300 C.2   1 <1>   0.9790 
 17 C       -4.2070     6.7200    -0.2790 C.3   1 <1>   0.1440 
 18 C       -3.7800     5.1320    -2.2210 C.3   1 <1>  -0.1600 
 19 O        0.0680     7.9310    -0.7090 O.co2 1 <1>  -0.9000 
 20 O       -0.7600     8.0110     1.2590 O.co2 1 <1>  -0.9000 
 21 C       -5.2310     7.3240     0.6680 C.ar  1 <1>   0.1670 
 22 C       -4.8520     5.8170    -1.3540 C.3   1 <1>  -0.1600 
 23 C       -3.5600     7.9850    -0.8990 C.3   1 <1>  -0.1600 
 24 N       -6.2350     6.6870     1.2350 N.ar  1 <1>  -0.6200 
 25 C       -4.9870     8.6490     0.8780 C.ar  1 <1>  -0.1440 
 26 C       -3.7790     9.1240     0.1080 C.3   1 <1>  -0.0170 
 27 C       -6.9850     7.4420     2.0250 C.ar  1 <1>   0.4770 
 28 C       -5.8260     9.3310     1.7220 C.ar  1 <1>   0.1600 
 29 N       -6.8450     8.7320     2.3050 N.ar  1 <1>  -0.6200 
 30 C       -8.1410     6.7410     2.6940 C.3   1 <1>  -0.0970 
 31 H        2.5440     1.6390     2.1730 H     1 <1>   0.1500 
 32 H        2.3830    -0.8700     2.0420 H     1 <1>   0.1500 
 33 H       -0.8970    -2.2160     0.9260 H     1 <1>   0.0800 
 34 H        0.7460    -2.8170     0.9540 H     1 <1>   0.0800 
 35 H        0.0630    -2.2050    -0.5370 H     1 <1>   0.0800 
 36 H        2.3910     3.8700     1.5750 H     1 <1>   0.1500 
 37 H        1.9460     6.2840     1.2940 H     1 <1>   0.1500 
 38 H       -2.6940     6.5500     1.2540 H     1 <1>   0.0800 
 39 H       -3.7080     5.1530     1.1060 H     1 <1>   0.0800 
 40 H       -3.2650     3.5220    -0.8780 H     1 <1>   0.0800 
 41 H       -1.9930     3.9550    -1.9950 H     1 <1>   0.0800 
 42 H       -4.2500     4.4610    -2.9160 H     1 <1>   0.0800 
 43 H       -3.2380     5.8680    -2.7890 H     1 <1>   0.0800 
 44 H       -5.5170     6.3950    -1.9710 H     1 <1>   0.0800 
 45 H       -5.4360     5.0590    -0.8630 H     1 <1>   0.0800 
 46 H       -4.0670     8.2410    -1.8110 H     1 <1>   0.0800 
 47 H       -2.5170     7.8490    -1.1240 H     1 <1>   0.0800 
 48 H       -3.9490    10.0630    -0.3880 H     1 <1>   0.0800 
 49 H       -2.9330     9.2100     0.7680 H     1 <1>   0.0800 
 50 H       -5.6600    10.3760     1.9200 H     1 <1>   0.1500 
 51 H       -8.5790     6.0310     2.0170 H     1 <1>   0.0800 
 52 H       -8.8900     7.4530     2.9870 H     1 <1>   0.0800 
 53 H       -7.7840     6.2250     3.5650 H     1 <1>   0.0800 
@<TRIPOS>BOND
  1   1   2  1   
  2   1   3  1   
  3   2   4  1   
  4   2   5  2   
  5   3   6  2   
  6   3   7  1   
  7   4   8  ar  
  8   4   9  ar  
  9   5   6  1   
 10   5  31  1   
 11   6  32  1   
 12   7  33  1   
 13   7  34  1   
 14   7  35  1   
 15   8  10  ar  
 16   9  11  ar  
 17   9  36  1   
 18  10  12  1   
 19  10  13  ar  
 20  11  13  ar  
 21  11  37  1   
 22  12  14  1   
 23  12  15  1   
 24  13  16  1   
 25  14  17  1   
 26  14  38  1   
 27  14  39  1   
 28  15  18  1   
 29  15  40  1   
 30  15  41  1   
 31  16  19  ar  
 32  16  20  ar  
 33  17  21  1   
 34  17  22  1   
 35  17  23  1   
 36  18  22  1   
 37  18  42  1   
 38  18  43  1   
 39  21  24  ar  
 40  21  25  ar  
 41  22  44  1   
 42  22  45  1   
 43  23  26  1   
 44  23  46  1   
 45  23  47  1   
 46  24  27  ar  
 47  25  26  1   
 48  25  28  ar  
 49  26  48  1   
 50  26  49  1   
 51  27  29  ar  
 52  27  30  1   
 53  28  29  ar  
 54  28  50  1   
 55  30  51  1   
 56  30  52  1   
 57  30  53  1   
@<TRIPOS>SUBSTRUCTURE
  1 ****  12 GROUP 4 **** **** 0

# MOE 2024.06 (io_trps.svl 2023.06)
