@<TRIPOS>MOLECULE
NONAME
49 52 1 0 0 
SMALL
USER_CHARGES


@<TRIPOS>ATOM
  1 O       -1.5750    -0.6560    -0.4710 O.3   1 <1>  -0.2800 
  2 C       -0.8670     0.4450    -0.5370 C.2   1 <1>   0.4250 
  3 C       -1.5140    -1.0470    -1.7110 C.2   1 <1>   0.2980 
  4 N       -0.4050     0.6860    -1.7160 N.2   1 <1>  -0.3380 
  5 C       -0.6750     1.2470     0.6500 C.ar  1 <1>   0.0530 
  6 N       -0.8320    -0.2930    -2.4800 N.2   1 <1>  -0.3380 
  7 C       -2.2340    -2.3280    -2.1240 C.3   1 <1>   0.2900 
  8 C       -1.2960     0.9210     1.8580 C.ar  1 <1>   0.1600 
  9 C        0.1330     2.3770     0.6480 C.ar  1 <1>  -0.1500 
 10 N       -3.7050    -2.2620    -1.9150 N.3   1 <1>  -0.8100 
 11 N       -1.1820     1.5870     2.9960 N.ar  1 <1>  -0.6200 
 12 C        0.2660     3.0860     1.8220 C.ar  1 <1>  -0.1500 
 13 C       -4.3650    -3.5670    -2.0950 C.3   1 <1>   0.1100 
 14 C       -4.3170    -1.2460    -2.7850 C.3   1 <1>   0.0300 
 15 C       -0.4030     2.6550     2.9540 C.ar  1 <1>   0.1600 
 16 C       -4.1010    -4.5070    -0.9070 C.3   1 <1>  -0.0800 
 17 C       -4.9310    -5.7870    -0.9790 C.3   1 <1>   0.2090 
 18 C       -4.4740    -3.9060     0.4470 C.3   1 <1>  -0.1600 
 19 N       -5.2060    -6.1710     0.4290 N.pl3 1 <1>  -0.8380 
 20 C       -4.7000    -5.1150     1.3400 C.3   1 <1>   0.2090 
 21 C       -5.2500    -7.5270     0.7870 C.ar  1 <1>   0.1000 
 22 C       -5.8550    -8.4490    -0.0640 C.ar  1 <1>  -0.1500 
 23 C       -4.7200    -8.0070     1.9850 C.ar  1 <1>  -0.1500 
 24 C       -5.9110    -9.7950     0.2510 C.ar  1 <1>  -0.1500 
 25 C       -4.7740    -9.3520     2.3060 C.ar  1 <1>  -0.1500 
 26 C       -5.3670   -10.2510     1.4380 C.ar  1 <1>  -0.1500 
 27 H       -1.8180    -3.1260    -1.5390 H     1 <1>   0.0800 
 28 H       -2.0240    -2.5290    -3.1600 H     1 <1>   0.0800 
 29 H       -1.9320     0.0520     1.8830 H     1 <1>   0.1500 
 30 H        0.6430     2.6890    -0.2480 H     1 <1>   0.1500 
 31 H        0.8820     3.9660     1.8630 H     1 <1>   0.1500 
 32 H       -4.0410    -4.0240    -3.0150 H     1 <1>   0.0800 
 33 H       -5.4290    -3.4090    -2.1600 H     1 <1>   0.0800 
 34 H       -3.8850    -0.2780    -2.5930 H     1 <1>   0.0800 
 35 H       -5.3730    -1.1810    -2.5860 H     1 <1>   0.0800 
 36 H       -4.1690    -1.4950    -3.8220 H     1 <1>   0.0800 
 37 H       -0.2940     3.2150     3.8670 H     1 <1>   0.1500 
 38 H       -3.0690    -4.8040    -0.8910 H     1 <1>   0.0800 
 39 H       -4.3970    -6.5670    -1.4950 H     1 <1>   0.0800 
 40 H       -5.8710    -5.6070    -1.4720 H     1 <1>   0.0800 
 41 H       -5.3940    -3.3530     0.3700 H     1 <1>   0.0800 
 42 H       -3.7080    -3.2570     0.8320 H     1 <1>   0.0800 
 43 H       -5.4140    -4.9080     2.1190 H     1 <1>   0.0800 
 44 H       -3.7620    -5.4230     1.7700 H     1 <1>   0.0800 
 45 H       -6.2970    -8.1070    -0.9790 H     1 <1>   0.1500 
 46 H       -4.2610    -7.3350     2.6800 H     1 <1>   0.1500 
 47 H       -6.3820   -10.4860    -0.4260 H     1 <1>   0.1500 
 48 H       -4.3540    -9.7000     3.2330 H     1 <1>   0.1500 
 49 H       -5.4080   -11.2970     1.6860 H     1 <1>   0.1500 
@<TRIPOS>BOND
  1   1   2  1   
  2   1   3  1   
  3   2   4  2   
  4   2   5  1   
  5   3   6  2   
  6   3   7  1   
  7   4   6  1   
  8   5   8  ar  
  9   5   9  ar  
 10   7  10  1   
 11   7  27  1   
 12   7  28  1   
 13   8  11  ar  
 14   8  29  1   
 15   9  12  ar  
 16   9  30  1   
 17  10  13  1   
 18  10  14  1   
 19  11  15  ar  
 20  12  15  ar  
 21  12  31  1   
 22  13  16  1   
 23  13  32  1   
 24  13  33  1   
 25  14  34  1   
 26  14  35  1   
 27  14  36  1   
 28  15  37  1   
 29  16  17  1   
 30  16  18  1   
 31  16  38  1   
 32  17  19  1   
 33  17  39  1   
 34  17  40  1   
 35  18  20  1   
 36  18  41  1   
 37  18  42  1   
 38  19  20  1   
 39  19  21  1   
 40  20  43  1   
 41  20  44  1   
 42  21  22  ar  
 43  21  23  ar  
 44  22  24  ar  
 45  22  45  1   
 46  23  25  ar  
 47  23  46  1   
 48  24  26  ar  
 49  24  47  1   
 50  25  26  ar  
 51  25  48  1   
 52  26  49  1   
@<TRIPOS>SUBSTRUCTURE
  1 ****  18 GROUP 4 **** **** 0

# MOE 2024.06 (io_trps.svl 2023.06)
