@<TRIPOS>MOLECULE
NONAME
48 50 1 0 0 
SMALL
USER_CHARGES


@<TRIPOS>ATOM
  1 S       -0.2310    -1.7080    -0.5490 S.o2  1 <1>   1.4470 
  2 O       -0.0160    -1.7260    -1.9810 O.2   1 <1>  -0.6500 
  3 O       -0.9090    -2.8210     0.0780 O.2   1 <1>  -0.6500 
  4 N       -1.1110    -0.3040    -0.2020 N.am  1 <1>  -0.8490 
  5 C        1.3400    -1.4140     0.3110 C.ar  1 <1>  -0.0090 
  6 C       -2.5710    -0.5400    -0.2780 C.3   1 <1>   0.1960 
  7 C       -0.6790     0.8480    -0.9870 C.3   1 <1>   0.1960 
  8 C        2.5560    -1.4910    -0.3580 C.ar  1 <1>  -0.1500 
  9 C        1.3620    -1.1040     1.6670 C.ar  1 <1>  -0.1500 
 10 C       -3.4320     0.7600    -0.3180 C.3   1 <1>   0.0000 
 11 C       -1.2910     2.1430    -0.4290 C.3   1 <1>  -0.1600 
 12 C        3.7500    -1.2550     0.3040 C.ar  1 <1>   0.0830 
 13 C        2.5520    -0.8780     2.3380 C.ar  1 <1>  -0.1500 
 14 C       -4.7920     0.5840     0.3850 C.3   1 <1>   0.2000 
 15 C       -2.6410     1.9380     0.2850 C.3   1 <1>  -0.1600 
 16 C       -3.8870     1.0490    -1.7620 C.3   1 <1>  -0.1600 
 17 O        4.9130    -1.3360    -0.3730 O.3   1 <1>  -0.3630 
 18 C        3.7520    -0.9560     1.6570 C.ar  1 <1>  -0.1500 
 19 O       -4.6760    -0.0970     1.5980 O.3   1 <1>  -0.5600 
 20 C       -5.6650    -0.1870    -0.6060 C.3   1 <1>  -0.1600 
 21 C       -5.1280     0.1780    -1.9960 C.3   1 <1>  -0.1600 
 22 C        5.4470    -0.1380    -0.8980 C.3   1 <1>   1.3000 
 23 C       -5.7900    -0.0220     2.4280 C.3   1 <1>   0.0400 
 24 F        4.5820     0.4660    -1.7060 F     1 <1>  -0.3400 
 25 F        5.7740     0.7110     0.0690 F     1 <1>  -0.3400 
 26 F        6.5420    -0.3960    -1.5970 F     1 <1>  -0.3400 
 27 H       -2.7930    -1.1400    -1.1450 H     1 <1>   0.0800 
 28 H       -2.8370    -1.1340     0.5790 H     1 <1>   0.0800 
 29 H        0.3950     0.9320    -0.9630 H     1 <1>   0.0800 
 30 H       -0.9710     0.7100    -2.0150 H     1 <1>   0.0800 
 31 H        2.5710    -1.7370    -1.4070 H     1 <1>   0.1500 
 32 H        0.4270    -1.0400     2.2010 H     1 <1>   0.1500 
 33 H       -0.5980     2.5880     0.2620 H     1 <1>   0.0800 
 34 H       -1.4140     2.8340    -1.2440 H     1 <1>   0.0800 
 35 H        2.5410    -0.6430     3.3890 H     1 <1>   0.1500 
 36 H       -5.2200     1.5550     0.5700 H     1 <1>   0.0800 
 37 H       -3.2140     2.8470     0.2580 H     1 <1>   0.0800 
 38 H       -2.4470     1.7060     1.3190 H     1 <1>   0.0800 
 39 H       -4.1720     2.0830    -1.8500 H     1 <1>   0.0800 
 40 H       -3.1270     0.8450    -2.4950 H     1 <1>   0.0800 
 41 H        4.6810    -0.7880     2.1730 H     1 <1>   0.1500 
 42 H       -5.5550    -1.2450    -0.4450 H     1 <1>   0.0800 
 43 H       -6.6990     0.0910    -0.5050 H     1 <1>   0.0800 
 44 H       -4.8600    -0.7190    -2.5280 H     1 <1>   0.0800 
 45 H       -5.8640     0.7130    -2.5720 H     1 <1>   0.0800 
 46 H       -5.5680    -0.5600     3.3320 H     1 <1>   0.0800 
 47 H       -6.6350    -0.4730     1.9390 H     1 <1>   0.0800 
 48 H       -5.9920     1.0090     2.6620 H     1 <1>   0.0800 
@<TRIPOS>BOND
  1   1   2  2   
  2   1   3  2   
  3   1   4  am  
  4   1   5  1   
  5   4   6  1   
  6   4   7  1   
  7   5   8  ar  
  8   5   9  ar  
  9   6  10  1   
 10   6  27  1   
 11   6  28  1   
 12   7  11  1   
 13   7  29  1   
 14   7  30  1   
 15   8  12  ar  
 16   8  31  1   
 17   9  13  ar  
 18   9  32  1   
 19  10  14  1   
 20  10  15  1   
 21  10  16  1   
 22  11  15  1   
 23  11  33  1   
 24  11  34  1   
 25  12  17  1   
 26  12  18  ar  
 27  13  18  ar  
 28  13  35  1   
 29  14  19  1   
 30  14  20  1   
 31  14  36  1   
 32  15  37  1   
 33  15  38  1   
 34  16  21  1   
 35  16  39  1   
 36  16  40  1   
 37  17  22  1   
 38  18  41  1   
 39  19  23  1   
 40  20  21  1   
 41  20  42  1   
 42  20  43  1   
 43  21  44  1   
 44  21  45  1   
 45  22  24  1   
 46  22  25  1   
 47  22  26  1   
 48  23  46  1   
 49  23  47  1   
 50  23  48  1   
@<TRIPOS>SUBSTRUCTURE
  1 ****   4 GROUP 4 **** **** 0

# MOE 2024.06 (io_trps.svl 2023.06)
