@<TRIPOS>MOLECULE
NONAME
46 49 1 0 0 
SMALL
USER_CHARGES


@<TRIPOS>ATOM
  1 S       -0.5490     0.1710     2.3690 S.3   1 <1>  -0.0800 
  2 C       -1.1490     1.3590     1.2220 C.2   1 <1>  -0.1400 
  3 C       -2.1710    -0.4660     2.6030 C.2   1 <1>  -0.1100 
  4 C       -2.4740     1.2470     1.0710 C.2   1 <1>  -0.1810 
  5 C       -0.2380     2.3490     0.5150 C.3   1 <1>   0.4600 
  6 C       -3.0660     0.2040     1.8520 C.2   1 <1>  -0.1500 
  7 C       -3.2010     2.1820     0.1320 C.3   1 <1>   0.0210 
  8 O       -0.9920     3.0690    -0.4470 O.3   1 <1>  -0.5600 
  9 C        0.4080     3.3500     1.4860 C.3   1 <1>  -0.1600 
 10 C        0.8570     1.6180    -0.2650 C.3   1 <1>  -0.1600 
 11 C       -2.3220     3.4230    -0.1190 C.3   1 <1>   0.1200 
 12 C        1.6210     4.0780     0.8990 C.3   1 <1>   0.3430 
 13 C        1.7420     2.5710    -1.0730 C.3   1 <1>   0.3430 
 14 N        1.6170     3.9750    -0.5880 N.4   1 <1>  -0.9590 
 15 C        2.5900     4.9090    -1.2360 C.3   1 <1>   0.5240 
 16 C        2.1840     6.3620    -1.0150 C.2   1 <1>   0.1080 
 17 N        2.3450     6.9890     0.1120 N.2   1 <1>  -0.7070 
 18 C        1.6030     7.1740    -1.9830 C.2   1 <1>  -0.1500 
 19 N        1.8790     8.2350    -0.1080 N.pl3 1 <1>   0.3140 
 20 C        1.4210     8.3610    -1.3690 C.2   1 <1>  -0.3020 
 21 C        1.9010     9.2880     0.9300 C.3   1 <1>   0.0960 
 22 C        3.1360    10.1850     0.7790 C.3   1 <1>  -0.2400 
 23 H       -2.2850    -1.2880     3.2880 H     1 <1>   0.1500 
 24 H       -4.1230     0.0080     1.8140 H     1 <1>   0.1500 
 25 H       -4.1350     2.4890     0.5670 H     1 <1>   0.0800 
 26 H       -3.4080     1.6800    -0.7960 H     1 <1>   0.0800 
 27 H        0.7420     2.8270     2.3630 H     1 <1>   0.0800 
 28 H       -0.3210     4.0650     1.8200 H     1 <1>   0.0800 
 29 H        0.4090     0.8930    -0.9210 H     1 <1>   0.0800 
 30 H        1.4770     1.0730     0.4240 H     1 <1>   0.0800 
 31 H       -2.3050     4.0440     0.7590 H     1 <1>   0.0800 
 32 H       -2.7230     3.9970    -0.9370 H     1 <1>   0.0800 
 33 H        2.5280     3.6420     1.2850 H     1 <1>   0.0800 
 34 H        1.5910     5.1090     1.2100 H     1 <1>   0.0800 
 35 H        1.4400     2.5300    -2.1070 H     1 <1>   0.0800 
 36 H        2.7670     2.2420    -1.0090 H     1 <1>   0.0800 
 37 H        0.6680     4.2820    -0.8640 H     1 <1>   0.4500 
 38 H        2.6260     4.7210    -2.2950 H     1 <1>   0.0800 
 39 H        3.5750     4.7570    -0.8280 H     1 <1>   0.0800 
 40 H        1.3580     6.9100    -2.9980 H     1 <1>   0.1500 
 41 H        1.0040     9.2760    -1.7520 H     1 <1>   0.1500 
 42 H        1.9090     8.8120     1.8940 H     1 <1>   0.0800 
 43 H        1.0040     9.8730     0.8440 H     1 <1>   0.0800 
 44 H        4.0330     9.5980     0.8720 H     1 <1>   0.0800 
 45 H        3.1380    10.9350     1.5500 H     1 <1>   0.0800 
 46 H        3.1300    10.6780    -0.1770 H     1 <1>   0.0800 
@<TRIPOS>BOND
  1   1   2  1   
  2   1   3  1   
  3   2   4  2   
  4   2   5  1   
  5   3   6  2   
  6   3  23  1   
  7   4   6  1   
  8   4   7  1   
  9   5   8  1   
 10   5   9  1   
 11   5  10  1   
 12   6  24  1   
 13   7  11  1   
 14   7  25  1   
 15   7  26  1   
 16   8  11  1   
 17   9  12  1   
 18   9  27  1   
 19   9  28  1   
 20  10  13  1   
 21  10  29  1   
 22  10  30  1   
 23  11  31  1   
 24  11  32  1   
 25  12  14  1   
 26  12  33  1   
 27  12  34  1   
 28  13  14  1   
 29  13  35  1   
 30  13  36  1   
 31  14  15  1   
 32  14  37  1   
 33  15  16  1   
 34  15  38  1   
 35  15  39  1   
 36  16  17  2   
 37  16  18  1   
 38  17  19  1   
 39  18  20  2   
 40  18  40  1   
 41  19  20  1   
 42  19  21  1   
 43  20  41  1   
 44  21  22  1   
 45  21  42  1   
 46  21  43  1   
 47  22  44  1   
 48  22  45  1   
 49  22  46  1   
@<TRIPOS>SUBSTRUCTURE
  1 ****  12 GROUP 4 **** **** 0

# MOE 2024.06 (io_trps.svl 2023.06)
