@<TRIPOS>MOLECULE
NONAME
46 48 1 0 0 
SMALL
USER_CHARGES


@<TRIPOS>ATOM
  1 O       -2.3170     0.8860    -1.0900 O.co2 1 <1>  -0.9000 
  2 C       -1.8840     1.4650    -0.0930 C.2   1 <1>   0.9060 
  3 O       -1.5830     0.8660     0.9480 O.co2 1 <1>  -0.9000 
  4 C       -1.7360     2.9680    -0.1430 C.3   1 <1>  -0.1860 
  5 C       -2.4120     3.6670     1.0430 C.3   1 <1>   0.2000 
  6 C       -0.2630     3.3650    -0.2430 C.3   1 <1>   0.1400 
  7 O       -1.9740     3.0940     2.2200 O.3   1 <1>  -0.6800 
  8 C       -2.0870     5.1690     1.1170 C.3   1 <1>  -0.1600 
  9 N       -0.0950     4.8560    -0.3570 N.am  1 <1>  -0.6600 
 10 C       -1.3180     5.6820    -0.1060 C.3   1 <1>   0.1400 
 11 C        1.1390     5.3640    -0.6730 C.2   1 <1>   0.5690 
 12 O        2.0960     4.6510    -0.8630 O.2   1 <1>  -0.5700 
 13 C        1.3370     6.8670    -0.8060 C.3   1 <1>  -0.0990 
 14 C        2.7490     7.2610    -1.2690 C.3   1 <1>   0.0200 
 15 C        2.8780     8.7640    -1.4140 C.2   1 <1>   0.2980 
 16 O        2.2290     9.3590    -2.3810 O.3   1 <1>  -0.0190 
 17 N        3.5640     9.5260    -0.6690 N.2   1 <1>  -0.5650 
 18 N        2.5270    10.6110    -2.2360 N.2   1 <1>  -0.4100 
 19 C        3.3200    10.7170    -1.2280 C.2   1 <1>   0.4620 
 20 C        3.8940    11.9550    -0.7260 C.ar  1 <1>   0.0540 
 21 C        4.7510    11.9730     0.3780 C.ar  1 <1>  -0.1500 
 22 C        3.6110    13.1810    -1.3300 C.ar  1 <1>  -0.1500 
 23 C        5.3000    13.1490     0.8600 C.ar  1 <1>  -0.1430 
 24 C        4.1510    14.3620    -0.8570 C.ar  1 <1>  -0.1500 
 25 C        4.9960    14.3470     0.2380 C.ar  1 <1>  -0.1500 
 26 C        6.2260    13.1340     2.0620 C.3   1 <1>  -0.0970 
 27 H       -2.2220     3.2780    -1.0480 H     1 <1>   0.0800 
 28 H       -3.4760     3.5060     0.9900 H     1 <1>   0.0800 
 29 H        0.1790     2.8860    -1.1010 H     1 <1>   0.0800 
 30 H        0.2590     3.0190     0.6340 H     1 <1>   0.0800 
 31 H       -1.7970     2.1250     2.0130 H     1 <1>   0.4000 
 32 H       -3.0080     5.7150     1.2010 H     1 <1>   0.0800 
 33 H       -1.5010     5.3810     1.9940 H     1 <1>   0.0800 
 34 H       -1.0640     6.7130     0.0590 H     1 <1>   0.0800 
 35 H       -1.9510     5.6310    -0.9760 H     1 <1>   0.0800 
 36 H        0.6200     7.2410    -1.5130 H     1 <1>   0.0800 
 37 H        1.1480     7.3200     0.1500 H     1 <1>   0.0800 
 38 H        2.9700     6.7980    -2.2140 H     1 <1>   0.0800 
 39 H        3.4730     6.9150    -0.5510 H     1 <1>   0.0800 
 40 H        4.9880    11.0440     0.8660 H     1 <1>   0.1500 
 41 H        2.9560    13.2100    -2.1830 H     1 <1>   0.1500 
 42 H        3.9160    15.2940    -1.3410 H     1 <1>   0.1500 
 43 H        5.4130    15.2700     0.6020 H     1 <1>   0.1500 
 44 H        7.0510    13.8060     1.9040 H     1 <1>   0.0800 
 45 H        6.6200    12.1480     2.2290 H     1 <1>   0.0800 
 46 H        5.6880    13.4450     2.9400 H     1 <1>   0.0800 
@<TRIPOS>BOND
  1   1   2  ar  
  2   2   3  ar  
  3   2   4  1   
  4   4   5  1   
  5   4   6  1   
  6   4  27  1   
  7   5   7  1   
  8   5   8  1   
  9   5  28  1   
 10   6   9  1   
 11   6  29  1   
 12   6  30  1   
 13   7  31  1   
 14   8  10  1   
 15   8  32  1   
 16   8  33  1   
 17   9  10  1   
 18   9  11  am  
 19  10  34  1   
 20  10  35  1   
 21  11  12  2   
 22  11  13  1   
 23  13  14  1   
 24  13  36  1   
 25  13  37  1   
 26  14  15  1   
 27  14  38  1   
 28  14  39  1   
 29  15  16  1   
 30  15  17  2   
 31  16  18  1   
 32  17  19  1   
 33  18  19  2   
 34  19  20  1   
 35  20  21  ar  
 36  20  22  ar  
 37  21  23  ar  
 38  21  40  1   
 39  22  24  ar  
 40  22  41  1   
 41  23  25  ar  
 42  23  26  1   
 43  24  25  ar  
 44  24  42  1   
 45  25  43  1   
 46  26  44  1   
 47  26  45  1   
 48  26  46  1   
@<TRIPOS>SUBSTRUCTURE
  1 ****  13 GROUP 4 **** **** 0

# MOE 2024.06 (io_trps.svl 2023.06)
