@<TRIPOS>MOLECULE
NONAME
50 52 1 0 0 
SMALL
USER_CHARGES


@<TRIPOS>ATOM
  1 O        1.0940     0.1330    -1.4140 O.2   1 <1>  -0.5700 
  2 C        1.9560    -0.7230    -1.3390 C.2   1 <1>   0.5440 
  3 N        3.2630    -0.3850    -1.6170 N.am  1 <1>  -0.6600 
  4 C        1.5960    -2.0760    -0.9600 C.ar  1 <1>   0.0860 
  5 C        4.4200    -1.3290    -1.4940 C.3   1 <1>   0.1400 
  6 C        3.6300     0.9730    -2.1030 C.3   1 <1>   0.1400 
  7 C        1.4530    -2.4830     0.3740 C.ar  1 <1>  -0.1440 
  8 C        1.3990    -3.0270    -1.9600 C.ar  1 <1>  -0.1500 
  9 C        5.2860    -1.0360    -0.2590 C.3   1 <1>   0.1400 
 10 C        3.9010     1.9350    -0.9390 C.3   1 <1>  -0.1600 
 11 C        1.1370    -3.8000     0.6690 C.ar  1 <1>  -0.1500 
 12 C        1.6270    -1.5010     1.5280 C.3   1 <1>  -0.0160 
 13 C        1.0850    -4.3390    -1.6600 C.ar  1 <1>  -0.1500 
 14 N        5.7310     0.3900    -0.2050 N.am  1 <1>  -0.6600 
 15 C        4.6850     1.3490     0.2430 C.3   1 <1>   0.1400 
 16 C        0.9550    -4.7280    -0.3410 C.ar  1 <1>  -0.1500 
 17 C        0.2920    -0.8390     1.8760 C.3   1 <1>  -0.2400 
 18 C        6.8870     0.8000    -0.8370 C.2   1 <1>   0.7160 
 19 O        7.4890    -0.0040    -1.5280 O.2   1 <1>  -0.5700 
 20 C        7.3630     2.1630    -0.7320 C.2   1 <1>  -0.0860 
 21 C        7.7020     2.9170     0.3690 C.2   1 <1>  -0.3320 
 22 C        7.5780     3.0090    -1.8370 C.2   1 <1>  -0.1500 
 23 N        8.0870     4.1550    -0.0190 N.pl3 1 <1>   0.0330 
 24 C        7.7050     2.4970     1.8290 C.3   1 <1>  -0.0600 
 25 C        8.0080     4.2070    -1.3730 C.2   1 <1>  -0.3020 
 26 H        5.0350    -1.2540    -2.3740 H     1 <1>   0.0800 
 27 H        4.0740    -2.3450    -1.4390 H     1 <1>   0.0800 
 28 H        2.8380     1.3670    -2.7170 H     1 <1>   0.0800 
 29 H        4.5110     0.9030    -2.7180 H     1 <1>   0.0800 
 30 H        1.4940    -2.7230    -2.9880 H     1 <1>   0.1500 
 31 H        6.1490    -1.6790    -0.2790 H     1 <1>   0.0800 
 32 H        4.7320    -1.2750     0.6310 H     1 <1>   0.0800 
 33 H        2.9580     2.2990    -0.5720 H     1 <1>   0.0800 
 34 H        4.4330     2.7870    -1.3210 H     1 <1>   0.0800 
 35 H        1.0230    -4.1120     1.6930 H     1 <1>   0.1500 
 36 H        2.3450    -0.7430     1.2750 H     1 <1>   0.0800 
 37 H        2.0020    -2.0210     2.3930 H     1 <1>   0.0800 
 38 H        0.9380    -5.0550    -2.4500 H     1 <1>   0.1500 
 39 H        4.0000     0.8380     0.8960 H     1 <1>   0.0800 
 40 H        5.1300     2.1470     0.8100 H     1 <1>   0.0800 
 41 H        0.7090    -5.7470    -0.0990 H     1 <1>   0.1500 
 42 H       -0.0820    -0.2920     1.0280 H     1 <1>   0.0800 
 43 H        0.4190    -0.1560     2.6960 H     1 <1>   0.0800 
 44 H       -0.4340    -1.5830     2.1520 H     1 <1>   0.0800 
 45 H        7.4200     2.7130    -2.8600 H     1 <1>   0.1500 
 46 H        8.4010     4.9170     0.5940 H     1 <1>   0.2700 
 47 H        7.4120     1.4670     1.9270 H     1 <1>   0.0800 
 48 H        7.0200     3.1050     2.3930 H     1 <1>   0.0800 
 49 H        8.6920     2.6080     2.2420 H     1 <1>   0.0800 
 50 H        8.2690     5.0890    -1.9310 H     1 <1>   0.1500 
@<TRIPOS>BOND
  1   1   2  2   
  2   2   3  am  
  3   2   4  1   
  4   3   5  1   
  5   3   6  1   
  6   4   7  ar  
  7   4   8  ar  
  8   5   9  1   
  9   5  26  1   
 10   5  27  1   
 11   6  10  1   
 12   6  28  1   
 13   6  29  1   
 14   7  11  ar  
 15   7  12  1   
 16   8  13  ar  
 17   8  30  1   
 18   9  14  1   
 19   9  31  1   
 20   9  32  1   
 21  10  15  1   
 22  10  33  1   
 23  10  34  1   
 24  11  16  ar  
 25  11  35  1   
 26  12  17  1   
 27  12  36  1   
 28  12  37  1   
 29  13  16  ar  
 30  13  38  1   
 31  14  15  1   
 32  14  18  am  
 33  15  39  1   
 34  15  40  1   
 35  16  41  1   
 36  17  42  1   
 37  17  43  1   
 38  17  44  1   
 39  18  19  2   
 40  18  20  1   
 41  20  21  2   
 42  20  22  1   
 43  21  23  1   
 44  21  24  1   
 45  22  25  2   
 46  22  45  1   
 47  23  25  1   
 48  23  46  1   
 49  24  47  1   
 50  24  48  1   
 51  24  49  1   
 52  25  50  1   
@<TRIPOS>SUBSTRUCTURE
  1 ****   3 GROUP 4 **** **** 0

# MOE 2024.06 (io_trps.svl 2023.06)
