@<TRIPOS>MOLECULE
NONAME
21 22 1 0 0 
SMALL
USER_CHARGES


@<TRIPOS>ATOM
  1 O       -0.6230     0.2210    -0.8950 O.3   1 <1>  -0.0190 
  2 N        0.1040     1.2330    -1.3090 N.2   1 <1>  -0.4100 
  3 C       -1.6130     0.6120    -0.1300 C.2   1 <1>  -0.0210 
  4 C       -0.4350     2.2780    -0.7990 C.2   1 <1>   0.3720 
  5 C       -1.5470     1.9480    -0.0290 C.2   1 <1>  -0.1500 
  6 C       -2.5750    -0.4120     0.4610 C.3   1 <1>   0.1610 
  7 N        0.0470     3.5480    -1.0190 N.pl3 1 <1>  -0.8830 
  8 C       -1.8840    -1.6350     1.0890 C.3   1 <1>   0.2580 
  9 C       -3.0730    -1.4630    -0.5460 C.3   1 <1>   0.2580 
 10 C       -3.6880     0.2010     1.3350 C.3   1 <1>  -0.2400 
 11 O       -2.8800    -2.4440     0.4690 O.3   1 <1>  -0.5160 
 12 H       -2.1630     2.6450     0.5040 H     1 <1>   0.1500 
 13 H       -0.6660     4.1610    -1.4150 H     1 <1>   0.4000 
 14 H        0.8380     3.4920    -1.6650 H     1 <1>   0.4000 
 15 H       -1.9550    -1.7050     2.1600 H     1 <1>   0.0000 
 16 H       -0.9150    -1.8780     0.6870 H     1 <1>   0.0000 
 17 H       -2.4140    -1.6620    -1.3740 H     1 <1>   0.0000 
 18 H       -4.1140    -1.3930    -0.8080 H     1 <1>   0.0000 
 19 H       -3.2560     0.7340     2.1630 H     1 <1>   0.0800 
 20 H       -4.3330    -0.5680     1.7240 H     1 <1>   0.0800 
 21 H       -4.2820     0.8820     0.7530 H     1 <1>   0.0800 
@<TRIPOS>BOND
  1   1   2  1   
  2   1   3  1   
  3   2   4  2   
  4   3   5  2   
  5   3   6  1   
  6   4   5  1   
  7   4   7  1   
  8   5  12  1   
  9   6   8  1   
 10   6   9  1   
 11   6  10  1   
 12   7  13  1   
 13   7  14  1   
 14   8  11  1   
 15   8  15  1   
 16   8  16  1   
 17   9  11  1   
 18   9  17  1   
 19   9  18  1   
 20  10  19  1   
 21  10  20  1   
 22  10  21  1   
@<TRIPOS>SUBSTRUCTURE
  1 ****   3 GROUP 4 **** **** 0

# MOE 2024.06 (io_trps.svl 2023.06)
