@<TRIPOS>MOLECULE
NONAME
52 56 1 0 0 
SMALL
USER_CHARGES


@<TRIPOS>ATOM
  1 O       -1.8840     0.4190    -0.9550 O.2   1 <1>  -0.5700 
  2 C       -1.7180     0.4450     0.2550 C.2   1 <1>   0.7160 
  3 N       -1.8200    -0.7310     0.9400 N.am  1 <1>  -0.7300 
  4 C       -1.4400     1.6680     0.9970 C.2   1 <1>   0.2030 
  5 C       -2.2040    -2.0380     0.3680 C.3   1 <1>   0.2200 
  6 N       -1.3560     1.7330     2.3190 N.2   1 <1>  -0.7070 
  7 C       -1.2260     2.9420     0.4460 C.2   1 <1>  -0.1810 
  8 C       -3.7130    -2.1870     0.4400 C.3   1 <1>  -0.0800 
  9 C       -1.7140    -3.1770     1.2630 C.3   1 <1>   0.1200 
 10 N       -1.0990     3.0200     2.6000 N.pl3 1 <1>   0.3000 
 11 C       -1.0230     3.7680     1.4850 C.2   1 <1>  -0.3320 
 12 C       -1.2140     3.3990    -1.0030 C.3   1 <1>   0.0210 
 13 C       -3.8980    -2.7360     1.8540 C.3   1 <1>   0.1200 
 14 C       -4.2340    -3.1570    -0.6370 C.3   1 <1>  -0.0160 
 15 O       -2.7680    -3.5100     2.1220 O.3   1 <1>  -0.5600 
 16 C       -0.7500     5.2570     1.3930 C.3   1 <1>   0.0200 
 17 C       -0.5850     4.8010    -1.1180 C.3   1 <1>  -0.1600 
 18 C       -5.7560    -3.2440    -0.6240 C.ar  1 <1>  -0.1430 
 19 C       -1.0960     5.7580    -0.0220 C.3   1 <1>  -0.1600 
 20 C       -6.5770    -2.2230    -1.1600 C.ar  1 <1>   0.0000 
 21 C       -6.3750    -4.3310    -0.0800 C.ar  1 <1>  -0.1500 
 22 C       -7.9800    -2.4010    -1.0810 C.ar  1 <1>   0.3100 
 23 C       -6.0930    -1.0420    -1.7710 C.ar  1 <1>  -0.1500 
 24 C       -7.7720    -4.4090    -0.0560 C.ar  1 <1>   0.1600 
 25 N       -8.5600    -3.4950    -0.5270 N.ar  1 <1>  -0.6200 
 26 C       -8.8220    -1.4040    -1.6010 C.ar  1 <1>  -0.1500 
 27 C       -6.9410    -0.0900    -2.2680 C.ar  1 <1>  -0.1500 
 28 C       -8.3240    -0.2700    -2.1830 C.ar  1 <1>  -0.1500 
 29 H       -1.7680    -0.6540     1.9600 H     1 <1>   0.3700 
 30 H       -1.8190    -2.1210    -0.6350 H     1 <1>   0.0800 
 31 H       -4.2070    -1.2370     0.3340 H     1 <1>   0.0800 
 32 H       -0.8520    -2.9010     1.8440 H     1 <1>   0.0800 
 33 H       -1.4920    -4.0490     0.6750 H     1 <1>   0.0800 
 34 H       -0.9820     3.3640     3.5610 H     1 <1>   0.2700 
 35 H       -0.6560     2.7030    -1.6050 H     1 <1>   0.0800 
 36 H       -2.2260     3.4210    -1.3650 H     1 <1>   0.0800 
 37 H       -4.7800    -3.3400     1.9670 H     1 <1>   0.0800 
 38 H       -3.9190    -1.9320     2.5700 H     1 <1>   0.0800 
 39 H       -3.8160    -4.1360    -0.4740 H     1 <1>   0.0800 
 40 H       -3.9080    -2.8370    -1.6110 H     1 <1>   0.0800 
 41 H       -1.3370     5.7940     2.1180 H     1 <1>   0.0800 
 42 H        0.2920     5.4360     1.5950 H     1 <1>   0.0800 
 43 H        0.4840     4.7090    -1.0270 H     1 <1>   0.0800 
 44 H       -0.7990     5.2080    -2.0900 H     1 <1>   0.0800 
 45 H       -2.1660     5.8410    -0.1080 H     1 <1>   0.0800 
 46 H       -0.6760     6.7380    -0.1660 H     1 <1>   0.0800 
 47 H       -5.8140    -5.1450     0.3420 H     1 <1>   0.1500 
 48 H       -5.0340    -0.8810    -1.8500 H     1 <1>   0.1500 
 49 H       -8.2190    -5.2850     0.3830 H     1 <1>   0.1500 
 50 H       -9.8820    -1.5650    -1.5250 H     1 <1>   0.1500 
 51 H       -6.5560     0.8040    -2.7280 H     1 <1>   0.1500 
 52 H       -8.9810     0.4850    -2.5770 H     1 <1>   0.1500 
@<TRIPOS>BOND
  1   1   2  2   
  2   2   3  am  
  3   2   4  1   
  4   3   5  1   
  5   3  29  1   
  6   4   6  2   
  7   4   7  1   
  8   5   8  1   
  9   5   9  1   
 10   5  30  1   
 11   6  10  1   
 12   7  11  2   
 13   7  12  1   
 14   8  13  1   
 15   8  14  1   
 16   8  31  1   
 17   9  15  1   
 18   9  32  1   
 19   9  33  1   
 20  10  11  1   
 21  10  34  1   
 22  11  16  1   
 23  12  17  1   
 24  12  35  1   
 25  12  36  1   
 26  13  15  1   
 27  13  37  1   
 28  13  38  1   
 29  14  18  1   
 30  14  39  1   
 31  14  40  1   
 32  16  19  1   
 33  16  41  1   
 34  16  42  1   
 35  17  19  1   
 36  17  43  1   
 37  17  44  1   
 38  18  20  ar  
 39  18  21  ar  
 40  19  45  1   
 41  19  46  1   
 42  20  22  ar  
 43  20  23  ar  
 44  21  24  ar  
 45  21  47  1   
 46  22  25  ar  
 47  22  26  ar  
 48  23  27  ar  
 49  23  48  1   
 50  24  25  ar  
 51  24  49  1   
 52  26  28  ar  
 53  26  50  1   
 54  27  28  ar  
 55  27  51  1   
 56  28  52  1   
@<TRIPOS>SUBSTRUCTURE
  1 ****   8 GROUP 4 **** **** 0

# MOE 2024.06 (io_trps.svl 2023.06)
