@<TRIPOS>MOLECULE
NONAME
34 35 1 0 0 
SMALL
USER_CHARGES


@<TRIPOS>ATOM
  1 N       -0.3250    -1.3070     0.1390 N.ar  1 <1>  -0.6200 
  2 C       -1.5790    -1.7120     0.0490 C.ar  1 <1>   0.4100 
  3 C        0.5010    -2.2930     0.4680 C.ar  1 <1>   0.1600 
  4 N       -2.5240    -0.7460    -0.3210 N.pl3 1 <1>  -0.8380 
  5 C       -1.9810    -3.0650     0.2910 C.ar  1 <1>   0.4100 
  6 C        0.1090    -3.6010     0.6880 C.ar  1 <1>   0.1600 
  7 C       -2.7300    -0.6180    -1.7870 C.3   1 <1>   0.1290 
  8 C       -2.4220     0.5740     0.3620 C.3   1 <1>   0.1290 
  9 N       -1.1440    -4.0370     0.6010 N.ar  1 <1>  -0.6200 
 10 N       -3.3190    -3.4130     0.1850 N.pl3 1 <1>  -0.8690 
 11 C       -3.9880    -4.1570     1.2880 C.3   1 <1>   0.2090 
 12 C       -4.8570    -5.2910     0.7300 C.3   1 <1>   0.0200 
 13 C       -4.0510    -6.4220     0.1130 C.2   1 <1>   0.0070 
 14 N       -4.4270    -7.6500     0.0360 N.2   1 <1>  -0.3380 
 15 N       -2.8400    -6.2530    -0.4250 N.pl3 1 <1>   0.0330 
 16 N       -3.4400    -8.3280    -0.5740 N.2   1 <1>  -0.3380 
 17 C       -2.5040    -7.4750    -0.8340 C.2   1 <1>   0.2700 
 18 N       -1.3090    -7.8060    -1.4370 N.pl3 1 <1>  -0.8840 
 19 H        1.5420    -2.0380     0.5630 H     1 <1>   0.1500 
 20 H        0.8590    -4.3270     0.9480 H     1 <1>   0.1500 
 21 H       -2.7860    -1.5940    -2.2380 H     1 <1>   0.0800 
 22 H       -1.9060    -0.0810    -2.2270 H     1 <1>   0.0800 
 23 H       -3.6460    -0.0900    -1.9860 H     1 <1>   0.0800 
 24 H       -2.1970     0.4290     1.4050 H     1 <1>   0.0800 
 25 H       -3.3540     1.1050     0.2780 H     1 <1>   0.0800 
 26 H       -1.6360     1.1600    -0.0820 H     1 <1>   0.0800 
 27 H       -3.8340    -2.5540    -0.0610 H     1 <1>   0.4000 
 28 H       -4.6080    -3.4720     1.8400 H     1 <1>   0.0800 
 29 H       -3.2580    -4.5640     1.9690 H     1 <1>   0.0800 
 30 H       -5.5350    -4.8970    -0.0050 H     1 <1>   0.0800 
 31 H       -5.4460    -5.7010     1.5300 H     1 <1>   0.0800 
 32 H       -2.3040    -5.3770    -0.4510 H     1 <1>   0.2700 
 33 H       -1.2300    -8.8180    -1.5610 H     1 <1>   0.4000 
 34 H       -0.4820    -7.4270    -0.9750 H     1 <1>   0.4000 
@<TRIPOS>BOND
  1   1   2  ar  
  2   1   3  ar  
  3   2   4  1   
  4   2   5  ar  
  5   3   6  ar  
  6   3  19  1   
  7   4   7  1   
  8   4   8  1   
  9   5   9  ar  
 10   5  10  1   
 11   6   9  ar  
 12   6  20  1   
 13   7  21  1   
 14   7  22  1   
 15   7  23  1   
 16   8  24  1   
 17   8  25  1   
 18   8  26  1   
 19  10  11  1   
 20  10  27  1   
 21  11  12  1   
 22  11  28  1   
 23  11  29  1   
 24  12  13  1   
 25  12  30  1   
 26  12  31  1   
 27  13  14  2   
 28  13  15  1   
 29  14  16  1   
 30  15  17  1   
 31  15  32  1   
 32  16  17  2   
 33  17  18  1   
 34  18  33  1   
 35  18  34  1   
@<TRIPOS>SUBSTRUCTURE
  1 ****   5 GROUP 4 **** **** 0

# MOE 2024.06 (io_trps.svl 2023.06)
