@<TRIPOS>MOLECULE
NONAME
47 49 1 0 0 
SMALL
USER_CHARGES


@<TRIPOS>ATOM
  1 O       -0.4230     0.2680    -0.1690 O.2   1 <1>  -0.5700 
  2 C       -0.0790     1.4290    -0.1810 C.2   1 <1>   0.5690 
  3 N       -0.9510     2.4440     0.1390 N.am  1 <1>  -0.6600 
  4 C        1.3570     1.7130    -0.6150 C.3   1 <1>   0.1810 
  5 C       -2.3490     2.1590     0.5900 C.3   1 <1>   0.1400 
  6 C       -0.6340     3.8980     0.0920 C.3   1 <1>   0.1400 
  7 O        2.0880     2.3870     0.4000 O.3   1 <1>  -0.3620 
  8 C       -3.3810     2.8290    -0.3520 C.3   1 <1>   0.0000 
  9 C       -1.6160     4.6090    -0.8460 C.3   1 <1>  -0.1600 
 10 C        3.3500     2.8300     0.1790 C.ar  1 <1>   0.0820 
 11 C       -4.8210     2.5720     0.1240 C.3   1 <1>   0.2000 
 12 C       -3.0790     4.3400    -0.4530 C.3   1 <1>  -0.1600 
 13 C       -3.3800     2.1350    -1.7260 C.3   1 <1>  -0.1600 
 14 C        4.0730     2.5650    -0.9810 C.ar  1 <1>  -0.1500 
 15 C        3.9260     3.5900     1.1840 C.ar  1 <1>  -0.1500 
 16 O       -4.9260     2.6700     1.5140 O.3   1 <1>  -0.5600 
 17 C       -5.1770     1.1650    -0.3670 C.3   1 <1>  -0.1600 
 18 C       -4.2440     0.8820    -1.5530 C.3   1 <1>  -0.1600 
 19 C        5.3560     3.0670    -1.1260 C.ar  1 <1>  -0.1500 
 20 C        5.2080     4.0900     1.0380 C.ar  1 <1>  -0.1500 
 21 C       -6.2280     2.7500     2.0010 C.3   1 <1>   0.0400 
 22 C        5.9230     3.8290    -0.1180 C.ar  1 <1>  -0.1500 
 23 H        1.3460     2.3270    -1.4950 H     1 <1>   0.0800 
 24 H        1.8560     0.7850    -0.8220 H     1 <1>   0.0800 
 25 H       -2.5230     1.0990     0.6390 H     1 <1>   0.0800 
 26 H       -2.4640     2.5470     1.5880 H     1 <1>   0.0800 
 27 H       -0.7220     4.3030     1.0860 H     1 <1>   0.0800 
 28 H        0.3700     4.0730    -0.2480 H     1 <1>   0.0800 
 29 H       -1.4270     5.6670    -0.8160 H     1 <1>   0.0800 
 30 H       -1.4400     4.2760    -1.8530 H     1 <1>   0.0800 
 31 H       -5.4770     3.2960    -0.3300 H     1 <1>   0.0800 
 32 H       -3.7370     4.8050    -1.1660 H     1 <1>   0.0800 
 33 H       -3.2680     4.7920     0.5060 H     1 <1>   0.0800 
 34 H       -3.8420     2.7770    -2.4550 H     1 <1>   0.0800 
 35 H       -2.3900     1.8870    -2.0680 H     1 <1>   0.0800 
 36 H        3.6630     1.9730    -1.7770 H     1 <1>   0.1500 
 37 H        3.3650     3.7860     2.0800 H     1 <1>   0.1500 
 38 H       -4.9970     0.4430     0.4100 H     1 <1>   0.0800 
 39 H       -6.2070     1.1220    -0.6720 H     1 <1>   0.0800 
 40 H       -3.6140     0.0390    -1.3220 H     1 <1>   0.0800 
 41 H       -4.7960     0.6660    -2.4520 H     1 <1>   0.0800 
 42 H        5.9160     2.8630    -2.0220 H     1 <1>   0.1500 
 43 H        5.6490     4.6800     1.8230 H     1 <1>   0.1500 
 44 H       -6.1770     2.8430     3.0720 H     1 <1>   0.0800 
 45 H       -6.7650     1.8550     1.7420 H     1 <1>   0.0800 
 46 H       -6.7110     3.6170     1.5850 H     1 <1>   0.0800 
 47 H        6.9200     4.2170    -0.2330 H     1 <1>   0.1500 
@<TRIPOS>BOND
  1   1   2  2   
  2   2   3  am  
  3   2   4  1   
  4   3   5  1   
  5   3   6  1   
  6   4   7  1   
  7   4  23  1   
  8   4  24  1   
  9   5   8  1   
 10   5  25  1   
 11   5  26  1   
 12   6   9  1   
 13   6  27  1   
 14   6  28  1   
 15   7  10  1   
 16   8  11  1   
 17   8  12  1   
 18   8  13  1   
 19   9  12  1   
 20   9  29  1   
 21   9  30  1   
 22  10  14  ar  
 23  10  15  ar  
 24  11  16  1   
 25  11  17  1   
 26  11  31  1   
 27  12  32  1   
 28  12  33  1   
 29  13  18  1   
 30  13  34  1   
 31  13  35  1   
 32  14  19  ar  
 33  14  36  1   
 34  15  20  ar  
 35  15  37  1   
 36  16  21  1   
 37  17  18  1   
 38  17  38  1   
 39  17  39  1   
 40  18  40  1   
 41  18  41  1   
 42  19  22  ar  
 43  19  42  1   
 44  20  22  ar  
 45  20  43  1   
 46  21  44  1   
 47  21  45  1   
 48  21  46  1   
 49  22  47  1   
@<TRIPOS>SUBSTRUCTURE
  1 ****   3 GROUP 4 **** **** 0

# MOE 2024.06 (io_trps.svl 2023.06)
