@<TRIPOS>MOLECULE
NONAME
41 44 1 0 0 
SMALL
USER_CHARGES


@<TRIPOS>ATOM
  1 F        1.1090    -0.0730     1.4880 F     1 <1>  -0.1900 
  2 C        1.8240     0.9230     1.0030 C.ar  1 <1>   0.1900 
  3 C        2.9320     0.7130     0.1800 C.ar  1 <1>   0.4100 
  4 C        1.4560     2.2020     1.3170 C.ar  1 <1>   0.1600 
  5 N        3.5880     1.7590    -0.2920 N.ar  1 <1>  -0.6200 
  6 N        3.4070    -0.5410    -0.2020 N.pl3 1 <1>  -0.8380 
  7 N        2.1190     3.2460     0.8590 N.ar  1 <1>  -0.6200 
  8 C        3.1430     2.9490     0.0670 C.ar  1 <1>   0.7200 
  9 C        3.2650    -1.7620     0.6270 C.3   1 <1>   0.2090 
 10 C        4.5220    -0.6970    -1.1680 C.3   1 <1>   0.2090 
 11 N        3.8520     3.9720    -0.4500 N.pl3 1 <1>  -0.8690 
 12 C        4.4640    -2.6300     0.2650 C.3   1 <1>  -0.1600 
 13 C        4.8560    -2.1820    -1.1390 C.3   1 <1>  -0.1600 
 14 C        4.1690     5.1650     0.3450 C.3   1 <1>   0.3530 
 15 C        5.6770     5.3350     0.3240 C.ar  1 <1>  -0.1430 
 16 C        6.2690     6.2350    -0.5500 C.ar  1 <1>  -0.1500 
 17 C        6.4680     4.5660     1.1810 C.ar  1 <1>  -0.1500 
 18 C        7.6500     6.3540    -0.5480 C.ar  1 <1>   0.1170 
 19 C        7.8480     4.6890     1.1810 C.ar  1 <1>  -0.1500 
 20 N        8.5100     7.1460    -1.2920 N.am  1 <1>  -0.5470 
 21 C        8.4290     5.5920     0.3060 C.ar  1 <1>   0.1170 
 22 C        9.7760     6.8750    -0.9020 C.2   1 <1>   0.6900 
 23 N        9.7520     5.9350     0.0690 N.am  1 <1>  -0.5470 
 24 O       10.7780     7.3940    -1.3560 O.2   1 <1>  -0.5700 
 25 H        0.6050     2.3740     1.9520 H     1 <1>   0.1500 
 26 H        2.3480    -2.2600     0.3610 H     1 <1>   0.0800 
 27 H        3.2600    -1.5240     1.6770 H     1 <1>   0.0800 
 28 H        5.3670    -0.1180    -0.8350 H     1 <1>   0.0800 
 29 H        4.2250    -0.3710    -2.1500 H     1 <1>   0.0800 
 30 H        4.6640     3.6160    -0.9520 H     1 <1>   0.4000 
 31 H        4.2270    -3.6770     0.3120 H     1 <1>   0.0800 
 32 H        5.2640    -2.4190     0.9520 H     1 <1>   0.0800 
 33 H        5.8940    -2.3620    -1.3560 H     1 <1>   0.0800 
 34 H        4.2490    -2.6880    -1.8690 H     1 <1>   0.0800 
 35 H        3.8260     5.0570     1.3600 H     1 <1>   0.0800 
 36 H        3.6820     6.0200    -0.0910 H     1 <1>   0.0800 
 37 H        5.6820     6.8310    -1.2240 H     1 <1>   0.1500 
 38 H        5.9990     3.8620     1.8480 H     1 <1>   0.1500 
 39 H        8.4600     4.0990     1.8380 H     1 <1>   0.1500 
 40 H        8.2910     7.8210    -2.0200 H     1 <1>   0.3700 
 41 H       10.5950     5.5790     0.5120 H     1 <1>   0.3700 
@<TRIPOS>BOND
  1   1   2  1   
  2   2   3  ar  
  3   2   4  ar  
  4   3   5  ar  
  5   3   6  1   
  6   4   7  ar  
  7   4  25  1   
  8   5   8  ar  
  9   6   9  1   
 10   6  10  1   
 11   7   8  ar  
 12   8  11  1   
 13   9  12  1   
 14   9  26  1   
 15   9  27  1   
 16  10  13  1   
 17  10  28  1   
 18  10  29  1   
 19  11  14  1   
 20  11  30  1   
 21  12  13  1   
 22  12  31  1   
 23  12  32  1   
 24  13  33  1   
 25  13  34  1   
 26  14  15  1   
 27  14  35  1   
 28  14  36  1   
 29  15  16  ar  
 30  15  17  ar  
 31  16  18  ar  
 32  16  37  1   
 33  17  19  ar  
 34  17  38  1   
 35  18  20  1   
 36  18  21  ar  
 37  19  21  ar  
 38  19  39  1   
 39  20  22  am  
 40  20  40  1   
 41  21  23  1   
 42  22  23  am  
 43  22  24  2   
 44  23  41  1   
@<TRIPOS>SUBSTRUCTURE
  1 ****  11 GROUP 4 **** **** 0

# MOE 2024.06 (io_trps.svl 2023.06)
