@<TRIPOS>MOLECULE
NONAME
53 55 1 0 0 
SMALL
USER_CHARGES


@<TRIPOS>ATOM
  1 F       -4.2390    -1.9440    -1.4990 F     1 <1>  -0.1900 
  2 C       -3.5310    -2.9650    -1.0930 C.ar  1 <1>   0.1900 
  3 C       -4.1540    -4.1790    -0.9300 C.ar  1 <1>  -0.1500 
  4 C       -2.1700    -2.7640    -0.8450 C.ar  1 <1>  -0.1500 
  5 C       -3.3730    -5.2480    -0.4970 C.ar  1 <1>   0.2270 
  6 C       -1.4010    -3.8230    -0.4160 C.ar  1 <1>  -0.1500 
  7 N       -3.7310    -6.5420    -0.2560 N.2   1 <1>  -0.5650 
  8 C       -2.0230    -5.0650    -0.2470 C.ar  1 <1>  -0.1520 
  9 C       -2.6370    -7.1090     0.1210 C.2   1 <1>   0.0060 
 10 N       -1.5630    -6.2770     0.1520 N.pl3 1 <1>   0.0330 
 11 C       -2.5470    -8.5700     0.5110 C.3   1 <1>   0.0200 
 12 C       -2.9600    -8.7560     1.9760 C.3   1 <1>  -0.0990 
 13 C       -3.5050   -10.1520     2.1960 C.2   1 <1>   0.5690 
 14 O       -2.7050   -10.9930     2.5230 O.2   1 <1>  -0.5700 
 15 N       -4.8300   -10.4490     1.9920 N.am  1 <1>  -0.6600 
 16 C       -5.3030   -11.8600     2.1890 C.3   1 <1>   0.3210 
 17 C       -5.8990    -9.4890     1.5660 C.3   1 <1>   0.1400 
 18 C       -5.5500   -12.5580     0.8530 C.2   1 <1>   0.0460 
 19 C       -6.0960    -9.5060     0.0380 C.3   1 <1>   0.3430 
 20 N       -6.7060   -12.3880     0.1720 N.2   1 <1>  -0.5650 
 21 C       -4.7270   -13.4090     0.1940 C.2   1 <1>  -0.3320 
 22 N       -6.1160    -8.1420    -0.5850 N.4   1 <1>  -0.9590 
 23 C       -6.5700   -13.1530    -0.8640 C.2   1 <1>   0.0360 
 24 N       -5.3870   -13.7980    -0.9110 N.pl3 1 <1>   0.0330 
 25 C       -3.3330   -13.9090     0.5360 C.3   1 <1>  -0.0600 
 26 C       -7.2780    -7.3160    -0.1420 C.3   1 <1>   0.2630 
 27 C       -6.0830    -8.2550    -2.0710 C.3   1 <1>   0.2630 
 28 H       -5.1990    -4.3060    -1.1270 H     1 <1>   0.1500 
 29 H       -1.7480    -1.7850    -0.9930 H     1 <1>   0.1500 
 30 H       -0.3500    -3.7040    -0.2150 H     1 <1>   0.1500 
 31 H       -0.6010    -6.5050     0.4200 H     1 <1>   0.2700 
 32 H       -1.5500    -8.9490     0.3600 H     1 <1>   0.0800 
 33 H       -3.2010    -9.1310    -0.1310 H     1 <1>   0.0800 
 34 H       -3.6790    -8.0200     2.2730 H     1 <1>   0.0800 
 35 H       -2.0990    -8.6170     2.6050 H     1 <1>   0.0800 
 36 H       -6.2140   -11.8630     2.7610 H     1 <1>   0.0800 
 37 H       -4.5810   -12.4250     2.7500 H     1 <1>   0.0800 
 38 H       -5.6640    -8.4970     1.9010 H     1 <1>   0.0800 
 39 H       -6.8260    -9.7720     2.0340 H     1 <1>   0.0800 
 40 H       -7.0180   -10.0160    -0.1850 H     1 <1>   0.0800 
 41 H       -5.2960   -10.0850    -0.3930 H     1 <1>   0.0800 
 42 H       -5.2400    -7.6370    -0.3150 H     1 <1>   0.4500 
 43 H       -7.3180   -13.2830    -1.6270 H     1 <1>   0.1500 
 44 H       -5.0690   -14.4590    -1.6270 H     1 <1>   0.2700 
 45 H       -2.9770   -13.4640     1.4480 H     1 <1>   0.0800 
 46 H       -2.6430   -13.6570    -0.2500 H     1 <1>   0.0800 
 47 H       -3.3410   -14.9770     0.6630 H     1 <1>   0.0800 
 48 H       -8.2040    -7.7970    -0.4110 H     1 <1>   0.0800 
 49 H       -7.2420    -6.3460    -0.6090 H     1 <1>   0.0800 
 50 H       -7.2550    -7.1790     0.9270 H     1 <1>   0.0800 
 51 H       -6.9640    -8.7630    -2.4290 H     1 <1>   0.0800 
 52 H       -5.2120    -8.8090    -2.3800 H     1 <1>   0.0800 
 53 H       -6.0380    -7.2750    -2.5170 H     1 <1>   0.0800 
@<TRIPOS>BOND
  1   1   2  1   
  2   2   3  ar  
  3   2   4  ar  
  4   3   5  ar  
  5   3  28  1   
  6   4   6  ar  
  7   4  29  1   
  8   5   7  1   
  9   5   8  ar  
 10   6   8  ar  
 11   6  30  1   
 12   7   9  2   
 13   8  10  1   
 14   9  10  1   
 15   9  11  1   
 16  10  31  1   
 17  11  12  1   
 18  11  32  1   
 19  11  33  1   
 20  12  13  1   
 21  12  34  1   
 22  12  35  1   
 23  13  14  2   
 24  13  15  am  
 25  15  16  1   
 26  15  17  1   
 27  16  18  1   
 28  16  36  1   
 29  16  37  1   
 30  17  19  1   
 31  17  38  1   
 32  17  39  1   
 33  18  20  1   
 34  18  21  2   
 35  19  22  1   
 36  19  40  1   
 37  19  41  1   
 38  20  23  2   
 39  21  24  1   
 40  21  25  1   
 41  22  26  1   
 42  22  27  1   
 43  22  42  1   
 44  23  24  1   
 45  23  43  1   
 46  24  44  1   
 47  25  45  1   
 48  25  46  1   
 49  25  47  1   
 50  26  48  1   
 51  26  49  1   
 52  26  50  1   
 53  27  51  1   
 54  27  52  1   
 55  27  53  1   
@<TRIPOS>SUBSTRUCTURE
  1 ****  11 GROUP 4 **** **** 0

# MOE 2024.06 (io_trps.svl 2023.06)
