@<TRIPOS>MOLECULE
NONAME
52 56 1 0 0 
SMALL
USER_CHARGES


@<TRIPOS>ATOM
  1 O        2.1160    -3.6210     1.4460 O.2   1 <1>  -0.5700 
  2 C        1.6370    -2.5910     0.9900 C.2   1 <1>   0.5440 
  3 N        0.3260    -2.2360     1.2910 N.am  1 <1>  -0.2980 
  4 C        2.3860    -1.7230     0.1230 C.ar  1 <1>   0.0860 
  5 N       -0.3130    -1.1310     0.7780 N.2   1 <1>  -0.5120 
  6 C       -0.4550    -3.0870     2.2360 C.3   1 <1>   0.2010 
  7 C        1.7350    -0.5860    -0.3760 C.ar  1 <1>   0.0860 
  8 C        3.7140    -1.9590    -0.2450 C.ar  1 <1>  -0.1500 
  9 C        0.3740    -0.3670     0.0050 C.2   1 <1>   0.3040 
 10 C       -1.0040    -4.3630     1.5980 C.2   1 <1>   0.5690 
 11 C        2.4320     0.2810    -1.2250 C.ar  1 <1>  -0.1500 
 12 C        4.3850    -1.0960    -1.0840 C.ar  1 <1>  -0.1500 
 13 O       -1.7680    -5.0620     2.2300 O.2   1 <1>  -0.5700 
 14 N       -0.7240    -4.7100     0.3040 N.am  1 <1>  -0.6600 
 15 C        3.7400     0.0300    -1.5760 C.ar  1 <1>  -0.1500 
 16 C       -1.5630    -4.0890    -0.7620 C.3   1 <1>   0.1400 
 17 C       -0.3940    -6.1410     0.0140 C.3   1 <1>   0.1400 
 18 C       -2.9200    -4.8350    -0.8930 C.3   1 <1>   0.4230 
 19 C       -1.6390    -6.9350    -0.4510 C.3   1 <1>   0.3430 
 20 N       -2.9040    -6.1690    -0.1750 N.4   1 <1>  -0.9590 
 21 C       -3.3290    -5.0070    -2.3740 C.3   1 <1>   0.1200 
 22 C       -4.1840    -6.9050    -0.3900 C.3   1 <1>   0.5180 
 23 O       -4.5350    -5.7110    -2.4770 O.3   1 <1>  -0.5600 
 24 C       -4.1120    -8.2880     0.2680 C.3   1 <1>  -0.1950 
 25 C       -4.5390    -6.9880    -1.8920 C.3   1 <1>   0.1200 
 26 C       -5.2950    -8.8290     1.0100 C.3   1 <1>  -0.2000 
 27 C       -4.0520    -8.4410     1.7570 C.3   1 <1>  -0.2000 
 28 H        0.1730    -3.3620     3.0640 H     1 <1>   0.0800 
 29 H       -1.2770    -2.5150     2.6240 H     1 <1>   0.0800 
 30 H        4.2150    -2.8320     0.1400 H     1 <1>   0.1500 
 31 H       -0.0980     0.5110    -0.4000 H     1 <1>   0.0600 
 32 H        1.9380     1.1570    -1.6080 H     1 <1>   0.1500 
 33 H        5.4090    -1.2900    -1.3590 H     1 <1>   0.1500 
 34 H        4.2700     0.7030    -2.2310 H     1 <1>   0.1500 
 35 H       -1.7480    -3.0530    -0.5320 H     1 <1>   0.0800 
 36 H       -1.0220    -4.1170    -1.6920 H     1 <1>   0.0800 
 37 H        0.3770    -6.1900    -0.7360 H     1 <1>   0.0800 
 38 H        0.0010    -6.5990     0.9050 H     1 <1>   0.0800 
 39 H       -3.6700    -4.2120    -0.4320 H     1 <1>   0.0800 
 40 H       -1.6520    -7.8800     0.0670 H     1 <1>   0.0800 
 41 H       -1.5570    -7.1390    -1.5050 H     1 <1>   0.0800 
 42 H       -2.8320    -5.9330     0.8360 H     1 <1>   0.4500 
 43 H       -2.5740    -5.5370    -2.9300 H     1 <1>   0.0800 
 44 H       -3.4770    -4.0450    -2.8320 H     1 <1>   0.0800 
 45 H       -4.9730    -6.3550     0.0950 H     1 <1>   0.0800 
 46 H       -3.5790    -9.0080    -0.3310 H     1 <1>   0.1000 
 47 H       -5.5260    -7.3980    -2.0110 H     1 <1>   0.0800 
 48 H       -3.8440    -7.6140    -2.4220 H     1 <1>   0.0800 
 49 H       -6.1760    -8.2240     1.1500 H     1 <1>   0.1000 
 50 H       -5.5330    -9.8770     0.9300 H     1 <1>   0.1000 
 51 H       -3.4510    -9.2270     2.1840 H     1 <1>   0.1000 
 52 H       -4.0950    -7.5730     2.3950 H     1 <1>   0.1000 
@<TRIPOS>BOND
  1   1   2  2   
  2   2   3  am  
  3   2   4  1   
  4   3   5  1   
  5   3   6  1   
  6   4   7  ar  
  7   4   8  ar  
  8   5   9  2   
  9   6  10  1   
 10   6  28  1   
 11   6  29  1   
 12   7   9  1   
 13   7  11  ar  
 14   8  12  ar  
 15   8  30  1   
 16   9  31  1   
 17  10  13  2   
 18  10  14  am  
 19  11  15  ar  
 20  11  32  1   
 21  12  15  ar  
 22  12  33  1   
 23  14  16  1   
 24  14  17  1   
 25  15  34  1   
 26  16  18  1   
 27  16  35  1   
 28  16  36  1   
 29  17  19  1   
 30  17  37  1   
 31  17  38  1   
 32  18  20  1   
 33  18  21  1   
 34  18  39  1   
 35  19  20  1   
 36  19  40  1   
 37  19  41  1   
 38  20  22  1   
 39  20  42  1   
 40  21  23  1   
 41  21  43  1   
 42  21  44  1   
 43  22  24  1   
 44  22  25  1   
 45  22  45  1   
 46  23  25  1   
 47  24  26  1   
 48  24  27  1   
 49  24  46  1   
 50  25  47  1   
 51  25  48  1   
 52  26  27  1   
 53  26  49  1   
 54  26  50  1   
 55  27  51  1   
 56  27  52  1   
@<TRIPOS>SUBSTRUCTURE
  1 ****  14 GROUP 4 **** **** 0

# MOE 2024.06 (io_trps.svl 2023.06)
