@<TRIPOS>MOLECULE
NONAME
49 51 1 0 0 
SMALL
USER_CHARGES


@<TRIPOS>ATOM
  1 CL      -0.8990    -1.1670    -0.2160 Cl    1 <1>  -0.1770 
  2 C       -2.1240     0.0550     0.0540 C.ar  1 <1>   0.1770 
  3 C       -2.0140     0.9250     1.1270 C.ar  1 <1>   0.1770 
  4 C       -3.2150     0.1120    -0.7990 C.ar  1 <1>  -0.1440 
  5 CL      -0.6260     0.8130     2.1890 Cl    1 <1>  -0.1770 
  6 C       -3.0000     1.8700     1.3750 C.ar  1 <1>  -0.1440 
  7 C       -4.2080     1.0480    -0.5460 C.ar  1 <1>  -0.1500 
  8 C       -3.3370    -0.8460    -1.9680 C.3   1 <1>   0.4870 
  9 C       -4.0980     1.9170     0.5290 C.ar  1 <1>  -0.1500 
 10 C       -2.8960     2.8340     2.5480 C.3   1 <1>  -0.0970 
 11 N       -4.4140    -1.8150    -1.6620 N.4   1 <1>  -0.9590 
 12 C       -4.2760    -2.5340    -0.3380 C.3   1 <1>   0.3430 
 13 C       -4.8140    -2.6910    -2.7900 C.3   1 <1>   0.3430 
 14 C       -5.3660    -3.6320    -0.0830 C.3   1 <1>   0.4230 
 15 C       -6.1340    -3.4190    -2.4570 C.3   1 <1>  -0.1600 
 16 N       -5.7840    -3.7640     1.3610 N.4   1 <1>  -0.9590 
 17 C       -6.5990    -3.3440    -0.9640 C.3   1 <1>  -0.1060 
 18 C       -6.7480    -4.8770     1.5750 C.3   1 <1>   0.3430 
 19 C       -4.6940    -3.7730     2.3800 C.3   1 <1>   0.2630 
 20 C       -7.0510    -1.9210    -0.5740 C.2   1 <1>   0.9060 
 21 C       -7.7090    -4.4040    -0.7390 C.3   1 <1>  -0.1600 
 22 C       -8.0120    -4.6350     0.7490 C.3   1 <1>  -0.1600 
 23 O       -6.9510    -1.0190    -1.4090 O.co2 1 <1>  -0.9000 
 24 O       -7.2000    -1.6600     0.6220 O.co2 1 <1>  -0.9000 
 25 H       -5.0870     1.1100    -1.1730 H     1 <1>   0.1500 
 26 H       -2.4070    -1.3620    -2.1410 H     1 <1>   0.0800 
 27 H       -3.5890    -0.2890    -2.8560 H     1 <1>   0.0800 
 28 H       -4.8860     2.6320     0.7020 H     1 <1>   0.1500 
 29 H       -3.7410     3.4980     2.5790 H     1 <1>   0.0800 
 30 H       -2.0020     3.4260     2.4620 H     1 <1>   0.0800 
 31 H       -2.8600     2.2880     3.4740 H     1 <1>   0.0800 
 32 H       -5.2700    -1.2040    -1.5470 H     1 <1>   0.4500 
 33 H       -3.3020    -2.9860    -0.2730 H     1 <1>   0.0800 
 34 H       -4.3630    -1.7980     0.4460 H     1 <1>   0.0800 
 35 H       -4.9570    -2.0990    -3.6810 H     1 <1>   0.0800 
 36 H       -4.0360    -3.4120    -2.9840 H     1 <1>   0.0800 
 37 H       -4.9520    -4.5760    -0.3950 H     1 <1>   0.0800 
 38 H       -6.9110    -3.0060    -3.0800 H     1 <1>   0.0800 
 39 H       -6.0200    -4.4440    -2.7650 H     1 <1>   0.0800 
 40 H       -6.3690    -2.8910     1.4980 H     1 <1>   0.4500 
 41 H       -6.2980    -5.8130     1.2880 H     1 <1>   0.0800 
 42 H       -7.0170    -4.9330     2.6180 H     1 <1>   0.0800 
 43 H       -4.0570    -4.6320     2.2440 H     1 <1>   0.0800 
 44 H       -5.1190    -3.8120     3.3700 H     1 <1>   0.0800 
 45 H       -4.1000    -2.8770     2.3070 H     1 <1>   0.0800 
 46 H       -8.6110    -4.0910    -1.2400 H     1 <1>   0.0800 
 47 H       -7.4110    -5.3460    -1.1680 H     1 <1>   0.0800 
 48 H       -8.6670    -5.4820     0.8520 H     1 <1>   0.0800 
 49 H       -8.5380    -3.7860     1.1530 H     1 <1>   0.0800 
@<TRIPOS>BOND
  1   1   2  1   
  2   2   3  ar  
  3   2   4  ar  
  4   3   5  1   
  5   3   6  ar  
  6   4   7  ar  
  7   4   8  1   
  8   6   9  ar  
  9   6  10  1   
 10   7   9  ar  
 11   7  25  1   
 12   8  11  1   
 13   8  26  1   
 14   8  27  1   
 15   9  28  1   
 16  10  29  1   
 17  10  30  1   
 18  10  31  1   
 19  11  12  1   
 20  11  13  1   
 21  11  32  1   
 22  12  14  1   
 23  12  33  1   
 24  12  34  1   
 25  13  15  1   
 26  13  35  1   
 27  13  36  1   
 28  14  16  1   
 29  14  17  1   
 30  14  37  1   
 31  15  17  1   
 32  15  38  1   
 33  15  39  1   
 34  16  18  1   
 35  16  19  1   
 36  16  40  1   
 37  17  20  1   
 38  17  21  1   
 39  18  22  1   
 40  18  41  1   
 41  18  42  1   
 42  19  43  1   
 43  19  44  1   
 44  19  45  1   
 45  20  23  ar  
 46  20  24  ar  
 47  21  22  1   
 48  21  46  1   
 49  21  47  1   
 50  22  48  1   
 51  22  49  1   
@<TRIPOS>SUBSTRUCTURE
  1 ****  12 GROUP 4 **** **** 0

# MOE 2024.06 (io_trps.svl 2023.06)
