@<TRIPOS>MOLECULE
NONAME
41 43 1 0 0 
SMALL
USER_CHARGES


@<TRIPOS>ATOM
  1 O       -0.0570     0.2520     1.0340 O.3   1 <1>  -0.0190 
  2 N       -0.3680    -0.6290     0.1330 N.2   1 <1>  -0.4100 
  3 C       -0.8380     1.2700     0.7690 C.2   1 <1>   0.2980 
  4 C       -1.2910    -0.1220    -0.5860 C.2   1 <1>   0.3350 
  5 N       -1.6270     1.1100    -0.2190 N.2   1 <1>  -0.5650 
  6 C       -0.7640     2.5050     1.6650 C.3   1 <1>   0.2900 
  7 C       -1.9500    -0.8180    -1.7740 C.3   1 <1>   0.3010 
  8 N        0.3880     3.4070     1.3910 N.3   1 <1>  -0.8100 
  9 O       -3.2080    -1.3330    -1.4260 O.3   1 <1>  -0.5600 
 10 C        0.2560     4.6670     2.1480 C.3   1 <1>   0.2900 
 11 C        1.6820     2.7550     1.6610 C.3   1 <1>   0.0300 
 12 C       -3.8780    -1.9560    -2.4730 C.3   1 <1>   0.0400 
 13 C        1.1170     5.7670     1.5530 C.2   1 <1>  -0.0400 
 14 O        1.3140     6.8630     2.2300 O.3   1 <1>  -0.0190 
 15 C        1.7740     5.8840     0.3920 C.2   1 <1>  -0.1500 
 16 N        2.0710     7.7030     1.5910 N.2   1 <1>  -0.4100 
 17 C        2.3740     7.1480     0.4560 C.2   1 <1>   0.2350 
 18 C        3.2080     7.7450    -0.5710 C.ar  1 <1>   0.0540 
 19 C        4.0880     8.7830    -0.2660 C.ar  1 <1>  -0.1500 
 20 C        3.1660     7.3120    -1.8980 C.ar  1 <1>  -0.1500 
 21 C        4.8940     9.3570    -1.2320 C.ar  1 <1>  -0.1500 
 22 C        3.9700     7.8810    -2.8690 C.ar  1 <1>  -0.1500 
 23 C        4.8380     8.9050    -2.5380 C.ar  1 <1>  -0.1500 
 24 H       -0.7430     2.1860     2.6920 H     1 <1>   0.0800 
 25 H       -1.6760     3.0550     1.5100 H     1 <1>   0.0800 
 26 H       -1.3280    -1.6310    -2.1020 H     1 <1>   0.0800 
 27 H       -2.0760    -0.1110    -2.5740 H     1 <1>   0.0800 
 28 H        0.5330     4.5080     3.1770 H     1 <1>   0.0800 
 29 H       -0.7650     5.0070     2.1240 H     1 <1>   0.0800 
 30 H        1.8380     1.9390     0.9760 H     1 <1>   0.0800 
 31 H        1.7170     2.3790     2.6700 H     1 <1>   0.0800 
 32 H        2.4920     3.4510     1.5240 H     1 <1>   0.0800 
 33 H       -4.8210    -2.3130    -2.0990 H     1 <1>   0.0800 
 34 H       -3.2910    -2.7850    -2.8290 H     1 <1>   0.0800 
 35 H       -4.0490    -1.2420    -3.2610 H     1 <1>   0.0800 
 36 H        1.8360     5.1750    -0.4110 H     1 <1>   0.1500 
 37 H        4.1400     9.1430     0.7470 H     1 <1>   0.1500 
 38 H        2.4940     6.5230    -2.1800 H     1 <1>   0.1500 
 39 H        5.5650    10.1560    -0.9670 H     1 <1>   0.1500 
 40 H        3.9200     7.5290    -3.8850 H     1 <1>   0.1500 
 41 H        5.4640     9.3500    -3.2910 H     1 <1>   0.1500 
@<TRIPOS>BOND
  1   1   2  1   
  2   1   3  1   
  3   2   4  2   
  4   3   5  2   
  5   3   6  1   
  6   4   5  1   
  7   4   7  1   
  8   6   8  1   
  9   6  24  1   
 10   6  25  1   
 11   7   9  1   
 12   7  26  1   
 13   7  27  1   
 14   8  10  1   
 15   8  11  1   
 16   9  12  1   
 17  10  13  1   
 18  10  28  1   
 19  10  29  1   
 20  11  30  1   
 21  11  31  1   
 22  11  32  1   
 23  12  33  1   
 24  12  34  1   
 25  12  35  1   
 26  13  14  1   
 27  13  15  2   
 28  14  16  1   
 29  15  17  1   
 30  15  36  1   
 31  16  17  2   
 32  17  18  1   
 33  18  19  ar  
 34  18  20  ar  
 35  19  21  ar  
 36  19  37  1   
 37  20  22  ar  
 38  20  38  1   
 39  21  23  ar  
 40  21  39  1   
 41  22  23  ar  
 42  22  40  1   
 43  23  41  1   
@<TRIPOS>SUBSTRUCTURE
  1 ****   8 GROUP 4 **** **** 0

# MOE 2024.06 (io_trps.svl 2023.06)
