@<TRIPOS>MOLECULE
NONAME
41 43 1 0 0 
SMALL
USER_CHARGES


@<TRIPOS>ATOM
  1 O       -0.7910     0.2910    -2.3370 O.2   1 <1>  -0.5700 
  2 C       -1.5850     0.9350    -1.6910 C.2   1 <1>   0.5690 
  3 N       -2.5750     0.3170    -0.9730 N.am  1 <1>  -0.6600 
  4 C       -1.4570     2.4490    -1.7330 C.3   1 <1>   0.0810 
  5 C       -3.6210     0.9650    -0.1410 C.3   1 <1>   0.1400 
  6 C       -2.6640    -1.1590    -0.8670 C.3   1 <1>   0.1400 
  7 C       -0.7000     2.9870    -0.5330 C.2   1 <1>  -0.0400 
  8 C       -4.4900    -0.1860     0.3640 C.3   1 <1>   0.2000 
  9 C       -3.5930    -1.4220     0.3180 C.3   1 <1>  -0.0800 
 10 O       -1.2870     3.0760     0.6290 O.3   1 <1>  -0.0190 
 11 C        0.5560     3.4360    -0.3940 C.2   1 <1>  -0.1500 
 12 O       -4.9320     0.0370     1.6580 O.3   1 <1>  -0.6800 
 13 C       -4.3860    -2.7330     0.2060 C.3   1 <1>  -0.0170 
 14 N       -0.4930     3.5570     1.5400 N.2   1 <1>  -0.4100 
 15 C        0.6270     3.7830     0.9520 C.2   1 <1>   0.1080 
 16 C       -3.4550    -3.9340     0.1510 C.ar  1 <1>  -0.1430 
 17 C        1.8500     4.3480     1.6390 C.3   1 <1>  -0.0590 
 18 C       -2.9020    -4.4720     1.2950 C.ar  1 <1>  -0.1500 
 19 C       -3.1130    -4.5460    -1.0370 C.ar  1 <1>  -0.1500 
 20 C       -2.0550    -5.5640     1.1980 C.ar  1 <1>   0.1600 
 21 C       -2.2550    -5.6340    -1.0250 C.ar  1 <1>   0.1600 
 22 N       -1.7180    -6.1580     0.0650 N.ar  1 <1>  -0.6200 
 23 H       -0.9220     2.7140    -2.6260 H     1 <1>   0.0800 
 24 H       -2.4270     2.9030    -1.7880 H     1 <1>   0.0800 
 25 H       -3.1590     1.4710     0.6870 H     1 <1>   0.0800 
 26 H       -4.2040     1.6540    -0.7260 H     1 <1>   0.0800 
 27 H       -3.0810    -1.5470    -1.7800 H     1 <1>   0.0800 
 28 H       -1.6910    -1.5940    -0.7090 H     1 <1>   0.0800 
 29 H       -5.3500    -0.3020    -0.2740 H     1 <1>   0.0800 
 30 H       -2.9790    -1.4490     1.2020 H     1 <1>   0.0800 
 31 H        1.3440     3.5170    -1.1200 H     1 <1>   0.1500 
 32 H       -4.1730     0.1780     2.2580 H     1 <1>   0.4000 
 33 H       -5.0070    -2.7140    -0.6720 H     1 <1>   0.0800 
 34 H       -5.0370    -2.8280     1.0590 H     1 <1>   0.0800 
 35 H        2.1520     5.2590     1.1570 H     1 <1>   0.0800 
 36 H        2.6540     3.6370     1.5910 H     1 <1>   0.0800 
 37 H        1.6300     4.5550     2.6700 H     1 <1>   0.0800 
 38 H       -3.1200    -4.0530     2.2600 H     1 <1>   0.1500 
 39 H       -3.5010    -4.1900    -1.9740 H     1 <1>   0.1500 
 40 H       -1.6330    -5.9700     2.1010 H     1 <1>   0.1500 
 41 H       -1.9980    -6.0980    -1.9610 H     1 <1>   0.1500 
@<TRIPOS>BOND
  1   1   2  2   
  2   2   3  am  
  3   2   4  1   
  4   3   5  1   
  5   3   6  1   
  6   4   7  1   
  7   4  23  1   
  8   4  24  1   
  9   5   8  1   
 10   5  25  1   
 11   5  26  1   
 12   6   9  1   
 13   6  27  1   
 14   6  28  1   
 15   7  10  1   
 16   7  11  2   
 17   8   9  1   
 18   8  12  1   
 19   8  29  1   
 20   9  13  1   
 21   9  30  1   
 22  10  14  1   
 23  11  15  1   
 24  11  31  1   
 25  12  32  1   
 26  13  16  1   
 27  13  33  1   
 28  13  34  1   
 29  14  15  2   
 30  15  17  1   
 31  16  18  ar  
 32  16  19  ar  
 33  17  35  1   
 34  17  36  1   
 35  17  37  1   
 36  18  20  ar  
 37  18  38  1   
 38  19  21  ar  
 39  19  39  1   
 40  20  22  ar  
 41  20  40  1   
 42  21  22  ar  
 43  21  41  1   
@<TRIPOS>SUBSTRUCTURE
  1 ****   6 GROUP 4 **** **** 0

# MOE 2024.06 (io_trps.svl 2023.06)
