@<TRIPOS>MOLECULE
NONAME
48 49 1 0 0 
SMALL
USER_CHARGES


@<TRIPOS>ATOM
  1 S        1.6670     1.4570     0.9570 S.o2  1 <1>   1.3330 
  2 O        1.2890     2.4730     1.9130 O.2   1 <1>  -0.6500 
  3 O        0.6740     0.5200     0.4820 O.2   1 <1>  -0.6500 
  4 N        2.9280     0.5560     1.6540 N.am  1 <1>  -0.8490 
  5 C        2.4130     2.2440    -0.4720 C.3   1 <1>  -0.0550 
  6 C        3.9010     1.3850     2.3780 C.3   1 <1>   0.1160 
  7 C        2.4170    -0.4890     2.5450 C.3   1 <1>   0.1160 
  8 C        2.8300     1.2770    -1.6020 C.3   1 <1>  -0.0800 
  9 C        3.2850     1.9610    -2.8860 C.3   1 <1>   0.2200 
 10 C        4.0160     0.3660    -1.2590 C.3   1 <1>   0.1200 
 11 N        4.1200     3.1410    -2.5710 N.am  1 <1>  -0.7300 
 12 C        4.1690     0.8780    -3.4860 C.3   1 <1>   0.1200 
 13 O        4.8280     0.3090    -2.3970 O.3   1 <1>  -0.5600 
 14 C        3.7140     4.4340    -2.6350 C.2   1 <1>   0.5690 
 15 O        2.6500     4.7420    -3.1120 O.2   1 <1>  -0.5700 
 16 C        4.6110     5.5070    -2.0450 C.3   1 <1>   0.0440 
 17 C        5.0320     5.1320    -0.6270 C.ar  1 <1>  -0.1440 
 18 C        6.2930     4.6140    -0.3730 C.ar  1 <1>  -0.1500 
 19 C        4.1340     5.2830     0.4190 C.ar  1 <1>  -0.1500 
 20 C        6.6490     4.2350     0.9090 C.ar  1 <1>  -0.1500 
 21 C        4.4870     4.9030     1.7010 C.ar  1 <1>  -0.1500 
 22 C        5.7410     4.3730     1.9550 C.ar  1 <1>   0.0820 
 23 O        6.0020     4.0040     3.2330 O.3   1 <1>  -0.3630 
 24 C        7.3000     3.6230     3.6340 C.3   1 <1>   0.0400 
 25 H        1.7030     2.9390    -0.8770 H     1 <1>   0.0800 
 26 H        3.2630     2.8080    -0.1510 H     1 <1>   0.0800 
 27 H        4.6920     0.7720     2.7720 H     1 <1>   0.0800 
 28 H        3.4270     1.9100     3.1920 H     1 <1>   0.0800 
 29 H        4.3390     2.1050     1.7110 H     1 <1>   0.0800 
 30 H        3.2310    -1.0590     2.9580 H     1 <1>   0.0800 
 31 H        1.7800    -1.1620     1.9950 H     1 <1>   0.0800 
 32 H        1.8460    -0.0510     3.3470 H     1 <1>   0.0800 
 33 H        1.9910     0.6470    -1.8420 H     1 <1>   0.0800 
 34 H        2.4670     2.2310    -3.5330 H     1 <1>   0.0800 
 35 H        3.6930    -0.6300    -1.0080 H     1 <1>   0.0800 
 36 H        4.6130     0.7650    -0.4590 H     1 <1>   0.0800 
 37 H        5.0020     2.9070    -2.1080 H     1 <1>   0.3700 
 38 H        4.8880     1.2650    -4.1860 H     1 <1>   0.0800 
 39 H        3.5750     0.1120    -3.9520 H     1 <1>   0.0800 
 40 H        5.4700     5.6270    -2.6770 H     1 <1>   0.0800 
 41 H        4.0790     6.4400    -2.0290 H     1 <1>   0.0800 
 42 H        7.0050     4.4980    -1.1720 H     1 <1>   0.1500 
 43 H        3.1520     5.6900     0.2400 H     1 <1>   0.1500 
 44 H        7.6310     3.8340     1.0740 H     1 <1>   0.1500 
 45 H        3.7880     5.0140     2.5110 H     1 <1>   0.1500 
 46 H        7.2830     3.4460     4.6950 H     1 <1>   0.0800 
 47 H        7.9830     4.4240     3.4090 H     1 <1>   0.0800 
 48 H        7.5770     2.7220     3.1170 H     1 <1>   0.0800 
@<TRIPOS>BOND
  1   1   2  2   
  2   1   3  2   
  3   1   4  am  
  4   1   5  1   
  5   4   6  1   
  6   4   7  1   
  7   5   8  1   
  8   5  25  1   
  9   5  26  1   
 10   6  27  1   
 11   6  28  1   
 12   6  29  1   
 13   7  30  1   
 14   7  31  1   
 15   7  32  1   
 16   8   9  1   
 17   8  10  1   
 18   8  33  1   
 19   9  11  1   
 20   9  12  1   
 21   9  34  1   
 22  10  13  1   
 23  10  35  1   
 24  10  36  1   
 25  11  14  am  
 26  11  37  1   
 27  12  13  1   
 28  12  38  1   
 29  12  39  1   
 30  14  15  2   
 31  14  16  1   
 32  16  17  1   
 33  16  40  1   
 34  16  41  1   
 35  17  18  ar  
 36  17  19  ar  
 37  18  20  ar  
 38  18  42  1   
 39  19  21  ar  
 40  19  43  1   
 41  20  22  ar  
 42  20  44  1   
 43  21  22  ar  
 44  21  45  1   
 45  22  23  1   
 46  23  24  1   
 47  24  46  1   
 48  24  47  1   
 49  24  48  1   
@<TRIPOS>SUBSTRUCTURE
  1 ****   5 GROUP 4 **** **** 0

# MOE 2024.06 (io_trps.svl 2023.06)
