@<TRIPOS>MOLECULE
NONAME
50 52 1 0 0 
SMALL
USER_CHARGES


@<TRIPOS>ATOM
  1 O       -1.7140     0.2440     0.8310 O.co2 1 <1>  -0.9000 
  2 C       -1.4550     1.4220     1.1070 C.2   1 <1>   0.9060 
  3 O       -1.9300     2.0040     2.0880 O.co2 1 <1>  -0.9000 
  4 C       -0.5450     2.2560     0.2130 C.3   1 <1>  -0.1060 
  5 C       -1.7640     2.6300    -0.7690 C.3   1 <1>   0.2000 
  6 C        0.3740     3.1800    -0.6570 C.3   1 <1>   0.3430 
  7 C        0.7070     1.8590     1.1310 C.3   1 <1>  -0.0170 
  8 O       -2.7940     1.7230    -0.9880 O.3   1 <1>  -0.6800 
  9 C       -2.3820     3.9610    -0.3450 C.3   1 <1>  -0.1600 
 10 N        0.0000     4.6530    -0.5060 N.4   1 <1>  -0.9590 
 11 C        1.7990     1.0930     0.3770 C.ar  1 <1>  -0.1440 
 12 C       -1.2890     4.8370     0.2590 C.3   1 <1>   0.3430 
 13 C        1.1420     5.3750     0.1440 C.3   1 <1>   0.3430 
 14 C        3.1190     1.5180     0.4160 C.ar  1 <1>  -0.1500 
 15 C        1.4700    -0.0340    -0.3610 C.ar  1 <1>  -0.1500 
 16 C        0.9720     6.8970     0.1710 C.3   1 <1>   0.0960 
 17 C        4.0940     0.8370    -0.2930 C.ar  1 <1>  -0.1500 
 18 C        2.4440    -0.7140    -1.0700 C.ar  1 <1>  -0.1500 
 19 N        2.1880     7.5050     0.7350 N.pl3 1 <1>   0.3140 
 20 C        3.7560    -0.2770    -1.0390 C.ar  1 <1>  -0.1500 
 21 N        3.3620     6.8460     0.7410 N.2   1 <1>  -0.7070 
 22 C        2.3110     8.7340     1.2840 C.2   1 <1>  -0.3320 
 23 C        4.2040     7.6680     1.2910 C.2   1 <1>   0.1390 
 24 C        3.6030     8.8660     1.6520 C.2   1 <1>  -0.1500 
 25 C        1.1930     9.7540     1.4360 C.3   1 <1>  -0.0600 
 26 H       -1.4420     2.7710    -1.7890 H     1 <1>   0.0800 
 27 H        0.3240     2.8840    -1.6920 H     1 <1>   0.0800 
 28 H        1.4200     3.1030    -0.4240 H     1 <1>   0.0800 
 29 H        1.1220     2.7450     1.5810 H     1 <1>   0.0800 
 30 H        0.5170     1.2350     1.9970 H     1 <1>   0.0800 
 31 H       -2.6750     0.9520    -0.3510 H     1 <1>   0.4000 
 32 H       -2.8370     4.4450    -1.1890 H     1 <1>   0.0800 
 33 H       -3.1360     3.7940     0.4060 H     1 <1>   0.0800 
 34 H       -0.1360     5.0210    -1.4560 H     1 <1>   0.4500 
 35 H       -1.1420     4.5240     1.2830 H     1 <1>   0.0800 
 36 H       -1.6020     5.8670     0.2600 H     1 <1>   0.0800 
 37 H        1.2630     5.0210     1.1560 H     1 <1>   0.0800 
 38 H        2.0500     5.1480    -0.3930 H     1 <1>   0.0800 
 39 H        3.4020     2.3760     1.0010 H     1 <1>   0.1500 
 40 H        0.4520    -0.3910    -0.3810 H     1 <1>   0.1500 
 41 H        0.1390     7.1750     0.7870 H     1 <1>   0.0800 
 42 H        0.8440     7.2800    -0.8240 H     1 <1>   0.0800 
 43 H        5.1170     1.1710    -0.2600 H     1 <1>   0.1500 
 44 H        2.1760    -1.5870    -1.6390 H     1 <1>   0.1500 
 45 H        4.5130    -0.8080    -1.5900 H     1 <1>   0.1500 
 46 H        5.2460     7.4410     1.4460 H     1 <1>   0.1500 
 47 H        4.0940     9.7010     2.1220 H     1 <1>   0.1500 
 48 H        1.5770    10.6560     1.8810 H     1 <1>   0.0800 
 49 H        0.4160     9.3690     2.0730 H     1 <1>   0.0800 
 50 H        0.7770    10.0030     0.4760 H     1 <1>   0.0800 
@<TRIPOS>BOND
  1   1   2  ar  
  2   2   3  ar  
  3   2   4  1   
  4   4   5  1   
  5   4   6  1   
  6   4   7  1   
  7   5   8  1   
  8   5   9  1   
  9   5  26  1   
 10   6  10  1   
 11   6  27  1   
 12   6  28  1   
 13   7  11  1   
 14   7  29  1   
 15   7  30  1   
 16   8  31  1   
 17   9  12  1   
 18   9  32  1   
 19   9  33  1   
 20  10  12  1   
 21  10  13  1   
 22  10  34  1   
 23  11  14  ar  
 24  11  15  ar  
 25  12  35  1   
 26  12  36  1   
 27  13  16  1   
 28  13  37  1   
 29  13  38  1   
 30  14  17  ar  
 31  14  39  1   
 32  15  18  ar  
 33  15  40  1   
 34  16  19  1   
 35  16  41  1   
 36  16  42  1   
 37  17  20  ar  
 38  17  43  1   
 39  18  20  ar  
 40  18  44  1   
 41  19  21  1   
 42  19  22  1   
 43  20  45  1   
 44  21  23  2   
 45  22  24  2   
 46  22  25  1   
 47  23  24  1   
 48  23  46  1   
 49  24  47  1   
 50  25  48  1   
 51  25  49  1   
 52  25  50  1   
@<TRIPOS>SUBSTRUCTURE
  1 ****   6 GROUP 4 **** **** 0

# MOE 2024.06 (io_trps.svl 2023.06)
