@<TRIPOS>MOLECULE
NONAME
42 43 1 0 0 
SMALL
USER_CHARGES


@<TRIPOS>ATOM
  1 O       -3.4130     1.3090    -2.6520 O.2   1 <1>  -0.5700 
  2 C       -2.7780     1.3010    -1.6240 C.2   1 <1>   0.5690 
  3 N       -2.5110     0.1520    -0.9560 N.am  1 <1>  -0.7300 
  4 C       -2.2620     2.6210    -1.0540 C.3   1 <1>   0.1810 
  5 C       -2.9400    -1.2070    -1.3480 C.3   1 <1>   0.2200 
  6 O       -1.6610     2.4400     0.2100 O.3   1 <1>  -0.5600 
  7 C       -3.9770    -1.7060    -0.3570 C.3   1 <1>  -0.0800 
  8 C       -1.7930    -2.1970    -1.1480 C.3   1 <1>   0.1200 
  9 C       -1.1580     3.5910     0.7980 C.3   1 <1>   0.2000 
 10 C       -3.0900    -2.2630     0.7570 C.3   1 <1>   0.1200 
 11 C       -4.8780    -2.7880    -0.9810 C.3   1 <1>  -0.0160 
 12 O       -1.9290    -2.7300     0.1390 O.3   1 <1>  -0.5600 
 13 C        0.2600     3.8290     0.2790 C.3   1 <1>  -0.2400 
 14 C       -1.1590     3.3470     2.3030 C.3   1 <1>  -0.2400 
 15 C       -5.9220    -3.2820     0.0090 C.ar  1 <1>  -0.1440 
 16 C       -7.0350    -2.5310     0.3260 C.ar  1 <1>  -0.1500 
 17 C       -5.8120    -4.5040     0.6410 C.ar  1 <1>  -0.1500 
 18 C       -7.9560    -3.0210     1.2370 C.ar  1 <1>   0.1600 
 19 C       -6.7900    -4.9020     1.5370 C.ar  1 <1>   0.1600 
 20 N       -7.8600    -4.1890     1.8520 N.ar  1 <1>  -0.6200 
 21 H       -1.9790     0.2370    -0.0840 H     1 <1>   0.3700 
 22 H       -3.0860     3.3020    -0.9490 H     1 <1>   0.0800 
 23 H       -1.5380     3.0310    -1.7330 H     1 <1>   0.0800 
 24 H       -3.2960    -1.2010    -2.3650 H     1 <1>   0.0800 
 25 H       -4.5940    -0.9010     0.0040 H     1 <1>   0.0800 
 26 H       -0.8280    -1.7310    -1.2440 H     1 <1>   0.0800 
 27 H       -1.8730    -3.0120    -1.8440 H     1 <1>   0.0800 
 28 H       -1.8010     4.4250     0.5670 H     1 <1>   0.0800 
 29 H       -3.5460    -3.0650     1.3090 H     1 <1>   0.0800 
 30 H       -2.8020    -1.4800     1.4370 H     1 <1>   0.0800 
 31 H       -4.2830    -3.6170    -1.3210 H     1 <1>   0.0800 
 32 H       -5.3840    -2.3790    -1.8380 H     1 <1>   0.0800 
 33 H        0.8740     2.9640     0.4620 H     1 <1>   0.0800 
 34 H        0.6970     4.6700     0.7860 H     1 <1>   0.0800 
 35 H        0.2530     4.0450    -0.7730 H     1 <1>   0.0800 
 36 H       -0.5410     2.5020     2.5460 H     1 <1>   0.0800 
 37 H       -2.1620     3.1650     2.6430 H     1 <1>   0.0800 
 38 H       -0.7790     4.2110     2.8170 H     1 <1>   0.0800 
 39 H       -7.1950    -1.5690    -0.1270 H     1 <1>   0.1500 
 40 H       -4.9740    -5.1490     0.4480 H     1 <1>   0.1500 
 41 H       -8.8180    -2.4210     1.4720 H     1 <1>   0.1500 
 42 H       -6.6870    -5.8580     2.0220 H     1 <1>   0.1500 
@<TRIPOS>BOND
  1   1   2  2   
  2   2   3  am  
  3   2   4  1   
  4   3   5  1   
  5   3  21  1   
  6   4   6  1   
  7   4  22  1   
  8   4  23  1   
  9   5   7  1   
 10   5   8  1   
 11   5  24  1   
 12   6   9  1   
 13   7  10  1   
 14   7  11  1   
 15   7  25  1   
 16   8  12  1   
 17   8  26  1   
 18   8  27  1   
 19   9  13  1   
 20   9  14  1   
 21   9  28  1   
 22  10  12  1   
 23  10  29  1   
 24  10  30  1   
 25  11  15  1   
 26  11  31  1   
 27  11  32  1   
 28  13  33  1   
 29  13  34  1   
 30  13  35  1   
 31  14  36  1   
 32  14  37  1   
 33  14  38  1   
 34  15  16  ar  
 35  15  17  ar  
 36  16  18  ar  
 37  16  39  1   
 38  17  19  ar  
 39  17  40  1   
 40  18  20  ar  
 41  18  41  1   
 42  19  20  ar  
 43  19  42  1   
@<TRIPOS>SUBSTRUCTURE
  1 ****   7 GROUP 4 **** **** 0

# MOE 2024.06 (io_trps.svl 2023.06)
