@<TRIPOS>MOLECULE
NONAME
37 39 1 0 0 
SMALL
USER_CHARGES


@<TRIPOS>ATOM
  1 O        1.1260     0.1870     1.5970 O.3   1 <1>  -0.6800 
  2 C        1.4500    -0.3010     0.3340 C.3   1 <1>   0.2000 
  3 C        2.2850    -1.5670     0.5140 C.3   1 <1>  -0.0800 
  4 C        2.4310     0.6750    -0.3220 C.3   1 <1>   0.3430 
  5 C        3.6780    -1.0160     0.8630 C.3   1 <1>   0.3430 
  6 C        2.2940    -2.4270    -0.7700 C.3   1 <1>  -0.0170 
  7 N        3.7630     0.3460     0.2630 N.4   1 <1>  -0.9590 
  8 C        3.0580    -3.7300    -0.5850 C.ar  1 <1>   0.1670 
  9 C        4.1710     1.3780     1.2510 C.3   1 <1>   0.5240 
 10 N        4.3770    -3.6370    -0.5710 N.ar  1 <1>  -0.6200 
 11 C        2.3690    -4.9350    -0.4460 C.ar  1 <1>   0.1600 
 12 C        4.5970     2.6140     0.4680 C.2   1 <1>   0.0460 
 13 C        4.9580    -4.8190    -0.4230 C.ar  1 <1>   0.1600 
 14 N        2.9480    -6.1110    -0.2850 N.ar  1 <1>  -0.6200 
 15 N        5.3110     2.4800    -0.6710 N.2   1 <1>  -0.5650 
 16 C        4.3520     3.9170     0.7300 C.2   1 <1>  -0.3020 
 17 C        4.2660    -6.0150    -0.2830 C.ar  1 <1>   0.1600 
 18 C        5.4940     3.6990    -1.0670 C.2   1 <1>   0.0360 
 19 N        4.9350     4.6230    -0.2570 N.pl3 1 <1>   0.0330 
 20 H        0.3730    -0.3060     1.9870 H     1 <1>   0.4000 
 21 H        0.5450    -0.4320    -0.2350 H     1 <1>   0.0800 
 22 H        1.9080    -2.1700     1.3220 H     1 <1>   0.0800 
 23 H        2.1460     1.6990    -0.1440 H     1 <1>   0.0800 
 24 H        2.4560     0.4970    -1.3840 H     1 <1>   0.0800 
 25 H        4.4710    -1.6460     0.5010 H     1 <1>   0.0800 
 26 H        3.7600    -0.9440     1.9360 H     1 <1>   0.0800 
 27 H        2.7390    -1.8870    -1.5880 H     1 <1>   0.0800 
 28 H        1.2810    -2.6550    -1.0510 H     1 <1>   0.0800 
 29 H        4.4860     0.4190    -0.4750 H     1 <1>   0.4500 
 30 H        3.3610     1.6090     1.9230 H     1 <1>   0.0800 
 31 H        5.0150     1.0250     1.8200 H     1 <1>   0.0800 
 32 H        1.2940    -4.9320    -0.4690 H     1 <1>   0.1500 
 33 H        6.0340    -4.8440    -0.4110 H     1 <1>   0.1500 
 34 H        3.8150     4.3790     1.5410 H     1 <1>   0.1500 
 35 H        4.8250    -6.9280    -0.1650 H     1 <1>   0.1500 
 36 H        6.0400     3.9750    -1.9540 H     1 <1>   0.1500 
 37 H        4.9590     5.6420    -0.3750 H     1 <1>   0.2700 
@<TRIPOS>BOND
  1   1   2  1   
  2   1  20  1   
  3   2   3  1   
  4   2   4  1   
  5   2  21  1   
  6   3   5  1   
  7   3   6  1   
  8   3  22  1   
  9   4   7  1   
 10   4  23  1   
 11   4  24  1   
 12   5   7  1   
 13   5  25  1   
 14   5  26  1   
 15   6   8  1   
 16   6  27  1   
 17   6  28  1   
 18   7   9  1   
 19   7  29  1   
 20   8  10  ar  
 21   8  11  ar  
 22   9  12  1   
 23   9  30  1   
 24   9  31  1   
 25  10  13  ar  
 26  11  14  ar  
 27  11  32  1   
 28  12  15  1   
 29  12  16  2   
 30  13  17  ar  
 31  13  33  1   
 32  14  17  ar  
 33  15  18  2   
 34  16  19  1   
 35  16  34  1   
 36  17  35  1   
 37  18  19  1   
 38  18  36  1   
 39  19  37  1   
@<TRIPOS>SUBSTRUCTURE
  1 ****   5 GROUP 4 **** **** 0

# MOE 2024.06 (io_trps.svl 2023.06)
