@<TRIPOS>MOLECULE
NONAME
52 54 1 0 0 
SMALL
USER_CHARGES


@<TRIPOS>ATOM
  1 CL      -0.2690    -0.1140    -0.4830 Cl    1 <1>  -0.1770 
  2 C       -1.1810    -1.5980    -0.5860 C.ar  1 <1>   0.1770 
  3 C       -2.4930    -1.5630    -1.0160 C.ar  1 <1>  -0.1500 
  4 C       -0.5800    -2.7920    -0.2370 C.ar  1 <1>  -0.1500 
  5 C       -3.2110    -2.7430    -1.0960 C.ar  1 <1>  -0.1500 
  6 C       -1.3090    -3.9650    -0.3210 C.ar  1 <1>  -0.1500 
  7 C       -2.6390    -3.9700    -0.7520 C.ar  1 <1>   0.0530 
  8 C       -3.3980    -5.2000    -0.8380 C.2   1 <1>   0.0870 
  9 O       -2.8740    -6.3450    -0.4180 O.3   1 <1>  -0.2800 
 10 C       -4.6520    -5.4500    -1.3020 C.2   1 <1>  -0.1500 
 11 C       -3.7470    -7.3120    -0.5950 C.2   1 <1>  -0.0400 
 12 C       -4.8790    -6.8180    -1.1460 C.2   1 <1>  -0.1500 
 13 C       -3.3400    -8.7130    -0.1740 C.3   1 <1>   0.5230 
 14 N       -4.5410    -9.5610     0.0570 N.4   1 <1>  -0.9590 
 15 C       -4.2230   -11.0130     0.1250 C.3   1 <1>   0.3430 
 16 C       -5.3430    -9.1090     1.2240 C.3   1 <1>   0.3430 
 17 C       -5.5060   -11.8660     0.0590 C.3   1 <1>   0.0000 
 18 C       -6.6800    -9.8430     1.2220 C.3   1 <1>  -0.1600 
 19 C       -6.4800   -11.3620     1.1670 C.3   1 <1>   0.2000 
 20 C       -6.1230   -11.8010    -1.3700 C.3   1 <1>   0.1200 
 21 C       -5.1500   -13.3610     0.3090 C.3   1 <1>  -0.1600 
 22 O       -7.7260   -11.9400     1.0310 O.3   1 <1>  -0.6800 
 23 O       -6.3480   -10.4970    -1.8120 O.3   1 <1>  -0.6800 
 24 C       -4.2820   -13.6930     1.5420 C.3   1 <1>  -0.1600 
 25 C       -2.7820   -13.7730     1.2260 C.3   1 <1>  -0.2400 
 26 H       -2.9400    -0.6220    -1.2830 H     1 <1>   0.1500 
 27 H        0.4420    -2.7970     0.0950 H     1 <1>   0.1500 
 28 H       -4.2320    -2.7060    -1.4310 H     1 <1>   0.1500 
 29 H       -0.8360    -4.8920    -0.0500 H     1 <1>   0.1500 
 30 H       -5.3560    -4.7510    -1.7180 H     1 <1>   0.1500 
 31 H       -5.7870    -7.3210    -1.4310 H     1 <1>   0.1500 
 32 H       -2.7590    -8.6530     0.7310 H     1 <1>   0.0800 
 33 H       -2.7220    -9.1400    -0.9460 H     1 <1>   0.0800 
 34 H       -5.1540    -9.4740    -0.7790 H     1 <1>   0.4500 
 35 H       -3.5790   -11.2900    -0.6940 H     1 <1>   0.0800 
 36 H       -3.7060   -11.2180     1.0470 H     1 <1>   0.0800 
 37 H       -4.8110    -9.3170     2.1390 H     1 <1>   0.0800 
 38 H       -5.5200    -8.0460     1.1690 H     1 <1>   0.0800 
 39 H       -7.2660    -9.5010     0.3880 H     1 <1>   0.0800 
 40 H       -7.2120    -9.5910     2.1220 H     1 <1>   0.0800 
 41 H       -6.1120   -11.6740     2.1290 H     1 <1>   0.0800 
 42 H       -7.0610   -12.3310    -1.4010 H     1 <1>   0.0800 
 43 H       -5.4600   -12.2640    -2.0820 H     1 <1>   0.0800 
 44 H       -6.0760   -13.9050     0.4120 H     1 <1>   0.0800 
 45 H       -4.6660   -13.7750    -0.5600 H     1 <1>   0.0800 
 46 H       -8.2220   -11.5360     0.2920 H     1 <1>   0.4000 
 47 H       -6.8190   -10.5160    -2.6770 H     1 <1>   0.4000 
 48 H       -4.4510   -13.0070     2.3530 H     1 <1>   0.0800 
 49 H       -4.5810   -14.6650     1.9010 H     1 <1>   0.0800 
 50 H       -2.3780   -12.8370     0.8940 H     1 <1>   0.0800 
 51 H       -2.5990   -14.5150     0.4670 H     1 <1>   0.0800 
 52 H       -2.2440   -14.0720     2.1100 H     1 <1>   0.0800 
@<TRIPOS>BOND
  1   1   2  1   
  2   2   3  ar  
  3   2   4  ar  
  4   3   5  ar  
  5   3  26  1   
  6   4   6  ar  
  7   4  27  1   
  8   5   7  ar  
  9   5  28  1   
 10   6   7  ar  
 11   6  29  1   
 12   7   8  1   
 13   8   9  1   
 14   8  10  2   
 15   9  11  1   
 16  10  12  1   
 17  10  30  1   
 18  11  12  2   
 19  11  13  1   
 20  12  31  1   
 21  13  14  1   
 22  13  32  1   
 23  13  33  1   
 24  14  15  1   
 25  14  16  1   
 26  14  34  1   
 27  15  17  1   
 28  15  35  1   
 29  15  36  1   
 30  16  18  1   
 31  16  37  1   
 32  16  38  1   
 33  17  19  1   
 34  17  20  1   
 35  17  21  1   
 36  18  19  1   
 37  18  39  1   
 38  18  40  1   
 39  19  22  1   
 40  19  41  1   
 41  20  23  1   
 42  20  42  1   
 43  20  43  1   
 44  21  24  1   
 45  21  44  1   
 46  21  45  1   
 47  22  46  1   
 48  23  47  1   
 49  24  25  1   
 50  24  48  1   
 51  24  49  1   
 52  25  50  1   
 53  25  51  1   
 54  25  52  1   
@<TRIPOS>SUBSTRUCTURE
  1 ****  11 GROUP 4 **** **** 0

# MOE 2024.06 (io_trps.svl 2023.06)
