@<TRIPOS>MOLECULE
NONAME
43 45 1 0 0 
SMALL
USER_CHARGES


@<TRIPOS>ATOM
  1 O       -1.7640    -0.7950    -2.7620 O.2   1 <1>  -0.5700 
  2 C       -2.0180    -1.0870    -1.6260 C.2   1 <1>   0.5690 
  3 N       -2.0920    -0.1360    -0.6800 N.am  1 <1>  -0.7300 
  4 C       -2.2960    -2.5220    -1.2700 C.3   1 <1>  -0.0190 
  5 C       -2.4070    -0.3610     0.7500 C.3   1 <1>   0.2200 
  6 C       -1.2820    -3.0600    -0.2360 C.3   1 <1>   0.1200 
  7 C       -3.7840    -2.6540    -0.9160 C.3   1 <1>   0.3430 
  8 C       -1.3550    -1.3010     1.3920 C.3   1 <1>   0.1200 
  9 C       -3.8710    -0.8610     0.9120 C.3   1 <1>   0.3430 
 10 O       -1.5640    -2.6550     1.0780 O.3   1 <1>  -0.5600 
 11 N       -4.1100    -2.2940     0.5080 N.4   1 <1>  -0.9590 
 12 C       -5.4460    -2.7910     0.9340 C.3   1 <1>   0.4860 
 13 C       -5.4910    -4.2980     0.7560 C.ar  1 <1>  -0.1440 
 14 C       -4.6950    -5.1270     1.5340 C.ar  1 <1>  -0.1500 
 15 C       -6.3240    -4.8620    -0.1990 C.ar  1 <1>  -0.1500 
 16 C       -4.7290    -6.4980     1.3490 C.ar  1 <1>  -0.1500 
 17 C       -6.3520    -6.2340    -0.3760 C.ar  1 <1>  -0.1500 
 18 C       -5.5550    -7.0690     0.3920 C.ar  1 <1>   0.0730 
 19 C       -5.5890    -8.4880     0.2010 C.1   1 <1>  -0.0730 
 20 C       -5.6250    -9.6670     0.0350 C.1   1 <1>  -0.2000 
 21 C       -5.6740   -11.1390    -0.1750 C.3   1 <1>   0.3200 
 22 O       -7.0010   -11.5040    -0.2320 O.3   1 <1>  -0.6800 
 23 H       -1.8370     0.8130    -0.9770 H     1 <1>   0.3700 
 24 H       -2.1410    -3.0820    -2.1750 H     1 <1>   0.0800 
 25 H       -2.3300     0.5950     1.2390 H     1 <1>   0.0800 
 26 H       -0.2790    -2.7550    -0.4860 H     1 <1>   0.0800 
 27 H       -1.3090    -4.1370    -0.2400 H     1 <1>   0.0800 
 28 H       -4.0600    -3.6820    -1.0850 H     1 <1>   0.0800 
 29 H       -4.3660    -2.0480    -1.5920 H     1 <1>   0.0800 
 30 H       -1.4190    -1.2220     2.4640 H     1 <1>   0.0800 
 31 H       -0.3570    -1.0200     1.1010 H     1 <1>   0.0800 
 32 H       -4.5190    -0.2100     0.3480 H     1 <1>   0.0800 
 33 H       -4.1330    -0.7550     1.9510 H     1 <1>   0.0800 
 34 H       -3.4030    -2.8330     1.0470 H     1 <1>   0.4500 
 35 H       -5.6170    -2.5540     1.9710 H     1 <1>   0.0800 
 36 H       -6.2200    -2.3280     0.3440 H     1 <1>   0.0800 
 37 H       -4.0420    -4.7250     2.2910 H     1 <1>   0.1500 
 38 H       -6.9620    -4.2480    -0.8130 H     1 <1>   0.1500 
 39 H       -4.1100    -7.1390     1.9550 H     1 <1>   0.1500 
 40 H       -7.0010    -6.6680    -1.1180 H     1 <1>   0.1500 
 41 H       -5.2110   -11.6600     0.6450 H     1 <1>   0.0800 
 42 H       -5.2040   -11.4210    -1.1020 H     1 <1>   0.0800 
 43 H       -7.4950   -10.9890     0.4340 H     1 <1>   0.4000 
@<TRIPOS>BOND
  1   1   2  2   
  2   2   3  am  
  3   2   4  1   
  4   3   5  1   
  5   3  23  1   
  6   4   6  1   
  7   4   7  1   
  8   4  24  1   
  9   5   8  1   
 10   5   9  1   
 11   5  25  1   
 12   6  10  1   
 13   6  26  1   
 14   6  27  1   
 15   7  11  1   
 16   7  28  1   
 17   7  29  1   
 18   8  10  1   
 19   8  30  1   
 20   8  31  1   
 21   9  11  1   
 22   9  32  1   
 23   9  33  1   
 24  11  12  1   
 25  11  34  1   
 26  12  13  1   
 27  12  35  1   
 28  12  36  1   
 29  13  14  ar  
 30  13  15  ar  
 31  14  16  ar  
 32  14  37  1   
 33  15  17  ar  
 34  15  38  1   
 35  16  18  ar  
 36  16  39  1   
 37  17  18  ar  
 38  17  40  1   
 39  18  19  1   
 40  19  20  3   
 41  20  21  1   
 42  21  22  1   
 43  21  41  1   
 44  21  42  1   
 45  22  43  1   
@<TRIPOS>SUBSTRUCTURE
  1 ****  13 GROUP 4 **** **** 0

# MOE 2024.06 (io_trps.svl 2023.06)
