@<TRIPOS>MOLECULE
NONAME
45 46 1 0 0 
SMALL
USER_CHARGES


@<TRIPOS>ATOM
  1 F        0.6140     1.6330     1.3670 F     1 <1>  -0.1900 
  2 C        1.8290     1.7710     0.8790 C.ar  1 <1>   0.1900 
  3 C        2.6130     0.6760     0.5280 C.ar  1 <1>   0.4100 
  4 C        2.3400     3.0260     0.7150 C.ar  1 <1>   0.1600 
  5 N        3.8210     0.8590     0.0510 N.ar  1 <1>  -0.6200 
  6 N        2.2570    -0.6470     0.6310 N.pl3 1 <1>  -0.8690 
  7 N        3.5560     3.2250     0.2340 N.ar  1 <1>  -0.6200 
  8 C        4.2380     2.1150    -0.0730 C.ar  1 <1>   0.7200 
  9 C        0.8720    -1.1450     0.4450 C.3   1 <1>   0.1290 
 10 N        5.5190     2.3010    -0.5680 N.pl3 1 <1>  -0.8380 
 11 C        5.9210     3.5960    -1.1770 C.3   1 <1>   0.2090 
 12 C        6.3970     1.1290    -0.8800 C.3   1 <1>   0.1290 
 13 C        6.3370     4.5750    -0.0610 C.3   1 <1>   0.3430 
 14 N        6.0000     6.0160    -0.3550 N.4   1 <1>  -0.9590 
 15 C        6.6870     6.9400     0.5910 C.3   1 <1>   0.4230 
 16 C        4.5090     6.1880    -0.2850 C.3   1 <1>   0.2630 
 17 C        6.4450     8.4130     0.2220 C.3   1 <1>  -0.1600 
 18 C        8.2080     6.7570     0.5530 C.3   1 <1>  -0.1600 
 19 C        7.8170     9.0670     0.0390 C.3   1 <1>  -0.1600 
 20 C        8.7920     8.1500     0.7630 C.3   1 <1>  -0.1600 
 21 H        1.7410     3.8770     0.9850 H     1 <1>   0.1500 
 22 H        2.9880    -1.2690     0.2710 H     1 <1>   0.4000 
 23 H        0.3630    -0.5600    -0.3020 H     1 <1>   0.0800 
 24 H        0.3340    -1.0770     1.3750 H     1 <1>   0.0800 
 25 H        0.8930    -2.1740     0.1290 H     1 <1>   0.0800 
 26 H        5.0900     3.9810    -1.7400 H     1 <1>   0.0800 
 27 H        6.7420     3.4480    -1.8560 H     1 <1>   0.0800 
 28 H        6.3110     0.3810    -0.1090 H     1 <1>   0.0800 
 29 H        7.4280     1.4320    -0.9370 H     1 <1>   0.0800 
 30 H        6.1020     0.6920    -1.8180 H     1 <1>   0.0800 
 31 H        7.3950     4.4620     0.1000 H     1 <1>   0.0800 
 32 H        5.8330     4.2790     0.8450 H     1 <1>   0.0800 
 33 H        6.3300     6.2570    -1.2980 H     1 <1>   0.4500 
 34 H        6.3360     6.7700     1.5970 H     1 <1>   0.0800 
 35 H        4.1520     5.9330     0.7000 H     1 <1>   0.0800 
 36 H        4.0190     5.5420    -0.9940 H     1 <1>   0.0800 
 37 H        4.2290     7.2050    -0.5020 H     1 <1>   0.0800 
 38 H        5.9370     8.8920     1.0420 H     1 <1>   0.0800 
 39 H        5.8620     8.5440    -0.6720 H     1 <1>   0.0800 
 40 H        8.5270     6.4030    -0.4120 H     1 <1>   0.0800 
 41 H        8.5480     6.0820     1.3190 H     1 <1>   0.0800 
 42 H        7.8450    10.0710     0.4310 H     1 <1>   0.0800 
 43 H        8.0690     9.0990    -1.0080 H     1 <1>   0.0800 
 44 H        9.7940     8.2370     0.3750 H     1 <1>   0.0800 
 45 H        8.8030     8.3900     1.8140 H     1 <1>   0.0800 
@<TRIPOS>BOND
  1   1   2  1   
  2   2   3  ar  
  3   2   4  ar  
  4   3   5  ar  
  5   3   6  1   
  6   4   7  ar  
  7   4  21  1   
  8   5   8  ar  
  9   6   9  1   
 10   6  22  1   
 11   7   8  ar  
 12   8  10  1   
 13   9  23  1   
 14   9  24  1   
 15   9  25  1   
 16  10  11  1   
 17  10  12  1   
 18  11  13  1   
 19  11  26  1   
 20  11  27  1   
 21  12  28  1   
 22  12  29  1   
 23  12  30  1   
 24  13  14  1   
 25  13  31  1   
 26  13  32  1   
 27  14  15  1   
 28  14  16  1   
 29  14  33  1   
 30  15  17  1   
 31  15  18  1   
 32  15  34  1   
 33  16  35  1   
 34  16  36  1   
 35  16  37  1   
 36  17  19  1   
 37  17  38  1   
 38  17  39  1   
 39  18  20  1   
 40  18  40  1   
 41  18  41  1   
 42  19  20  1   
 43  19  42  1   
 44  19  43  1   
 45  20  44  1   
 46  20  45  1   
@<TRIPOS>SUBSTRUCTURE
  1 ****   7 GROUP 4 **** **** 0

# MOE 2024.06 (io_trps.svl 2023.06)
