@<TRIPOS>MOLECULE
NONAME
36 37 1 0 0 
SMALL
USER_CHARGES


@<TRIPOS>ATOM
  1 S       -0.0790     0.3660    -0.1980 S.3   1 <1>  -0.0800 
  2 C        1.4400    -0.4940     0.0380 C.2   1 <1>   0.4620 
  3 C       -0.6780    -0.9650    -1.1320 C.2   1 <1>  -0.1100 
  4 N        1.4580    -1.6450    -0.5310 N.2   1 <1>  -0.5650 
  5 N        2.4500     0.0850     0.7790 N.pl3 1 <1>  -0.8220 
  6 C        0.2610    -1.9320    -1.2050 C.2   1 <1>   0.1410 
  7 C        3.7120    -0.6740     1.0180 C.3   1 <1>   0.3900 
  8 C        2.2590     1.3320     1.5680 C.3   1 <1>   0.2090 
  9 C        0.0950    -3.1940    -1.9140 C.2   1 <1>   0.7160 
 10 C        4.9340     0.2030     0.8170 C.2   1 <1>  -0.1810 
 11 C        2.5410     2.5520     0.6940 C.3   1 <1>  -0.2400 
 12 O       -0.9310    -3.4770    -2.4980 O.2   1 <1>  -0.5700 
 13 N        1.0890    -4.1090    -1.9500 N.am  1 <1>  -0.8000 
 14 C        5.6930     0.8000     1.8170 C.2   1 <1>   0.1390 
 15 C        5.5320     0.5850    -0.3320 C.2   1 <1>  -0.3020 
 16 N        6.6770     1.4970     1.3400 N.2   1 <1>  -0.7070 
 17 N        6.5780     1.3640     0.0040 N.pl3 1 <1>   0.3140 
 18 C        7.5200     2.0240    -0.9220 C.3   1 <1>   0.0960 
 19 C        8.6120     1.0530    -1.3870 C.3   1 <1>  -0.2400 
 20 H       -1.6700    -0.9020    -1.5400 H     1 <1>   0.1500 
 21 H        3.7820    -1.5070     0.3400 H     1 <1>   0.0800 
 22 H        3.7040    -1.0660     2.0190 H     1 <1>   0.0800 
 23 H        2.9200     1.3350     2.4170 H     1 <1>   0.0800 
 24 H        1.2520     1.3780     1.9450 H     1 <1>   0.0800 
 25 H        3.5650     2.5540     0.3700 H     1 <1>   0.0800 
 26 H        2.3650     3.4480     1.2600 H     1 <1>   0.0800 
 27 H        1.8990     2.5590    -0.1660 H     1 <1>   0.0800 
 28 H        0.9670    -4.9860    -2.4510 H     1 <1>   0.3700 
 29 H        1.9780    -3.9220    -1.4850 H     1 <1>   0.3700 
 30 H        5.4990     0.7050     2.8720 H     1 <1>   0.1500 
 31 H        5.2690     0.3520    -1.3480 H     1 <1>   0.1500 
 32 H        7.9640     2.8580    -0.4090 H     1 <1>   0.0800 
 33 H        6.9650     2.3950    -1.7640 H     1 <1>   0.0800 
 34 H        9.1650     0.6900    -0.5380 H     1 <1>   0.0800 
 35 H        9.2920     1.5580    -2.0480 H     1 <1>   0.0800 
 36 H        8.1770     0.2200    -1.9100 H     1 <1>   0.0800 
@<TRIPOS>BOND
  1   1   2  1   
  2   1   3  1   
  3   2   4  2   
  4   2   5  1   
  5   3   6  2   
  6   3  20  1   
  7   4   6  1   
  8   5   7  1   
  9   5   8  1   
 10   6   9  1   
 11   7  10  1   
 12   7  21  1   
 13   7  22  1   
 14   8  11  1   
 15   8  23  1   
 16   8  24  1   
 17   9  12  2   
 18   9  13  am  
 19  10  14  1   
 20  10  15  2   
 21  11  25  1   
 22  11  26  1   
 23  11  27  1   
 24  13  28  1   
 25  13  29  1   
 26  14  16  2   
 27  14  30  1   
 28  15  17  1   
 29  15  31  1   
 30  16  17  1   
 31  17  18  1   
 32  18  19  1   
 33  18  32  1   
 34  18  33  1   
 35  19  34  1   
 36  19  35  1   
 37  19  36  1   
@<TRIPOS>SUBSTRUCTURE
  1 ****   5 GROUP 4 **** **** 0

# MOE 2024.06 (io_trps.svl 2023.06)
