@<TRIPOS>MOLECULE
NONAME
48 50 1 0 0 
SMALL
USER_CHARGES


@<TRIPOS>ATOM
  1 S       -0.7450     0.4140     0.3530 S.o2  1 <1>   1.0900 
  2 O        0.6440     0.0350     0.4620 O.2   1 <1>  -0.6500 
  3 O       -1.2490     1.6430     0.9170 O.2   1 <1>  -0.6500 
  4 C       -1.7150    -0.9660     0.8890 C.3   1 <1>  -0.0550 
  5 C       -1.2210     0.2660    -1.3630 C.3   1 <1>  -0.0550 
  6 C       -1.6590    -1.9390    -0.2850 C.3   1 <1>   0.1760 
  7 C       -1.8740    -1.1130    -1.5720 C.3   1 <1>  -0.1600 
  8 N       -2.6700    -3.0160    -0.1390 N.pl3 1 <1>   0.3140 
  9 N       -3.9680    -2.7220     0.0600 N.2   1 <1>  -0.7070 
 10 C       -2.4630    -4.3580    -0.1620 C.2   1 <1>  -0.3320 
 11 C       -4.5600    -3.8690     0.1740 C.2   1 <1>   0.1080 
 12 C       -3.6660    -4.9370     0.0440 C.2   1 <1>   0.0630 
 13 C       -1.1050    -5.0170    -0.3660 C.3   1 <1>  -0.0600 
 14 C       -6.0510    -3.9670     0.4070 C.3   1 <1>  -0.0590 
 15 N       -3.9190    -6.3320     0.0860 N.am  1 <1>  -0.4930 
 16 C       -4.6950    -7.0350     0.9560 C.2   1 <1>   0.5690 
 17 O       -5.3030    -6.5320     1.8690 O.2   1 <1>  -0.5700 
 18 C       -4.8040    -8.5310     0.7630 C.3   1 <1>  -0.0990 
 19 C       -6.1180    -8.9000     0.0660 C.3   1 <1>  -0.0170 
 20 C       -6.1830   -10.3990    -0.1750 C.ar  1 <1>  -0.1440 
 21 C       -6.6000   -11.2480     0.8380 C.ar  1 <1>  -0.1500 
 22 C       -5.8220   -10.9310    -1.4040 C.ar  1 <1>  -0.1500 
 23 C       -6.6550   -12.6150     0.6270 C.ar  1 <1>  -0.1500 
 24 C       -5.8770   -12.2980    -1.6160 C.ar  1 <1>  -0.1500 
 25 C       -6.2930   -13.1410    -0.6010 C.ar  1 <1>  -0.1500 
 26 H       -2.7280    -0.6510     1.0570 H     1 <1>   0.0800 
 27 H       -1.3170    -1.4040     1.7840 H     1 <1>   0.0800 
 28 H       -0.3570     0.3720    -1.9920 H     1 <1>   0.0800 
 29 H       -1.9240     1.0370    -1.6200 H     1 <1>   0.0800 
 30 H       -0.6790    -2.3790    -0.3140 H     1 <1>   0.0800 
 31 H       -1.4530    -1.6160    -2.4240 H     1 <1>   0.0800 
 32 H       -2.9300    -0.9700    -1.7380 H     1 <1>   0.0800 
 33 H       -0.6980    -4.7440    -1.3240 H     1 <1>   0.0800 
 34 H       -1.1920    -6.0880    -0.3260 H     1 <1>   0.0800 
 35 H       -0.4230    -4.7100     0.4070 H     1 <1>   0.0800 
 36 H       -6.5410    -3.0970     0.0120 H     1 <1>   0.0800 
 37 H       -6.2440    -4.0280     1.4620 H     1 <1>   0.0800 
 38 H       -6.4470    -4.8410    -0.0740 H     1 <1>   0.0800 
 39 H       -3.3860    -6.8710    -0.5920 H     1 <1>   0.3700 
 40 H       -4.7650    -9.0040     1.7270 H     1 <1>   0.0800 
 41 H       -3.9720    -8.8910     0.1850 H     1 <1>   0.0800 
 42 H       -6.1960    -8.3770    -0.8710 H     1 <1>   0.0800 
 43 H       -6.9490    -8.5960     0.6800 H     1 <1>   0.0800 
 44 H       -6.8840   -10.8480     1.7960 H     1 <1>   0.1500 
 45 H       -5.4980   -10.2870    -2.2010 H     1 <1>   0.1500 
 46 H       -6.9800   -13.2690     1.4170 H     1 <1>   0.1500 
 47 H       -5.5970   -12.7060    -2.5720 H     1 <1>   0.1500 
 48 H       -6.3360   -14.2030    -0.7660 H     1 <1>   0.1500 
@<TRIPOS>BOND
  1   1   2  2   
  2   1   3  2   
  3   1   4  1   
  4   1   5  1   
  5   4   6  1   
  6   4  26  1   
  7   4  27  1   
  8   5   7  1   
  9   5  28  1   
 10   5  29  1   
 11   6   7  1   
 12   6   8  1   
 13   6  30  1   
 14   7  31  1   
 15   7  32  1   
 16   8   9  1   
 17   8  10  1   
 18   9  11  2   
 19  10  12  2   
 20  10  13  1   
 21  11  12  1   
 22  11  14  1   
 23  12  15  1   
 24  13  33  1   
 25  13  34  1   
 26  13  35  1   
 27  14  36  1   
 28  14  37  1   
 29  14  38  1   
 30  15  16  am  
 31  15  39  1   
 32  16  17  2   
 33  16  18  1   
 34  18  19  1   
 35  18  40  1   
 36  18  41  1   
 37  19  20  1   
 38  19  42  1   
 39  19  43  1   
 40  20  21  ar  
 41  20  22  ar  
 42  21  23  ar  
 43  21  44  1   
 44  22  24  ar  
 45  22  45  1   
 46  23  25  ar  
 47  23  46  1   
 48  24  25  ar  
 49  24  47  1   
 50  25  48  1   
@<TRIPOS>SUBSTRUCTURE
  1 ****  12 GROUP 4 **** **** 0

# MOE 2024.06 (io_trps.svl 2023.06)
