@<TRIPOS>MOLECULE
NONAME
62 65 1 0 0 
SMALL
USER_CHARGES


@<TRIPOS>ATOM
  1 O        2.7160     0.0350     2.3740 O.3   1 <1>  -0.6800 
  2 C        2.4550     0.7250     1.1980 C.3   1 <1>   0.2000 
  3 C        3.5710     0.3100     0.1110 C.3   1 <1>   0.0000 
  4 C        2.2660     2.2160     1.5510 C.3   1 <1>  -0.1600 
  5 C        4.6300     1.2400     0.8370 C.3   1 <1>   0.3430 
  6 C        2.5470    -0.6810    -0.5900 C.3   1 <1>   0.1200 
  7 C        4.6820    -0.0370    -0.9880 C.3   1 <1>  -0.0170 
  8 C        2.9910     3.0700     0.5310 C.3   1 <1>   0.3430 
  9 N        4.4330     2.7250     0.6140 N.4   1 <1>  -0.9590 
 10 O        1.7860     0.0560    -1.4950 O.3   1 <1>  -0.6800 
 11 C        5.7050    -1.0730    -0.5180 C.ar  1 <1>  -0.1440 
 12 C        5.2110     3.2860    -0.5280 C.3   1 <1>   0.4860 
 13 C        5.4990    -1.8890     0.5890 C.ar  1 <1>  -0.1500 
 14 C        6.8920    -1.1950    -1.2270 C.ar  1 <1>  -0.1500 
 15 C        5.1060     4.7910    -0.5060 C.ar  1 <1>  -0.1440 
 16 C        6.4670    -2.7960     0.9820 C.ar  1 <1>  -0.1500 
 17 C        7.8600    -2.1020    -0.8340 C.ar  1 <1>  -0.1500 
 18 C        4.2650     5.4640    -1.3600 C.ar  1 <1>   0.1600 
 19 C        5.8350     5.5550     0.3750 C.ar  1 <1>   0.1600 
 20 C        7.6490    -2.9020     0.2730 C.ar  1 <1>  -0.1500 
 21 N        4.1290     6.7610    -1.3200 N.ar  1 <1>  -0.6200 
 22 N        5.7140     6.8540     0.4310 N.ar  1 <1>  -0.6200 
 23 C        4.8580     7.4220    -0.4190 C.ar  1 <1>   0.7200 
 24 N        4.7140     8.7930    -0.3610 N.pl3 1 <1>  -0.8380 
 25 C        3.7230     9.5440    -1.1880 C.3   1 <1>   0.2090 
 26 C        5.6310     9.6740     0.4210 C.3   1 <1>   0.2090 
 27 C        2.8920    10.4650    -0.2890 C.3   1 <1>  -0.1600 
 28 C        4.8120    10.5900     1.3350 C.3   1 <1>  -0.1600 
 29 C        3.7760    11.4020     0.5450 C.3   1 <1>  -0.1600 
 30 H        1.9380     0.0440     2.9710 H     1 <1>   0.4000 
 31 H        1.4450     0.4490     0.9360 H     1 <1>   0.0800 
 32 H        1.2190     2.4630     1.5130 H     1 <1>   0.0800 
 33 H        2.6250     2.4480     2.5390 H     1 <1>   0.0800 
 34 H        5.6510     0.9850     0.6030 H     1 <1>   0.0800 
 35 H        4.5740     1.0570     1.8980 H     1 <1>   0.0800 
 36 H        1.8790    -1.1920     0.0870 H     1 <1>   0.0800 
 37 H        2.9820    -1.5180    -1.1170 H     1 <1>   0.0800 
 38 H        4.3240    -0.3660    -1.9530 H     1 <1>   0.0800 
 39 H        5.2330     0.8250    -1.3140 H     1 <1>   0.0800 
 40 H        2.8380     4.1190     0.7360 H     1 <1>   0.0800 
 41 H        2.6090     2.8470    -0.4540 H     1 <1>   0.0800 
 42 H        4.7880     3.1880     1.4610 H     1 <1>   0.4500 
 43 H        1.1760    -0.5320    -1.9930 H     1 <1>   0.4000 
 44 H        6.2470     2.9980    -0.4480 H     1 <1>   0.0800 
 45 H        4.8230     2.9100    -1.4610 H     1 <1>   0.0800 
 46 H        4.5920    -1.8450     1.1670 H     1 <1>   0.1500 
 47 H        7.0760    -0.5900    -2.0980 H     1 <1>   0.1500 
 48 H        6.3010    -3.4240     1.8410 H     1 <1>   0.1500 
 49 H        8.7770    -2.1910    -1.3910 H     1 <1>   0.1500 
 50 H        3.6800     4.9340    -2.0930 H     1 <1>   0.1500 
 51 H        6.5320     5.1010     1.0590 H     1 <1>   0.1500 
 52 H        8.4010    -3.6090     0.5800 H     1 <1>   0.1500 
 53 H        4.2530    10.1290    -1.9200 H     1 <1>   0.0800 
 54 H        3.0580     8.8810    -1.7140 H     1 <1>   0.0800 
 55 H        6.3210     9.1050     1.0190 H     1 <1>   0.0800 
 56 H        6.2080    10.2690    -0.2660 H     1 <1>   0.0800 
 57 H        2.2240    11.0460    -0.8980 H     1 <1>   0.0800 
 58 H        2.2940     9.8540     0.3650 H     1 <1>   0.0800 
 59 H        4.3150     9.9820     2.0700 H     1 <1>   0.0800 
 60 H        5.4760    11.2570     1.8550 H     1 <1>   0.0800 
 61 H        3.1660    11.9730     1.2230 H     1 <1>   0.0800 
 62 H        4.2850    12.0900    -0.1090 H     1 <1>   0.0800 
@<TRIPOS>BOND
  1   1   2  1   
  2   1  30  1   
  3   2   3  1   
  4   2   4  1   
  5   2  31  1   
  6   3   5  1   
  7   3   6  1   
  8   3   7  1   
  9   4   8  1   
 10   4  32  1   
 11   4  33  1   
 12   5   9  1   
 13   5  34  1   
 14   5  35  1   
 15   6  10  1   
 16   6  36  1   
 17   6  37  1   
 18   7  11  1   
 19   7  38  1   
 20   7  39  1   
 21   8   9  1   
 22   8  40  1   
 23   8  41  1   
 24   9  12  1   
 25   9  42  1   
 26  10  43  1   
 27  11  13  ar  
 28  11  14  ar  
 29  12  15  1   
 30  12  44  1   
 31  12  45  1   
 32  13  16  ar  
 33  13  46  1   
 34  14  17  ar  
 35  14  47  1   
 36  15  18  ar  
 37  15  19  ar  
 38  16  20  ar  
 39  16  48  1   
 40  17  20  ar  
 41  17  49  1   
 42  18  21  ar  
 43  18  50  1   
 44  19  22  ar  
 45  19  51  1   
 46  20  52  1   
 47  21  23  ar  
 48  22  23  ar  
 49  23  24  1   
 50  24  25  1   
 51  24  26  1   
 52  25  27  1   
 53  25  53  1   
 54  25  54  1   
 55  26  28  1   
 56  26  55  1   
 57  26  56  1   
 58  27  29  1   
 59  27  57  1   
 60  27  58  1   
 61  28  29  1   
 62  28  59  1   
 63  28  60  1   
 64  29  61  1   
 65  29  62  1   
@<TRIPOS>SUBSTRUCTURE
  1 ****  12 GROUP 4 **** **** 0

# MOE 2024.06 (io_trps.svl 2023.06)
