@<TRIPOS>MOLECULE
NONAME
49 52 1 0 0 
SMALL
USER_CHARGES


@<TRIPOS>ATOM
  1 N        0.9730     0.5260     1.4860 N.ar  1 <1>  -0.6200 
  2 C        0.1460     1.4630     1.9350 C.ar  1 <1>   0.4760 
  3 C        1.5110     0.8040     0.3210 C.ar  1 <1>   0.1660 
  4 N       -0.1700     2.6140     1.3580 N.ar  1 <1>  -0.6200 
  5 C       -0.5160     1.1960     3.2660 C.3   1 <1>  -0.0960 
  6 C        1.2660     1.9520    -0.3670 C.ar  1 <1>  -0.1430 
  7 C        2.4810    -0.0940    -0.4070 C.3   1 <1>   0.1430 
  8 C        0.3980     2.8560     0.1940 C.ar  1 <1>   0.1600 
  9 C        2.0350     2.0000    -1.6630 C.3   1 <1>  -0.0160 
 10 C        3.5480    -0.5720     0.5940 C.3   1 <1>   0.3430 
 11 C        1.7330    -1.3000    -1.0120 C.3   1 <1>  -0.1600 
 12 C        3.0490     0.8490    -1.5030 C.3   1 <1>  -0.1600 
 13 N        4.4900    -1.5840    -0.0120 N.4   1 <1>  -0.9590 
 14 C        2.7030    -2.3760    -1.5340 C.3   1 <1>  -0.1600 
 15 C        3.7280    -2.7840    -0.4730 C.3   1 <1>   0.3430 
 16 C        5.5520    -1.9980     0.9510 C.3   1 <1>   0.3430 
 17 C        6.5570    -0.8760     1.2210 C.3   1 <1>  -0.1600 
 18 C        7.3450    -0.4500    -0.0300 C.3   1 <1>   0.0960 
 19 N        8.4940     0.3870     0.3520 N.pl3 1 <1>   0.3140 
 20 N        9.5910    -0.1580     0.9000 N.2   1 <1>  -0.7070 
 21 C        8.6150     1.7240     0.2320 C.2   1 <1>  -0.3020 
 22 C       10.3890     0.8430     1.1140 C.2   1 <1>   0.1390 
 23 C        9.8320     2.0520     0.7150 C.2   1 <1>  -0.1500 
 24 H       -0.3580     0.1790     3.5730 H     1 <1>   0.0800 
 25 H       -1.5720     1.3750     3.1840 H     1 <1>   0.0800 
 26 H       -0.1060     1.8570     4.0060 H     1 <1>   0.0800 
 27 H        0.1640     3.7800    -0.3060 H     1 <1>   0.1500 
 28 H        2.5240     2.9490    -1.8030 H     1 <1>   0.0800 
 29 H        1.3650     1.8110    -2.4850 H     1 <1>   0.0800 
 30 H        3.0430    -1.0130     1.4390 H     1 <1>   0.0800 
 31 H        4.0930     0.2850     0.9520 H     1 <1>   0.0800 
 32 H        1.0790    -0.9740    -1.8030 H     1 <1>   0.0800 
 33 H        1.1110    -1.7400    -0.2490 H     1 <1>   0.0800 
 34 H        3.2180     0.3530    -2.4420 H     1 <1>   0.0800 
 35 H        3.9790     1.2760    -1.1680 H     1 <1>   0.0800 
 36 H        4.9240    -1.1650    -0.8420 H     1 <1>   0.4500 
 37 H        3.2140    -2.0290    -2.4150 H     1 <1>   0.0800 
 38 H        2.1370    -3.2460    -1.8210 H     1 <1>   0.0800 
 39 H        3.2170    -3.2350     0.3630 H     1 <1>   0.0800 
 40 H        4.4030    -3.5150    -0.8900 H     1 <1>   0.0800 
 41 H        6.0870    -2.8470     0.5560 H     1 <1>   0.0800 
 42 H        5.0990    -2.3010     1.8820 H     1 <1>   0.0800 
 43 H        7.2600    -1.2560     1.9440 H     1 <1>   0.0800 
 44 H        6.0750    -0.0250     1.6690 H     1 <1>   0.0800 
 45 H        6.7270     0.1070    -0.7090 H     1 <1>   0.0800 
 46 H        7.7360    -1.3130    -0.5380 H     1 <1>   0.0800 
 47 H        7.8550     2.3600    -0.1810 H     1 <1>   0.1500 
 48 H       11.3690     0.7390     1.5510 H     1 <1>   0.1500 
 49 H       10.2980     3.0190     0.7900 H     1 <1>   0.1500 
@<TRIPOS>BOND
  1   1   2  ar  
  2   1   3  ar  
  3   2   4  ar  
  4   2   5  1   
  5   3   6  ar  
  6   3   7  1   
  7   4   8  ar  
  8   5  24  1   
  9   5  25  1   
 10   5  26  1   
 11   6   8  ar  
 12   6   9  1   
 13   7  10  1   
 14   7  11  1   
 15   7  12  1   
 16   8  27  1   
 17   9  12  1   
 18   9  28  1   
 19   9  29  1   
 20  10  13  1   
 21  10  30  1   
 22  10  31  1   
 23  11  14  1   
 24  11  32  1   
 25  11  33  1   
 26  12  34  1   
 27  12  35  1   
 28  13  15  1   
 29  13  16  1   
 30  13  36  1   
 31  14  15  1   
 32  14  37  1   
 33  14  38  1   
 34  15  39  1   
 35  15  40  1   
 36  16  17  1   
 37  16  41  1   
 38  16  42  1   
 39  17  18  1   
 40  17  43  1   
 41  17  44  1   
 42  18  19  1   
 43  18  45  1   
 44  18  46  1   
 45  19  20  1   
 46  19  21  1   
 47  20  22  2   
 48  21  23  2   
 49  21  47  1   
 50  22  23  1   
 51  22  48  1   
 52  23  49  1   
@<TRIPOS>SUBSTRUCTURE
  1 ****  10 GROUP 4 **** **** 0

# MOE 2024.06 (io_trps.svl 2023.06)
