@<TRIPOS>MOLECULE
NONAME
35 35 1 0 0 
SMALL
USER_CHARGES


@<TRIPOS>ATOM
  1 S        0.3470     0.9940    -0.0970 S.3   1 <1>  -0.4600 
  2 C        2.0990     1.0190     0.4420 C.3   1 <1>   0.2110 
  3 C       -0.2690    -0.6080     0.4910 C.3   1 <1>  -0.0100 
  4 C        2.6190     2.4590     0.5450 C.2   1 <1>   0.5690 
  5 C        2.8890     0.1740    -0.5640 C.3   1 <1>  -0.2400 
  6 O        3.6080     2.6620     1.2100 O.2   1 <1>  -0.5700 
  7 N        1.9420     3.4470    -0.1160 N.am  1 <1>  -0.4940 
  8 C        2.1370     4.8490    -0.1840 C.2   1 <1>  -0.0880 
  9 N        3.3090     5.5480    -0.2380 N.pl3 1 <1>   0.3140 
 10 C        1.1480     5.7700    -0.2390 C.2   1 <1>  -0.1500 
 11 N        3.0760     6.8810    -0.3350 N.2   1 <1>  -0.7070 
 12 C        4.6950     5.0410    -0.3380 C.3   1 <1>   0.0960 
 13 C        1.7890     6.9970    -0.3260 C.2   1 <1>   0.1080 
 14 C        5.4810     5.3100     0.9540 C.3   1 <1>  -0.1600 
 15 C        1.1020     8.3400    -0.4070 C.3   1 <1>  -0.0590 
 16 C        6.9030     4.7430     0.8710 C.3   1 <1>  -0.2400 
 17 H        2.1300     0.5720     1.4190 H     1 <1>   0.0800 
 18 H       -1.3160    -0.6630     0.2520 H     1 <1>   0.0800 
 19 H       -0.1180    -0.6550     1.5550 H     1 <1>   0.0800 
 20 H        0.2760    -1.3860    -0.0130 H     1 <1>   0.0800 
 21 H        2.8050     0.5950    -1.5510 H     1 <1>   0.0800 
 22 H        2.5250    -0.8370    -0.5800 H     1 <1>   0.0800 
 23 H        3.9280     0.1580    -0.2860 H     1 <1>   0.0800 
 24 H        1.0550     3.1160    -0.5120 H     1 <1>   0.3700 
 25 H        0.0860     5.6100    -0.2200 H     1 <1>   0.1500 
 26 H        5.1690     5.5460    -1.1590 H     1 <1>   0.0800 
 27 H        4.6730     3.9920    -0.5590 H     1 <1>   0.0800 
 28 H        4.9680     4.8560     1.7850 H     1 <1>   0.0800 
 29 H        5.5290     6.3720     1.1250 H     1 <1>   0.0800 
 30 H        0.0350     8.2190    -0.3840 H     1 <1>   0.0800 
 31 H        1.3840     8.8310    -1.3200 H     1 <1>   0.0800 
 32 H        1.4070     8.9470     0.4250 H     1 <1>   0.0800 
 33 H        6.8710     3.6770     0.7280 H     1 <1>   0.0800 
 34 H        7.4320     4.9480     1.7850 H     1 <1>   0.0800 
 35 H        7.4410     5.1910     0.0550 H     1 <1>   0.0800 
@<TRIPOS>BOND
  1   1   2  1   
  2   1   3  1   
  3   2   4  1   
  4   2   5  1   
  5   2  17  1   
  6   3  18  1   
  7   3  19  1   
  8   3  20  1   
  9   4   6  2   
 10   4   7  am  
 11   5  21  1   
 12   5  22  1   
 13   5  23  1   
 14   7   8  1   
 15   7  24  1   
 16   8   9  1   
 17   8  10  2   
 18   9  11  1   
 19   9  12  1   
 20  10  13  1   
 21  10  25  1   
 22  11  13  2   
 23  12  14  1   
 24  12  26  1   
 25  12  27  1   
 26  13  15  1   
 27  14  16  1   
 28  14  28  1   
 29  14  29  1   
 30  15  30  1   
 31  15  31  1   
 32  15  32  1   
 33  16  33  1   
 34  16  34  1   
 35  16  35  1   
@<TRIPOS>SUBSTRUCTURE
  1 ****   7 GROUP 4 **** **** 0

# MOE 2024.06 (io_trps.svl 2023.06)
