@<TRIPOS>MOLECULE
NONAME
44 47 1 0 0 
SMALL
USER_CHARGES


@<TRIPOS>ATOM
  1 O        0.0850    -0.3480    -0.5140 O.3   1 <1>  -0.5600 
  2 C        0.3650    -1.7220    -0.4410 C.3   1 <1>   0.1200 
  3 C        1.1460     0.4580    -0.9450 C.3   1 <1>   0.1200 
  4 C        1.5610    -1.9870     0.5000 C.3   1 <1>   0.5180 
  5 C        2.3790     0.2820    -0.0270 C.3   1 <1>   0.4230 
  6 N        2.7530    -1.1750     0.1110 N.4   1 <1>  -0.9590 
  7 C        1.9340    -3.4730     0.5590 C.3   1 <1>  -0.1950 
  8 C        3.5790     1.1370    -0.5140 C.3   1 <1>   0.1100 
  9 C        3.5100    -1.6620    -1.0930 C.3   1 <1>   0.3430 
 10 C        1.3700    -4.3470     1.6360 C.3   1 <1>  -0.2000 
 11 C        2.8340    -4.0160     1.6270 C.3   1 <1>  -0.2000 
 12 N        4.8570     0.3820    -0.4760 N.3   1 <1>  -0.8100 
 13 C        4.7810    -0.8130    -1.3480 C.3   1 <1>   0.1100 
 14 C        6.0230     1.2240    -0.8100 C.3   1 <1>   0.2530 
 15 C        6.1760     2.3450     0.2050 C.ar  1 <1>  -0.1430 
 16 C        6.1000     3.6780    -0.1510 C.ar  1 <1>  -0.1500 
 17 C        6.3940     2.0840     1.5430 C.ar  1 <1>  -0.1500 
 18 C        6.2330     4.6540     0.8220 C.ar  1 <1>   0.1600 
 19 C        6.5140     3.1350     2.4370 C.ar  1 <1>   0.1600 
 20 N        6.4330     4.4130     2.1080 N.ar  1 <1>  -0.6200 
 21 H       -0.5140    -2.2140    -0.0620 H     1 <1>   0.0800 
 22 H        0.5590    -2.0880    -1.4330 H     1 <1>   0.0800 
 23 H        1.3780     0.2040    -1.9640 H     1 <1>   0.0800 
 24 H        0.8080     1.4790    -0.9160 H     1 <1>   0.0800 
 25 H        1.2580    -1.6880     1.4900 H     1 <1>   0.0800 
 26 H        2.0990     0.6550     0.9450 H     1 <1>   0.0800 
 27 H        3.4390    -1.2000     0.8750 H     1 <1>   0.4500 
 28 H        1.9790    -3.9290    -0.4160 H     1 <1>   0.1000 
 29 H        3.6420     2.0050     0.1210 H     1 <1>   0.0800 
 30 H        3.4020     1.4900    -1.5160 H     1 <1>   0.0800 
 31 H        3.8060    -2.6890    -0.9560 H     1 <1>   0.0800 
 32 H        2.8780    -1.6180    -1.9640 H     1 <1>   0.0800 
 33 H        0.7610    -3.9240     2.4190 H     1 <1>   0.1000 
 34 H        1.0750    -5.3550     1.3960 H     1 <1>   0.1000 
 35 H        3.5270    -4.8060     1.3850 H     1 <1>   0.1000 
 36 H        3.2050    -3.3780     2.4120 H     1 <1>   0.1000 
 37 H        4.8000    -0.5170    -2.3840 H     1 <1>   0.0800 
 38 H        5.6470    -1.4290    -1.1730 H     1 <1>   0.0800 
 39 H        6.9180     0.6240    -0.7910 H     1 <1>   0.0800 
 40 H        5.9150     1.6320    -1.8010 H     1 <1>   0.0800 
 41 H        5.9400     3.9700    -1.1720 H     1 <1>   0.1500 
 42 H        6.4700     1.0710     1.8950 H     1 <1>   0.1500 
 43 H        6.1730     5.6890     0.5290 H     1 <1>   0.1500 
 44 H        6.6850     2.9130     3.4770 H     1 <1>   0.1500 
@<TRIPOS>BOND
  1   1   2  1   
  2   1   3  1   
  3   2   4  1   
  4   2  21  1   
  5   2  22  1   
  6   3   5  1   
  7   3  23  1   
  8   3  24  1   
  9   4   6  1   
 10   4   7  1   
 11   4  25  1   
 12   5   6  1   
 13   5   8  1   
 14   5  26  1   
 15   6   9  1   
 16   6  27  1   
 17   7  10  1   
 18   7  11  1   
 19   7  28  1   
 20   8  12  1   
 21   8  29  1   
 22   8  30  1   
 23   9  13  1   
 24   9  31  1   
 25   9  32  1   
 26  10  11  1   
 27  10  33  1   
 28  10  34  1   
 29  11  35  1   
 30  11  36  1   
 31  12  13  1   
 32  12  14  1   
 33  13  37  1   
 34  13  38  1   
 35  14  15  1   
 36  14  39  1   
 37  14  40  1   
 38  15  16  ar  
 39  15  17  ar  
 40  16  18  ar  
 41  16  41  1   
 42  17  19  ar  
 43  17  42  1   
 44  18  20  ar  
 45  18  43  1   
 46  19  20  ar  
 47  19  44  1   
@<TRIPOS>SUBSTRUCTURE
  1 ****   8 GROUP 4 **** **** 0

# MOE 2024.06 (io_trps.svl 2023.06)
