@<TRIPOS>MOLECULE
NONAME
58 60 1 0 0 
SMALL
USER_CHARGES


@<TRIPOS>ATOM
  1 O       -0.9310     0.6720    -1.2810 O.2   1 <1>  -0.5700 
  2 C       -1.8270     1.4700    -1.0690 C.2   1 <1>   0.5440 
  3 N       -3.1240     1.0710    -1.3280 N.am  1 <1>  -0.6600 
  4 C       -1.5250     2.7830    -0.5530 C.ar  1 <1>   0.0860 
  5 C       -3.3810    -0.2850    -1.8720 C.3   1 <1>   0.1400 
  6 C       -4.2880     1.6480    -0.6030 C.3   1 <1>   0.1400 
  7 C       -1.3450     3.0080     0.8170 C.ar  1 <1>   0.0830 
  8 C       -1.4230     3.8670    -1.4240 C.ar  1 <1>  -0.1500 
  9 C       -3.6380    -1.2290    -0.6800 C.3   1 <1>   0.4230 
 10 C       -4.6160     0.7290     0.5830 C.3   1 <1>  -0.1600 
 11 O       -1.4740     1.9450     1.6540 O.3   1 <1>  -0.3630 
 12 C       -1.0510     4.2860     1.2840 C.ar  1 <1>  -0.1500 
 13 C       -1.1520     5.1380    -0.9610 C.ar  1 <1>   0.0830 
 14 N       -3.6710    -2.7040    -1.0550 N.4   1 <1>  -0.9590 
 15 C       -4.8490    -0.7600     0.1850 C.3   1 <1>   0.0000 
 16 C       -1.0800     2.0140     3.0070 C.3   1 <1>   0.0400 
 17 C       -0.9360     5.3480     0.4060 C.ar  1 <1>   0.0830 
 18 O       -1.1120     6.1410    -1.8740 O.3   1 <1>  -0.3620 
 19 C       -4.3130    -3.5820    -0.0250 C.3   1 <1>   0.3430 
 20 C       -4.2220    -3.0130    -2.4140 C.3   1 <1>   0.2630 
 21 C       -4.9130    -1.6200     1.4830 C.3   1 <1>  -0.1600 
 22 C       -6.1700    -0.8970    -0.6240 C.3   1 <1>   0.1200 
 23 O       -0.6140     6.5520     0.9280 O.3   1 <1>  -0.3630 
 24 C       -2.1470     7.0960    -1.7890 C.3   1 <1>   0.0400 
 25 C       -4.1850    -2.9730     1.3710 C.3   1 <1>  -0.1600 
 26 O       -7.2420    -0.3240     0.0400 O.3   1 <1>  -0.6800 
 27 C        0.5980     7.1380     0.5040 C.3   1 <1>   0.0400 
 28 H       -4.2230    -0.2380    -2.5380 H     1 <1>   0.0800 
 29 H       -2.5280    -0.6220    -2.4340 H     1 <1>   0.0800 
 30 H       -4.0650     2.6390    -0.2450 H     1 <1>   0.0800 
 31 H       -5.1300     1.7230    -1.2700 H     1 <1>   0.0800 
 32 H       -1.5630     3.7110    -2.4780 H     1 <1>   0.1500 
 33 H       -2.7750    -1.1030    -0.0450 H     1 <1>   0.0800 
 34 H       -3.7900     0.7940     1.2700 H     1 <1>   0.0800 
 35 H       -5.4710     1.1260     1.1020 H     1 <1>   0.0800 
 36 H       -0.9040     4.4880     2.3270 H     1 <1>   0.1500 
 37 H       -2.6740    -2.9710    -1.0740 H     1 <1>   0.4500 
 38 H       -1.1780     1.0330     3.4360 H     1 <1>   0.0800 
 39 H       -1.7210     2.7040     3.5260 H     1 <1>   0.0800 
 40 H       -0.0530     2.3310     3.0570 H     1 <1>   0.0800 
 41 H       -5.3600    -3.7010    -0.2490 H     1 <1>   0.0800 
 42 H       -3.8570    -4.5590    -0.0410 H     1 <1>   0.0800 
 43 H       -5.2540    -2.7090    -2.4820 H     1 <1>   0.0800 
 44 H       -4.1630    -4.0710    -2.6090 H     1 <1>   0.0800 
 45 H       -3.6600    -2.4990    -3.1770 H     1 <1>   0.0800 
 46 H       -4.4730    -1.0890     2.3110 H     1 <1>   0.0800 
 47 H       -5.9380    -1.7980     1.7590 H     1 <1>   0.0800 
 48 H       -6.4190    -1.9280    -0.8030 H     1 <1>   0.0800 
 49 H       -6.1040    -0.3950    -1.5720 H     1 <1>   0.0800 
 50 H       -2.0350     7.7860    -2.6060 H     1 <1>   0.0800 
 51 H       -2.0740     7.6210    -0.8540 H     1 <1>   0.0800 
 52 H       -3.0940     6.5910    -1.8610 H     1 <1>   0.0800 
 53 H       -4.5980    -3.6560     2.0950 H     1 <1>   0.0800 
 54 H       -3.1420    -2.8550     1.6100 H     1 <1>   0.0800 
 55 H       -7.4260    -0.7610     0.8940 H     1 <1>   0.4000 
 56 H        0.7940     7.9930     1.1260 H     1 <1>   0.0800 
 57 H        0.5080     7.4460    -0.5210 H     1 <1>   0.0800 
 58 H        1.3890     6.4160     0.6090 H     1 <1>   0.0800 
@<TRIPOS>BOND
  1   1   2  2   
  2   2   3  am  
  3   2   4  1   
  4   3   5  1   
  5   3   6  1   
  6   4   7  ar  
  7   4   8  ar  
  8   5   9  1   
  9   5  28  1   
 10   5  29  1   
 11   6  10  1   
 12   6  30  1   
 13   6  31  1   
 14   7  11  1   
 15   7  12  ar  
 16   8  13  ar  
 17   8  32  1   
 18   9  14  1   
 19   9  15  1   
 20   9  33  1   
 21  10  15  1   
 22  10  34  1   
 23  10  35  1   
 24  11  16  1   
 25  12  17  ar  
 26  12  36  1   
 27  13  17  ar  
 28  13  18  1   
 29  14  19  1   
 30  14  20  1   
 31  14  37  1   
 32  15  21  1   
 33  15  22  1   
 34  16  38  1   
 35  16  39  1   
 36  16  40  1   
 37  17  23  1   
 38  18  24  1   
 39  19  25  1   
 40  19  41  1   
 41  19  42  1   
 42  20  43  1   
 43  20  44  1   
 44  20  45  1   
 45  21  25  1   
 46  21  46  1   
 47  21  47  1   
 48  22  26  1   
 49  22  48  1   
 50  22  49  1   
 51  23  27  1   
 52  24  50  1   
 53  24  51  1   
 54  24  52  1   
 55  25  53  1   
 56  25  54  1   
 57  26  55  1   
 58  27  56  1   
 59  27  57  1   
 60  27  58  1   
@<TRIPOS>SUBSTRUCTURE
  1 ****   2 GROUP 4 **** **** 0

# MOE 2024.06 (io_trps.svl 2023.06)
