@<TRIPOS>MOLECULE
NONAME
56 59 1 0 0 
SMALL
USER_CHARGES


@<TRIPOS>ATOM
  1 O        0.6920     0.4570    -0.2450 O.2   1 <1>  -0.5700 
  2 C        0.4990     1.6260    -0.0110 C.2   1 <1>   0.5690 
  3 N       -0.7610     2.1690     0.0600 N.am  1 <1>  -0.6600 
  4 C        1.7360     2.4900     0.1810 C.3   1 <1>  -0.0990 
  5 C       -1.9620     1.2920    -0.1410 C.3   1 <1>   0.2200 
  6 C       -1.0010     3.5900     0.4660 C.3   1 <1>   0.1400 
  7 C        1.4660     3.8480     0.8430 C.3   1 <1>  -0.1600 
  8 C       -2.8810     1.8280    -1.2420 C.3   1 <1>  -0.1600 
  9 C       -2.8350     1.2230     1.1120 C.3   1 <1>  -0.1600 
 10 C        0.2180     4.4890     0.2170 C.3   1 <1>  -0.0190 
 11 C       -4.0970     2.4760    -0.5630 C.3   1 <1>  -0.1600 
 12 C       -3.9270     2.2820     0.9460 C.3   1 <1>  -0.1600 
 13 C       -0.0140     5.8980     0.7510 C.2   1 <1>   0.5690 
 14 O       -0.8630     6.0880     1.5870 O.2   1 <1>  -0.5700 
 15 N        0.7840     6.8910     0.2530 N.am  1 <1>  -0.4940 
 16 C        0.8940     8.2650     0.5600 C.2   1 <1>  -0.0880 
 17 N       -0.0660     9.1280     0.9940 N.pl3 1 <1>   0.3140 
 18 C        2.0410     8.9890     0.4290 C.2   1 <1>  -0.0540 
 19 N        0.4290    10.3760     1.1410 N.2   1 <1>  -0.7070 
 20 C       -1.4960     8.8900     1.2290 C.3   1 <1>   0.0160 
 21 C        3.3330     8.5220    -0.0020 C.ar  1 <1>   0.0540 
 22 C        1.6740    10.2830     0.8110 C.2   1 <1>   0.1080 
 23 C        4.0080     7.5390     0.7170 C.ar  1 <1>  -0.1500 
 24 C        3.9360     9.0260    -1.1510 C.ar  1 <1>  -0.1500 
 25 C        2.6040    11.4750     0.8540 C.3   1 <1>  -0.0590 
 26 C        5.2430     7.0720     0.3030 C.ar  1 <1>  -0.1500 
 27 C        5.1700     8.5640    -1.5690 C.ar  1 <1>  -0.1500 
 28 C        5.8260     7.5850    -0.8430 C.ar  1 <1>  -0.1500 
 29 H        2.1660     2.6460    -0.7910 H     1 <1>   0.0800 
 30 H        2.4500     1.9420     0.7670 H     1 <1>   0.0800 
 31 H       -1.6440     0.2960    -0.4020 H     1 <1>   0.0800 
 32 H       -1.2470     3.6030     1.5150 H     1 <1>   0.0800 
 33 H       -1.8360     3.9950    -0.0760 H     1 <1>   0.0800 
 34 H        2.3260     4.4840     0.7240 H     1 <1>   0.0800 
 35 H        1.2990     3.7060     1.8980 H     1 <1>   0.0800 
 36 H       -3.2210     0.9960    -1.8340 H     1 <1>   0.0800 
 37 H       -2.3660     2.5110    -1.8930 H     1 <1>   0.0800 
 38 H       -2.2650     1.3460     2.0160 H     1 <1>   0.0800 
 39 H       -3.3040     0.2550     1.1360 H     1 <1>   0.0800 
 40 H        0.3540     4.5660    -0.8470 H     1 <1>   0.0800 
 41 H       -4.9980     1.9880    -0.8950 H     1 <1>   0.0800 
 42 H       -4.1650     3.5220    -0.8050 H     1 <1>   0.0800 
 43 H       -3.6110     3.2060     1.3980 H     1 <1>   0.0800 
 44 H       -4.8470     1.9740     1.4130 H     1 <1>   0.0800 
 45 H        1.5280     6.5650    -0.3670 H     1 <1>   0.3700 
 46 H       -1.8740     8.2200     0.4810 H     1 <1>   0.0800 
 47 H       -2.0220     9.8250     1.1750 H     1 <1>   0.0800 
 48 H       -1.6220     8.4620     2.2050 H     1 <1>   0.0800 
 49 H        3.5570     7.1480     1.6120 H     1 <1>   0.1500 
 50 H        3.4270     9.7850    -1.7180 H     1 <1>   0.1500 
 51 H        3.6040    11.1610     1.0900 H     1 <1>   0.0800 
 52 H        2.2700    12.1650     1.6070 H     1 <1>   0.0800 
 53 H        2.6000    11.9700    -0.0980 H     1 <1>   0.0800 
 54 H        5.7530     6.3150     0.8720 H     1 <1>   0.1500 
 55 H        5.6230     8.9650    -2.4600 H     1 <1>   0.1500 
 56 H        6.7880     7.2260    -1.1670 H     1 <1>   0.1500 
@<TRIPOS>BOND
  1   1   2  2   
  2   2   3  am  
  3   2   4  1   
  4   3   5  1   
  5   3   6  1   
  6   4   7  1   
  7   4  29  1   
  8   4  30  1   
  9   5   8  1   
 10   5   9  1   
 11   5  31  1   
 12   6  10  1   
 13   6  32  1   
 14   6  33  1   
 15   7  10  1   
 16   7  34  1   
 17   7  35  1   
 18   8  11  1   
 19   8  36  1   
 20   8  37  1   
 21   9  12  1   
 22   9  38  1   
 23   9  39  1   
 24  10  13  1   
 25  10  40  1   
 26  11  12  1   
 27  11  41  1   
 28  11  42  1   
 29  12  43  1   
 30  12  44  1   
 31  13  14  2   
 32  13  15  am  
 33  15  16  1   
 34  15  45  1   
 35  16  17  1   
 36  16  18  2   
 37  17  19  1   
 38  17  20  1   
 39  18  21  1   
 40  18  22  1   
 41  19  22  2   
 42  20  46  1   
 43  20  47  1   
 44  20  48  1   
 45  21  23  ar  
 46  21  24  ar  
 47  22  25  1   
 48  23  26  ar  
 49  23  49  1   
 50  24  27  ar  
 51  24  50  1   
 52  25  51  1   
 53  25  52  1   
 54  25  53  1   
 55  26  28  ar  
 56  26  54  1   
 57  27  28  ar  
 58  27  55  1   
 59  28  56  1   
@<TRIPOS>SUBSTRUCTURE
  1 ****  13 GROUP 4 **** **** 0

# MOE 2024.06 (io_trps.svl 2023.06)
