@<TRIPOS>MOLECULE
NONAME
42 44 1 0 0 
SMALL
USER_CHARGES


@<TRIPOS>ATOM
  1 F        1.6970     2.2950    -3.2720 F     1 <1>  -0.1900 
  2 C        2.3730     3.1710    -2.5750 C.ar  1 <1>   0.1900 
  3 C        1.8020     3.6870    -1.3850 C.ar  1 <1>   0.3100 
  4 C        3.6010     3.5370    -3.0520 C.ar  1 <1>  -0.1500 
  5 N        0.5670     3.2830    -0.9810 N.ar  1 <1>  -0.6200 
  6 C        2.5660     4.6330    -0.6570 C.ar  1 <1>   0.0000 
  7 C        4.3170     4.4710    -2.3100 C.ar  1 <1>   0.1900 
  8 C        0.0900     3.7870     0.1170 C.ar  1 <1>   0.1660 
  9 C        2.0060     5.1690     0.5280 C.ar  1 <1>   0.1000 
 10 C        3.8360     5.0120    -1.1500 C.ar  1 <1>  -0.1500 
 11 F        5.4890     4.8380    -2.7530 F     1 <1>  -0.1900 
 12 C        0.7660     4.7220     0.8960 C.ar  1 <1>  -0.1500 
 13 C       -1.2810     3.3030     0.5430 C.3   1 <1>  -0.0960 
 14 N        2.6830     6.1120     1.2810 N.pl3 1 <1>  -0.8690 
 15 C        2.0880     7.4440     1.5550 C.3   1 <1>   0.2890 
 16 C        2.0770     8.2770     0.2590 C.3   1 <1>   0.1400 
 17 C        3.0360     8.2000     2.4900 C.3   1 <1>  -0.0990 
 18 N        3.3750     8.9780     0.2910 N.am  1 <1>  -0.6600 
 19 C        3.9180     8.9490     1.5300 C.2   1 <1>   0.5690 
 20 C        3.9440     9.6480    -0.8990 C.3   1 <1>   0.1400 
 21 O        4.9690     9.4440     1.8540 O.2   1 <1>  -0.5700 
 22 C        4.5180     8.6020    -1.8580 C.3   1 <1>  -0.1600 
 23 C        5.1350     9.2590    -3.0970 C.3   1 <1>  -0.2400 
 24 H        4.0080     3.1300    -3.9590 H     1 <1>   0.1500 
 25 H        4.4330     5.7290    -0.6190 H     1 <1>   0.1500 
 26 H        0.3130     5.0870     1.7970 H     1 <1>   0.1500 
 27 H       -1.9960     3.5280    -0.2280 H     1 <1>   0.0800 
 28 H       -1.5940     3.7710     1.4570 H     1 <1>   0.0800 
 29 H       -1.2550     2.2390     0.6880 H     1 <1>   0.0800 
 30 H        3.6860     6.2030     1.0840 H     1 <1>   0.4000 
 31 H        1.1020     7.3310     1.9730 H     1 <1>   0.0800 
 32 H        1.2840     9.0040     0.2840 H     1 <1>   0.0800 
 33 H        1.9770     7.6570    -0.6140 H     1 <1>   0.0800 
 34 H        3.6020     7.5450     3.1270 H     1 <1>   0.0800 
 35 H        2.4960     8.9130     3.0820 H     1 <1>   0.0800 
 36 H        4.7270    10.3190    -0.5860 H     1 <1>   0.0800 
 37 H        3.1770    10.2260    -1.3860 H     1 <1>   0.0800 
 38 H        3.7400     7.9290    -2.1730 H     1 <1>   0.0800 
 39 H        5.2790     8.0380    -1.3470 H     1 <1>   0.0800 
 40 H        4.3930     9.8210    -3.6370 H     1 <1>   0.0800 
 41 H        5.5370     8.5050    -3.7500 H     1 <1>   0.0800 
 42 H        5.9340     9.9220    -2.8110 H     1 <1>   0.0800 
@<TRIPOS>BOND
  1   1   2  1   
  2   2   3  ar  
  3   2   4  ar  
  4   3   5  ar  
  5   3   6  ar  
  6   4   7  ar  
  7   4  24  1   
  8   5   8  ar  
  9   6   9  ar  
 10   6  10  ar  
 11   7  10  ar  
 12   7  11  1   
 13   8  12  ar  
 14   8  13  1   
 15   9  12  ar  
 16   9  14  1   
 17  10  25  1   
 18  12  26  1   
 19  13  27  1   
 20  13  28  1   
 21  13  29  1   
 22  14  15  1   
 23  14  30  1   
 24  15  16  1   
 25  15  17  1   
 26  15  31  1   
 27  16  18  1   
 28  16  32  1   
 29  16  33  1   
 30  17  19  1   
 31  17  34  1   
 32  17  35  1   
 33  18  19  am  
 34  18  20  1   
 35  19  21  2   
 36  20  22  1   
 37  20  36  1   
 38  20  37  1   
 39  22  23  1   
 40  22  38  1   
 41  22  39  1   
 42  23  40  1   
 43  23  41  1   
 44  23  42  1   
@<TRIPOS>SUBSTRUCTURE
  1 ****   6 GROUP 4 **** **** 0

# MOE 2024.06 (io_trps.svl 2023.06)
