@<TRIPOS>MOLECULE
NONAME
41 42 1 0 0 
SMALL
USER_CHARGES


@<TRIPOS>ATOM
  1 O        3.3690     0.1700     1.3940 O.2   1 <1>  -0.5700 
  2 C        2.9440    -0.5230     0.4720 C.2   1 <1>   0.6160 
  3 N        2.6900    -1.8760     0.7180 N.am  1 <1>  -0.4690 
  4 C        2.7090     0.0200    -0.8400 C.2   1 <1>   0.0290 
  5 C        2.2520    -2.7020    -0.2990 C.2   1 <1>  -0.0290 
  6 C        2.9170    -2.4340     2.0900 C.3   1 <1>   0.0600 
  7 C        2.9340     1.4210    -1.1300 C.2   1 <1>   0.6160 
  8 C        2.2670    -0.8390    -1.8170 C.2   1 <1>  -0.1500 
  9 C        2.0430    -2.1980    -1.5450 C.2   1 <1>  -0.1500 
 10 C        2.0070    -4.1800    -0.0250 C.3   1 <1>  -0.1020 
 11 O        2.8890     1.8030    -2.2860 O.2   1 <1>  -0.5700 
 12 N        3.1920     2.3440    -0.1440 N.am  1 <1>  -0.4940 
 13 C        3.5420     3.7170    -0.1680 C.2   1 <1>  -0.0880 
 14 N        3.1310     4.6850    -1.0350 N.pl3 1 <1>   0.3140 
 15 C        4.3670     4.3270     0.7170 C.2   1 <1>  -0.1810 
 16 N        3.6750     5.8850    -0.7270 N.2   1 <1>  -0.7070 
 17 C        2.1520     4.5940    -2.1240 C.3   1 <1>   0.0160 
 18 C        4.4120     5.6580     0.3120 C.2   1 <1>   0.1080 
 19 C        5.0930     3.6990     1.8950 C.3   1 <1>   0.0210 
 20 C        5.2110     6.7570     0.9750 C.3   1 <1>  -0.0590 
 21 C        6.4430     3.1350     1.4490 C.3   1 <1>  -0.2400 
 22 H        3.1270    -1.6610     2.8070 H     1 <1>   0.0800 
 23 H        3.7510    -3.1130     2.0680 H     1 <1>   0.0800 
 24 H        2.0390    -2.9570     2.4210 H     1 <1>   0.0800 
 25 H        2.0830    -0.4890    -2.8200 H     1 <1>   0.1500 
 26 H        1.7020    -2.8230    -2.3530 H     1 <1>   0.1500 
 27 H        1.2270    -4.3000     0.7050 H     1 <1>   0.0800 
 28 H        2.9060    -4.6470     0.3350 H     1 <1>   0.0800 
 29 H        1.7040    -4.6890    -0.9220 H     1 <1>   0.0800 
 30 H        3.3440     1.8970     0.7700 H     1 <1>   0.3700 
 31 H        1.3790     3.9020    -1.8510 H     1 <1>   0.0800 
 32 H        2.6510     4.2550    -3.0130 H     1 <1>   0.0800 
 33 H        1.7250     5.5640    -2.2970 H     1 <1>   0.0800 
 34 H        4.4930     2.9070     2.3080 H     1 <1>   0.0800 
 35 H        5.2380     4.4330     2.6670 H     1 <1>   0.0800 
 36 H        6.1990     6.4080     1.2070 H     1 <1>   0.0800 
 37 H        4.7170     7.0670     1.8770 H     1 <1>   0.0800 
 38 H        5.2880     7.6000     0.3120 H     1 <1>   0.0800 
 39 H        6.2940     2.3860     0.6920 H     1 <1>   0.0800 
 40 H        6.9530     2.6900     2.2840 H     1 <1>   0.0800 
 41 H        7.0560     3.9190     1.0410 H     1 <1>   0.0800 
@<TRIPOS>BOND
  1   1   2  2   
  2   2   3  am  
  3   2   4  1   
  4   3   5  1   
  5   3   6  1   
  6   4   7  1   
  7   4   8  2   
  8   5   9  2   
  9   5  10  1   
 10   6  22  1   
 11   6  23  1   
 12   6  24  1   
 13   7  11  2   
 14   7  12  am  
 15   8   9  1   
 16   8  25  1   
 17   9  26  1   
 18  10  27  1   
 19  10  28  1   
 20  10  29  1   
 21  12  13  1   
 22  12  30  1   
 23  13  14  1   
 24  13  15  2   
 25  14  16  1   
 26  14  17  1   
 27  15  18  1   
 28  15  19  1   
 29  16  18  2   
 30  17  31  1   
 31  17  32  1   
 32  17  33  1   
 33  18  20  1   
 34  19  21  1   
 35  19  34  1   
 36  19  35  1   
 37  20  36  1   
 38  20  37  1   
 39  20  38  1   
 40  21  39  1   
 41  21  40  1   
 42  21  41  1   
@<TRIPOS>SUBSTRUCTURE
  1 ****  12 GROUP 4 **** **** 0

# MOE 2024.06 (io_trps.svl 2023.06)
