@<TRIPOS>MOLECULE
NONAME
59 62 1 0 0 
SMALL
USER_CHARGES


@<TRIPOS>ATOM
  1 O        0.0280     0.4950     1.3060 O.2   1 <1>  -0.5700 
  2 C       -0.4480     1.4250     0.6830 C.2   1 <1>   0.5440 
  3 N       -1.8130     1.4580     0.4760 N.am  1 <1>  -0.6600 
  4 C        0.4360     2.4690     0.2010 C.ar  1 <1>   0.0860 
  5 C       -2.5570     2.6630    -0.0080 C.3   1 <1>   0.1400 
  6 C       -2.6740     0.3030     0.8860 C.3   1 <1>   0.1400 
  7 C        1.2860     3.1430     1.0780 C.ar  1 <1>  -0.1500 
  8 C        0.4820     2.8340    -1.1450 C.ar  1 <1>  -0.1500 
  9 C       -3.5180     3.2000     1.0770 C.3   1 <1>   0.1440 
 10 C       -4.1390     0.7170     1.1110 C.3   1 <1>  -0.1600 
 11 C        2.1300     4.1480     0.6420 C.ar  1 <1>  -0.1500 
 12 C        1.3210     3.8390    -1.5880 C.ar  1 <1>  -0.1500 
 13 C       -4.5020     4.1250     0.3810 C.ar  1 <1>   0.1670 
 14 C       -4.2200     2.0570     1.8580 C.3   1 <1>  -0.1600 
 15 C       -2.7860     4.1720     2.0390 C.3   1 <1>  -0.1600 
 16 C        2.1520     4.5060    -0.7030 C.ar  1 <1>   0.0830 
 17 N       -5.5090     3.7420    -0.3630 N.ar  1 <1>  -0.6200 
 18 C       -4.2000     5.4350     0.6030 C.ar  1 <1>  -0.1430 
 19 C       -2.9800     5.5900     1.4760 C.3   1 <1>  -0.0170 
 20 O        2.9410     5.4750    -1.2230 O.3   1 <1>  -0.3620 
 21 C       -6.2420     4.7290    -0.8850 C.ar  1 <1>   0.7200 
 22 C       -5.0050     6.3810     0.0240 C.ar  1 <1>   0.1600 
 23 C        3.9590     6.1320    -0.5000 C.3   1 <1>   0.2000 
 24 N       -6.0300     6.0400    -0.7210 N.ar  1 <1>  -0.6200 
 25 N       -7.3170     4.3610    -1.6700 N.pl3 1 <1>  -0.8380 
 26 C        4.3070     7.4030    -1.2710 C.3   1 <1>  -0.2400 
 27 C        5.1720     5.2040    -0.3950 C.3   1 <1>  -0.2400 
 28 C       -7.5160     2.9620    -2.1370 C.3   1 <1>   0.1290 
 29 C       -8.3720     5.3340    -2.0700 C.3   1 <1>   0.1290 
 30 H       -3.1270     2.3780    -0.8760 H     1 <1>   0.0800 
 31 H       -1.8900     3.4490    -0.3090 H     1 <1>   0.0800 
 32 H       -2.2890    -0.1090     1.8040 H     1 <1>   0.0800 
 33 H       -2.6190    -0.4640     0.1330 H     1 <1>   0.0800 
 34 H        1.2790     2.8610     2.1170 H     1 <1>   0.1500 
 35 H       -0.1490     2.3160    -1.8470 H     1 <1>   0.1500 
 36 H       -4.6390    -0.0500     1.6750 H     1 <1>   0.0800 
 37 H       -4.6420     0.7990     0.1630 H     1 <1>   0.0800 
 38 H        2.7630     4.6350     1.3590 H     1 <1>   0.1500 
 39 H        1.3430     4.1120    -2.6280 H     1 <1>   0.1500 
 40 H       -5.2480     2.3130     2.0450 H     1 <1>   0.0800 
 41 H       -3.7400     1.9210     2.8120 H     1 <1>   0.0800 
 42 H       -1.7460     3.9220     2.1590 H     1 <1>   0.0800 
 43 H       -3.2560     4.1400     3.0070 H     1 <1>   0.0800 
 44 H       -2.1370     5.8810     0.8740 H     1 <1>   0.0800 
 45 H       -3.1380     6.3110     2.2600 H     1 <1>   0.0800 
 46 H       -4.8080     7.4290     0.1710 H     1 <1>   0.1500 
 47 H        3.5820     6.4010     0.4710 H     1 <1>   0.0800 
 48 H        4.6560     7.1580    -2.2590 H     1 <1>   0.0800 
 49 H        5.0790     7.9470    -0.7580 H     1 <1>   0.0800 
 50 H        3.4400     8.0330    -1.3470 H     1 <1>   0.0800 
 51 H        5.5180     4.9320    -1.3760 H     1 <1>   0.0800 
 52 H        4.9230     4.3120     0.1490 H     1 <1>   0.0800 
 53 H        5.9700     5.7020     0.1250 H     1 <1>   0.0800 
 54 H       -6.5670     2.4700    -2.2700 H     1 <1>   0.0800 
 55 H       -8.0340     2.9550    -3.0800 H     1 <1>   0.0800 
 56 H       -8.0930     2.4190    -1.4090 H     1 <1>   0.0800 
 57 H       -8.4770     6.1040    -1.3250 H     1 <1>   0.0800 
 58 H       -9.3180     4.8340    -2.1740 H     1 <1>   0.0800 
 59 H       -8.1030     5.7880    -3.0070 H     1 <1>   0.0800 
@<TRIPOS>BOND
  1   1   2  2   
  2   2   3  am  
  3   2   4  1   
  4   3   5  1   
  5   3   6  1   
  6   4   7  ar  
  7   4   8  ar  
  8   5   9  1   
  9   5  30  1   
 10   5  31  1   
 11   6  10  1   
 12   6  32  1   
 13   6  33  1   
 14   7  11  ar  
 15   7  34  1   
 16   8  12  ar  
 17   8  35  1   
 18   9  13  1   
 19   9  14  1   
 20   9  15  1   
 21  10  14  1   
 22  10  36  1   
 23  10  37  1   
 24  11  16  ar  
 25  11  38  1   
 26  12  16  ar  
 27  12  39  1   
 28  13  17  ar  
 29  13  18  ar  
 30  14  40  1   
 31  14  41  1   
 32  15  19  1   
 33  15  42  1   
 34  15  43  1   
 35  16  20  1   
 36  17  21  ar  
 37  18  19  1   
 38  18  22  ar  
 39  19  44  1   
 40  19  45  1   
 41  20  23  1   
 42  21  24  ar  
 43  21  25  1   
 44  22  24  ar  
 45  22  46  1   
 46  23  26  1   
 47  23  27  1   
 48  23  47  1   
 49  25  28  1   
 50  25  29  1   
 51  26  48  1   
 52  26  49  1   
 53  26  50  1   
 54  27  51  1   
 55  27  52  1   
 56  27  53  1   
 57  28  54  1   
 58  28  55  1   
 59  28  56  1   
 60  29  57  1   
 61  29  58  1   
 62  29  59  1   
@<TRIPOS>SUBSTRUCTURE
  1 ****   5 GROUP 4 **** **** 0

# MOE 2024.06 (io_trps.svl 2023.06)
