@<TRIPOS>MOLECULE
NONAME
54 57 1 0 0 
SMALL
USER_CHARGES


@<TRIPOS>ATOM
  1 O       -0.3010    -0.8560     0.8840 O.2   1 <1>  -0.5700 
  2 C       -0.4420    -1.9280     0.3530 C.2   1 <1>   0.4230 
  3 C       -1.7230    -2.5820     0.2350 C.ar  1 <1>   0.0860 
  4 C        0.8140    -2.5760    -0.1980 C.3   1 <1>  -0.1790 
  5 C       -1.8900    -3.8410    -0.3510 C.ar  1 <1>   0.1600 
  6 C       -2.8840    -1.9740     0.7090 C.ar  1 <1>  -0.1500 
  7 N       -3.0270    -4.4970    -0.4910 N.ar  1 <1>  -0.6200 
  8 C       -4.0770    -2.6390     0.5720 C.ar  1 <1>  -0.1500 
  9 C       -4.1170    -3.8960    -0.0270 C.ar  1 <1>   0.4100 
 10 N       -5.3090    -4.5680    -0.1550 N.pl3 1 <1>  -0.8380 
 11 C       -6.0830    -4.9150     1.0610 C.3   1 <1>   0.2090 
 12 C       -5.5420    -5.4110    -1.3570 C.3   1 <1>   0.2090 
 13 C       -7.5750    -4.9360     0.7450 C.3   1 <1>  -0.1600 
 14 C       -7.0360    -5.5050    -1.6670 C.3   1 <1>  -0.1600 
 15 C       -7.9470    -5.8090    -0.4660 C.3   1 <1>   0.4240 
 16 O       -9.2060    -5.3530    -0.9010 O.3   1 <1>  -0.5600 
 17 C       -8.0060    -7.3270    -0.1230 C.ar  1 <1>  -0.1430 
 18 C      -10.3320    -5.7830    -0.2060 C.3   1 <1>   0.1200 
 19 C       -9.2230    -8.0040    -0.1220 C.ar  1 <1>  -0.1430 
 20 C       -6.8670    -8.0560     0.2060 C.ar  1 <1>  -0.1500 
 21 C      -10.5070    -7.2730    -0.4560 C.3   1 <1>  -0.0170 
 22 C       -9.2830    -9.3540     0.1790 C.ar  1 <1>  -0.1500 
 23 C       -6.9090    -9.4130     0.5180 C.ar  1 <1>   0.0830 
 24 C       -8.1460   -10.0730     0.4910 C.ar  1 <1>   0.0830 
 25 O       -5.7780   -10.0990     0.8640 O.3   1 <1>  -0.3630 
 26 O       -8.3570   -11.3950     0.7530 O.3   1 <1>  -0.3620 
 27 C       -4.5120    -9.4820     0.9590 C.3   1 <1>   0.0400 
 28 C       -7.3780   -12.3670     0.4600 C.3   1 <1>   0.0400 
 29 H        0.7140    -2.7400    -1.2550 H     1 <1>   0.0800 
 30 H        0.9990    -3.5090     0.3010 H     1 <1>   0.0800 
 31 H        1.6580    -1.9300    -0.0340 H     1 <1>   0.0800 
 32 H       -1.0230    -4.3460    -0.7330 H     1 <1>   0.1500 
 33 H       -2.8370    -1.0020     1.1700 H     1 <1>   0.1500 
 34 H       -4.9940    -2.1990     0.9120 H     1 <1>   0.1500 
 35 H       -5.8970    -4.1880     1.8330 H     1 <1>   0.0800 
 36 H       -5.7560    -5.8660     1.4380 H     1 <1>   0.0800 
 37 H       -5.1050    -6.3800    -1.2140 H     1 <1>   0.0800 
 38 H       -5.0420    -4.9650    -2.2000 H     1 <1>   0.0800 
 39 H       -7.8750    -3.9230     0.5490 H     1 <1>   0.0800 
 40 H       -8.1000    -5.2830     1.6150 H     1 <1>   0.0800 
 41 H       -7.1920    -6.2490    -2.4260 H     1 <1>   0.0800 
 42 H       -7.3210    -4.5540    -2.0790 H     1 <1>   0.0800 
 43 H      -11.1790    -5.2360    -0.5790 H     1 <1>   0.0800 
 44 H      -10.2100    -5.5730     0.8420 H     1 <1>   0.0800 
 45 H       -5.9270    -7.5590     0.2260 H     1 <1>   0.1500 
 46 H      -10.7560    -7.4350    -1.4900 H     1 <1>   0.0800 
 47 H      -11.3150    -7.6420     0.1490 H     1 <1>   0.0800 
 48 H      -10.2260    -9.8700     0.1710 H     1 <1>   0.1500 
 49 H       -3.8000   -10.2270     1.2630 H     1 <1>   0.0800 
 50 H       -4.5570    -8.7000     1.6960 H     1 <1>   0.0800 
 51 H       -4.2400    -9.0900    -0.0050 H     1 <1>   0.0800 
 52 H       -7.8620   -13.3250     0.4080 H     1 <1>   0.0800 
 53 H       -6.6470   -12.3710     1.2490 H     1 <1>   0.0800 
 54 H       -6.9200   -12.1310    -0.4840 H     1 <1>   0.0800 
@<TRIPOS>BOND
  1   1   2  2   
  2   2   3  1   
  3   2   4  1   
  4   3   5  ar  
  5   3   6  ar  
  6   4  29  1   
  7   4  30  1   
  8   4  31  1   
  9   5   7  ar  
 10   5  32  1   
 11   6   8  ar  
 12   6  33  1   
 13   7   9  ar  
 14   8   9  ar  
 15   8  34  1   
 16   9  10  1   
 17  10  11  1   
 18  10  12  1   
 19  11  13  1   
 20  11  35  1   
 21  11  36  1   
 22  12  14  1   
 23  12  37  1   
 24  12  38  1   
 25  13  15  1   
 26  13  39  1   
 27  13  40  1   
 28  14  15  1   
 29  14  41  1   
 30  14  42  1   
 31  15  16  1   
 32  15  17  1   
 33  16  18  1   
 34  17  19  ar  
 35  17  20  ar  
 36  18  21  1   
 37  18  43  1   
 38  18  44  1   
 39  19  21  1   
 40  19  22  ar  
 41  20  23  ar  
 42  20  45  1   
 43  21  46  1   
 44  21  47  1   
 45  22  24  ar  
 46  22  48  1   
 47  23  24  ar  
 48  23  25  1   
 49  24  26  1   
 50  25  27  1   
 51  26  28  1   
 52  27  49  1   
 53  27  50  1   
 54  27  51  1   
 55  28  52  1   
 56  28  53  1   
 57  28  54  1   
@<TRIPOS>SUBSTRUCTURE
  1 ****  11 GROUP 4 **** **** 0

# MOE 2024.06 (io_trps.svl 2023.06)
