@<TRIPOS>MOLECULE
NONAME
40 41 1 0 0 
SMALL
USER_CHARGES


@<TRIPOS>ATOM
  1 O       -0.5320    -0.3120    -0.2730 O.2   1 <1>  -0.5700 
  2 C       -1.0890    -1.2700     0.2230 C.2   1 <1>   0.7800 
  3 O       -0.5840    -2.5020     0.1270 O.3   1 <1>  -0.4300 
  4 N       -2.2590    -1.1420     0.9160 N.am  1 <1>  -0.6600 
  5 C        0.6000    -2.8890    -0.5360 C.3   1 <1>   0.2800 
  6 C       -3.0150     0.1260     1.0010 C.3   1 <1>   0.1400 
  7 C       -3.0250    -2.2610     1.4940 C.3   1 <1>   0.1400 
  8 C        1.8160    -2.2200     0.1160 C.3   1 <1>  -0.2400 
  9 C        0.6910    -4.4020    -0.3380 C.3   1 <1>  -0.2400 
 10 C        0.4940    -2.5810    -2.0340 C.3   1 <1>  -0.2400 
 11 C       -4.4610    -0.2750     1.2940 C.3   1 <1>   0.2000 
 12 C       -4.4710    -1.7660     1.6060 C.3   1 <1>  -0.0190 
 13 O       -5.2320    -0.1880     0.1170 O.3   1 <1>  -0.2170 
 14 C       -5.3570    -2.2740     0.4920 C.2   1 <1>   0.3890 
 15 N       -5.7330    -1.3270    -0.2760 N.2   1 <1>  -0.5130 
 16 C       -5.6720    -3.6830     0.4330 C.2   1 <1>   0.7200 
 17 O       -5.2610    -4.4860     1.2530 O.2   1 <1>  -0.5700 
 18 O       -6.4500    -4.1340    -0.5600 O.3   1 <1>  -0.4300 
 19 C       -6.7920    -5.4960    -0.6820 C.3   1 <1>   0.1200 
 20 C       -7.6790    -5.6500    -1.9130 C.3   1 <1>  -0.2400 
 21 H       -2.6180     0.7100     1.8120 H     1 <1>   0.0800 
 22 H       -2.9400     0.6840     0.0830 H     1 <1>   0.0800 
 23 H       -2.9430    -3.1380     0.8730 H     1 <1>   0.0800 
 24 H       -2.6310    -2.4850     2.4700 H     1 <1>   0.0800 
 25 H        2.7220    -2.6220    -0.2990 H     1 <1>   0.0800 
 26 H        1.8170    -2.3980     1.1760 H     1 <1>   0.0800 
 27 H        1.8190    -1.1610    -0.0640 H     1 <1>   0.0800 
 28 H        1.5730    -4.7900    -0.8140 H     1 <1>   0.0800 
 29 H       -0.1680    -4.8870    -0.7680 H     1 <1>   0.0800 
 30 H        0.7390    -4.6390     0.7100 H     1 <1>   0.0800 
 31 H        1.3340    -3.0020    -2.5550 H     1 <1>   0.0800 
 32 H        0.5000    -1.5220    -2.2140 H     1 <1>   0.0800 
 33 H       -0.4060    -3.0030    -2.4400 H     1 <1>   0.0800 
 34 H       -4.9240     0.3360     2.0490 H     1 <1>   0.0800 
 35 H       -4.8920    -1.9800     2.5710 H     1 <1>   0.0800 
 36 H       -5.8860    -6.0690    -0.7860 H     1 <1>   0.0800 
 37 H       -7.3140    -5.8000     0.2100 H     1 <1>   0.0800 
 38 H       -7.1510    -5.3290    -2.7930 H     1 <1>   0.0800 
 39 H       -8.5760    -5.0670    -1.7990 H     1 <1>   0.0800 
 40 H       -7.9550    -6.6820    -2.0360 H     1 <1>   0.0800 
@<TRIPOS>BOND
  1   1   2  2   
  2   2   3  1   
  3   2   4  am  
  4   3   5  1   
  5   4   6  1   
  6   4   7  1   
  7   5   8  1   
  8   5   9  1   
  9   5  10  1   
 10   6  11  1   
 11   6  21  1   
 12   6  22  1   
 13   7  12  1   
 14   7  23  1   
 15   7  24  1   
 16   8  25  1   
 17   8  26  1   
 18   8  27  1   
 19   9  28  1   
 20   9  29  1   
 21   9  30  1   
 22  10  31  1   
 23  10  32  1   
 24  10  33  1   
 25  11  12  1   
 26  11  13  1   
 27  11  34  1   
 28  12  14  1   
 29  12  35  1   
 30  13  15  1   
 31  14  15  2   
 32  14  16  1   
 33  16  17  2   
 34  16  18  1   
 35  18  19  1   
 36  19  20  1   
 37  19  36  1   
 38  19  37  1   
 39  20  38  1   
 40  20  39  1   
 41  20  40  1   
@<TRIPOS>SUBSTRUCTURE
  1 ****   7 GROUP 4 **** **** 0

# MOE 2024.06 (io_trps.svl 2023.06)
