@<TRIPOS>MOLECULE
NONAME
57 59 1 0 0 
SMALL
USER_CHARGES


@<TRIPOS>ATOM
  1 O        0.0080     3.3500    -2.5020 O.2   1 <1>  -0.5700 
  2 C       -0.7280     3.9870    -1.7880 C.2   1 <1>   0.5690 
  3 N       -0.9430     3.6810    -0.4740 N.am  1 <1>  -0.6600 
  4 C       -1.4230     5.2290    -2.3500 C.3   1 <1>   0.1810 
  5 C       -1.6790     4.6850     0.3590 C.3   1 <1>   0.3640 
  6 C       -0.3400     2.4820     0.1650 C.3   1 <1>   0.2200 
  7 O       -1.3060     6.3540    -1.5010 O.3   1 <1>  -0.5600 
  8 C       -3.1980     4.4670     0.3500 C.ar  1 <1>  -0.1440 
  9 C       -1.3110     6.1260    -0.0900 C.3   1 <1>   0.2610 
 10 C       -1.3660     1.7280     1.0130 C.3   1 <1>  -0.2400 
 11 C        0.8750     2.8980     0.9930 C.3   1 <1>  -0.2400 
 12 C       -3.8520     3.6350    -0.5540 C.ar  1 <1>  -0.1500 
 13 C       -3.9590     5.1300     1.3060 C.ar  1 <1>  -0.1500 
 14 C        0.0580     6.4830     0.4920 C.2   1 <1>   0.5690 
 15 C       -5.2270     3.4870    -0.5140 C.ar  1 <1>  -0.1500 
 16 C       -5.3340     4.9820     1.3490 C.ar  1 <1>  -0.1500 
 17 O        0.1350     6.8330     1.6460 O.2   1 <1>  -0.5700 
 18 N        1.1720     6.4340    -0.2950 N.am  1 <1>  -0.7300 
 19 C       -5.9700     4.1620     0.4360 C.ar  1 <1>  -0.1500 
 20 C        2.5870     6.5100     0.1700 C.3   1 <1>   0.1400 
 21 C        2.9010     7.6890     1.1220 C.3   1 <1>   0.3430 
 22 N        2.7200     9.0500     0.5100 N.4   1 <1>  -0.9590 
 23 C        3.4410    10.1160     1.2810 C.3   1 <1>   0.3430 
 24 C        1.2750     9.4370     0.3360 C.3   1 <1>   0.3430 
 25 C        3.2770    11.5060     0.6210 C.3   1 <1>   0.1200 
 26 C        1.1120    10.9150    -0.0830 C.3   1 <1>   0.1200 
 27 O        2.3490    11.4750    -0.4290 O.3   1 <1>  -0.5600 
 28 H       -2.4680     5.0250    -2.4910 H     1 <1>   0.0800 
 29 H       -0.9950     5.4870    -3.3020 H     1 <1>   0.0800 
 30 H       -1.3630     4.5800     1.3820 H     1 <1>   0.0800 
 31 H       -0.0020     1.8110    -0.6090 H     1 <1>   0.0800 
 32 H       -2.0230     6.8130     0.3290 H     1 <1>   0.0800 
 33 H       -1.7010     2.3150     1.8480 H     1 <1>   0.0800 
 34 H       -0.9230     0.8270     1.3960 H     1 <1>   0.0800 
 35 H       -2.2110     1.4500     0.4090 H     1 <1>   0.0800 
 36 H        0.5970     3.5360     1.8110 H     1 <1>   0.0800 
 37 H        1.5860     3.4010     0.3640 H     1 <1>   0.0800 
 38 H        1.3500     2.0220     1.3970 H     1 <1>   0.0800 
 39 H       -3.3060     3.0840    -1.2990 H     1 <1>   0.1500 
 40 H       -3.4890     5.7700     2.0330 H     1 <1>   0.1500 
 41 H       -5.7190     2.8420    -1.2210 H     1 <1>   0.1500 
 42 H       -5.9110     5.5040     2.0930 H     1 <1>   0.1500 
 43 H        1.0340     6.0910    -1.2550 H     1 <1>   0.3700 
 44 H       -7.0400     4.0460     0.4670 H     1 <1>   0.1500 
 45 H        2.8170     5.5920     0.6850 H     1 <1>   0.0800 
 46 H        3.2370     6.5650    -0.6870 H     1 <1>   0.0800 
 47 H        3.9260     7.5850     1.4350 H     1 <1>   0.0800 
 48 H        2.2880     7.6010     2.0040 H     1 <1>   0.0800 
 49 H        3.1170     9.0720    -0.4400 H     1 <1>   0.4500 
 50 H        3.0510    10.1630     2.2850 H     1 <1>   0.0800 
 51 H        4.4900     9.8830     1.3520 H     1 <1>   0.0800 
 52 H        0.8240     8.8190    -0.4220 H     1 <1>   0.0800 
 53 H        0.7310     9.2650     1.2510 H     1 <1>   0.0800 
 54 H        4.2170    11.8340     0.2120 H     1 <1>   0.0800 
 55 H        2.9550    12.2350     1.3450 H     1 <1>   0.0800 
 56 H        0.6830    11.4930     0.7180 H     1 <1>   0.0800 
 57 H        0.4610    10.9890    -0.9370 H     1 <1>   0.0800 
@<TRIPOS>BOND
  1   1   2  2   
  2   2   3  am  
  3   2   4  1   
  4   3   5  1   
  5   3   6  1   
  6   4   7  1   
  7   4  28  1   
  8   4  29  1   
  9   5   8  1   
 10   5   9  1   
 11   5  30  1   
 12   6  10  1   
 13   6  11  1   
 14   6  31  1   
 15   7   9  1   
 16   8  12  ar  
 17   8  13  ar  
 18   9  14  1   
 19   9  32  1   
 20  10  33  1   
 21  10  34  1   
 22  10  35  1   
 23  11  36  1   
 24  11  37  1   
 25  11  38  1   
 26  12  15  ar  
 27  12  39  1   
 28  13  16  ar  
 29  13  40  1   
 30  14  17  2   
 31  14  18  am  
 32  15  19  ar  
 33  15  41  1   
 34  16  19  ar  
 35  16  42  1   
 36  18  20  1   
 37  18  43  1   
 38  19  44  1   
 39  20  21  1   
 40  20  45  1   
 41  20  46  1   
 42  21  22  1   
 43  21  47  1   
 44  21  48  1   
 45  22  23  1   
 46  22  24  1   
 47  22  49  1   
 48  23  25  1   
 49  23  50  1   
 50  23  51  1   
 51  24  26  1   
 52  24  52  1   
 53  24  53  1   
 54  25  27  1   
 55  25  54  1   
 56  25  55  1   
 57  26  27  1   
 58  26  56  1   
 59  26  57  1   
@<TRIPOS>SUBSTRUCTURE
  1 ****   9 GROUP 4 **** **** 0

# MOE 2024.06 (io_trps.svl 2023.06)
