@<TRIPOS>MOLECULE
NONAME
40 41 1 0 0 
SMALL
USER_CHARGES


@<TRIPOS>ATOM
  1 O        0.4320    -1.5040    -1.6390 O.2   1 <1>  -0.5700 
  2 C        1.2080    -1.4960    -0.7160 C.2   1 <1>   0.5690 
  3 N        0.8590    -1.8970     0.5340 N.am  1 <1>  -0.7300 
  4 C        2.6260    -1.0200    -0.9570 C.3   1 <1>  -0.0990 
  5 C       -0.4850    -2.3870     0.9280 C.3   1 <1>   0.0600 
  6 C        2.7260     0.5140    -0.9780 C.3   1 <1>  -0.0800 
  7 C        4.1480     1.0120    -1.2250 C.3   1 <1>   0.2090 
  8 C        2.3320     1.1760     0.3410 C.3   1 <1>  -0.1600 
  9 N        4.2270     2.3310    -0.5410 N.pl3 1 <1>  -0.8380 
 10 C        3.0310     2.5270     0.3110 C.3   1 <1>   0.2090 
 11 C        5.4500     2.8700    -0.0920 C.ar  1 <1>   0.4100 
 12 N        6.4730     2.0280    -0.1160 N.ar  1 <1>  -0.6200 
 13 C        5.5820     4.2350     0.3690 C.ar  1 <1>   0.4100 
 14 C        7.5950     2.5550     0.3510 C.ar  1 <1>   0.1600 
 15 N        6.7190     4.7230     0.8430 N.ar  1 <1>  -0.6200 
 16 N        4.5260     5.1660     0.3240 N.pl3 1 <1>  -0.8380 
 17 C        7.7110     3.8470     0.8170 C.ar  1 <1>   0.1600 
 18 C        4.0460     5.5360    -1.0340 C.3   1 <1>   0.1290 
 19 C        4.5090     6.2970     1.2930 C.3   1 <1>   0.1290 
 20 H        1.5570    -1.8580     1.2790 H     1 <1>   0.3700 
 21 H        2.9480    -1.4090    -1.9060 H     1 <1>   0.0800 
 22 H        3.2730    -1.4240    -0.2010 H     1 <1>   0.0800 
 23 H       -1.1460    -2.3920     0.0770 H     1 <1>   0.0800 
 24 H       -0.9000    -1.7430     1.6840 H     1 <1>   0.0800 
 25 H       -0.4100    -3.3880     1.3140 H     1 <1>   0.0800 
 26 H        2.0980     0.9010    -1.7640 H     1 <1>   0.0800 
 27 H        4.3530     1.1210    -2.2750 H     1 <1>   0.0800 
 28 H        4.8550     0.3250    -0.7920 H     1 <1>   0.0800 
 29 H        2.7160     0.6150     1.1750 H     1 <1>   0.0800 
 30 H        1.2670     1.2830     0.4450 H     1 <1>   0.0800 
 31 H        3.3030     2.8530     1.3020 H     1 <1>   0.0800 
 32 H        2.3970     3.2680    -0.1450 H     1 <1>   0.0800 
 33 H        8.4600     1.9170     0.3620 H     1 <1>   0.1500 
 34 H        8.6640     4.1850     1.1830 H     1 <1>   0.1500 
 35 H        4.2050     4.7240    -1.7230 H     1 <1>   0.0800 
 36 H        4.5820     6.3980    -1.3890 H     1 <1>   0.0800 
 37 H        2.9940     5.7570    -1.0000 H     1 <1>   0.0800 
 38 H        4.8100     5.9470     2.2660 H     1 <1>   0.0800 
 39 H        3.5180     6.7080     1.3630 H     1 <1>   0.0800 
 40 H        5.1940     7.0630     0.9730 H     1 <1>   0.0800 
@<TRIPOS>BOND
  1   1   2  2   
  2   2   3  am  
  3   2   4  1   
  4   3   5  1   
  5   3  20  1   
  6   4   6  1   
  7   4  21  1   
  8   4  22  1   
  9   5  23  1   
 10   5  24  1   
 11   5  25  1   
 12   6   7  1   
 13   6   8  1   
 14   6  26  1   
 15   7   9  1   
 16   7  27  1   
 17   7  28  1   
 18   8  10  1   
 19   8  29  1   
 20   8  30  1   
 21   9  10  1   
 22   9  11  1   
 23  10  31  1   
 24  10  32  1   
 25  11  12  ar  
 26  11  13  ar  
 27  12  14  ar  
 28  13  15  ar  
 29  13  16  1   
 30  14  17  ar  
 31  14  33  1   
 32  15  17  ar  
 33  16  18  1   
 34  16  19  1   
 35  17  34  1   
 36  18  35  1   
 37  18  36  1   
 38  18  37  1   
 39  19  38  1   
 40  19  39  1   
 41  19  40  1   
@<TRIPOS>SUBSTRUCTURE
  1 ****   9 GROUP 4 **** **** 0

# MOE 2024.06 (io_trps.svl 2023.06)
