@<TRIPOS>MOLECULE
NONAME
59 61 1 0 0 
SMALL
USER_CHARGES


@<TRIPOS>ATOM
  1 F       -1.0130    -0.2600     1.0170 F     1 <1>  -0.1900 
  2 C       -2.2010     0.1800     0.6880 C.ar  1 <1>   0.1900 
  3 C       -2.9190     1.0590     1.5060 C.ar  1 <1>   0.0830 
  4 C       -2.7120    -0.2710    -0.5140 C.ar  1 <1>  -0.1500 
  5 O       -2.5200     1.5790     2.7030 O.3   1 <1>  -0.3630 
  6 C       -4.1730     1.4590     1.0740 C.ar  1 <1>  -0.1500 
  7 C       -3.9650     0.1510    -0.9170 C.ar  1 <1>  -0.1500 
  8 C       -1.2390     1.3560     3.2490 C.3   1 <1>   0.0400 
  9 C       -4.7260     1.0160    -0.1290 C.ar  1 <1>   0.0530 
 10 C       -6.0360     1.4580    -0.5320 C.2   1 <1>   0.0870 
 11 O       -6.3300     2.7310    -0.4560 O.3   1 <1>  -0.0190 
 12 C       -7.1460     0.8190    -0.9960 C.2   1 <1>  -0.0860 
 13 N       -7.5470     2.9980    -0.8440 N.2   1 <1>  -0.4100 
 14 C       -8.0610     1.8670    -1.1770 C.2   1 <1>   0.3720 
 15 C       -7.3990    -0.5740    -1.2210 C.2   1 <1>   0.7160 
 16 N       -9.3700     1.7400    -1.6740 N.pl3 1 <1>  -0.8210 
 17 O       -6.5030    -1.3930    -1.1770 O.2   1 <1>  -0.5700 
 18 N       -8.6750    -0.9960    -1.4610 N.am  1 <1>  -0.7300 
 19 C       -9.4300     1.9530    -3.1470 C.3   1 <1>   0.1290 
 20 C      -10.3630     2.6080    -0.9740 C.3   1 <1>   0.1290 
 21 C       -9.2250    -2.3070    -1.8720 C.3   1 <1>   0.2200 
 22 C       -9.4460    -3.2610    -0.6700 C.3   1 <1>  -0.0800 
 23 C       -8.4000    -2.9180    -3.0080 C.3   1 <1>  -0.2400 
 24 C      -10.4240    -2.6570     0.3570 C.3   1 <1>  -0.1600 
 25 C       -8.1590    -3.7060     0.0540 C.3   1 <1>  -0.1600 
 26 C      -10.6670    -3.5960     1.5390 C.3   1 <1>   0.3430 
 27 C       -8.4530    -4.6360     1.2260 C.3   1 <1>   0.3430 
 28 N       -9.3680    -3.9470     2.1790 N.4   1 <1>  -0.9590 
 29 C       -9.5720    -4.7620     3.4130 C.3   1 <1>   0.2630 
 30 H       -2.1360    -0.9440    -1.1230 H     1 <1>   0.1500 
 31 H       -4.7360     2.1360     1.6920 H     1 <1>   0.1500 
 32 H       -4.3620    -0.1950    -1.8550 H     1 <1>   0.1500 
 33 H       -1.1640     1.9140     4.1650 H     1 <1>   0.0800 
 34 H       -0.4960     1.6990     2.5520 H     1 <1>   0.0800 
 35 H       -1.1220     0.3060     3.4530 H     1 <1>   0.0800 
 36 H       -9.3340    -0.2060    -1.5500 H     1 <1>   0.3700 
 37 H       -8.7310     1.2990    -3.6420 H     1 <1>   0.0800 
 38 H       -9.1750     2.9730    -3.3840 H     1 <1>   0.0800 
 39 H      -10.4200     1.7420    -3.5130 H     1 <1>   0.0800 
 40 H      -10.2510     2.5070     0.0920 H     1 <1>   0.0800 
 41 H      -11.3630     2.3190    -1.2460 H     1 <1>   0.0800 
 42 H      -10.2080     3.6410    -1.2380 H     1 <1>   0.0800 
 43 H      -10.1980    -2.1070    -2.2910 H     1 <1>   0.0800 
 44 H       -9.9090    -4.1480    -1.0700 H     1 <1>   0.0800 
 45 H       -7.4090    -3.1800    -2.6900 H     1 <1>   0.0800 
 46 H       -8.3280    -2.2210    -3.8240 H     1 <1>   0.0800 
 47 H       -8.8800    -3.8080    -3.3720 H     1 <1>   0.0800 
 48 H      -11.3670    -2.4530    -0.1210 H     1 <1>   0.0800 
 49 H      -10.0450    -1.7210     0.7290 H     1 <1>   0.0800 
 50 H       -7.6290    -2.8550     0.4380 H     1 <1>   0.0800 
 51 H       -7.5030    -4.2120    -0.6310 H     1 <1>   0.0800 
 52 H      -11.1570    -4.4920     1.1930 H     1 <1>   0.0800 
 53 H      -11.3130    -3.1120     2.2550 H     1 <1>   0.0800 
 54 H       -7.5280    -4.8920     1.7180 H     1 <1>   0.0800 
 55 H       -8.9110    -5.5430     0.8640 H     1 <1>   0.0800 
 56 H       -8.9080    -3.0610     2.4370 H     1 <1>   0.4500 
 57 H      -10.0470    -5.6990     3.1690 H     1 <1>   0.0800 
 58 H      -10.1960    -4.2300     4.1130 H     1 <1>   0.0800 
 59 H       -8.6260    -4.9680     3.8860 H     1 <1>   0.0800 
@<TRIPOS>BOND
  1   1   2  1   
  2   2   3  ar  
  3   2   4  ar  
  4   3   5  1   
  5   3   6  ar  
  6   4   7  ar  
  7   4  30  1   
  8   5   8  1   
  9   6   9  ar  
 10   6  31  1   
 11   7   9  ar  
 12   7  32  1   
 13   8  33  1   
 14   8  34  1   
 15   8  35  1   
 16   9  10  1   
 17  10  11  1   
 18  10  12  2   
 19  11  13  1   
 20  12  14  1   
 21  12  15  1   
 22  13  14  2   
 23  14  16  1   
 24  15  17  2   
 25  15  18  am  
 26  16  19  1   
 27  16  20  1   
 28  18  21  1   
 29  18  36  1   
 30  19  37  1   
 31  19  38  1   
 32  19  39  1   
 33  20  40  1   
 34  20  41  1   
 35  20  42  1   
 36  21  22  1   
 37  21  23  1   
 38  21  43  1   
 39  22  24  1   
 40  22  25  1   
 41  22  44  1   
 42  23  45  1   
 43  23  46  1   
 44  23  47  1   
 45  24  26  1   
 46  24  48  1   
 47  24  49  1   
 48  25  27  1   
 49  25  50  1   
 50  25  51  1   
 51  26  28  1   
 52  26  52  1   
 53  26  53  1   
 54  27  28  1   
 55  27  54  1   
 56  27  55  1   
 57  28  29  1   
 58  28  56  1   
 59  29  57  1   
 60  29  58  1   
 61  29  59  1   
@<TRIPOS>SUBSTRUCTURE
  1 ****  15 GROUP 4 **** **** 0

# MOE 2024.06 (io_trps.svl 2023.06)
