@<TRIPOS>MOLECULE
NONAME
40 41 1 0 0 
SMALL
USER_CHARGES


@<TRIPOS>ATOM
  1 CL       0.0970    -1.3170     1.5260 Cl    1 <1>  -0.1770 
  2 C       -1.5310    -1.7180     1.0440 C.ar  1 <1>   0.1770 
  3 C       -1.8690    -3.0400     0.8310 C.ar  1 <1>  -0.1500 
  4 C       -2.4570    -0.7040     0.8830 C.ar  1 <1>  -0.1500 
  5 C       -3.1600    -3.3620     0.4480 C.ar  1 <1>   0.0820 
  6 C       -3.7500    -1.0230     0.5010 C.ar  1 <1>  -0.1500 
  7 O       -3.4260    -4.6770     0.2530 O.3   1 <1>  -0.3630 
  8 C       -4.1020    -2.3460     0.2830 C.ar  1 <1>  -0.1500 
  9 C       -4.7040    -5.1190    -0.1400 C.3   1 <1>   0.1200 
 10 C       -4.6630    -6.6410    -0.2600 C.3   1 <1>  -0.1600 
 11 C       -6.0050    -7.1830    -0.7540 C.3   1 <1>   0.1400 
 12 N       -5.9700    -8.6700    -0.7700 N.am  1 <1>  -0.6600 
 13 C       -6.5560    -9.4010     0.2380 C.2   1 <1>   0.6300 
 14 C       -5.2920    -9.2730    -1.9560 C.3   1 <1>   0.0600 
 15 O       -7.2040    -8.8730     1.1140 O.2   1 <1>  -0.5700 
 16 C       -6.4120   -10.9120     0.3020 C.3   1 <1>   0.0000 
 17 C       -7.5540   -11.5570    -0.4560 C.2   1 <1>   0.6300 
 18 C       -5.9560   -11.5530     1.5900 C.3   1 <1>  -0.2000 
 19 C       -5.0550   -11.5650     0.3980 C.3   1 <1>  -0.2000 
 20 O       -7.3490   -12.1220    -1.5000 O.2   1 <1>  -0.5700 
 21 N       -8.7990   -11.4960     0.0510 N.am  1 <1>  -0.8000 
 22 H       -1.1360    -3.8140     0.9610 H     1 <1>   0.1500 
 23 H       -2.1670     0.3170     1.0560 H     1 <1>   0.1500 
 24 H       -4.4800    -0.2420     0.3730 H     1 <1>   0.1500 
 25 H       -5.1110    -2.5640    -0.0110 H     1 <1>   0.1500 
 26 H       -4.9400    -4.6660    -1.0880 H     1 <1>   0.0800 
 27 H       -5.4150    -4.8160     0.6090 H     1 <1>   0.0800 
 28 H       -4.4480    -7.0600     0.7070 H     1 <1>   0.0800 
 29 H       -3.8860    -6.9170    -0.9500 H     1 <1>   0.0800 
 30 H       -6.2170    -6.8160    -1.7430 H     1 <1>   0.0800 
 31 H       -6.7930    -6.8420    -0.1030 H     1 <1>   0.0800 
 32 H       -5.5720    -8.7410    -2.8490 H     1 <1>   0.0800 
 33 H       -5.5710   -10.3030    -2.0860 H     1 <1>   0.0800 
 34 H       -4.2240    -9.2150    -1.8330 H     1 <1>   0.0800 
 35 H       -6.4130   -12.4760     1.8990 H     1 <1>   0.1000 
 36 H       -5.7150   -10.9120     2.4210 H     1 <1>   0.1000 
 37 H       -4.1790   -10.9400     0.4100 H     1 <1>   0.1000 
 38 H       -4.8990   -12.4890    -0.1320 H     1 <1>   0.1000 
 39 H       -9.5790   -11.9090    -0.4590 H     1 <1>   0.3700 
 40 H       -9.0210   -10.9400     0.8790 H     1 <1>   0.3700 
@<TRIPOS>BOND
  1   1   2  1   
  2   2   3  ar  
  3   2   4  ar  
  4   3   5  ar  
  5   3  22  1   
  6   4   6  ar  
  7   4  23  1   
  8   5   7  1   
  9   5   8  ar  
 10   6   8  ar  
 11   6  24  1   
 12   7   9  1   
 13   8  25  1   
 14   9  10  1   
 15   9  26  1   
 16   9  27  1   
 17  10  11  1   
 18  10  28  1   
 19  10  29  1   
 20  11  12  1   
 21  11  30  1   
 22  11  31  1   
 23  12  13  am  
 24  12  14  1   
 25  13  15  2   
 26  13  16  1   
 27  14  32  1   
 28  14  33  1   
 29  14  34  1   
 30  16  17  1   
 31  16  18  1   
 32  16  19  1   
 33  17  20  2   
 34  17  21  am  
 35  18  19  1   
 36  18  35  1   
 37  18  36  1   
 38  19  37  1   
 39  19  38  1   
 40  21  39  1   
 41  21  40  1   
@<TRIPOS>SUBSTRUCTURE
  1 ****  10 GROUP 4 **** **** 0

# MOE 2024.06 (io_trps.svl 2023.06)
