@<TRIPOS>MOLECULE
NONAME
43 44 1 0 0 
SMALL
USER_CHARGES


@<TRIPOS>ATOM
  1 S        0.8140     0.1320    -0.0550 S.o2  1 <1>   1.3330 
  2 O        1.4300     0.1670     1.2520 O.2   1 <1>  -0.6500 
  3 O        1.6330    -0.0740    -1.2280 O.2   1 <1>  -0.6500 
  4 N       -0.3880    -1.0660    -0.0290 N.am  1 <1>  -0.8490 
  5 C       -0.1230     1.6370    -0.3060 C.3   1 <1>  -0.0550 
  6 C       -1.0580    -1.1920     1.2700 C.3   1 <1>   0.1160 
  7 C        0.1260    -2.3720    -0.4520 C.3   1 <1>   0.1160 
  8 C        0.7680     2.8810    -0.4890 C.3   1 <1>  -0.0800 
  9 C       -0.0010     4.1570    -0.8440 C.3   1 <1>   0.2000 
 10 C        1.5860     3.2630     0.7530 C.3   1 <1>   0.1400 
 11 O       -1.1050     4.2660    -0.0100 O.3   1 <1>  -0.6800 
 12 C        0.9770     5.2720    -0.4870 C.3   1 <1>   0.1400 
 13 N        1.7210     4.7390     0.6850 N.am  1 <1>  -0.6600 
 14 C        2.5640     5.4470     1.4980 C.2   1 <1>   0.5690 
 15 O        3.1740     4.9070     2.3900 O.2   1 <1>  -0.5700 
 16 C        2.7610     6.9380     1.3080 C.3   1 <1>   0.0440 
 17 C        3.5030     7.2240     0.0170 C.ar  1 <1>   0.1670 
 18 N        2.8510     7.9230    -0.9020 N.ar  1 <1>  -0.6200 
 19 C        4.7970     6.7500    -0.1420 C.ar  1 <1>  -0.1500 
 20 C        3.5200     8.1630    -2.0200 C.ar  1 <1>   0.1600 
 21 C        5.4780     7.0030    -1.3130 C.ar  1 <1>  -0.1500 
 22 C        4.8110     7.7320    -2.2730 C.ar  1 <1>  -0.1500 
 23 H       -0.7280     1.5200    -1.1840 H     1 <1>   0.0800 
 24 H       -0.7830     1.7860     0.5250 H     1 <1>   0.0800 
 25 H       -1.8620    -1.9040     1.2040 H     1 <1>   0.0800 
 26 H       -1.4700    -0.2440     1.5690 H     1 <1>   0.0800 
 27 H       -0.3600    -1.5190     2.0240 H     1 <1>   0.0800 
 28 H       -0.6630    -3.1050    -0.4410 H     1 <1>   0.0800 
 29 H        0.9190    -2.6930     0.2040 H     1 <1>   0.0800 
 30 H        0.5120    -2.3100    -1.4560 H     1 <1>   0.0800 
 31 H        1.4640     2.6870    -1.2880 H     1 <1>   0.0800 
 32 H       -0.3340     4.1920    -1.8670 H     1 <1>   0.0800 
 33 H        2.5550     2.7900     0.7510 H     1 <1>   0.0800 
 34 H        1.0690     2.9990     1.6600 H     1 <1>   0.0800 
 35 H       -0.7890     4.4550     0.8980 H     1 <1>   0.4000 
 36 H        0.4700     6.1960    -0.2660 H     1 <1>   0.0800 
 37 H        1.6660     5.4260    -1.2990 H     1 <1>   0.0800 
 38 H        1.8050     7.4260     1.3100 H     1 <1>   0.0800 
 39 H        3.3290     7.3270     2.1310 H     1 <1>   0.0800 
 40 H        5.2670     6.1840     0.6440 H     1 <1>   0.1500 
 41 H        3.0110     8.7350    -2.7770 H     1 <1>   0.1500 
 42 H        6.4830     6.6480    -1.4680 H     1 <1>   0.1500 
 43 H        5.2860     7.9670    -3.2080 H     1 <1>   0.1500 
@<TRIPOS>BOND
  1   1   2  2   
  2   1   3  2   
  3   1   4  am  
  4   1   5  1   
  5   4   6  1   
  6   4   7  1   
  7   5   8  1   
  8   5  23  1   
  9   5  24  1   
 10   6  25  1   
 11   6  26  1   
 12   6  27  1   
 13   7  28  1   
 14   7  29  1   
 15   7  30  1   
 16   8   9  1   
 17   8  10  1   
 18   8  31  1   
 19   9  11  1   
 20   9  12  1   
 21   9  32  1   
 22  10  13  1   
 23  10  33  1   
 24  10  34  1   
 25  11  35  1   
 26  12  13  1   
 27  12  36  1   
 28  12  37  1   
 29  13  14  am  
 30  14  15  2   
 31  14  16  1   
 32  16  17  1   
 33  16  38  1   
 34  16  39  1   
 35  17  18  ar  
 36  17  19  ar  
 37  18  20  ar  
 38  19  21  ar  
 39  19  40  1   
 40  20  22  ar  
 41  20  41  1   
 42  21  22  ar  
 43  21  42  1   
 44  22  43  1   
@<TRIPOS>SUBSTRUCTURE
  1 ****  10 GROUP 4 **** **** 0

# MOE 2024.06 (io_trps.svl 2023.06)
