@<TRIPOS>MOLECULE
NONAME
52 55 1 0 0 
SMALL
USER_CHARGES


@<TRIPOS>ATOM
  1 O       -0.1390     1.3390     1.7160 O.2   1 <1>  -0.5700 
  2 C       -0.5240     2.4590     1.4580 C.2   1 <1>   0.5440 
  3 N        0.2770     3.4800     1.8760 N.am  1 <1>  -0.7300 
  4 C       -1.7400     2.6820     0.6990 C.ar  1 <1>   0.0860 
  5 C        0.1890     4.8970     1.4220 C.3   1 <1>   0.2200 
  6 C       -2.7190     3.5780     1.1300 C.ar  1 <1>  -0.1500 
  7 C       -1.9520     2.0350    -0.5190 C.ar  1 <1>  -0.1500 
  8 C        0.4760     5.0530    -0.0850 C.3   1 <1>   0.2000 
  9 C        1.1690     5.8360     2.1240 C.3   1 <1>   0.1400 
 10 C       -3.8220     3.8740     0.3530 C.ar  1 <1>   0.0830 
 11 C       -3.0720     2.2940    -1.2910 C.ar  1 <1>  -0.1500 
 12 O       -0.6990     5.3390    -0.7700 O.3   1 <1>  -0.6800 
 13 C        1.4440     6.2280    -0.2250 C.3   1 <1>   0.1400 
 14 N        1.4810     6.8710     1.1080 N.am  1 <1>  -0.6600 
 15 O       -4.6760     4.8190     0.8150 O.3   1 <1>  -0.3630 
 16 C       -4.0170     3.2100    -0.8600 C.ar  1 <1>   0.0830 
 17 C        1.4030     8.2080     1.3960 C.2   1 <1>   0.5690 
 18 C       -4.7730     6.0320     0.0860 C.3   1 <1>   0.3010 
 19 O       -5.1020     3.4210    -1.6370 O.3   1 <1>  -0.3630 
 20 O        1.3620     8.6030     2.5360 O.2   1 <1>  -0.5700 
 21 C        1.4060     9.2660     0.3010 C.3   1 <1>  -0.0990 
 22 C       -3.4850     6.8520     0.1490 C.2   1 <1>   0.0460 
 23 C       -6.3330     2.9440    -1.1390 C.3   1 <1>   0.0400 
 24 C        0.0260     9.8900    -0.0110 C.3   1 <1>  -0.1600 
 25 N       -2.7350     6.9410     1.2530 N.2   1 <1>  -0.2270 
 26 C       -2.9260     7.5980    -0.8180 C.2   1 <1>  -0.3020 
 27 C       -0.8930     9.0670    -0.9430 C.3   1 <1>   0.0960 
 28 N       -1.7350     7.7090     0.9940 N.2   1 <1>  -0.4180 
 29 N       -1.8370     8.1410    -0.2660 N.pl3 1 <1>   0.3140 
 30 H        1.1190     3.1960     2.3780 H     1 <1>   0.3700 
 31 H       -0.7920     5.2700     1.6430 H     1 <1>   0.0800 
 32 H       -2.6090     4.0720     2.0790 H     1 <1>   0.1500 
 33 H       -1.2180     1.3260    -0.8610 H     1 <1>   0.1500 
 34 H        0.9030     4.1630    -0.5150 H     1 <1>   0.0800 
 35 H        2.0760     5.3230     2.3920 H     1 <1>   0.0800 
 36 H        0.7170     6.2710     3.0000 H     1 <1>   0.0800 
 37 H       -3.2180     1.7890    -2.2280 H     1 <1>   0.1500 
 38 H       -1.2760     5.9140    -0.2110 H     1 <1>   0.4000 
 39 H        1.1250     6.8980    -1.0010 H     1 <1>   0.0800 
 40 H        2.4280     5.8590    -0.4530 H     1 <1>   0.0800 
 41 H       -5.0290     5.8110    -0.9330 H     1 <1>   0.0800 
 42 H       -5.5710     6.5990     0.5280 H     1 <1>   0.0800 
 43 H        2.0420    10.0560     0.6590 H     1 <1>   0.0800 
 44 H        1.8680     8.8960    -0.5930 H     1 <1>   0.0800 
 45 H       -7.0890     3.1250    -1.8810 H     1 <1>   0.0800 
 46 H       -6.5760     3.4630    -0.2300 H     1 <1>   0.0800 
 47 H       -6.2440     1.8880    -0.9540 H     1 <1>   0.0800 
 48 H        0.2190    10.8230    -0.5110 H     1 <1>   0.0800 
 49 H       -0.4870    10.1350     0.9050 H     1 <1>   0.0800 
 50 H       -3.2350     7.7730    -1.8320 H     1 <1>   0.1500 
 51 H       -0.3070     8.5040    -1.6450 H     1 <1>   0.0800 
 52 H       -1.4950     9.7560    -1.5070 H     1 <1>   0.0800 
@<TRIPOS>BOND
  1   1   2  2   
  2   2   3  am  
  3   2   4  1   
  4   3   5  1   
  5   3  30  1   
  6   4   6  ar  
  7   4   7  ar  
  8   5   8  1   
  9   5   9  1   
 10   5  31  1   
 11   6  10  ar  
 12   6  32  1   
 13   7  11  ar  
 14   7  33  1   
 15   8  12  1   
 16   8  13  1   
 17   8  34  1   
 18   9  14  1   
 19   9  35  1   
 20   9  36  1   
 21  10  15  1   
 22  10  16  ar  
 23  11  16  ar  
 24  11  37  1   
 25  12  38  1   
 26  13  14  1   
 27  13  39  1   
 28  13  40  1   
 29  14  17  am  
 30  15  18  1   
 31  16  19  1   
 32  17  20  2   
 33  17  21  1   
 34  18  22  1   
 35  18  41  1   
 36  18  42  1   
 37  19  23  1   
 38  21  24  1   
 39  21  43  1   
 40  21  44  1   
 41  22  25  1   
 42  22  26  2   
 43  23  45  1   
 44  23  46  1   
 45  23  47  1   
 46  24  27  1   
 47  24  48  1   
 48  24  49  1   
 49  25  28  2   
 50  26  29  1   
 51  26  50  1   
 52  27  29  1   
 53  27  51  1   
 54  27  52  1   
 55  28  29  1   
@<TRIPOS>SUBSTRUCTURE
  1 ****  12 GROUP 4 **** **** 0

# MOE 2024.06 (io_trps.svl 2023.06)
