@<TRIPOS>MOLECULE
NONAME
38 41 1 0 0 
SMALL
USER_CHARGES


@<TRIPOS>ATOM
  1 S        0.6390    -0.4560     0.6830 S.3   1 <1>  -0.0800 
  2 C        0.1530    -2.1450     0.5420 C.ar  1 <1>   0.2970 
  3 C       -0.7290     0.0740    -0.3000 C.2   1 <1>  -0.1100 
  4 N        0.8180    -3.1400     1.0870 N.ar  1 <1>  -0.5670 
  5 C       -0.9930    -2.2500    -0.2040 C.ar  1 <1>   0.0000 
  6 C       -1.4740    -0.9790    -0.6820 C.2   1 <1>  -0.1500 
  7 C        0.2690    -4.3140     0.8410 C.ar  1 <1>   0.4770 
  8 C       -1.4740    -3.5470    -0.3690 C.ar  1 <1>   0.4100 
  9 N       -0.8290    -4.5790     0.1470 N.ar  1 <1>  -0.6200 
 10 C        0.9740    -5.5160     1.4200 C.3   1 <1>  -0.0960 
 11 N       -2.6440    -3.8020    -1.0480 N.pl3 1 <1>  -0.8380 
 12 C       -2.7850    -5.0630    -1.8490 C.3   1 <1>   0.2090 
 13 C       -3.9350    -3.3540    -0.4380 C.3   1 <1>   0.2090 
 14 C       -3.4970    -6.1790    -1.0580 C.3   1 <1>   0.2090 
 15 C       -4.6200    -4.4890     0.3500 C.3   1 <1>   0.2090 
 16 N       -4.8050    -5.7110    -0.4910 N.pl3 1 <1>  -0.8380 
 17 C       -5.7210    -6.6560    -0.0540 C.ar  1 <1>   0.4100 
 18 N       -5.2420    -7.8330     0.3300 N.ar  1 <1>  -0.6200 
 19 C       -7.0950    -6.3610    -0.0170 C.ar  1 <1>   0.1600 
 20 C       -6.1890    -8.6560     0.7470 C.ar  1 <1>   0.1600 
 21 N       -8.0430    -7.1770     0.4050 N.ar  1 <1>  -0.6200 
 22 C       -7.5410    -8.3420     0.7870 C.ar  1 <1>   0.1600 
 23 H       -0.8180     1.1300    -0.4880 H     1 <1>   0.1500 
 24 H       -2.3560    -0.9380    -1.2950 H     1 <1>   0.1500 
 25 H        1.6810    -5.2140     2.1710 H     1 <1>   0.0800 
 26 H        1.4930    -6.0350     0.6360 H     1 <1>   0.0800 
 27 H        0.2560    -6.1790     1.8650 H     1 <1>   0.0800 
 28 H       -1.8140    -5.4110    -2.1550 H     1 <1>   0.0800 
 29 H       -3.3520    -4.8520    -2.7380 H     1 <1>   0.0800 
 30 H       -4.5950    -3.0190    -1.2190 H     1 <1>   0.0800 
 31 H       -3.7570    -2.5270     0.2260 H     1 <1>   0.0800 
 32 H       -2.8560    -6.5030    -0.2560 H     1 <1>   0.0800 
 33 H       -3.6680    -7.0200    -1.7070 H     1 <1>   0.0800 
 34 H       -5.5720    -4.1440     0.7130 H     1 <1>   0.0800 
 35 H       -4.0100    -4.7380     1.2010 H     1 <1>   0.0800 
 36 H       -7.3950    -5.3910    -0.3630 H     1 <1>   0.1500 
 37 H       -5.8780    -9.6310     1.0770 H     1 <1>   0.1500 
 38 H       -8.2350    -9.0810     1.1460 H     1 <1>   0.1500 
@<TRIPOS>BOND
  1   1   2  1   
  2   1   3  1   
  3   2   4  ar  
  4   2   5  ar  
  5   3   6  2   
  6   3  23  1   
  7   4   7  ar  
  8   5   6  1   
  9   5   8  ar  
 10   6  24  1   
 11   7   9  ar  
 12   7  10  1   
 13   8   9  ar  
 14   8  11  1   
 15  10  25  1   
 16  10  26  1   
 17  10  27  1   
 18  11  12  1   
 19  11  13  1   
 20  12  14  1   
 21  12  28  1   
 22  12  29  1   
 23  13  15  1   
 24  13  30  1   
 25  13  31  1   
 26  14  16  1   
 27  14  32  1   
 28  14  33  1   
 29  15  16  1   
 30  15  34  1   
 31  15  35  1   
 32  16  17  1   
 33  17  18  ar  
 34  17  19  ar  
 35  18  20  ar  
 36  19  21  ar  
 37  19  36  1   
 38  20  22  ar  
 39  20  37  1   
 40  21  22  ar  
 41  22  38  1   
@<TRIPOS>SUBSTRUCTURE
  1 ****  11 GROUP 4 **** **** 0

# MOE 2024.06 (io_trps.svl 2023.06)
