@<TRIPOS>MOLECULE
NONAME
54 57 1 0 0 
SMALL
USER_CHARGES


@<TRIPOS>ATOM
  1 O       -0.9030    -0.0550    -2.8560 O.2   1 <1>  -0.5700 
  2 C       -1.4190     0.6920    -2.0570 C.2   1 <1>   0.5690 
  3 N       -2.3310     0.2210    -1.1460 N.am  1 <1>  -0.6600 
  4 C       -0.9950     2.1500    -2.1190 C.3   1 <1>   0.1570 
  5 C       -3.0410     0.9600    -0.0630 C.3   1 <1>   0.1400 
  6 C       -2.4970    -1.2410    -0.9320 C.3   1 <1>   0.1400 
  7 N       -0.4180     2.6270    -0.8370 N.pl3 1 <1>   0.0480 
  8 C       -3.1320    -0.0440     1.0840 C.3   1 <1>   0.2000 
  9 C       -3.2910    -1.3910     0.3710 C.3   1 <1>  -0.0800 
 10 C        0.3490     1.8950     0.0230 C.ar  1 <1>  -0.1520 
 11 C       -0.7220     3.7800    -0.1650 C.2   1 <1>   0.0060 
 12 O       -1.9410    -0.0190     1.7960 O.3   1 <1>  -0.6800 
 13 C       -2.8920    -2.6250     1.2020 C.3   1 <1>  -0.0160 
 14 C        0.4280     2.6470     1.1780 C.ar  1 <1>   0.2270 
 15 C        0.9860     0.6500    -0.0590 C.ar  1 <1>  -0.1500 
 16 N       -0.2400     3.8190     1.0300 N.2   1 <1>  -0.5650 
 17 C       -1.5560     4.9140    -0.7770 C.3   1 <1>   0.1000 
 18 C       -3.1750    -3.9100     0.4400 C.ar  1 <1>  -0.1440 
 19 C        1.1160     2.1640     2.2890 C.ar  1 <1>  -0.1500 
 20 C        1.6640     0.1770     1.0420 C.ar  1 <1>  -0.1500 
 21 C       -0.7390     5.6580    -1.8410 C.3   1 <1>  -0.2400 
 22 C       -2.0480     5.9130     0.2810 C.3   1 <1>  -0.2400 
 23 C       -4.4330    -4.4770     0.4130 C.ar  1 <1>  -0.1500 
 24 C       -2.1920    -4.5750    -0.2650 C.ar  1 <1>  -0.1500 
 25 C        1.7270     0.9320     2.2190 C.ar  1 <1>  -0.1500 
 26 C       -4.6420    -5.6460    -0.3000 C.ar  1 <1>   0.1600 
 27 C       -2.5070    -5.7390    -0.9470 C.ar  1 <1>   0.1600 
 28 N       -3.7100    -6.2900    -0.9830 N.ar  1 <1>  -0.6200 
 29 H       -1.8480     2.7380    -2.3850 H     1 <1>   0.0800 
 30 H       -0.2500     2.2650    -2.8840 H     1 <1>   0.0800 
 31 H       -2.5460     1.8570     0.2550 H     1 <1>   0.0800 
 32 H       -4.0320     1.2050    -0.4050 H     1 <1>   0.0800 
 33 H       -3.0160    -1.6910    -1.7620 H     1 <1>   0.0800 
 34 H       -1.5240    -1.6930    -0.8380 H     1 <1>   0.0800 
 35 H       -3.9370     0.1680     1.7660 H     1 <1>   0.0800 
 36 H       -4.3270    -1.4910     0.0990 H     1 <1>   0.0800 
 37 H       -1.1860     0.1490     1.1900 H     1 <1>   0.4000 
 38 H       -3.4460    -2.6280     2.1250 H     1 <1>   0.0800 
 39 H       -1.8470    -2.5810     1.4570 H     1 <1>   0.0800 
 40 H        0.9520     0.0710    -0.9660 H     1 <1>   0.1500 
 41 H       -2.4310     4.4930    -1.2380 H     1 <1>   0.0800 
 42 H        1.1490     2.7680     3.1760 H     1 <1>   0.1500 
 43 H        2.1570    -0.7780     1.0060 H     1 <1>   0.1500 
 44 H        0.1420     6.0830    -1.3920 H     1 <1>   0.0800 
 45 H       -1.3210     6.4510    -2.2760 H     1 <1>   0.0800 
 46 H       -0.4310     4.9900    -2.6240 H     1 <1>   0.0800 
 47 H       -1.2110     6.3900     0.7600 H     1 <1>   0.0800 
 48 H       -2.6190     5.3980     1.0330 H     1 <1>   0.0800 
 49 H       -2.6680     6.6670    -0.1680 H     1 <1>   0.0800 
 50 H       -5.2510    -4.0230     0.9400 H     1 <1>   0.1500 
 51 H       -1.1850    -4.2020    -0.2920 H     1 <1>   0.1500 
 52 H        2.2600     0.5420     3.0690 H     1 <1>   0.1500 
 53 H       -5.6300    -6.0740    -0.3090 H     1 <1>   0.1500 
 54 H       -1.7280    -6.2430    -1.4930 H     1 <1>   0.1500 
@<TRIPOS>BOND
  1   1   2  2   
  2   2   3  am  
  3   2   4  1   
  4   3   5  1   
  5   3   6  1   
  6   4   7  1   
  7   4  29  1   
  8   4  30  1   
  9   5   8  1   
 10   5  31  1   
 11   5  32  1   
 12   6   9  1   
 13   6  33  1   
 14   6  34  1   
 15   7  10  1   
 16   7  11  1   
 17   8   9  1   
 18   8  12  1   
 19   8  35  1   
 20   9  13  1   
 21   9  36  1   
 22  10  14  ar  
 23  10  15  ar  
 24  11  16  2   
 25  11  17  1   
 26  12  37  1   
 27  13  18  1   
 28  13  38  1   
 29  13  39  1   
 30  14  16  1   
 31  14  19  ar  
 32  15  20  ar  
 33  15  40  1   
 34  17  21  1   
 35  17  22  1   
 36  17  41  1   
 37  18  23  ar  
 38  18  24  ar  
 39  19  25  ar  
 40  19  42  1   
 41  20  25  ar  
 42  20  43  1   
 43  21  44  1   
 44  21  45  1   
 45  21  46  1   
 46  22  47  1   
 47  22  48  1   
 48  22  49  1   
 49  23  26  ar  
 50  23  50  1   
 51  24  27  ar  
 52  24  51  1   
 53  25  52  1   
 54  26  28  ar  
 55  26  53  1   
 56  27  28  ar  
 57  27  54  1   
@<TRIPOS>SUBSTRUCTURE
  1 ****   3 GROUP 4 **** **** 0

# MOE 2024.06 (io_trps.svl 2023.06)
