@<TRIPOS>MOLECULE
NONAME
47 50 1 0 0 
SMALL
USER_CHARGES


@<TRIPOS>ATOM
  1 O        0.2250    -0.2580    -0.7810 O.3   1 <1>  -0.6800 
  2 C        1.2770    -0.2840    -1.6910 C.3   1 <1>   0.2000 
  3 C        1.9720    -1.6470    -1.6350 C.3   1 <1>  -0.0800 
  4 C        2.3650     0.6510    -1.1660 C.3   1 <1>   0.3430 
  5 C        2.9270    -1.5480    -0.4350 C.3   1 <1>   0.3430 
  6 C        1.0560    -2.8880    -1.6120 C.3   1 <1>  -0.0170 
  7 N        2.9710    -0.1090    -0.0350 N.4   1 <1>  -0.9590 
  8 C        1.8910    -4.1500    -1.4210 C.ar  1 <1>  -0.1440 
  9 C        4.3150     0.3490     0.4260 C.3   1 <1>   0.3430 
 10 C        2.1260    -4.7440    -0.1560 C.ar  1 <1>   0.0000 
 11 C        2.4680    -4.7360    -2.5110 C.ar  1 <1>  -0.1500 
 12 C        4.2500     1.7390     1.0680 C.3   1 <1>   0.0000 
 13 C        2.9860    -5.8710    -0.1130 C.ar  1 <1>   0.3100 
 14 C        1.5680    -4.2980     1.0670 C.ar  1 <1>  -0.1500 
 15 C        3.2850    -5.8610    -2.3590 C.ar  1 <1>   0.1600 
 16 C        4.1920     2.9430     0.0890 C.3   1 <1>   0.0000 
 17 C        5.6360     2.2740     1.5150 C.3   1 <1>   0.0000 
 18 N        3.5560    -6.4090    -1.2180 N.ar  1 <1>  -0.6200 
 19 C        3.2720    -6.4650     1.1260 C.ar  1 <1>  -0.1500 
 20 C        1.8650    -4.9040     2.2580 C.ar  1 <1>  -0.1500 
 21 C        5.1590     3.6750     1.0550 C.3   1 <1>   0.0000 
 22 C        2.7310    -5.9980     2.2920 C.ar  1 <1>  -0.1500 
 23 H       -0.6000    -0.6110    -1.1780 H     1 <1>   0.4000 
 24 H        0.9160    -0.0060    -2.6680 H     1 <1>   0.0800 
 25 H        2.5960    -1.7280    -2.5090 H     1 <1>   0.0800 
 26 H        1.9490     1.5930    -0.8460 H     1 <1>   0.0800 
 27 H        3.1020     0.8210    -1.9340 H     1 <1>   0.0800 
 28 H        3.9050    -1.9060    -0.7150 H     1 <1>   0.0800 
 29 H        2.5650    -2.1400     0.3880 H     1 <1>   0.0800 
 30 H        0.5320    -2.9530    -2.5510 H     1 <1>   0.0800 
 31 H        0.3020    -2.8160    -0.8510 H     1 <1>   0.0800 
 32 H        2.2920    -0.0080     0.7370 H     1 <1>   0.4500 
 33 H        4.6920    -0.3450     1.1600 H     1 <1>   0.0800 
 34 H        5.0050     0.3640    -0.4020 H     1 <1>   0.0800 
 35 H        2.3210    -4.3560    -3.5060 H     1 <1>   0.1500 
 36 H        3.5290     1.8100     1.8650 H     1 <1>   0.0000 
 37 H        0.8850    -3.4710     1.0800 H     1 <1>   0.1500 
 38 H        3.7190    -6.2960    -3.2440 H     1 <1>   0.1500 
 39 H        4.6430     2.7350    -0.8670 H     1 <1>   0.0000 
 40 H        3.2220     3.4020     0.0180 H     1 <1>   0.0000 
 41 H        5.8110     2.2000     2.5740 H     1 <1>   0.0000 
 42 H        6.4500     1.8990     0.9170 H     1 <1>   0.0000 
 43 H        3.9350    -7.3120     1.1260 H     1 <1>   0.1500 
 44 H        1.4330    -4.5560     3.1820 H     1 <1>   0.1500 
 45 H        4.6420     4.2140     1.8310 H     1 <1>   0.0000 
 46 H        5.9170     4.2530     0.5580 H     1 <1>   0.0000 
 47 H        2.9580    -6.4670     3.2340 H     1 <1>   0.1500 
@<TRIPOS>BOND
  1   1   2  1   
  2   1  23  1   
  3   2   3  1   
  4   2   4  1   
  5   2  24  1   
  6   3   5  1   
  7   3   6  1   
  8   3  25  1   
  9   4   7  1   
 10   4  26  1   
 11   4  27  1   
 12   5   7  1   
 13   5  28  1   
 14   5  29  1   
 15   6   8  1   
 16   6  30  1   
 17   6  31  1   
 18   7   9  1   
 19   7  32  1   
 20   8  10  ar  
 21   8  11  ar  
 22   9  12  1   
 23   9  33  1   
 24   9  34  1   
 25  10  13  ar  
 26  10  14  ar  
 27  11  15  ar  
 28  11  35  1   
 29  12  16  1   
 30  12  17  1   
 31  12  36  1   
 32  13  18  ar  
 33  13  19  ar  
 34  14  20  ar  
 35  14  37  1   
 36  15  18  ar  
 37  15  38  1   
 38  16  21  1   
 39  16  39  1   
 40  16  40  1   
 41  17  21  1   
 42  17  41  1   
 43  17  42  1   
 44  19  22  ar  
 45  19  43  1   
 46  20  22  ar  
 47  20  44  1   
 48  21  45  1   
 49  21  46  1   
 50  22  47  1   
@<TRIPOS>SUBSTRUCTURE
  1 ****   5 GROUP 4 **** **** 0

# MOE 2024.06 (io_trps.svl 2023.06)
