@<TRIPOS>MOLECULE
NONAME
49 51 1 0 0 
SMALL
USER_CHARGES


@<TRIPOS>ATOM
  1 S        0.0740    -0.4930     0.4390 S.o2  1 <1>   1.3330 
  2 O        0.8460    -1.5210    -0.2230 O.2   1 <1>  -0.6500 
  3 O       -0.1990    -0.6030     1.8550 O.2   1 <1>  -0.6500 
  4 N       -1.3950    -0.2880    -0.3920 N.am  1 <1>  -0.8490 
  5 C        0.9030     1.0770     0.1470 C.3   1 <1>  -0.0550 
  6 C       -2.6070    -0.2390     0.4330 C.3   1 <1>   0.1960 
  7 C       -1.5770    -1.0950    -1.6060 C.3   1 <1>   0.1960 
  8 C        0.1660     2.3190     0.6840 C.3   1 <1>  -0.2400 
  9 C       -3.0690    -1.6450     0.8290 C.3   1 <1>  -0.1600 
 10 C       -2.0190    -2.5230    -1.2670 C.3   1 <1>  -0.1600 
 11 C       -3.2860    -2.5320    -0.4050 C.3   1 <1>   0.4240 
 12 O       -4.2810    -1.9340    -1.2050 O.3   1 <1>  -0.5600 
 13 C       -3.6630    -3.9760    -0.0080 C.ar  1 <1>  -0.1440 
 14 C       -5.6110    -2.2030    -0.8870 C.3   1 <1>   0.1200 
 15 C       -4.8920    -4.5230    -0.3570 C.ar  1 <1>  -0.1440 
 16 C       -2.7760    -4.7630     0.7150 C.ar  1 <1>  -0.1500 
 17 C       -5.8860    -3.6830    -1.1340 C.3   1 <1>  -0.0170 
 18 C       -5.2160    -5.8220     0.0040 C.ar  1 <1>  -0.1500 
 19 C       -3.0820    -6.0630     1.0770 C.ar  1 <1>   0.0820 
 20 C       -4.3260    -6.6080     0.7290 C.ar  1 <1>   0.0820 
 21 O       -2.1110    -6.7190     1.7720 O.3   1 <1>  -0.3630 
 22 O       -4.6450    -7.8780     1.1190 O.3   1 <1>  -0.3630 
 23 C       -1.8320    -8.0720     1.4900 C.3   1 <1>   0.0400 
 24 C       -5.9420    -8.4060     0.9600 C.3   1 <1>   0.0400 
 25 H        1.0490     1.1960    -0.9090 H     1 <1>   0.0800 
 26 H        1.8740     1.0360     0.6010 H     1 <1>   0.0800 
 27 H       -3.3880     0.2430    -0.1310 H     1 <1>   0.0800 
 28 H       -2.4320     0.3560     1.3140 H     1 <1>   0.0800 
 29 H       -0.6650    -1.1160    -2.1780 H     1 <1>   0.0800 
 30 H       -2.3310    -0.6300    -2.2190 H     1 <1>   0.0800 
 31 H       -0.7930     2.4180     0.2060 H     1 <1>   0.0800 
 32 H        0.7420     3.2050     0.4900 H     1 <1>   0.0800 
 33 H        0.0140     2.2280     1.7460 H     1 <1>   0.0800 
 34 H       -3.9730    -1.5860     1.4030 H     1 <1>   0.0800 
 35 H       -2.3270    -2.0880     1.4660 H     1 <1>   0.0800 
 36 H       -1.2180    -3.0230    -0.7570 H     1 <1>   0.0800 
 37 H       -2.2070    -3.0690    -2.1730 H     1 <1>   0.0800 
 38 H       -6.2320    -1.5940    -1.5200 H     1 <1>   0.0800 
 39 H       -5.7910    -1.9420     0.1410 H     1 <1>   0.0800 
 40 H       -1.8170    -4.3760     1.0120 H     1 <1>   0.1500 
 41 H       -5.7960    -3.8940    -2.1850 H     1 <1>   0.0800 
 42 H       -6.8900    -3.9120    -0.8260 H     1 <1>   0.0800 
 43 H       -6.1740    -6.2040    -0.2900 H     1 <1>   0.1500 
 44 H       -0.8220    -8.2760     1.7970 H     1 <1>   0.0800 
 45 H       -1.9390    -8.2410     0.4330 H     1 <1>   0.0800 
 46 H       -2.5130    -8.6900     2.0460 H     1 <1>   0.0800 
 47 H       -5.9620    -9.3820     1.4100 H     1 <1>   0.0800 
 48 H       -6.1610    -8.4850    -0.0900 H     1 <1>   0.0800 
 49 H       -6.6460    -7.7610     1.4560 H     1 <1>   0.0800 
@<TRIPOS>BOND
  1   1   2  2   
  2   1   3  2   
  3   1   4  am  
  4   1   5  1   
  5   4   6  1   
  6   4   7  1   
  7   5   8  1   
  8   5  25  1   
  9   5  26  1   
 10   6   9  1   
 11   6  27  1   
 12   6  28  1   
 13   7  10  1   
 14   7  29  1   
 15   7  30  1   
 16   8  31  1   
 17   8  32  1   
 18   8  33  1   
 19   9  11  1   
 20   9  34  1   
 21   9  35  1   
 22  10  11  1   
 23  10  36  1   
 24  10  37  1   
 25  11  12  1   
 26  11  13  1   
 27  12  14  1   
 28  13  15  ar  
 29  13  16  ar  
 30  14  17  1   
 31  14  38  1   
 32  14  39  1   
 33  15  17  1   
 34  15  18  ar  
 35  16  19  ar  
 36  16  40  1   
 37  17  41  1   
 38  17  42  1   
 39  18  20  ar  
 40  18  43  1   
 41  19  20  ar  
 42  19  21  1   
 43  20  22  1   
 44  21  23  1   
 45  22  24  1   
 46  23  44  1   
 47  23  45  1   
 48  23  46  1   
 49  24  47  1   
 50  24  48  1   
 51  24  49  1   
@<TRIPOS>SUBSTRUCTURE
  1 ****  11 GROUP 4 **** **** 0

# MOE 2024.06 (io_trps.svl 2023.06)
