@<TRIPOS>MOLECULE
NONAME
48 51 1 0 0 
SMALL
USER_CHARGES


@<TRIPOS>ATOM
  1 F       -0.5520    -4.6530    -0.0500 F     1 <1>  -0.3400 
  2 C       -1.0660    -4.5800     1.1720 C.3   1 <1>   0.8800 
  3 F       -0.9000    -5.7810     1.7070 F     1 <1>  -0.3400 
  4 O       -2.4490    -4.3410     1.0640 O.3   1 <1>  -0.3630 
  5 C       -2.9190    -3.0850     0.8760 C.ar  1 <1>   0.0830 
  6 C       -4.2590    -2.8790     1.1500 C.ar  1 <1>  -0.1500 
  7 C       -2.1380    -2.0210     0.4320 C.ar  1 <1>  -0.1500 
  8 C       -4.8560    -1.6300     0.9940 C.ar  1 <1>   0.0860 
  9 C       -2.7060    -0.7690     0.2870 C.ar  1 <1>  -0.1500 
 10 C       -6.2650    -1.4220     1.2680 C.2   1 <1>   0.5440 
 11 C       -4.0470    -0.5780     0.5690 C.ar  1 <1>  -0.1500 
 12 O       -6.5950    -0.5220     2.0180 O.2   1 <1>  -0.5700 
 13 N       -7.2390    -2.2010     0.6770 N.am  1 <1>  -0.6600 
 14 C       -8.6760    -2.1020     1.1050 C.3   1 <1>   0.1400 
 15 C       -6.9820    -2.9120    -0.6130 C.3   1 <1>   0.1400 
 16 C       -9.5490    -1.6180    -0.0680 C.3   1 <1>   0.1440 
 17 C       -8.2520    -3.5590    -1.1830 C.3   1 <1>  -0.1600 
 18 C      -11.0010    -1.4800     0.3550 C.ar  1 <1>   0.1670 
 19 C       -9.4390    -2.5810    -1.2820 C.3   1 <1>  -0.1600 
 20 C       -9.1900    -0.1590    -0.4630 C.3   1 <1>  -0.1600 
 21 N      -11.6950    -2.3890     1.0040 N.ar  1 <1>  -0.6200 
 22 C      -11.5260    -0.2820    -0.0290 C.ar  1 <1>  -0.1430 
 23 C      -10.5140     0.5640    -0.7600 C.3   1 <1>  -0.0170 
 24 C      -12.9490    -2.0410     1.2570 C.ar  1 <1>   0.4770 
 25 C      -12.8370    -0.0270     0.2870 C.ar  1 <1>   0.1600 
 26 N      -13.5650    -0.9110     0.9380 N.ar  1 <1>  -0.6200 
 27 C      -13.7720    -3.0600     2.0070 C.3   1 <1>  -0.0970 
 28 H       -0.5490    -3.8410     1.7570 H     1 <1>   0.0800 
 29 H       -4.8550    -3.7040     1.4990 H     1 <1>   0.1500 
 30 H       -1.0980    -2.1410     0.1870 H     1 <1>   0.1500 
 31 H       -2.1060     0.0600    -0.0480 H     1 <1>   0.1500 
 32 H       -4.4850     0.4000     0.4620 H     1 <1>   0.1500 
 33 H       -8.7880    -1.4320     1.9390 H     1 <1>   0.0800 
 34 H       -9.0140    -3.0710     1.4300 H     1 <1>   0.0800 
 35 H       -6.2400    -3.6770    -0.4640 H     1 <1>   0.0800 
 36 H       -6.5950    -2.2030    -1.3260 H     1 <1>   0.0800 
 37 H       -8.5240    -4.3840    -0.5460 H     1 <1>   0.0800 
 38 H       -8.0400    -3.9690    -2.1550 H     1 <1>   0.0800 
 39 H       -9.3620    -2.0160    -2.1930 H     1 <1>   0.0800 
 40 H      -10.3390    -3.1670    -1.3590 H     1 <1>   0.0800 
 41 H       -8.5020    -0.1060    -1.2870 H     1 <1>   0.0800 
 42 H       -8.7300     0.3300     0.3790 H     1 <1>   0.0800 
 43 H      -10.7270     0.5540    -1.8140 H     1 <1>   0.0800 
 44 H      -10.5010     1.5770    -0.3950 H     1 <1>   0.0800 
 45 H      -13.2950     0.9060     0.0060 H     1 <1>   0.1500 
 46 H      -13.5730    -4.0420     1.6230 H     1 <1>   0.0800 
 47 H      -14.8200    -2.8480     1.8980 H     1 <1>   0.0800 
 48 H      -13.5130    -3.0270     3.0480 H     1 <1>   0.0800 
@<TRIPOS>BOND
  1   1   2  1   
  2   2   3  1   
  3   2   4  1   
  4   2  28  1   
  5   4   5  1   
  6   5   6  ar  
  7   5   7  ar  
  8   6   8  ar  
  9   6  29  1   
 10   7   9  ar  
 11   7  30  1   
 12   8  10  1   
 13   8  11  ar  
 14   9  11  ar  
 15   9  31  1   
 16  10  12  2   
 17  10  13  am  
 18  11  32  1   
 19  13  14  1   
 20  13  15  1   
 21  14  16  1   
 22  14  33  1   
 23  14  34  1   
 24  15  17  1   
 25  15  35  1   
 26  15  36  1   
 27  16  18  1   
 28  16  19  1   
 29  16  20  1   
 30  17  19  1   
 31  17  37  1   
 32  17  38  1   
 33  18  21  ar  
 34  18  22  ar  
 35  19  39  1   
 36  19  40  1   
 37  20  23  1   
 38  20  41  1   
 39  20  42  1   
 40  21  24  ar  
 41  22  23  1   
 42  22  25  ar  
 43  23  43  1   
 44  23  44  1   
 45  24  26  ar  
 46  24  27  1   
 47  25  26  ar  
 48  25  45  1   
 49  27  46  1   
 50  27  47  1   
 51  27  48  1   
@<TRIPOS>SUBSTRUCTURE
  1 ****  13 GROUP 4 **** **** 0

# MOE 2024.06 (io_trps.svl 2023.06)
