@<TRIPOS>MOLECULE
NONAME
30 31 1 0 0 
SMALL
USER_CHARGES


@<TRIPOS>ATOM
  1 O       -0.2260    -0.1420    -0.2610 O.3   1 <1>  -0.5600 
  2 C        0.5560    -1.2690    -0.1080 C.3   1 <1>   0.5600 
  3 C       -1.0640    -0.0370     0.8250 C.3   1 <1>   0.4800 
  4 O       -0.1670    -2.1410     0.6890 O.3   1 <1>  -0.5600 
  5 C        0.7530    -1.9090    -1.4700 C.3   1 <1>  -0.2400 
  6 C        1.8690    -0.9040     0.5770 C.3   1 <1>  -0.2400 
  7 O       -2.3480     0.1440     0.3190 O.3   1 <1>  -0.5600 
  8 C       -1.0280    -1.4060     1.4850 C.3   1 <1>   0.2000 
  9 C       -2.9450    -1.1010     0.1360 C.3   1 <1>   0.2000 
 10 C       -2.4360    -1.9390     1.3060 C.3   1 <1>  -0.1600 
 11 C       -4.4750    -0.9490     0.0620 C.3   1 <1>   0.2000 
 12 O       -5.0700    -2.2050    -0.1060 O.3   1 <1>  -0.6800 
 13 C       -4.9090    -0.0180    -1.0830 C.3   1 <1>   0.1200 
 14 O       -6.2800    -0.1230    -1.2730 O.3   1 <1>  -0.6800 
 15 H       -0.7820     0.7850     1.4580 H     1 <1>   0.0800 
 16 H        1.3280    -2.8110    -1.3700 H     1 <1>   0.0800 
 17 H        1.2810    -1.2340    -2.1170 H     1 <1>   0.0800 
 18 H       -0.2010    -2.1430    -1.9050 H     1 <1>   0.0800 
 19 H        2.4660    -1.7880     0.7050 H     1 <1>   0.0800 
 20 H        1.6950    -0.4560     1.5370 H     1 <1>   0.0800 
 21 H        2.4160    -0.2130    -0.0390 H     1 <1>   0.0800 
 22 H       -0.6750    -1.3970     2.5000 H     1 <1>   0.0800 
 23 H       -2.5660    -1.4940    -0.7930 H     1 <1>   0.0800 
 24 H       -2.4620    -2.9940     1.1020 H     1 <1>   0.0800 
 25 H       -3.0240    -1.7300     2.1810 H     1 <1>   0.0800 
 26 H       -4.8330    -0.5510     0.9960 H     1 <1>   0.0800 
 27 H       -4.7670    -2.6130    -0.9410 H     1 <1>   0.4000 
 28 H       -4.4190    -0.2920    -2.0010 H     1 <1>   0.0800 
 29 H       -4.6710     1.0070    -0.8560 H     1 <1>   0.0800 
 30 H       -6.5650    -0.9980    -0.9270 H     1 <1>   0.4000 
@<TRIPOS>BOND
  1   1   2  1   
  2   1   3  1   
  3   2   4  1   
  4   2   5  1   
  5   2   6  1   
  6   3   7  1   
  7   3   8  1   
  8   3  15  1   
  9   4   8  1   
 10   5  16  1   
 11   5  17  1   
 12   5  18  1   
 13   6  19  1   
 14   6  20  1   
 15   6  21  1   
 16   7   9  1   
 17   8  10  1   
 18   8  22  1   
 19   9  10  1   
 20   9  11  1   
 21   9  23  1   
 22  10  24  1   
 23  10  25  1   
 24  11  12  1   
 25  11  13  1   
 26  11  26  1   
 27  12  27  1   
 28  13  14  1   
 29  13  28  1   
 30  13  29  1   
 31  14  30  1   
@<TRIPOS>SUBSTRUCTURE
  1 ****   9 GROUP 4 **** **** 0

# MOE 2024.06 (io_trps.svl 2023.06)
