@<TRIPOS>MOLECULE
NONAME
41 43 1 0 0 
SMALL
USER_CHARGES


@<TRIPOS>ATOM
  1 F       -0.0860    -0.9850     1.2930 F     1 <1>  -0.1900 
  2 C        1.0830    -1.3020     0.7870 C.ar  1 <1>   0.1900 
  3 C        1.2050    -2.4140    -0.0430 C.ar  1 <1>   0.1000 
  4 C        2.1700    -0.5090     1.0950 C.ar  1 <1>   0.1600 
  5 N        0.1740    -3.2780    -0.4140 N.pl3 1 <1>  -0.8380 
  6 C        2.4870    -2.6280    -0.5180 C.ar  1 <1>  -0.1500 
  7 N        3.4010    -0.7240     0.6390 N.ar  1 <1>  -0.6200 
  8 C       -0.4440    -4.1050     0.6780 C.3   1 <1>   0.2090 
  9 C       -0.7530    -2.7940    -1.4910 C.3   1 <1>   0.2090 
 10 C        3.5210    -1.7790    -0.1580 C.ar  1 <1>   0.1600 
 11 C       -1.6250    -4.9030     0.0890 C.3   1 <1>   0.4230 
 12 C       -2.1990    -2.6680    -0.9860 C.3   1 <1>  -0.1600 
 13 N       -2.1500    -6.0680     0.8810 N.4   1 <1>  -0.9590 
 14 C       -2.7670    -3.9320    -0.2670 C.3   1 <1>  -0.1060 
 15 C       -3.1270    -6.8620     0.0860 C.3   1 <1>   0.3430 
 16 C       -1.1230    -6.9110     1.5450 C.3   1 <1>   0.2630 
 17 C       -3.5010    -3.4810     1.0090 C.2   1 <1>   0.9060 
 18 C       -3.7400    -4.7100    -1.1830 C.3   1 <1>  -0.1600 
 19 C       -4.2500    -5.9790    -0.4730 C.3   1 <1>  -0.1600 
 20 O       -4.4210    -2.6720     0.9070 O.co2 1 <1>  -0.9000 
 21 O       -3.2060    -3.9980     2.1000 O.co2 1 <1>  -0.9000 
 22 H        2.0210     0.3360     1.7430 H     1 <1>   0.1500 
 23 H        2.6710    -3.4600    -1.1690 H     1 <1>   0.1500 
 24 H        0.3130    -4.7650     1.0570 H     1 <1>   0.0800 
 25 H       -0.7830    -3.4680     1.4770 H     1 <1>   0.0800 
 26 H       -0.4190    -1.8360    -1.8540 H     1 <1>   0.0800 
 27 H       -0.7180    -3.4860    -2.3150 H     1 <1>   0.0800 
 28 H        4.5060    -1.9780    -0.5460 H     1 <1>   0.1500 
 29 H       -1.2500    -5.3060    -0.8360 H     1 <1>   0.0800 
 30 H       -2.2110    -1.8370    -0.3000 H     1 <1>   0.0800 
 31 H       -2.8410    -2.3820    -1.7990 H     1 <1>   0.0800 
 32 H       -2.6940    -5.5580     1.6300 H     1 <1>   0.4500 
 33 H       -2.6130    -7.3370    -0.7330 H     1 <1>   0.0800 
 34 H       -3.5590    -7.6310     0.7060 H     1 <1>   0.0800 
 35 H       -0.4710    -7.3550     0.8120 H     1 <1>   0.0800 
 36 H       -1.6000    -7.6930     2.1130 H     1 <1>   0.0800 
 37 H       -0.5370    -6.3120     2.2230 H     1 <1>   0.0800 
 38 H       -4.5820    -4.0820    -1.4280 H     1 <1>   0.0800 
 39 H       -3.2470    -4.9780    -2.1020 H     1 <1>   0.0800 
 40 H       -4.8430    -6.5570    -1.1600 H     1 <1>   0.0800 
 41 H       -4.9010    -5.6970     0.3380 H     1 <1>   0.0800 
@<TRIPOS>BOND
  1   1   2  1   
  2   2   3  ar  
  3   2   4  ar  
  4   3   5  1   
  5   3   6  ar  
  6   4   7  ar  
  7   4  22  1   
  8   5   8  1   
  9   5   9  1   
 10   6  10  ar  
 11   6  23  1   
 12   7  10  ar  
 13   8  11  1   
 14   8  24  1   
 15   8  25  1   
 16   9  12  1   
 17   9  26  1   
 18   9  27  1   
 19  10  28  1   
 20  11  13  1   
 21  11  14  1   
 22  11  29  1   
 23  12  14  1   
 24  12  30  1   
 25  12  31  1   
 26  13  15  1   
 27  13  16  1   
 28  13  32  1   
 29  14  17  1   
 30  14  18  1   
 31  15  19  1   
 32  15  33  1   
 33  15  34  1   
 34  16  35  1   
 35  16  36  1   
 36  16  37  1   
 37  17  20  ar  
 38  17  21  ar  
 39  18  19  1   
 40  18  38  1   
 41  18  39  1   
 42  19  40  1   
 43  19  41  1   
@<TRIPOS>SUBSTRUCTURE
  1 ****   8 GROUP 4 **** **** 0

# MOE 2024.06 (io_trps.svl 2023.06)
