@<TRIPOS>MOLECULE
NONAME
46 48 1 0 0 
SMALL
USER_CHARGES


@<TRIPOS>ATOM
  1 O       -0.7380     0.9700    -1.6130 O.co2 1 <1>  -0.9000 
  2 C       -0.3730     1.3320    -0.4820 C.2   1 <1>   0.9060 
  3 O        0.7380     1.0450    -0.0320 O.co2 1 <1>  -0.9000 
  4 C       -1.4070     1.9980     0.4700 C.3   1 <1>   0.4600 
  5 N       -2.7810     1.3550     0.5180 N.4   1 <1>  -0.8970 
  6 C       -1.6350     3.4930     0.2390 C.ar  1 <1>  -0.1430 
  7 C       -2.7780    -0.1410     0.3610 C.3   1 <1>   0.4720 
  8 C       -3.5260     1.4140    -0.7880 C.3   1 <1>   0.4720 
  9 C       -1.8960     4.3160     1.3270 C.ar  1 <1>  -0.1500 
 10 C       -1.6100     4.0490    -1.0340 C.ar  1 <1>  -0.1500 
 11 C       -4.0930     0.0170    -0.4400 C.3   1 <1>   0.1080 
 12 C       -2.1430     5.6660     1.1490 C.ar  1 <1>  -0.1500 
 13 C       -1.8570     5.3980    -1.2120 C.ar  1 <1>  -0.1500 
 14 C       -5.3550     0.0360     0.4270 C.ar  1 <1>  -0.1080 
 15 C       -2.1290     6.2160    -0.1290 C.ar  1 <1>   0.0830 
 16 C       -5.5610    -0.8940     1.4300 C.ar  1 <1>  -0.1500 
 17 C       -6.3610     0.9690     0.2510 C.ar  1 <1>  -0.1500 
 18 O       -2.3640     7.5240    -0.4040 O.3   1 <1>  -0.3630 
 19 C       -6.7100    -0.8300     2.2000 C.ar  1 <1>   0.1600 
 20 C       -7.4720     0.9460     1.0770 C.ar  1 <1>   0.1600 
 21 C       -2.5680     8.5020     0.5910 C.3   1 <1>   0.2000 
 22 N       -7.6620     0.0740     2.0520 N.ar  1 <1>  -0.6200 
 23 C       -4.0400     8.4830     1.0090 C.3   1 <1>  -0.2400 
 24 C       -2.1880     9.8480    -0.0200 C.3   1 <1>  -0.2400 
 25 H       -0.9640     1.8950     1.4430 H     1 <1>   0.0800 
 26 H       -3.3670     1.6850     1.2840 H     1 <1>   0.4500 
 27 H       -2.8840    -0.6490     1.3030 H     1 <1>   0.0000 
 28 H       -1.9610    -0.4920    -0.2420 H     1 <1>   0.0000 
 29 H       -2.8770     1.4050    -1.6410 H     1 <1>   0.0000 
 30 H       -4.2540     2.2040    -0.8010 H     1 <1>   0.0000 
 31 H       -1.9070     3.9120     2.3250 H     1 <1>   0.1500 
 32 H       -1.3940     3.4410    -1.9000 H     1 <1>   0.1500 
 33 H       -4.1630    -0.6430    -1.2870 H     1 <1>   0.0000 
 34 H       -2.3420     6.2700     2.0130 H     1 <1>   0.1500 
 35 H       -1.8350     5.8270    -2.1980 H     1 <1>   0.1500 
 36 H       -4.8500    -1.6760     1.6270 H     1 <1>   0.1500 
 37 H       -6.3100     1.7180    -0.5190 H     1 <1>   0.1500 
 38 H       -6.8550    -1.5600     2.9790 H     1 <1>   0.1500 
 39 H       -8.2460     1.6810     0.9290 H     1 <1>   0.1500 
 40 H       -1.9160     8.2980     1.4230 H     1 <1>   0.0800 
 41 H       -4.6690     8.6890     0.1600 H     1 <1>   0.0800 
 42 H       -4.2180     9.2340     1.7560 H     1 <1>   0.0800 
 43 H       -4.3070     7.5270     1.4200 H     1 <1>   0.0800 
 44 H       -2.8050    10.0600    -0.8750 H     1 <1>   0.0800 
 45 H       -1.1570     9.8340    -0.3220 H     1 <1>   0.0800 
 46 H       -2.3210    10.6320     0.7020 H     1 <1>   0.0800 
@<TRIPOS>BOND
  1   1   2  ar  
  2   2   3  ar  
  3   2   4  1   
  4   4   5  1   
  5   4   6  1   
  6   4  25  1   
  7   5   7  1   
  8   5   8  1   
  9   5  26  1   
 10   6   9  ar  
 11   6  10  ar  
 12   7  11  1   
 13   7  27  1   
 14   7  28  1   
 15   8  11  1   
 16   8  29  1   
 17   8  30  1   
 18   9  12  ar  
 19   9  31  1   
 20  10  13  ar  
 21  10  32  1   
 22  11  14  1   
 23  11  33  1   
 24  12  15  ar  
 25  12  34  1   
 26  13  15  ar  
 27  13  35  1   
 28  14  16  ar  
 29  14  17  ar  
 30  15  18  1   
 31  16  19  ar  
 32  16  36  1   
 33  17  20  ar  
 34  17  37  1   
 35  18  21  1   
 36  19  22  ar  
 37  19  38  1   
 38  20  22  ar  
 39  20  39  1   
 40  21  23  1   
 41  21  24  1   
 42  21  40  1   
 43  23  41  1   
 44  23  42  1   
 45  23  43  1   
 46  24  44  1   
 47  24  45  1   
 48  24  46  1   
@<TRIPOS>SUBSTRUCTURE
  1 ****   6 GROUP 4 **** **** 0

# MOE 2024.06 (io_trps.svl 2023.06)
