@<TRIPOS>MOLECULE
NONAME
47 49 1 0 0 
SMALL
USER_CHARGES


@<TRIPOS>ATOM
  1 F       -0.9160     3.0070    -1.7060 F     1 <1>  -0.1900 
  2 C       -0.1680     3.2920    -0.6690 C.ar  1 <1>   0.1900 
  3 C       -0.6670     3.2350     0.6380 C.ar  1 <1>   0.0830 
  4 C        1.1390     3.6540    -0.9400 C.ar  1 <1>  -0.1500 
  5 O       -1.9290     2.8930     1.0260 O.3   1 <1>  -0.3630 
  6 C        0.2030     3.5600     1.6680 C.ar  1 <1>  -0.1500 
  7 C        1.9930     3.9700     0.1060 C.ar  1 <1>  -0.1430 
  8 C       -2.9360     2.5090     0.1160 C.3   1 <1>   0.0400 
  9 C        1.5140     3.9240     1.4070 C.ar  1 <1>  -0.1500 
 10 C        3.4340     4.3710    -0.1660 C.3   1 <1>   0.3530 
 11 N        3.5200     5.8400    -0.0830 N.pl3 1 <1>  -0.8690 
 12 C        4.5420     6.5320    -0.6830 C.ar  1 <1>   0.4100 
 13 N        5.6290     5.8480    -1.0140 N.ar  1 <1>  -0.6200 
 14 C        4.3990     7.8940    -0.9070 C.ar  1 <1>  -0.1500 
 15 C        6.5920     6.5420    -1.5940 C.ar  1 <1>   0.1600 
 16 C        5.4100     8.6260    -1.4990 C.ar  1 <1>   0.0860 
 17 C        6.5360     7.8960    -1.8550 C.ar  1 <1>  -0.1500 
 18 C        5.2920    10.0500    -1.7360 C.2   1 <1>   0.5440 
 19 O        4.3490    10.4560    -2.3880 O.2   1 <1>  -0.5700 
 20 N        6.2130    10.9510    -1.2400 N.am  1 <1>  -0.6600 
 21 C        7.1710    10.6370    -0.1420 C.3   1 <1>   0.1400 
 22 C        6.1910    12.3880    -1.6370 C.3   1 <1>   0.1400 
 23 C        6.8470    11.4930     1.0870 C.3   1 <1>  -0.1600 
 24 C        5.8550    13.2550    -0.4190 C.3   1 <1>  -0.1600 
 25 C        6.8180    12.9900     0.7470 C.3   1 <1>  -0.1600 
 26 H        1.4780     3.6880    -1.9600 H     1 <1>   0.1500 
 27 H       -0.1560     3.5270     2.6810 H     1 <1>   0.1500 
 28 H       -3.8240     2.2790     0.6770 H     1 <1>   0.0800 
 29 H       -2.6080     1.6360    -0.4210 H     1 <1>   0.0800 
 30 H       -3.1310     3.3260    -0.5560 H     1 <1>   0.0800 
 31 H        2.1670     4.1760     2.2260 H     1 <1>   0.1500 
 32 H        3.7370     4.0380    -1.1450 H     1 <1>   0.0800 
 33 H        4.0920     3.9320     0.5640 H     1 <1>   0.0800 
 34 H        2.5980     6.2770    -0.1110 H     1 <1>   0.4000 
 35 H        3.4920     8.3870    -0.6160 H     1 <1>   0.1500 
 36 H        7.4760     5.9970    -1.8770 H     1 <1>   0.1500 
 37 H        7.3590     8.3920    -2.3360 H     1 <1>   0.1500 
 38 H        8.1710    10.8480    -0.4810 H     1 <1>   0.0800 
 39 H        7.1210     9.5990     0.1330 H     1 <1>   0.0800 
 40 H        5.4670    12.5600    -2.4150 H     1 <1>   0.0800 
 41 H        7.1590    12.6580    -2.0220 H     1 <1>   0.0800 
 42 H        7.5820    11.3120     1.8510 H     1 <1>   0.0800 
 43 H        5.8900    11.1920     1.4750 H     1 <1>   0.0800 
 44 H        4.8450    13.0430    -0.1160 H     1 <1>   0.0800 
 45 H        5.9010    14.2930    -0.6990 H     1 <1>   0.0800 
 46 H        7.8070    13.3150     0.4740 H     1 <1>   0.0800 
 47 H        6.5070    13.5540     1.6100 H     1 <1>   0.0800 
@<TRIPOS>BOND
  1   1   2  1   
  2   2   3  ar  
  3   2   4  ar  
  4   3   5  1   
  5   3   6  ar  
  6   4   7  ar  
  7   4  26  1   
  8   5   8  1   
  9   6   9  ar  
 10   6  27  1   
 11   7   9  ar  
 12   7  10  1   
 13   8  28  1   
 14   8  29  1   
 15   8  30  1   
 16   9  31  1   
 17  10  11  1   
 18  10  32  1   
 19  10  33  1   
 20  11  12  1   
 21  11  34  1   
 22  12  13  ar  
 23  12  14  ar  
 24  13  15  ar  
 25  14  16  ar  
 26  14  35  1   
 27  15  17  ar  
 28  15  36  1   
 29  16  17  ar  
 30  16  18  1   
 31  17  37  1   
 32  18  19  2   
 33  18  20  am  
 34  20  21  1   
 35  20  22  1   
 36  21  23  1   
 37  21  38  1   
 38  21  39  1   
 39  22  24  1   
 40  22  40  1   
 41  22  41  1   
 42  23  25  1   
 43  23  42  1   
 44  23  43  1   
 45  24  25  1   
 46  24  44  1   
 47  24  45  1   
 48  25  46  1   
 49  25  47  1   
@<TRIPOS>SUBSTRUCTURE
  1 ****  12 GROUP 4 **** **** 0

# MOE 2024.06 (io_trps.svl 2023.06)
