@<TRIPOS>MOLECULE
NONAME
52 55 1 0 0 
SMALL
USER_CHARGES


@<TRIPOS>ATOM
  1 O        0.2080     0.5710     0.8660 O.2   1 <1>  -0.5700 
  2 C        0.3720     1.7470     0.6490 C.2   1 <1>   0.5690 
  3 N       -0.6540     2.5740     0.2630 N.am  1 <1>  -0.6600 
  4 C        1.7820     2.2920     0.8050 C.3   1 <1>  -0.0990 
  5 C       -0.5050     4.0490     0.0750 C.3   1 <1>   0.1400 
  6 C       -2.0410     2.0640     0.0810 C.3   1 <1>   0.0600 
  7 C        1.8290     3.8100     1.0340 C.3   1 <1>  -0.1600 
  8 C        0.9610     4.5100    -0.0100 C.3   1 <1>   0.2200 
  9 N        1.0470     5.9650     0.2130 N.am  1 <1>  -0.7300 
 10 C        0.7870     6.9170    -0.7250 C.2   1 <1>   0.7160 
 11 O        0.4390     6.5620    -1.8350 O.2   1 <1>  -0.5700 
 12 C        0.9510     8.2880    -0.3830 C.2   1 <1>  -0.0860 
 13 C       -0.0360     9.2590    -0.1630 C.2   1 <1>   0.3720 
 14 C        2.1080     8.9360    -0.0920 C.2   1 <1>   0.0870 
 15 N        0.4960    10.3580     0.2460 N.2   1 <1>  -0.4100 
 16 N       -1.4250     9.1350    -0.2980 N.pl3 1 <1>  -0.8210 
 17 O        1.7850    10.1480     0.2740 O.3   1 <1>  -0.0190 
 18 C        3.4830     8.5060    -0.1050 C.ar  1 <1>   0.0530 
 19 C       -2.0450     8.1220    -1.2040 C.3   1 <1>   0.2090 
 20 C       -2.2580     9.4630     0.8980 C.3   1 <1>   0.2090 
 21 C        4.3990     9.0120     0.8170 C.ar  1 <1>  -0.1500 
 22 C        3.9500     7.5700    -1.0290 C.ar  1 <1>  -0.1500 
 23 C       -3.5290     8.4380    -1.4590 C.3   1 <1>   0.1200 
 24 C       -3.7300     9.6850     0.5080 C.3   1 <1>   0.1200 
 25 C        5.7170     8.5940     0.8280 C.ar  1 <1>  -0.1500 
 26 C        5.2660     7.1460    -1.0220 C.ar  1 <1>  -0.1500 
 27 O       -4.2170     8.6120    -0.2510 O.3   1 <1>  -0.5600 
 28 C        6.1530     7.6570    -0.0920 C.ar  1 <1>  -0.1500 
 29 H        2.3250     2.0440    -0.0880 H     1 <1>   0.0800 
 30 H        2.2560     1.7890     1.6280 H     1 <1>   0.0800 
 31 H       -0.9820     4.5390     0.9060 H     1 <1>   0.0800 
 32 H       -1.0090     4.3420    -0.8300 H     1 <1>   0.0800 
 33 H       -2.0840     1.0000     0.2390 H     1 <1>   0.0800 
 34 H       -2.3770     2.2730    -0.9200 H     1 <1>   0.0800 
 35 H       -2.7000     2.5410     0.7850 H     1 <1>   0.0800 
 36 H        2.8470     4.1500     0.9610 H     1 <1>   0.0800 
 37 H        1.4540     4.0250     2.0200 H     1 <1>   0.0800 
 38 H        1.3360     4.2850    -0.9960 H     1 <1>   0.0800 
 39 H        1.3660     6.2630     1.1350 H     1 <1>   0.3700 
 40 H       -1.9700     7.1440    -0.7630 H     1 <1>   0.0800 
 41 H       -1.5240     8.1170    -2.1460 H     1 <1>   0.0800 
 42 H       -1.8810    10.3530     1.3710 H     1 <1>   0.0800 
 43 H       -2.1980     8.6550     1.6060 H     1 <1>   0.0800 
 44 H        4.0730     9.7430     1.5360 H     1 <1>   0.1500 
 45 H        3.2800     7.1720    -1.7710 H     1 <1>   0.1500 
 46 H       -3.9940     7.6280    -1.9900 H     1 <1>   0.0800 
 47 H       -3.6250     9.3360    -2.0440 H     1 <1>   0.0800 
 48 H       -3.8300    10.5890    -0.0670 H     1 <1>   0.0800 
 49 H       -4.3380     9.7680     1.3900 H     1 <1>   0.0800 
 50 H        6.4060     8.9980     1.5500 H     1 <1>   0.1500 
 51 H        5.6030     6.4220    -1.7440 H     1 <1>   0.1500 
 52 H        7.1790     7.3300    -0.0860 H     1 <1>   0.1500 
@<TRIPOS>BOND
  1   1   2  2   
  2   2   3  am  
  3   2   4  1   
  4   3   5  1   
  5   3   6  1   
  6   4   7  1   
  7   4  29  1   
  8   4  30  1   
  9   5   8  1   
 10   5  31  1   
 11   5  32  1   
 12   6  33  1   
 13   6  34  1   
 14   6  35  1   
 15   7   8  1   
 16   7  36  1   
 17   7  37  1   
 18   8   9  1   
 19   8  38  1   
 20   9  10  am  
 21   9  39  1   
 22  10  11  2   
 23  10  12  1   
 24  12  13  1   
 25  12  14  2   
 26  13  15  2   
 27  13  16  1   
 28  14  17  1   
 29  14  18  1   
 30  15  17  1   
 31  16  19  1   
 32  16  20  1   
 33  18  21  ar  
 34  18  22  ar  
 35  19  23  1   
 36  19  40  1   
 37  19  41  1   
 38  20  24  1   
 39  20  42  1   
 40  20  43  1   
 41  21  25  ar  
 42  21  44  1   
 43  22  26  ar  
 44  22  45  1   
 45  23  27  1   
 46  23  46  1   
 47  23  47  1   
 48  24  27  1   
 49  24  48  1   
 50  24  49  1   
 51  25  28  ar  
 52  25  50  1   
 53  26  28  ar  
 54  26  51  1   
 55  28  52  1   
@<TRIPOS>SUBSTRUCTURE
  1 ****  10 GROUP 4 **** **** 0

# MOE 2024.06 (io_trps.svl 2023.06)
