@<TRIPOS>MOLECULE
NONAME
46 49 1 0 0 
SMALL
USER_CHARGES


@<TRIPOS>ATOM
  1 O        1.2610    -0.5150     1.5800 O.3   1 <1>  -0.0190 
  2 N        0.9700    -1.6710     2.0910 N.2   1 <1>  -0.4100 
  3 C        1.7400    -0.8010     0.3930 C.2   1 <1>   0.2980 
  4 C        1.2700    -2.5550     1.2220 C.2   1 <1>   0.3350 
  5 N        1.7820    -2.0420     0.1060 N.2   1 <1>  -0.5650 
  6 C        2.1700     0.3440    -0.5230 C.3   1 <1>   0.3800 
  7 C        1.1050    -4.0660     1.4150 C.3   1 <1>   0.2910 
  8 O        3.0440     1.2220     0.1370 O.3   1 <1>  -0.5600 
  9 C        0.9950     1.1980    -1.0140 C.3   1 <1>  -0.1600 
 10 N       -0.1920    -4.6190     0.9440 N.3   1 <1>  -0.8100 
 11 C        2.4300     2.4400     0.3980 C.3   1 <1>   0.1200 
 12 C        1.4300     2.6240    -0.7290 C.3   1 <1>  -0.1600 
 13 C       -0.3060    -6.0370     1.3230 C.3   1 <1>   0.2530 
 14 C       -0.3460    -4.4530    -0.5130 C.3   1 <1>   0.0300 
 15 C       -1.7010    -6.5830     1.0140 C.ar  1 <1>  -0.1430 
 16 C       -1.9150    -7.6460     0.1300 C.ar  1 <1>  -0.0230 
 17 C       -2.7850    -5.9910     1.6450 C.ar  1 <1>  -0.1500 
 18 N       -0.8500    -8.3040    -0.5480 N.pl3 1 <1>   0.5930 
 19 C       -3.2180    -8.0860    -0.0910 C.ar  1 <1>  -0.1500 
 20 C       -4.0730    -6.4400     1.4180 C.ar  1 <1>  -0.1500 
 21 N       -0.0380    -7.7120    -1.4620 N.2   1 <1>  -0.7070 
 22 C       -0.5030    -9.6060    -0.4060 C.2   1 <1>  -0.3020 
 23 C       -4.2900    -7.4910     0.5480 C.ar  1 <1>  -0.1500 
 24 C        0.7750    -8.6390    -1.8610 C.2   1 <1>   0.1390 
 25 C        0.5340    -9.8540    -1.2320 C.2   1 <1>  -0.1500 
 26 H        2.7090    -0.0610    -1.3620 H     1 <1>   0.0800 
 27 H        1.2020    -4.2630     2.4670 H     1 <1>   0.0800 
 28 H        1.9140    -4.5640     0.9090 H     1 <1>   0.0800 
 29 H        0.1070     0.9590    -0.4550 H     1 <1>   0.0800 
 30 H        0.8000     1.0310    -2.0580 H     1 <1>   0.0800 
 31 H        3.1760     3.2160     0.4260 H     1 <1>   0.0800 
 32 H        1.9350     2.3660     1.3520 H     1 <1>   0.0800 
 33 H        0.6110     3.2610    -0.4430 H     1 <1>   0.0800 
 34 H        1.9320     3.0460    -1.5830 H     1 <1>   0.0800 
 35 H       -0.1470    -6.1290     2.3840 H     1 <1>   0.0800 
 36 H        0.4630    -6.6030     0.8300 H     1 <1>   0.0800 
 37 H       -0.3280    -3.4100    -0.7740 H     1 <1>   0.0800 
 38 H       -1.2910    -4.8520    -0.8400 H     1 <1>   0.0800 
 39 H        0.4430    -4.9620    -1.0400 H     1 <1>   0.0800 
 40 H       -2.6200    -5.1630     2.3140 H     1 <1>   0.1500 
 41 H       -3.3970    -8.8980    -0.7740 H     1 <1>   0.1500 
 42 H       -4.9020    -5.9680     1.9160 H     1 <1>   0.1500 
 43 H       -1.0170   -10.2610     0.2710 H     1 <1>   0.1500 
 44 H       -5.2920    -7.8410     0.3670 H     1 <1>   0.1500 
 45 H        1.5460    -8.4770    -2.5960 H     1 <1>   0.1500 
 46 H        1.0740   -10.7700    -1.3930 H     1 <1>   0.1500 
@<TRIPOS>BOND
  1   1   2  1   
  2   1   3  1   
  3   2   4  2   
  4   3   5  2   
  5   3   6  1   
  6   4   5  1   
  7   4   7  1   
  8   6   8  1   
  9   6   9  1   
 10   6  26  1   
 11   7  10  1   
 12   7  27  1   
 13   7  28  1   
 14   8  11  1   
 15   9  12  1   
 16   9  29  1   
 17   9  30  1   
 18  10  13  1   
 19  10  14  1   
 20  11  12  1   
 21  11  31  1   
 22  11  32  1   
 23  12  33  1   
 24  12  34  1   
 25  13  15  1   
 26  13  35  1   
 27  13  36  1   
 28  14  37  1   
 29  14  38  1   
 30  14  39  1   
 31  15  16  ar  
 32  15  17  ar  
 33  16  18  1   
 34  16  19  ar  
 35  17  20  ar  
 36  17  40  1   
 37  18  21  1   
 38  18  22  1   
 39  19  23  ar  
 40  19  41  1   
 41  20  23  ar  
 42  20  42  1   
 43  21  24  2   
 44  22  25  2   
 45  22  43  1   
 46  23  44  1   
 47  24  25  1   
 48  24  45  1   
 49  25  46  1   
@<TRIPOS>SUBSTRUCTURE
  1 ****  10 GROUP 4 **** **** 0

# MOE 2024.06 (io_trps.svl 2023.06)
