@<TRIPOS>MOLECULE
NONAME
28 28 1 0 0 
SMALL
USER_CHARGES


@<TRIPOS>ATOM
  1 O       -1.3620    -1.5130     0.9810 O.co2 1 <1>  -0.9000 
  2 C       -1.7740    -0.6590     0.1950 C.2   1 <1>   0.9060 
  3 O       -1.1900    -0.3700    -0.8570 O.co2 1 <1>  -0.9000 
  4 C       -3.0670     0.0350     0.4960 C.3   1 <1>  -0.2660 
  5 C       -4.0590    -0.2370    -0.6220 C.3   1 <1>   0.3440 
  6 O       -3.5570     0.3300    -1.7760 O.3   1 <1>  -0.6800 
  7 C       -5.4400     0.3410    -0.3130 C.ar  1 <1>  -0.1440 
  8 C       -5.7250     1.6830    -0.5160 C.ar  1 <1>  -0.1500 
  9 C       -6.4320    -0.4850     0.1930 C.ar  1 <1>  -0.1500 
 10 C       -6.9850     2.2010    -0.2230 C.ar  1 <1>   0.0830 
 11 C       -7.6860     0.0200     0.4890 C.ar  1 <1>  -0.1500 
 12 O       -7.3050     3.5110    -0.4130 O.3   1 <1>  -0.3630 
 13 C       -7.9720     1.3610     0.2850 C.ar  1 <1>  -0.1430 
 14 C       -6.3890     4.4060    -1.0020 C.3   1 <1>   0.0400 
 15 C       -9.3560     1.9000     0.6140 C.3   1 <1>  -0.0970 
 16 H       -2.8930     1.0870     0.6040 H     1 <1>   0.0800 
 17 H       -3.4510    -0.3480     1.4210 H     1 <1>   0.0800 
 18 H       -4.1280    -1.2980    -0.7930 H     1 <1>   0.0800 
 19 H       -2.5710     0.1480    -1.7450 H     1 <1>   0.4000 
 20 H       -4.9430     2.3050    -0.9060 H     1 <1>   0.1500 
 21 H       -6.2260    -1.5270     0.3590 H     1 <1>   0.1500 
 22 H       -8.4380    -0.6410     0.8800 H     1 <1>   0.1500 
 23 H       -6.8660     5.3650    -1.0880 H     1 <1>   0.0800 
 24 H       -6.1220     4.0400    -1.9770 H     1 <1>   0.0800 
 25 H       -5.5220     4.4830    -0.3700 H     1 <1>   0.0800 
 26 H       -9.2750     2.6770     1.3520 H     1 <1>   0.0800 
 27 H       -9.9960     1.1260     0.9960 H     1 <1>   0.0800 
 28 H       -9.8040     2.3120    -0.2720 H     1 <1>   0.0800 
@<TRIPOS>BOND
  1   1   2  ar  
  2   2   3  ar  
  3   2   4  1   
  4   4   5  1   
  5   4  16  1   
  6   4  17  1   
  7   5   6  1   
  8   5   7  1   
  9   5  18  1   
 10   6  19  1   
 11   7   8  ar  
 12   7   9  ar  
 13   8  10  ar  
 14   8  20  1   
 15   9  11  ar  
 16   9  21  1   
 17  10  12  1   
 18  10  13  ar  
 19  11  13  ar  
 20  11  22  1   
 21  12  14  1   
 22  13  15  1   
 23  14  23  1   
 24  14  24  1   
 25  14  25  1   
 26  15  26  1   
 27  15  27  1   
 28  15  28  1   
@<TRIPOS>SUBSTRUCTURE
  1 ****   7 GROUP 4 **** **** 0

# MOE 2024.06 (io_trps.svl 2023.06)
