@<TRIPOS>MOLECULE
NONAME
53 56 1 0 0 
SMALL
USER_CHARGES


@<TRIPOS>ATOM
  1 O        0.4360     1.5670    -1.2240 O.2   1 <1>  -0.5700 
  2 C        0.0550     2.7000    -1.0410 C.2   1 <1>   0.5690 
  3 N       -0.8220     3.0550    -0.0500 N.am  1 <1>  -0.5090 
  4 C        0.5840     3.7970    -1.9550 C.3   1 <1>   0.1810 
  5 C       -1.2400     4.4850     0.1300 C.3   1 <1>   0.3640 
  6 C       -1.1850     2.1210     1.0460 C.3   1 <1>   0.0490 
  7 O        0.8030     4.9770    -1.2310 O.3   1 <1>  -0.5600 
  8 C       -2.6940     4.6690    -0.3040 C.ar  1 <1>  -0.1440 
  9 C       -0.3580     5.5260    -0.6220 C.3   1 <1>   0.2610 
 10 C       -1.8460     0.8260     0.6930 C.3   1 <1>  -0.2000 
 11 C       -2.6200     1.8830     1.4100 C.3   1 <1>  -0.2000 
 12 C       -3.2200     4.0010    -1.4040 C.ar  1 <1>   0.1600 
 13 C       -3.5190     5.5300     0.3950 C.ar  1 <1>  -0.1500 
 14 C        0.0270     6.6530     0.3430 C.2   1 <1>   0.5690 
 15 N       -4.4580     4.1300    -1.8520 N.ar  1 <1>  -0.6200 
 16 C       -4.8140     5.6700    -0.0530 C.ar  1 <1>  -0.1500 
 17 O       -0.8430     7.2570     0.9250 O.2   1 <1>  -0.5700 
 18 N        1.3360     6.9490     0.5320 N.am  1 <1>  -0.7300 
 19 C       -5.2270     4.9590    -1.1650 C.ar  1 <1>   0.1600 
 20 C        1.8670     8.0670     1.3280 C.3   1 <1>   0.2840 
 21 C        3.0570     8.6490     0.5810 C.ar  1 <1>  -0.1440 
 22 C        2.9140     9.6520    -0.3730 C.ar  1 <1>  -0.1440 
 23 C        4.3210     8.1480     0.8630 C.ar  1 <1>  -0.1500 
 24 C        4.0390    10.1380    -1.0210 C.ar  1 <1>  -0.1500 
 25 C        1.5520    10.2310    -0.7290 C.3   1 <1>  -0.0970 
 26 C        5.4410     8.6330     0.2120 C.ar  1 <1>  -0.1440 
 27 C        5.2940     9.6330    -0.7320 C.ar  1 <1>  -0.1500 
 28 C        6.8150     8.0730     0.5350 C.3   1 <1>  -0.0970 
 29 H       -0.1130     3.9940    -2.7500 H     1 <1>   0.0800 
 30 H        1.5230     3.4900    -2.3770 H     1 <1>   0.0800 
 31 H       -1.1830     4.6980     1.1840 H     1 <1>   0.0800 
 32 H       -0.4460     2.1050     1.8300 H     1 <1>   0.1000 
 33 H       -0.9370     5.9730    -1.4100 H     1 <1>   0.0800 
 34 H       -2.0650     0.6270    -0.3420 H     1 <1>   0.1000 
 35 H       -1.5590    -0.0600     1.2310 H     1 <1>   0.1000 
 36 H       -2.8710     1.7070     2.4410 H     1 <1>   0.1000 
 37 H       -3.4230     2.3490     0.8680 H     1 <1>   0.1000 
 38 H       -2.5960     3.3170    -1.9520 H     1 <1>   0.1500 
 39 H       -3.1730     6.0800     1.2560 H     1 <1>   0.1500 
 40 H       -5.4990     6.3260     0.4530 H     1 <1>   0.1500 
 41 H        2.0290     6.4670    -0.0500 H     1 <1>   0.3700 
 42 H       -6.2410     5.0770    -1.5080 H     1 <1>   0.1500 
 43 H        1.1060     8.8110     1.4860 H     1 <1>   0.0800 
 44 H        2.1780     7.7000     2.2910 H     1 <1>   0.0800 
 45 H        4.4360     7.3710     1.5980 H     1 <1>   0.1500 
 46 H        3.9470    10.9150    -1.7580 H     1 <1>   0.1500 
 47 H        1.6220    10.8900    -1.5760 H     1 <1>   0.0800 
 48 H        1.1610    10.7890     0.1020 H     1 <1>   0.0800 
 49 H        0.8640     9.4430    -0.9760 H     1 <1>   0.0800 
 50 H        6.1530    10.0250    -1.2460 H     1 <1>   0.1500 
 51 H        7.4940     8.2420    -0.2810 H     1 <1>   0.0800 
 52 H        6.7540     7.0140     0.7110 H     1 <1>   0.0800 
 53 H        7.2040     8.5510     1.4150 H     1 <1>   0.0800 
@<TRIPOS>BOND
  1   1   2  2   
  2   2   3  am  
  3   2   4  1   
  4   3   5  1   
  5   3   6  1   
  6   4   7  1   
  7   4  29  1   
  8   4  30  1   
  9   5   8  1   
 10   5   9  1   
 11   5  31  1   
 12   6  10  1   
 13   6  11  1   
 14   6  32  1   
 15   7   9  1   
 16   8  12  ar  
 17   8  13  ar  
 18   9  14  1   
 19   9  33  1   
 20  10  11  1   
 21  10  34  1   
 22  10  35  1   
 23  11  36  1   
 24  11  37  1   
 25  12  15  ar  
 26  12  38  1   
 27  13  16  ar  
 28  13  39  1   
 29  14  17  2   
 30  14  18  am  
 31  15  19  ar  
 32  16  19  ar  
 33  16  40  1   
 34  18  20  1   
 35  18  41  1   
 36  19  42  1   
 37  20  21  1   
 38  20  43  1   
 39  20  44  1   
 40  21  22  ar  
 41  21  23  ar  
 42  22  24  ar  
 43  22  25  1   
 44  23  26  ar  
 45  23  45  1   
 46  24  27  ar  
 47  24  46  1   
 48  25  47  1   
 49  25  48  1   
 50  25  49  1   
 51  26  27  ar  
 52  26  28  1   
 53  27  50  1   
 54  28  51  1   
 55  28  52  1   
 56  28  53  1   
@<TRIPOS>SUBSTRUCTURE
  1 ****   9 GROUP 4 **** **** 0

# MOE 2024.06 (io_trps.svl 2023.06)
