@<TRIPOS>MOLECULE
NONAME
43 44 1 0 0 
SMALL
USER_CHARGES


@<TRIPOS>ATOM
  1 S        0.0340    -0.1630    -0.6280 S.3   1 <1>  -0.0800 
  2 C       -0.9520     1.0240     0.1950 C.2   1 <1>   0.1980 
  3 C       -1.3060    -1.2700    -0.5760 C.2   1 <1>  -0.1100 
  4 N       -2.1300     0.6260     0.4650 N.2   1 <1>  -0.5650 
  5 C       -0.3240     2.3650     0.4930 C.3   1 <1>  -0.0600 
  6 C       -2.3420    -0.6690     0.0350 C.2   1 <1>   0.0460 
  7 C       -3.7260    -1.2150     0.3230 C.3   1 <1>   0.0210 
  8 C       -3.8970    -2.6470    -0.1880 C.3   1 <1>   0.3430 
  9 N       -5.2380    -3.2200     0.1590 N.4   1 <1>  -0.9590 
 10 C       -5.2380    -4.7050    -0.0950 C.3   1 <1>   0.3430 
 11 C       -6.3510    -2.5520    -0.5850 C.3   1 <1>   0.3430 
 12 C       -6.5730    -5.3760     0.2760 C.3   1 <1>   0.2000 
 13 C       -7.6940    -3.1440    -0.1510 C.3   1 <1>  -0.1600 
 14 O       -6.5000    -6.6800    -0.1990 O.3   1 <1>  -0.5600 
 15 C       -7.7600    -4.6610    -0.3860 C.3   1 <1>  -0.1600 
 16 C       -7.3870    -7.5930     0.3730 C.3   1 <1>   0.1200 
 17 C       -7.0880    -8.9660    -0.2260 C.3   1 <1>  -0.1600 
 18 C       -8.0200   -10.0380     0.3490 C.3   1 <1>  -0.2400 
 19 H       -1.1480    -2.2390    -1.0130 H     1 <1>   0.1500 
 20 H       -0.0240     2.8390    -0.4240 H     1 <1>   0.0800 
 21 H        0.5350     2.2330     1.1230 H     1 <1>   0.0800 
 22 H       -1.0340     2.9950     0.9960 H     1 <1>   0.0800 
 23 H       -4.4360    -0.5600    -0.1480 H     1 <1>   0.0800 
 24 H       -3.8790    -1.1850     1.3870 H     1 <1>   0.0800 
 25 H       -3.1240    -3.2550     0.2550 H     1 <1>   0.0800 
 26 H       -3.7570    -2.6620    -1.2570 H     1 <1>   0.0800 
 27 H       -5.4020    -3.0780     1.1650 H     1 <1>   0.4500 
 28 H       -4.4510    -5.1750     0.4700 H     1 <1>   0.0800 
 29 H       -5.0580    -4.8860    -1.1420 H     1 <1>   0.0800 
 30 H       -6.2210    -2.6990    -1.6460 H     1 <1>   0.0800 
 31 H       -6.3510    -1.4920    -0.3880 H     1 <1>   0.0800 
 32 H       -6.6770    -5.4010     1.3480 H     1 <1>   0.0800 
 33 H       -8.4800    -2.6680    -0.7120 H     1 <1>   0.0800 
 34 H       -7.8650    -2.9220     0.8880 H     1 <1>   0.0800 
 35 H       -8.6870    -5.0370     0.0110 H     1 <1>   0.0800 
 36 H       -7.7430    -4.8550    -1.4460 H     1 <1>   0.0800 
 37 H       -8.3970    -7.3000     0.1440 H     1 <1>   0.0800 
 38 H       -7.2390    -7.6090     1.4400 H     1 <1>   0.0800 
 39 H       -6.0680    -9.2330    -0.0120 H     1 <1>   0.0800 
 40 H       -7.2160    -8.9230    -1.2940 H     1 <1>   0.0800 
 41 H       -7.8980   -10.1140     1.4150 H     1 <1>   0.0800 
 42 H       -7.7910   -10.9940    -0.0880 H     1 <1>   0.0800 
 43 H       -9.0470    -9.8030     0.1320 H     1 <1>   0.0800 
@<TRIPOS>BOND
  1   1   2  1   
  2   1   3  1   
  3   2   4  2   
  4   2   5  1   
  5   3   6  2   
  6   3  19  1   
  7   4   6  1   
  8   5  20  1   
  9   5  21  1   
 10   5  22  1   
 11   6   7  1   
 12   7   8  1   
 13   7  23  1   
 14   7  24  1   
 15   8   9  1   
 16   8  25  1   
 17   8  26  1   
 18   9  10  1   
 19   9  11  1   
 20   9  27  1   
 21  10  12  1   
 22  10  28  1   
 23  10  29  1   
 24  11  13  1   
 25  11  30  1   
 26  11  31  1   
 27  12  14  1   
 28  12  15  1   
 29  12  32  1   
 30  13  15  1   
 31  13  33  1   
 32  13  34  1   
 33  14  16  1   
 34  15  35  1   
 35  15  36  1   
 36  16  17  1   
 37  16  37  1   
 38  16  38  1   
 39  17  18  1   
 40  17  39  1   
 41  17  40  1   
 42  18  41  1   
 43  18  42  1   
 44  18  43  1   
@<TRIPOS>SUBSTRUCTURE
  1 ****   9 GROUP 4 **** **** 0

# MOE 2024.06 (io_trps.svl 2023.06)
