@<TRIPOS>MOLECULE
NONAME
52 55 1 0 0 
SMALL
USER_CHARGES


@<TRIPOS>ATOM
  1 CL       0.9480     3.0510    -0.7720 Cl    1 <1>  -0.1770 
  2 C       -0.7090     3.1130    -0.2300 C.ar  1 <1>   0.1770 
  3 C       -1.6840     3.5810    -1.0920 C.ar  1 <1>  -0.1500 
  4 C       -1.0190     2.6960     1.0500 C.ar  1 <1>  -0.1500 
  5 C       -3.0030     3.6410    -0.6670 C.ar  1 <1>  -0.1440 
  6 C       -2.3360     2.7490     1.4730 C.ar  1 <1>  -0.1500 
  7 C       -3.3200     3.2170     0.6170 C.ar  1 <1>  -0.1500 
  8 C       -4.0940     4.1660    -1.6000 C.3   1 <1>   0.0450 
  9 C       -5.0460     5.1460    -0.9230 C.2   1 <1>   0.5690 
 10 O       -6.1360     4.7120    -0.6270 O.2   1 <1>  -0.5700 
 11 N       -4.6870     6.4490    -0.6600 N.am  1 <1>  -0.6600 
 12 C       -5.6430     7.3550     0.0790 C.3   1 <1>   0.2200 
 13 C       -3.2730     6.9350    -0.7380 C.3   1 <1>   0.1400 
 14 C       -5.0030     8.6570     0.6600 C.3   1 <1>   0.1380 
 15 C       -6.9640     7.6150    -0.6690 C.3   1 <1>  -0.1600 
 16 C       -2.7590     7.4060     0.6350 C.3   1 <1>  -0.1600 
 17 C       -4.5170     9.7390    -0.3580 C.2   1 <1>  -0.2760 
 18 C       -6.0810     9.2980     1.5860 C.3   1 <1>   0.1200 
 19 C       -3.8010     8.1570     1.4950 C.3   1 <1>  -0.1600 
 20 C       -7.6520     8.8780    -0.1400 C.3   1 <1>   0.1200 
 21 C       -4.7130     9.7460    -1.6850 C.2   1 <1>  -0.2880 
 22 C       -3.7090    10.9020     0.2320 C.3   1 <1>  -0.0220 
 23 O       -7.4040     8.9780     1.2280 O.3   1 <1>  -0.5600 
 24 C       -4.1950    10.8210    -2.6330 C.3   1 <1>   0.2580 
 25 C       -3.6250    12.0830    -0.7440 C.3   1 <1>   0.1200 
 26 O       -3.2400    11.6170    -1.9990 O.3   1 <1>  -0.5600 
 27 H       -1.4000     3.8920    -2.0810 H     1 <1>   0.1500 
 28 H       -0.2420     2.3360     1.7000 H     1 <1>   0.1500 
 29 H       -2.5980     2.4250     2.4660 H     1 <1>   0.1500 
 30 H       -4.3420     3.2510     0.9600 H     1 <1>   0.1500 
 31 H       -4.6660     3.3290    -1.9570 H     1 <1>   0.0800 
 32 H       -3.6640     4.6440    -2.4600 H     1 <1>   0.0800 
 33 H       -5.9430     6.7920     0.9480 H     1 <1>   0.0800 
 34 H       -2.6100     6.1780    -1.1070 H     1 <1>   0.0800 
 35 H       -3.2200     7.7450    -1.4400 H     1 <1>   0.0800 
 36 H       -7.6250     6.7850    -0.4960 H     1 <1>   0.0800 
 37 H       -6.8210     7.6870    -1.7290 H     1 <1>   0.0800 
 38 H       -2.4030     6.5500     1.1820 H     1 <1>   0.0800 
 39 H       -1.9110     8.0460     0.4650 H     1 <1>   0.0800 
 40 H       -6.0100    10.3690     1.5900 H     1 <1>   0.0800 
 41 H       -5.9540     8.9550     2.5970 H     1 <1>   0.0800 
 42 H       -3.3290     8.9580     2.0330 H     1 <1>   0.0800 
 43 H       -4.1670     7.4680     2.2370 H     1 <1>   0.0800 
 44 H       -8.7170     8.8190    -0.2840 H     1 <1>   0.0800 
 45 H       -7.2830     9.7680    -0.6210 H     1 <1>   0.0800 
 46 H       -5.2450     8.9890    -2.2240 H     1 <1>   0.1500 
 47 H       -2.7080    10.5740     0.4460 H     1 <1>   0.0800 
 48 H       -4.1360    11.2630     1.1480 H     1 <1>   0.0800 
 49 H       -4.9970    11.4520    -2.9730 H     1 <1>   0.0800 
 50 H       -3.7160    10.3700    -3.4850 H     1 <1>   0.0800 
 51 H       -2.8890    12.7950    -0.4140 H     1 <1>   0.0800 
 52 H       -4.5780    12.5750    -0.8380 H     1 <1>   0.0800 
@<TRIPOS>BOND
  1   1   2  1   
  2   2   3  ar  
  3   2   4  ar  
  4   3   5  ar  
  5   3  27  1   
  6   4   6  ar  
  7   4  28  1   
  8   5   7  ar  
  9   5   8  1   
 10   6   7  ar  
 11   6  29  1   
 12   7  30  1   
 13   8   9  1   
 14   8  31  1   
 15   8  32  1   
 16   9  10  2   
 17   9  11  am  
 18  11  12  1   
 19  11  13  1   
 20  12  14  1   
 21  12  15  1   
 22  12  33  1   
 23  13  16  1   
 24  13  34  1   
 25  13  35  1   
 26  14  17  1   
 27  14  18  1   
 28  14  19  1   
 29  15  20  1   
 30  15  36  1   
 31  15  37  1   
 32  16  19  1   
 33  16  38  1   
 34  16  39  1   
 35  17  21  2   
 36  17  22  1   
 37  18  23  1   
 38  18  40  1   
 39  18  41  1   
 40  19  42  1   
 41  19  43  1   
 42  20  23  1   
 43  20  44  1   
 44  20  45  1   
 45  21  24  1   
 46  21  46  1   
 47  22  25  1   
 48  22  47  1   
 49  22  48  1   
 50  24  26  1   
 51  24  49  1   
 52  24  50  1   
 53  25  26  1   
 54  25  51  1   
 55  25  52  1   
@<TRIPOS>SUBSTRUCTURE
  1 ****  13 GROUP 4 **** **** 0

# MOE 2024.06 (io_trps.svl 2023.06)
