@<TRIPOS>MOLECULE
NONAME
44 47 1 0 0 
SMALL
USER_CHARGES


@<TRIPOS>ATOM
  1 CL       0.9950     1.8580    -0.1780 Cl    1 <1>  -0.1770 
  2 C        1.8070     3.2370     0.5280 C.ar  1 <1>   0.1770 
  3 C        3.1950     3.3380     0.5370 C.ar  1 <1>  -0.1440 
  4 C        1.0080     4.2230     1.0790 C.ar  1 <1>  -0.1500 
  5 C        3.7650     4.4620     1.1240 C.ar  1 <1>  -0.1500 
  6 C        4.1180     2.2830    -0.0660 C.3   1 <1>   0.3640 
  7 C        1.5920     5.3360     1.6560 C.ar  1 <1>  -0.1500 
  8 C        2.9700     5.4530     1.6770 C.ar  1 <1>  -0.1500 
  9 N        3.9320     0.9900     0.6310 N.am  1 <1>  -0.7300 
 10 C        3.9820     2.1370    -1.6030 C.3   1 <1>   0.2610 
 11 C        3.9700    -0.2020    -0.0070 C.2   1 <1>   0.5690 
 12 O        4.6760     0.9800    -2.0440 O.3   1 <1>  -0.5600 
 13 C        4.5290     3.3990    -2.2660 C.2   1 <1>   0.5690 
 14 O        3.8590    -1.2310     0.6080 O.2   1 <1>  -0.5700 
 15 C        4.1470    -0.2270    -1.5300 C.3   1 <1>   0.1810 
 16 O        3.7780     4.3110    -2.5150 O.2   1 <1>  -0.5700 
 17 N        5.8590     3.4970    -2.5160 N.am  1 <1>  -0.7300 
 18 C        6.5400     4.7640    -2.8580 C.3   1 <1>   0.3210 
 19 C        6.7680     5.5740    -1.5920 C.2   1 <1>   0.1080 
 20 N        7.8640     5.5860    -0.9160 N.2   1 <1>  -0.4100 
 21 C        5.8120     6.3920    -0.9940 C.2   1 <1>  -0.1500 
 22 O        7.6560     6.3860     0.0920 O.3   1 <1>  -0.0190 
 23 C        6.4470     6.8830     0.0790 C.2   1 <1>   0.0550 
 24 C        6.0050     7.8320     1.1760 C.3   1 <1>  -0.0150 
 25 C        4.8810     8.7960     0.9620 C.3   1 <1>  -0.2000 
 26 C        6.2960     9.2940     1.0620 C.3   1 <1>  -0.2000 
 27 H       -0.0610     4.1170     1.0540 H     1 <1>   0.1500 
 28 H        4.8350     4.5820     1.1530 H     1 <1>   0.1500 
 29 H        5.1320     2.5910     0.1250 H     1 <1>   0.0800 
 30 H        0.9760     6.1080     2.0850 H     1 <1>   0.1500 
 31 H        3.4270     6.3180     2.1260 H     1 <1>   0.1500 
 32 H        3.7810     1.0060     1.6400 H     1 <1>   0.3700 
 33 H        2.9530     2.0340    -1.8910 H     1 <1>   0.0800 
 34 H        3.1950    -0.4070    -1.9960 H     1 <1>   0.0800 
 35 H        4.8190    -1.0220    -1.7980 H     1 <1>   0.0800 
 36 H        6.4630     2.6920    -2.3250 H     1 <1>   0.3700 
 37 H        7.4830     4.5530    -3.3320 H     1 <1>   0.0800 
 38 H        5.9310     5.3300    -3.5420 H     1 <1>   0.0800 
 39 H        4.8070     6.5580    -1.3400 H     1 <1>   0.1500 
 40 H        6.0990     7.3900     2.1520 H     1 <1>   0.1000 
 41 H        4.3930     8.8300     0.0040 H     1 <1>   0.1000 
 42 H        4.2060     8.9940     1.7770 H     1 <1>   0.1000 
 43 H        6.6030     9.8270     1.9450 H     1 <1>   0.1000 
 44 H        6.7860     9.6500     0.1720 H     1 <1>   0.1000 
@<TRIPOS>BOND
  1   1   2  1   
  2   2   3  ar  
  3   2   4  ar  
  4   3   5  ar  
  5   3   6  1   
  6   4   7  ar  
  7   4  27  1   
  8   5   8  ar  
  9   5  28  1   
 10   6   9  1   
 11   6  10  1   
 12   6  29  1   
 13   7   8  ar  
 14   7  30  1   
 15   8  31  1   
 16   9  11  am  
 17   9  32  1   
 18  10  12  1   
 19  10  13  1   
 20  10  33  1   
 21  11  14  2   
 22  11  15  1   
 23  12  15  1   
 24  13  16  2   
 25  13  17  am  
 26  15  34  1   
 27  15  35  1   
 28  17  18  1   
 29  17  36  1   
 30  18  19  1   
 31  18  37  1   
 32  18  38  1   
 33  19  20  2   
 34  19  21  1   
 35  20  22  1   
 36  21  23  2   
 37  21  39  1   
 38  22  23  1   
 39  23  24  1   
 40  24  25  1   
 41  24  26  1   
 42  24  40  1   
 43  25  26  1   
 44  25  41  1   
 45  25  42  1   
 46  26  43  1   
 47  26  44  1   
@<TRIPOS>SUBSTRUCTURE
  1 ****   5 GROUP 4 **** **** 0

# MOE 2024.06 (io_trps.svl 2023.06)
