@<TRIPOS>MOLECULE
NONAME
51 54 1 0 0 
SMALL
USER_CHARGES


@<TRIPOS>ATOM
  1 S       -1.1150    -0.0640    -0.2190 S.3   1 <1>  -0.0800 
  2 C        0.3950     0.6190    -0.8010 C.2   1 <1>  -0.1400 
  3 C       -1.9050     0.2370    -1.7580 C.2   1 <1>  -0.1400 
  4 C        0.2640     1.0070    -2.0850 C.2   1 <1>  -0.1500 
  5 C        1.5470     0.6540     0.1950 C.3   1 <1>   0.3800 
  6 C       -1.0410     0.7880    -2.6310 C.2   1 <1>  -0.1500 
  7 C       -3.3610    -0.1540    -1.8640 C.3   1 <1>   0.5230 
  8 O        1.1980     1.4510     1.2790 O.3   1 <1>  -0.5600 
  9 C        2.8310     1.2820    -0.3270 C.3   1 <1>  -0.1600 
 10 N       -4.2100     1.0340    -1.5620 N.4   1 <1>  -0.9590 
 11 C        2.3360     1.9300     1.9260 C.3   1 <1>   0.1200 
 12 C        3.4990     1.7680     0.9480 C.3   1 <1>  -0.1600 
 13 C       -4.0510     1.4910    -0.1470 C.3   1 <1>   0.3430 
 14 C       -5.6330     0.7750    -1.9170 C.3   1 <1>   0.3430 
 15 C       -4.8570     2.7630     0.0870 C.3   1 <1>  -0.1600 
 16 C       -6.4570     2.0360    -1.7070 C.3   1 <1>  -0.1600 
 17 C       -6.3290     2.5650    -0.2810 C.3   1 <1>   0.4180 
 18 O       -6.9490     3.8160    -0.3070 O.3   1 <1>  -0.5600 
 19 C       -7.0340     1.6300     0.7040 C.2   1 <1>  -0.2880 
 20 C       -7.3560     4.3670     0.9160 C.3   1 <1>   0.1200 
 21 C       -7.9930     2.0280     1.5420 C.2   1 <1>  -0.2760 
 22 C       -8.4220     3.4840     1.5770 C.3   1 <1>  -0.0220 
 23 C       -8.7370     1.1140     2.5020 C.3   1 <1>  -0.1020 
 24 H        1.0390     1.4510    -2.6860 H     1 <1>   0.1500 
 25 H        1.7440    -0.3350     0.5710 H     1 <1>   0.0800 
 26 H       -1.2480     1.0650    -3.6510 H     1 <1>   0.1500 
 27 H       -3.5760    -0.9620    -1.1840 H     1 <1>   0.0800 
 28 H       -3.5550    -0.4920    -2.8690 H     1 <1>   0.0800 
 29 H        2.5950     2.1220    -0.9560 H     1 <1>   0.0800 
 30 H        3.4300     0.5780    -0.8730 H     1 <1>   0.0800 
 31 H       -3.8550     1.7940    -2.1570 H     1 <1>   0.4500 
 32 H        2.4890     1.3540     2.8220 H     1 <1>   0.0800 
 33 H        2.1670     2.9630     2.1770 H     1 <1>   0.0800 
 34 H        4.0260     2.6950     0.8020 H     1 <1>   0.0800 
 35 H        4.1840     1.0300     1.3260 H     1 <1>   0.0800 
 36 H       -3.0130     1.6960     0.0630 H     1 <1>   0.0800 
 37 H       -4.3850     0.7210     0.5300 H     1 <1>   0.0800 
 38 H       -6.0270    -0.0170    -1.3000 H     1 <1>   0.0800 
 39 H       -5.7100     0.4690    -2.9480 H     1 <1>   0.0800 
 40 H       -4.4380     3.5620    -0.4980 H     1 <1>   0.0800 
 41 H       -4.7770     3.0280     1.1250 H     1 <1>   0.0800 
 42 H       -7.4920     1.8200    -1.9060 H     1 <1>   0.0800 
 43 H       -6.1370     2.7900    -2.4040 H     1 <1>   0.0800 
 44 H       -6.7010     0.6110     0.6680 H     1 <1>   0.1500 
 45 H       -7.7540     5.3480     0.7200 H     1 <1>   0.0800 
 46 H       -6.4970     4.4660     1.5550 H     1 <1>   0.0800 
 47 H       -9.3610     3.6010     1.0640 H     1 <1>   0.0800 
 48 H       -8.5550     3.8110     2.5930 H     1 <1>   0.0800 
 49 H       -9.7910     1.1350     2.2890 H     1 <1>   0.0800 
 50 H       -8.5820     1.4340     3.5170 H     1 <1>   0.0800 
 51 H       -8.3910     0.1000     2.4080 H     1 <1>   0.0800 
@<TRIPOS>BOND
  1   1   2  1   
  2   1   3  1   
  3   2   4  2   
  4   2   5  1   
  5   3   6  2   
  6   3   7  1   
  7   4   6  1   
  8   4  24  1   
  9   5   8  1   
 10   5   9  1   
 11   5  25  1   
 12   6  26  1   
 13   7  10  1   
 14   7  27  1   
 15   7  28  1   
 16   8  11  1   
 17   9  12  1   
 18   9  29  1   
 19   9  30  1   
 20  10  13  1   
 21  10  14  1   
 22  10  31  1   
 23  11  12  1   
 24  11  32  1   
 25  11  33  1   
 26  12  34  1   
 27  12  35  1   
 28  13  15  1   
 29  13  36  1   
 30  13  37  1   
 31  14  16  1   
 32  14  38  1   
 33  14  39  1   
 34  15  17  1   
 35  15  40  1   
 36  15  41  1   
 37  16  17  1   
 38  16  42  1   
 39  16  43  1   
 40  17  18  1   
 41  17  19  1   
 42  18  20  1   
 43  19  21  2   
 44  19  44  1   
 45  20  22  1   
 46  20  45  1   
 47  20  46  1   
 48  21  22  1   
 49  21  23  1   
 50  22  47  1   
 51  22  48  1   
 52  23  49  1   
 53  23  50  1   
 54  23  51  1   
@<TRIPOS>SUBSTRUCTURE
  1 ****  13 GROUP 4 **** **** 0

# MOE 2024.06 (io_trps.svl 2023.06)
