@<TRIPOS>MOLECULE
NONAME
50 52 1 0 0 
SMALL
USER_CHARGES


@<TRIPOS>ATOM
  1 O        0.8550    -0.0120    -1.0590 O.2   1 <1>  -0.5700 
  2 C        1.7450    -0.8390    -0.9750 C.2   1 <1>   0.7160 
  3 N        3.0470    -0.3920    -0.9070 N.am  1 <1>  -0.6600 
  4 C        1.4180    -2.2470    -0.9210 C.2   1 <1>  -0.0860 
  5 C        3.4170     0.9660    -1.4020 C.3   1 <1>   0.1400 
  6 C        4.0700    -1.0150    -0.0250 C.3   1 <1>   0.1400 
  7 C        0.2830    -2.8580    -0.4740 C.2   1 <1>  -0.0400 
  8 C        2.2330    -3.3170    -1.3520 C.2   1 <1>  -0.1500 
  9 C        3.6360     1.9070    -0.2130 C.3   1 <1>  -0.0190 
 10 C        4.3350    -0.0990     1.1770 C.3   1 <1>  -0.1600 
 11 O        0.3800    -4.1640    -0.5750 O.3   1 <1>  -0.2800 
 12 C       -0.9960    -2.2620     0.0970 C.3   1 <1>   0.3000 
 13 C        1.5450    -4.4490    -1.1100 C.2   1 <1>  -0.0100 
 14 C        4.0220     3.2860    -0.7250 C.2   1 <1>   0.5690 
 15 C        4.6990     1.3310     0.7450 C.3   1 <1>  -0.1600 
 16 O       -2.0860    -2.6080    -0.7310 O.3   1 <1>  -0.3630 
 17 O        5.0140     3.4070    -1.4020 O.2   1 <1>  -0.5700 
 18 N        3.2300     4.3460    -0.4070 N.am  1 <1>  -0.7300 
 19 C       -3.3530    -2.2480    -0.4070 C.ar  1 <1>   0.0820 
 20 C        3.4700     5.7480    -0.8310 C.3   1 <1>   0.0600 
 21 C       -4.3660    -2.7460    -1.2110 C.ar  1 <1>  -0.1500 
 22 C       -3.6790    -1.4250     0.6670 C.ar  1 <1>  -0.1500 
 23 C       -5.6880    -2.4340    -0.9500 C.ar  1 <1>  -0.1500 
 24 C       -5.0030    -1.1150     0.9250 C.ar  1 <1>  -0.1500 
 25 C       -6.0140    -1.6180     0.1210 C.ar  1 <1>  -0.1430 
 26 C       -7.4640    -1.2730     0.4080 C.3   1 <1>  -0.0970 
 27 H        2.6430     1.3570    -2.0410 H     1 <1>   0.0800 
 28 H        4.3200     0.8950    -1.9840 H     1 <1>   0.0800 
 29 H        4.9790    -1.1570    -0.5860 H     1 <1>   0.0800 
 30 H        3.7390    -1.9740     0.3320 H     1 <1>   0.0800 
 31 H        3.2080    -3.2100    -1.7940 H     1 <1>   0.1500 
 32 H        2.7020     1.9890     0.3120 H     1 <1>   0.0800 
 33 H        5.1350    -0.5100     1.7670 H     1 <1>   0.0800 
 34 H        3.4540    -0.0760     1.7950 H     1 <1>   0.0800 
 35 H       -0.9360    -1.1900     0.1420 H     1 <1>   0.0800 
 36 H       -1.1770    -2.6620     1.0780 H     1 <1>   0.0800 
 37 H        1.7960    -5.4810    -1.2860 H     1 <1>   0.1500 
 38 H        4.7870     1.9640     1.6120 H     1 <1>   0.0800 
 39 H        5.6540     1.3190     0.2480 H     1 <1>   0.0800 
 40 H        2.3860     4.1880     0.1460 H     1 <1>   0.3700 
 41 H        4.3770     5.8160    -1.4080 H     1 <1>   0.0800 
 42 H        3.5630     6.3800     0.0350 H     1 <1>   0.0800 
 43 H        2.6490     6.0920    -1.4360 H     1 <1>   0.0800 
 44 H       -4.1090    -3.3780    -2.0410 H     1 <1>   0.1500 
 45 H       -2.9240    -1.0140     1.3090 H     1 <1>   0.1500 
 46 H       -6.4610    -2.8290    -1.5860 H     1 <1>   0.1500 
 47 H       -5.2450    -0.4770     1.7570 H     1 <1>   0.1500 
 48 H       -8.1110    -2.0690     0.0860 H     1 <1>   0.0800 
 49 H       -7.7330    -0.3730    -0.1150 H     1 <1>   0.0800 
 50 H       -7.6130    -1.1210     1.4620 H     1 <1>   0.0800 
@<TRIPOS>BOND
  1   1   2  2   
  2   2   3  am  
  3   2   4  1   
  4   3   5  1   
  5   3   6  1   
  6   4   7  2   
  7   4   8  1   
  8   5   9  1   
  9   5  27  1   
 10   5  28  1   
 11   6  10  1   
 12   6  29  1   
 13   6  30  1   
 14   7  11  1   
 15   7  12  1   
 16   8  13  2   
 17   8  31  1   
 18   9  14  1   
 19   9  15  1   
 20   9  32  1   
 21  10  15  1   
 22  10  33  1   
 23  10  34  1   
 24  11  13  1   
 25  12  16  1   
 26  12  35  1   
 27  12  36  1   
 28  13  37  1   
 29  14  17  2   
 30  14  18  am  
 31  15  38  1   
 32  15  39  1   
 33  16  19  1   
 34  18  20  1   
 35  18  40  1   
 36  19  21  ar  
 37  19  22  ar  
 38  20  41  1   
 39  20  42  1   
 40  20  43  1   
 41  21  23  ar  
 42  21  44  1   
 43  22  24  ar  
 44  22  45  1   
 45  23  25  ar  
 46  23  46  1   
 47  24  25  ar  
 48  24  47  1   
 49  25  26  1   
 50  26  48  1   
 51  26  49  1   
 52  26  50  1   
@<TRIPOS>SUBSTRUCTURE
  1 ****   1 GROUP 4 **** **** 0

# MOE 2024.06 (io_trps.svl 2023.06)
