@<TRIPOS>MOLECULE
NONAME
44 45 1 0 0 
SMALL
USER_CHARGES


@<TRIPOS>ATOM
  1 F       -0.6640    -0.6470    -0.7160 F     1 <1>  -0.1900 
  2 C       -1.0570    -1.8470    -0.3690 C.ar  1 <1>   0.1900 
  3 C       -0.4090    -3.0000    -0.8250 C.ar  1 <1>   0.0820 
  4 C       -2.1450    -1.9160     0.4790 C.ar  1 <1>  -0.1500 
  5 O        0.6680    -3.0610    -1.6620 O.3   1 <1>  -0.3630 
  6 C       -0.8970    -4.2230    -0.3940 C.ar  1 <1>  -0.1500 
  7 C       -2.6030    -3.1540     0.8900 C.ar  1 <1>  -0.1500 
  8 C        1.2230    -1.9220    -2.2810 C.3   1 <1>   0.0400 
  9 C       -1.9940    -4.3340     0.4640 C.ar  1 <1>   0.0530 
 10 C       -2.4520    -5.6320     0.8990 C.2   1 <1>   0.0870 
 11 O       -1.5600    -6.5650     1.1410 O.3   1 <1>  -0.0190 
 12 C       -3.6730    -6.1820     1.1460 C.2   1 <1>  -0.2330 
 13 N       -2.0910    -7.6880     1.5430 N.2   1 <1>  -0.4100 
 14 C       -3.3580    -7.4750     1.5620 C.2   1 <1>   0.3720 
 15 C       -5.0090    -5.6770     1.0030 C.2   1 <1>   1.0330 
 16 N       -4.2950    -8.4220     1.9430 N.pl3 1 <1>  -0.8520 
 17 O       -5.2220    -4.5470     0.5370 O.co2 1 <1>  -0.9000 
 18 O       -5.9940    -6.3690     1.3270 O.co2 1 <1>  -0.9000 
 19 C       -4.3530    -9.6260     1.1110 C.3   1 <1>   0.2890 
 20 C       -5.3500    -9.3710    -0.0330 C.3   1 <1>  -0.1600 
 21 C       -4.7360   -10.7790     2.0310 C.3   1 <1>  -0.2400 
 22 C       -5.4740   -10.5210    -1.0580 C.3   1 <1>  -0.0800 
 23 C       -5.6860    -9.9500    -2.4660 C.3   1 <1>  -0.2400 
 24 C       -6.6460   -11.4580    -0.7290 C.3   1 <1>  -0.2400 
 25 H       -2.6320    -1.0170     0.8120 H     1 <1>   0.1500 
 26 H       -0.4120    -5.1190    -0.7360 H     1 <1>   0.1500 
 27 H       -3.4530    -3.2120     1.5490 H     1 <1>   0.1500 
 28 H        2.0150    -2.2480    -2.9310 H     1 <1>   0.0800 
 29 H        1.6200    -1.2700    -1.5230 H     1 <1>   0.0800 
 30 H        0.4600    -1.4280    -2.8550 H     1 <1>   0.0800 
 31 H       -5.2170    -7.9380     1.8880 H     1 <1>   0.4000 
 32 H       -3.3770    -9.8210     0.6960 H     1 <1>   0.0800 
 33 H       -5.0060    -8.4900    -0.5460 H     1 <1>   0.0800 
 34 H       -6.3170    -9.1310     0.3750 H     1 <1>   0.0800 
 35 H       -5.7420   -10.6520     2.3890 H     1 <1>   0.0800 
 36 H       -4.0640   -10.8060     2.8700 H     1 <1>   0.0800 
 37 H       -4.6570   -11.7130     1.5100 H     1 <1>   0.0800 
 38 H       -4.5580   -11.0890    -1.0680 H     1 <1>   0.0800 
 39 H       -6.5780    -9.3490    -2.4980 H     1 <1>   0.0800 
 40 H       -5.7780   -10.7440    -3.1860 H     1 <1>   0.0800 
 41 H       -4.8500    -9.3340    -2.7490 H     1 <1>   0.0800 
 42 H       -7.5750   -10.9150    -0.7510 H     1 <1>   0.0800 
 43 H       -6.5370   -11.8950     0.2450 H     1 <1>   0.0800 
 44 H       -6.6990   -12.2540    -1.4490 H     1 <1>   0.0800 
@<TRIPOS>BOND
  1   1   2  1   
  2   2   3  ar  
  3   2   4  ar  
  4   3   5  1   
  5   3   6  ar  
  6   4   7  ar  
  7   4  25  1   
  8   5   8  1   
  9   6   9  ar  
 10   6  26  1   
 11   7   9  ar  
 12   7  27  1   
 13   8  28  1   
 14   8  29  1   
 15   8  30  1   
 16   9  10  1   
 17  10  11  1   
 18  10  12  2   
 19  11  13  1   
 20  12  14  1   
 21  12  15  1   
 22  13  14  2   
 23  14  16  1   
 24  15  17  ar  
 25  15  18  ar  
 26  16  19  1   
 27  16  31  1   
 28  19  20  1   
 29  19  21  1   
 30  19  32  1   
 31  20  22  1   
 32  20  33  1   
 33  20  34  1   
 34  21  35  1   
 35  21  36  1   
 36  21  37  1   
 37  22  23  1   
 38  22  24  1   
 39  22  38  1   
 40  23  39  1   
 41  23  40  1   
 42  23  41  1   
 43  24  42  1   
 44  24  43  1   
 45  24  44  1   
@<TRIPOS>SUBSTRUCTURE
  1 ****  10 GROUP 4 **** **** 0

# MOE 2024.06 (io_trps.svl 2023.06)
