@<TRIPOS>MOLECULE
NONAME
57 60 1 0 0 
SMALL
USER_CHARGES


@<TRIPOS>ATOM
  1 O       -1.0720     0.3180    -0.1370 O.2   1 <1>  -0.5700 
  2 C       -2.1640     0.8110     0.0590 C.2   1 <1>   0.5690 
  3 N       -3.2870     0.0120     0.0190 N.am  1 <1>  -0.6600 
  4 C       -2.1550     2.3600     0.3550 C.3   1 <1>   0.5640 
  5 C       -4.7000     0.3420     0.3580 C.3   1 <1>   0.1400 
  6 C       -3.1840    -1.4480    -0.2560 C.3   1 <1>   0.1400 
  7 N       -0.8450     2.9550    -0.1120 N.4   1 <1>  -0.9590 
  8 C       -2.2360     2.5700     1.8740 C.3   1 <1>  -0.2400 
  9 C       -3.3020     3.1320    -0.3250 C.3   1 <1>  -0.2400 
 10 C       -5.4410    -0.9950     0.4400 C.3   1 <1>   0.2000 
 11 C       -4.3670    -2.0780     0.4770 C.3   1 <1>  -0.0800 
 12 C       -0.4380     4.3030     0.3590 C.3   1 <1>   0.3430 
 13 C       -0.6280     2.9340    -1.5810 C.3   1 <1>   0.3430 
 14 O       -6.2200    -1.0640     1.5840 O.3   1 <1>  -0.6800 
 15 C       -4.8370    -3.4090    -0.1330 C.3   1 <1>  -0.0170 
 16 C        0.6810     4.7270    -0.5860 C.3   1 <1>  -0.1600 
 17 C        0.6330     3.7600    -1.7730 C.3   1 <1>  -0.1600 
 18 C       -3.7190    -4.4370    -0.1350 C.ar  1 <1>   0.1670 
 19 N       -2.9020    -4.4260    -1.1430 N.ar  1 <1>  -0.6200 
 20 C       -3.6110    -5.3290     0.9440 C.ar  1 <1>  -0.1500 
 21 C       -1.8860    -5.3270    -1.1450 C.ar  1 <1>   0.3100 
 22 C       -2.6030    -6.2440     0.9680 C.ar  1 <1>  -0.1500 
 23 C       -1.6940    -6.2610    -0.1030 C.ar  1 <1>   0.0000 
 24 C       -0.9850    -5.3330    -2.2210 C.ar  1 <1>  -0.1500 
 25 C       -0.6100    -7.1590    -0.1790 C.ar  1 <1>  -0.1500 
 26 C        0.0630    -6.2130    -2.2760 C.ar  1 <1>  -0.1500 
 27 C        0.2510    -7.1360    -1.2420 C.ar  1 <1>  -0.1500 
 28 H       -4.7510     0.8600     1.2990 H     1 <1>   0.0800 
 29 H       -5.1360     0.9390    -0.4240 H     1 <1>   0.0800 
 30 H       -3.2630    -1.6140    -1.3180 H     1 <1>   0.0800 
 31 H       -2.2500    -1.8590     0.0930 H     1 <1>   0.0800 
 32 H       -0.1530     2.2730     0.2380 H     1 <1>   0.4500 
 33 H       -3.1060     2.0770     2.2680 H     1 <1>   0.0800 
 34 H       -2.3160     3.6100     2.1320 H     1 <1>   0.0800 
 35 H       -1.3770     2.1410     2.3590 H     1 <1>   0.0800 
 36 H       -4.2300     2.9580     0.1850 H     1 <1>   0.0800 
 37 H       -3.4230     2.8120    -1.3450 H     1 <1>   0.0800 
 38 H       -3.1330     4.1920    -0.3040 H     1 <1>   0.0800 
 39 H       -6.0880    -1.1060    -0.4140 H     1 <1>   0.0800 
 40 H       -4.0520    -2.2470     1.4930 H     1 <1>   0.0800 
 41 H       -1.2620     4.9910     0.2700 H     1 <1>   0.0800 
 42 H       -0.1010     4.2780     1.3830 H     1 <1>   0.0800 
 43 H       -0.5080     1.9280    -1.9530 H     1 <1>   0.0800 
 44 H       -1.4510     3.4120    -2.0860 H     1 <1>   0.0800 
 45 H       -5.6610    -1.1330     2.3820 H     1 <1>   0.4000 
 46 H       -5.1660    -3.2540    -1.1460 H     1 <1>   0.0800 
 47 H       -5.6760    -3.7860     0.4250 H     1 <1>   0.0800 
 48 H        0.5260     5.7440    -0.9010 H     1 <1>   0.0800 
 49 H        1.6330     4.6680    -0.0870 H     1 <1>   0.0800 
 50 H        1.4890     3.1080    -1.7590 H     1 <1>   0.0800 
 51 H        0.6140     4.2780    -2.7170 H     1 <1>   0.0800 
 52 H       -4.3280    -5.2800     1.7430 H     1 <1>   0.1500 
 53 H       -2.4870    -6.9430     1.7770 H     1 <1>   0.1500 
 54 H       -1.1460    -4.6160    -3.0050 H     1 <1>   0.1500 
 55 H       -0.4710    -7.8660     0.6200 H     1 <1>   0.1500 
 56 H        0.7470    -6.2060    -3.1070 H     1 <1>   0.1500 
 57 H        1.0790    -7.8220    -1.2970 H     1 <1>   0.1500 
@<TRIPOS>BOND
  1   1   2  2   
  2   2   3  am  
  3   2   4  1   
  4   3   5  1   
  5   3   6  1   
  6   4   7  1   
  7   4   8  1   
  8   4   9  1   
  9   5  10  1   
 10   5  28  1   
 11   5  29  1   
 12   6  11  1   
 13   6  30  1   
 14   6  31  1   
 15   7  12  1   
 16   7  13  1   
 17   7  32  1   
 18   8  33  1   
 19   8  34  1   
 20   8  35  1   
 21   9  36  1   
 22   9  37  1   
 23   9  38  1   
 24  10  11  1   
 25  10  14  1   
 26  10  39  1   
 27  11  15  1   
 28  11  40  1   
 29  12  16  1   
 30  12  41  1   
 31  12  42  1   
 32  13  17  1   
 33  13  43  1   
 34  13  44  1   
 35  14  45  1   
 36  15  18  1   
 37  15  46  1   
 38  15  47  1   
 39  16  17  1   
 40  16  48  1   
 41  16  49  1   
 42  17  50  1   
 43  17  51  1   
 44  18  19  ar  
 45  18  20  ar  
 46  19  21  ar  
 47  20  22  ar  
 48  20  52  1   
 49  21  23  ar  
 50  21  24  ar  
 51  22  23  ar  
 52  22  53  1   
 53  23  25  ar  
 54  24  26  ar  
 55  24  54  1   
 56  25  27  ar  
 57  25  55  1   
 58  26  27  ar  
 59  26  56  1   
 60  27  57  1   
@<TRIPOS>SUBSTRUCTURE
  1 ****   6 GROUP 4 **** **** 0

# MOE 2024.06 (io_trps.svl 2023.06)
