@<TRIPOS>MOLECULE
NONAME
46 48 1 0 0 
SMALL
USER_CHARGES


@<TRIPOS>ATOM
  1 S       -3.0200     1.0060     1.4380 S.3   1 <1>  -0.0800 
  2 C       -2.7420    -0.5350     0.6500 C.2   1 <1>  -0.1100 
  3 C       -4.6610     1.0720     0.8270 C.2   1 <1>  -0.1100 
  4 C       -3.8450    -0.9440    -0.0080 C.2   1 <1>  -0.1810 
  5 C       -4.9380    -0.0180     0.0880 C.2   1 <1>  -0.1500 
  6 C       -3.9680    -2.2350    -0.7900 C.3   1 <1>   0.5240 
  7 N       -4.2300    -3.3430     0.1630 N.4   1 <1>  -0.9590 
  8 C       -3.9850    -4.6550    -0.5400 C.3   1 <1>   0.3430 
  9 C       -5.5950    -3.2040     0.7720 C.3   1 <1>   0.3430 
 10 C       -4.3120    -5.9110     0.2880 C.3   1 <1>   0.1400 
 11 C       -5.6940    -3.9800     2.0910 C.3   1 <1>  -0.1600 
 12 N       -5.7660    -5.9600     0.6010 N.am  1 <1>  -0.6600 
 13 C       -6.1610    -5.4330     1.9300 C.3   1 <1>   0.1400 
 14 C       -6.6750    -6.2460    -0.4000 C.2   1 <1>   0.5440 
 15 O       -6.2690    -6.2520    -1.5480 O.2   1 <1>  -0.5700 
 16 C       -8.0680    -6.4940    -0.1310 C.ar  1 <1>   0.0860 
 17 C       -8.5320    -7.7900     0.0670 C.ar  1 <1>   0.1900 
 18 C       -9.0100    -5.4610    -0.0590 C.ar  1 <1>   0.0830 
 19 F       -7.6830    -8.7810     0.0310 F     1 <1>  -0.1900 
 20 C       -9.8560    -8.0920     0.3140 C.ar  1 <1>  -0.1500 
 21 O       -8.5690    -4.1870    -0.2280 O.3   1 <1>  -0.3620 
 22 C      -10.3520    -5.7530     0.1900 C.ar  1 <1>  -0.1500 
 23 C      -10.7730    -7.0590     0.3740 C.ar  1 <1>  -0.1500 
 24 C       -9.4650    -3.1230    -0.4790 C.3   1 <1>   0.0400 
 25 H       -1.7620    -0.9640     0.7750 H     1 <1>   0.1500 
 26 H       -5.2480     1.9370     1.0870 H     1 <1>   0.1500 
 27 H       -5.8820    -0.1950    -0.4000 H     1 <1>   0.1500 
 28 H       -3.0410    -2.4140    -1.3110 H     1 <1>   0.0800 
 29 H       -4.7600    -2.1620    -1.5180 H     1 <1>   0.0800 
 30 H       -3.5520    -3.2320     0.9240 H     1 <1>   0.4500 
 31 H       -2.9500    -4.7100    -0.8370 H     1 <1>   0.0800 
 32 H       -4.5770    -4.6960    -1.4400 H     1 <1>   0.0800 
 33 H       -6.3510    -3.5400     0.0800 H     1 <1>   0.0800 
 34 H       -5.7830    -2.1660     0.9910 H     1 <1>   0.0800 
 35 H       -3.7260    -5.9380     1.1900 H     1 <1>   0.0800 
 36 H       -4.0580    -6.7830    -0.2920 H     1 <1>   0.0800 
 37 H       -6.4150    -3.4860     2.7180 H     1 <1>   0.0800 
 38 H       -4.7580    -3.9470     2.6190 H     1 <1>   0.0800 
 39 H       -7.2310    -5.4710     2.0390 H     1 <1>   0.0800 
 40 H       -5.7380    -6.0510     2.7050 H     1 <1>   0.0800 
 41 H      -10.1600    -9.1140     0.4560 H     1 <1>   0.1500 
 42 H      -11.0910    -4.9750     0.2490 H     1 <1>   0.1500 
 43 H      -11.8120    -7.2720     0.5640 H     1 <1>   0.1500 
 44 H       -8.8920    -2.2450    -0.7150 H     1 <1>   0.0800 
 45 H      -10.0570    -2.9460     0.4020 H     1 <1>   0.0800 
 46 H      -10.0910    -3.3820    -1.3150 H     1 <1>   0.0800 
@<TRIPOS>BOND
  1   1   2  1   
  2   1   3  1   
  3   2   4  2   
  4   2  25  1   
  5   3   5  2   
  6   3  26  1   
  7   4   5  1   
  8   4   6  1   
  9   5  27  1   
 10   6   7  1   
 11   6  28  1   
 12   6  29  1   
 13   7   8  1   
 14   7   9  1   
 15   7  30  1   
 16   8  10  1   
 17   8  31  1   
 18   8  32  1   
 19   9  11  1   
 20   9  33  1   
 21   9  34  1   
 22  10  12  1   
 23  10  35  1   
 24  10  36  1   
 25  11  13  1   
 26  11  37  1   
 27  11  38  1   
 28  12  13  1   
 29  12  14  am  
 30  13  39  1   
 31  13  40  1   
 32  14  15  2   
 33  14  16  1   
 34  16  17  ar  
 35  16  18  ar  
 36  17  19  1   
 37  17  20  ar  
 38  18  21  1   
 39  18  22  ar  
 40  20  23  ar  
 41  20  41  1   
 42  21  24  1   
 43  22  23  ar  
 44  22  42  1   
 45  23  43  1   
 46  24  44  1   
 47  24  45  1   
 48  24  46  1   
@<TRIPOS>SUBSTRUCTURE
  1 ****   9 GROUP 4 **** **** 0

# MOE 2024.06 (io_trps.svl 2023.06)
