@<TRIPOS>MOLECULE
NONAME
46 48 1 0 0 
SMALL
USER_CHARGES


@<TRIPOS>ATOM
  1 O        0.9190     1.4860     0.1230 O.2   1 <1>  -0.5700 
  2 C       -0.2020     1.9440     0.0900 C.2   1 <1>   0.7800 
  3 O       -1.1560     1.5380     0.9150 O.3   1 <1>  -0.4300 
  4 N       -0.6350     2.9180    -0.7350 N.am  1 <1>  -0.6600 
  5 C       -2.3490     2.2700     0.7030 C.3   1 <1>   0.1200 
  6 C       -2.0180     3.2710    -0.4120 C.3   1 <1>   0.1400 
  7 C        0.2090     3.7460    -1.6460 C.3   1 <1>   0.2010 
  8 C        0.3910     5.1830    -1.1450 C.2   1 <1>   0.5690 
  9 O       -0.3860     6.0050    -1.5760 O.2   1 <1>  -0.5700 
 10 N        1.3710     5.5350    -0.2420 N.am  1 <1>  -0.6600 
 11 C        2.4040     4.6060     0.3240 C.3   1 <1>   0.1400 
 12 C        1.4730     6.9260     0.2780 C.3   1 <1>   0.1400 
 13 C        3.8140     5.1460     0.0370 C.3   1 <1>   0.2000 
 14 C        2.8470     7.4980    -0.0770 C.3   1 <1>  -0.1600 
 15 O        4.7330     4.3540     0.7110 O.3   1 <1>  -0.6800 
 16 C        3.9700     6.6180     0.4820 C.3   1 <1>   0.2200 
 17 N        5.2680     7.1910     0.0420 N.am  1 <1>  -0.7300 
 18 C        6.4710     7.0080     0.6610 C.2   1 <1>   0.5440 
 19 O        6.5140     6.2280     1.5920 O.2   1 <1>  -0.5700 
 20 C        7.6650     7.6930     0.1960 C.ar  1 <1>   0.0860 
 21 C        8.9280     7.1240     0.3670 C.ar  1 <1>  -0.1500 
 22 C        7.6040     8.9370    -0.4360 C.ar  1 <1>  -0.1500 
 23 C       10.0730     7.7560    -0.0820 C.ar  1 <1>  -0.1500 
 24 C        8.7460     9.5740    -0.8890 C.ar  1 <1>  -0.1500 
 25 C        9.9840     8.9820    -0.7140 C.ar  1 <1>  -0.1500 
 26 H       -3.1240     1.5870     0.4060 H     1 <1>   0.0800 
 27 H       -2.6190     2.7670     1.6180 H     1 <1>   0.0800 
 28 H       -2.0840     4.2850    -0.0570 H     1 <1>   0.0800 
 29 H       -2.6600     3.1360    -1.2660 H     1 <1>   0.0800 
 30 H        1.1660     3.2780    -1.7840 H     1 <1>   0.0800 
 31 H       -0.2660     3.7840    -2.6090 H     1 <1>   0.0800 
 32 H        2.2600     4.5360     1.3880 H     1 <1>   0.0800 
 33 H        2.3210     3.6190    -0.0880 H     1 <1>   0.0800 
 34 H        0.7040     7.5530    -0.1420 H     1 <1>   0.0800 
 35 H        1.3410     6.9130     1.3470 H     1 <1>   0.0800 
 36 H        4.0180     5.0590    -1.0150 H     1 <1>   0.0800 
 37 H        2.9280     8.4870     0.3360 H     1 <1>   0.0800 
 38 H        2.9210     7.5650    -1.1480 H     1 <1>   0.0800 
 39 H        5.4790     4.9260     1.0340 H     1 <1>   0.4000 
 40 H        3.9190     6.6500     1.5580 H     1 <1>   0.0800 
 41 H        5.2480     7.6860    -0.8500 H     1 <1>   0.3700 
 42 H        9.0070     6.1710     0.8610 H     1 <1>   0.1500 
 43 H        6.6530     9.4210    -0.5700 H     1 <1>   0.1500 
 44 H       11.0350     7.2930     0.0610 H     1 <1>   0.1500 
 45 H        8.6750    10.5320    -1.3750 H     1 <1>   0.1500 
 46 H       10.8740     9.4760    -1.0650 H     1 <1>   0.1500 
@<TRIPOS>BOND
  1   1   2  2   
  2   2   3  1   
  3   2   4  am  
  4   3   5  1   
  5   4   6  1   
  6   4   7  1   
  7   5   6  1   
  8   5  26  1   
  9   5  27  1   
 10   6  28  1   
 11   6  29  1   
 12   7   8  1   
 13   7  30  1   
 14   7  31  1   
 15   8   9  2   
 16   8  10  am  
 17  10  11  1   
 18  10  12  1   
 19  11  13  1   
 20  11  32  1   
 21  11  33  1   
 22  12  14  1   
 23  12  34  1   
 24  12  35  1   
 25  13  15  1   
 26  13  16  1   
 27  13  36  1   
 28  14  16  1   
 29  14  37  1   
 30  14  38  1   
 31  15  39  1   
 32  16  17  1   
 33  16  40  1   
 34  17  18  am  
 35  17  41  1   
 36  18  19  2   
 37  18  20  1   
 38  20  21  ar  
 39  20  22  ar  
 40  21  23  ar  
 41  21  42  1   
 42  22  24  ar  
 43  22  43  1   
 44  23  25  ar  
 45  23  44  1   
 46  24  25  ar  
 47  24  45  1   
 48  25  46  1   
@<TRIPOS>SUBSTRUCTURE
  1 ****  13 GROUP 4 **** **** 0

# MOE 2024.06 (io_trps.svl 2023.06)
