@<TRIPOS>MOLECULE
NONAME
47 48 1 0 0 
SMALL
USER_CHARGES


@<TRIPOS>ATOM
  1 O       -2.1430     0.0470    -3.2440 O.2   1 <1>  -0.5700 
  2 C       -1.7580     0.3900    -2.1520 C.2   1 <1>   0.5690 
  3 N       -1.6600    -0.4850    -1.1210 N.am  1 <1>  -0.7300 
  4 C       -1.3850     1.8560    -1.9020 C.3   1 <1>   0.1710 
  5 C       -1.9470    -1.9340    -1.1650 C.3   1 <1>   0.2200 
  6 N       -0.5180     2.0860    -0.7020 N.3   1 <1>  -0.8100 
  7 C       -3.1790    -2.2760    -0.3410 C.3   1 <1>  -0.0800 
  8 C       -0.8710    -2.6810    -0.3880 C.3   1 <1>   0.1200 
  9 C       -0.5350     3.5160    -0.3280 C.3   1 <1>   0.1100 
 10 C        0.8550     1.6190    -0.9660 C.3   1 <1>   0.0300 
 11 C       -2.6170    -2.4030     1.0780 C.3   1 <1>   0.1200 
 12 C       -4.3630    -1.2990    -0.4680 C.3   1 <1>  -0.0160 
 13 O       -1.2340    -2.5720     0.9550 O.3   1 <1>  -0.5600 
 14 C       -0.0040     3.7400     1.0900 C.3   1 <1>   0.1200 
 15 C       -5.5610    -1.7920     0.3270 C.ar  1 <1>  -0.1440 
 16 O       -0.1210     5.0940     1.3940 O.3   1 <1>  -0.5600 
 17 C       -6.4210    -2.7480    -0.1730 C.ar  1 <1>  -0.1500 
 18 C       -5.8500    -1.3130     1.5890 C.ar  1 <1>  -0.1500 
 19 C        0.3050     5.4220     2.6760 C.3   1 <1>   0.0400 
 20 C       -7.4960    -3.1710     0.5920 C.ar  1 <1>   0.1600 
 21 C       -6.9510    -1.8030     2.2720 C.ar  1 <1>   0.1600 
 22 N       -7.7800    -2.7230     1.8040 N.ar  1 <1>  -0.6200 
 23 H       -1.2870    -0.1200    -0.2370 H     1 <1>   0.3700 
 24 H       -2.3110     2.3870    -1.7770 H     1 <1>   0.0800 
 25 H       -0.9020     2.2440    -2.7810 H     1 <1>   0.0800 
 26 H       -2.0230    -2.2730    -2.1850 H     1 <1>   0.0800 
 27 H       -3.5150    -3.2530    -0.6420 H     1 <1>   0.0800 
 28 H        0.1110    -2.2680    -0.5350 H     1 <1>   0.0800 
 29 H       -0.8730    -3.7260    -0.6450 H     1 <1>   0.0800 
 30 H        0.0480     4.0900    -1.0290 H     1 <1>   0.0800 
 31 H       -1.5490     3.8780    -0.3500 H     1 <1>   0.0800 
 32 H        1.4540     1.6940    -0.0750 H     1 <1>   0.0800 
 33 H        1.3110     2.2070    -1.7450 H     1 <1>   0.0800 
 34 H        0.8500     0.5870    -1.2720 H     1 <1>   0.0800 
 35 H       -3.0310    -3.2490     1.6000 H     1 <1>   0.0800 
 36 H       -2.7820    -1.5070     1.6500 H     1 <1>   0.0800 
 37 H       -4.6360    -1.2040    -1.5050 H     1 <1>   0.0800 
 38 H       -4.0830    -0.3210    -0.1190 H     1 <1>   0.0800 
 39 H        1.0330     3.4660     1.1590 H     1 <1>   0.0800 
 40 H       -0.5900     3.1760     1.7950 H     1 <1>   0.0800 
 41 H       -6.2660    -3.1670    -1.1500 H     1 <1>   0.1500 
 42 H       -5.2320    -0.5640     2.0480 H     1 <1>   0.1500 
 43 H        0.1780     6.4810     2.8110 H     1 <1>   0.0800 
 44 H        1.3450     5.1650     2.7820 H     1 <1>   0.0800 
 45 H       -0.2930     4.8900     3.3960 H     1 <1>   0.0800 
 46 H       -8.1560    -3.9170     0.1850 H     1 <1>   0.1500 
 47 H       -7.1610    -1.4180     3.2550 H     1 <1>   0.1500 
@<TRIPOS>BOND
  1   1   2  2   
  2   2   3  am  
  3   2   4  1   
  4   3   5  1   
  5   3  23  1   
  6   4   6  1   
  7   4  24  1   
  8   4  25  1   
  9   5   7  1   
 10   5   8  1   
 11   5  26  1   
 12   6   9  1   
 13   6  10  1   
 14   7  11  1   
 15   7  12  1   
 16   7  27  1   
 17   8  13  1   
 18   8  28  1   
 19   8  29  1   
 20   9  14  1   
 21   9  30  1   
 22   9  31  1   
 23  10  32  1   
 24  10  33  1   
 25  10  34  1   
 26  11  13  1   
 27  11  35  1   
 28  11  36  1   
 29  12  15  1   
 30  12  37  1   
 31  12  38  1   
 32  14  16  1   
 33  14  39  1   
 34  14  40  1   
 35  15  17  ar  
 36  15  18  ar  
 37  16  19  1   
 38  17  20  ar  
 39  17  41  1   
 40  18  21  ar  
 41  18  42  1   
 42  19  43  1   
 43  19  44  1   
 44  19  45  1   
 45  20  22  ar  
 46  20  46  1   
 47  21  22  ar  
 48  21  47  1   
@<TRIPOS>SUBSTRUCTURE
  1 ****   3 GROUP 4 **** **** 0

# MOE 2024.06 (io_trps.svl 2023.06)
