@<TRIPOS>MOLECULE
NONAME
22 23 1 0 0 
SMALL
USER_CHARGES


@<TRIPOS>ATOM
  1 O       -0.3670     0.6310    -2.0410 O.2   1 <1>  -0.5700 
  2 C       -0.8570     1.4440    -1.2950 C.2   1 <1>   0.5690 
  3 N       -2.1980     1.6320    -1.2710 N.am  1 <1>  -0.6550 
  4 C        0.0490     2.2910    -0.3830 C.3   1 <1>   0.1710 
  5 C       -2.8740     2.5270    -0.2960 C.3   1 <1>   0.2250 
  6 N       -0.6460     2.9620     0.7550 N.3   1 <1>  -0.9000 
  7 C       -1.9130     3.5740     0.3180 C.3   1 <1>   0.1100 
  8 C       -4.2110     3.0980    -0.8420 C.3   1 <1>   0.0000 
  9 C       -3.7210     1.7240     0.7320 C.3   1 <1>   0.0000 
 10 C       -4.9120     1.8430    -0.2570 C.3   1 <1>   0.0000 
 11 H       -2.7780     1.0100    -1.8320 H     1 <1>   0.3700 
 12 H        0.5180     3.0380    -0.9980 H     1 <1>   0.0800 
 13 H        0.8220     1.6550     0.0080 H     1 <1>   0.0800 
 14 H       -0.0270     3.6810     1.1520 H     1 <1>   0.3600 
 15 H       -2.3880     4.0480     1.1600 H     1 <1>   0.0800 
 16 H       -1.7100     4.3350    -0.4160 H     1 <1>   0.0800 
 17 H       -4.2590     3.1710    -1.9140 H     1 <1>   0.0000 
 18 H       -4.5160     4.0010    -0.3400 H     1 <1>   0.0000 
 19 H       -3.9020     2.2650     1.6440 H     1 <1>   0.0000 
 20 H       -3.3840     0.7150     0.8960 H     1 <1>   0.0000 
 21 H       -4.9580     1.0260    -0.9560 H     1 <1>   0.0000 
 22 H       -5.8530     2.0540     0.2210 H     1 <1>   0.0000 
@<TRIPOS>BOND
  1   1   2  2   
  2   2   3  am  
  3   2   4  1   
  4   3   5  1   
  5   3  11  1   
  6   4   6  1   
  7   4  12  1   
  8   4  13  1   
  9   5   7  1   
 10   5   8  1   
 11   5   9  1   
 12   6   7  1   
 13   6  14  1   
 14   7  15  1   
 15   7  16  1   
 16   8  10  1   
 17   8  17  1   
 18   8  18  1   
 19   9  10  1   
 20   9  19  1   
 21   9  20  1   
 22  10  21  1   
 23  10  22  1   
@<TRIPOS>SUBSTRUCTURE
  1 ****   5 GROUP 4 **** **** 0

# MOE 2024.06 (io_trps.svl 2023.06)
