@<TRIPOS>MOLECULE
NONAME
56 60 1 0 0 
SMALL
USER_CHARGES


@<TRIPOS>ATOM
  1 N        0.4940     0.1430    -0.1010 N.ar  1 <1>  -0.6200 
  2 C       -0.5510     0.9520     0.1360 C.ar  1 <1>   0.6200 
  3 C        1.2830     0.5150    -1.0780 C.ar  1 <1>   0.1660 
  4 N       -0.8160     2.0810    -0.5350 N.ar  1 <1>  -0.6200 
  5 C       -1.4590     0.5770     1.2100 C.ar  1 <1>   0.0000 
  6 C        1.0900     1.6430    -1.8110 C.ar  1 <1>  -0.1430 
  7 C        2.5170    -0.2380    -1.5140 C.3   1 <1>   0.1440 
  8 C        0.0030     2.4190    -1.5050 C.ar  1 <1>   0.1600 
  9 C       -1.7150    -0.7620     1.5190 C.ar  1 <1>  -0.1500 
 10 C       -2.1180     1.5390     1.9800 C.ar  1 <1>  -0.1500 
 11 C        2.1630     1.8200    -2.8570 C.3   1 <1>  -0.0160 
 12 C        3.3430    -0.5830    -0.2640 C.3   1 <1>   0.3430 
 13 C        2.1220    -1.5280    -2.2650 C.3   1 <1>  -0.1600 
 14 C        3.2280     0.7880    -2.4380 C.3   1 <1>  -0.1600 
 15 C       -2.5740    -1.1210     2.5420 C.ar  1 <1>  -0.1500 
 16 C       -2.9780     1.1880     3.0040 C.ar  1 <1>  -0.1500 
 17 N        4.5310    -1.4420    -0.6030 N.4   1 <1>  -0.9590 
 18 C        3.3310    -2.4530    -2.5050 C.3   1 <1>  -0.1600 
 19 C       -3.2090    -0.1460     3.2880 C.ar  1 <1>  -0.1500 
 20 C        4.1140    -2.7310    -1.2180 C.3   1 <1>   0.3430 
 21 C        5.3980    -1.6300     0.5870 C.3   1 <1>   0.5240 
 22 C        5.9630    -0.2740     0.9370 C.2   1 <1>  -0.1810 
 23 C        6.9600     0.4180     0.2550 C.2   1 <1>   0.1080 
 24 C        5.6070     0.5490     1.9490 C.2   1 <1>  -0.3020 
 25 N        7.1830     1.5760     0.7810 N.2   1 <1>  -0.7070 
 26 C        7.7420    -0.0430    -0.9570 C.3   1 <1>  -0.0590 
 27 N        6.3600     1.6590     1.8370 N.pl3 1 <1>   0.3140 
 28 C        6.3520     2.8380     2.7110 C.3   1 <1>   0.0160 
 29 H       -0.1990     3.3230    -2.0550 H     1 <1>   0.1500 
 30 H       -1.2360    -1.5360     0.9460 H     1 <1>   0.1500 
 31 H       -1.9530     2.5820     1.7720 H     1 <1>   0.1500 
 32 H        2.5570     2.8220    -2.8570 H     1 <1>   0.0800 
 33 H        1.7610     1.5860    -3.8280 H     1 <1>   0.0800 
 34 H        2.7070    -1.1020     0.4350 H     1 <1>   0.0800 
 35 H        3.6630     0.3350     0.2010 H     1 <1>   0.0800 
 36 H        1.6520    -1.2810    -3.2020 H     1 <1>   0.0800 
 37 H        1.3930    -2.0610    -1.6770 H     1 <1>   0.0800 
 38 H        3.6830     0.3350    -3.3010 H     1 <1>   0.0800 
 39 H        3.9910     1.3080    -1.8840 H     1 <1>   0.0800 
 40 H       -2.7530    -2.1610     2.7570 H     1 <1>   0.1500 
 41 H       -3.4710     1.9520     3.5790 H     1 <1>   0.1500 
 42 H        5.0940    -0.9130    -1.2790 H     1 <1>   0.4500 
 43 H        3.9900    -2.0250    -3.2390 H     1 <1>   0.0800 
 44 H        2.9800    -3.3890    -2.9060 H     1 <1>   0.0800 
 45 H       -3.8790    -0.4220     4.0840 H     1 <1>   0.1500 
 46 H        3.4890    -3.2790    -0.5300 H     1 <1>   0.0800 
 47 H        4.9790    -3.3340    -1.4460 H     1 <1>   0.0800 
 48 H        6.2050    -2.3110     0.3680 H     1 <1>   0.0800 
 49 H        4.8260    -2.0180     1.4140 H     1 <1>   0.0800 
 50 H        4.8780     0.4240     2.7310 H     1 <1>   0.1500 
 51 H        7.6950    -1.1080    -1.0760 H     1 <1>   0.0800 
 52 H        8.7730     0.2400    -0.8360 H     1 <1>   0.0800 
 53 H        7.3630     0.4400    -1.8390 H     1 <1>   0.0800 
 54 H        5.4550     2.8470     3.3010 H     1 <1>   0.0800 
 55 H        6.3970     3.7230     2.1040 H     1 <1>   0.0800 
 56 H        7.2120     2.8010     3.3530 H     1 <1>   0.0800 
@<TRIPOS>BOND
  1   1   2  ar  
  2   1   3  ar  
  3   2   4  ar  
  4   2   5  1   
  5   3   6  ar  
  6   3   7  1   
  7   4   8  ar  
  8   5   9  ar  
  9   5  10  ar  
 10   6   8  ar  
 11   6  11  1   
 12   7  12  1   
 13   7  13  1   
 14   7  14  1   
 15   8  29  1   
 16   9  15  ar  
 17   9  30  1   
 18  10  16  ar  
 19  10  31  1   
 20  11  14  1   
 21  11  32  1   
 22  11  33  1   
 23  12  17  1   
 24  12  34  1   
 25  12  35  1   
 26  13  18  1   
 27  13  36  1   
 28  13  37  1   
 29  14  38  1   
 30  14  39  1   
 31  15  19  ar  
 32  15  40  1   
 33  16  19  ar  
 34  16  41  1   
 35  17  20  1   
 36  17  21  1   
 37  17  42  1   
 38  18  20  1   
 39  18  43  1   
 40  18  44  1   
 41  19  45  1   
 42  20  46  1   
 43  20  47  1   
 44  21  22  1   
 45  21  48  1   
 46  21  49  1   
 47  22  23  1   
 48  22  24  2   
 49  23  25  2   
 50  23  26  1   
 51  24  27  1   
 52  24  50  1   
 53  25  27  1   
 54  26  51  1   
 55  26  52  1   
 56  26  53  1   
 57  27  28  1   
 58  28  54  1   
 59  28  55  1   
 60  28  56  1   
@<TRIPOS>SUBSTRUCTURE
  1 ****  12 GROUP 4 **** **** 0

# MOE 2024.06 (io_trps.svl 2023.06)
