@<TRIPOS>MOLECULE
NONAME
50 54 1 0 0 
SMALL
USER_CHARGES


@<TRIPOS>ATOM
  1 O       -4.2820     3.1150    -2.7380 O.2   1 <1>  -0.5700 
  2 C       -4.0050     2.5810    -1.6800 C.2   1 <1>   0.5440 
  3 N       -4.8300     1.5950    -1.1930 N.am  1 <1>  -0.6600 
  4 C       -2.8050     2.9700    -0.9710 C.ar  1 <1>   0.0860 
  5 C       -5.5650     0.6770    -2.0940 C.3   1 <1>   0.1400 
  6 C       -5.0470     1.3250     0.2530 C.3   1 <1>   0.1400 
  7 C       -1.8830     2.0200    -0.5630 C.ar  1 <1>  -0.1500 
  8 C       -2.5330     4.3270    -0.6920 C.ar  1 <1>  -0.1500 
  9 C       -5.0640    -0.7450    -1.8320 C.3   1 <1>  -0.1600 
 10 C       -4.5990    -0.0990     0.5880 C.3   1 <1>  -0.1600 
 11 C       -0.7350     2.4020     0.1230 C.ar  1 <1>   0.2270 
 12 C       -1.3990     4.7170    -0.0180 C.ar  1 <1>  -0.1500 
 13 C       -5.2200    -1.1520    -0.3500 C.3   1 <1>   0.4240 
 14 N        0.2870     1.6610     0.6200 N.2   1 <1>  -0.2270 
 15 C       -0.5010     3.7250     0.3900 C.ar  1 <1>  -0.1520 
 16 O       -6.5980    -1.0820    -0.0550 O.3   1 <1>  -0.5600 
 17 C       -4.6390    -2.5660    -0.0630 C.ar  1 <1>  -0.1430 
 18 N        1.1280     2.4520     1.1710 N.2   1 <1>  -0.4180 
 19 N        0.6770     3.7100     1.0450 N.pl3 1 <1>   0.3000 
 20 C       -7.3880    -2.1790    -0.3770 C.3   1 <1>   0.1200 
 21 C       -3.2740    -2.8550    -0.2100 C.ar  1 <1>   0.0820 
 22 C       -5.4850    -3.5910     0.3560 C.ar  1 <1>  -0.1430 
 23 C       -6.9720    -3.3410     0.5120 C.3   1 <1>  -0.0170 
 24 O       -2.4260    -1.8790    -0.6340 O.3   1 <1>  -0.3630 
 25 C       -2.7940    -4.1330     0.0710 C.ar  1 <1>  -0.1500 
 26 C       -4.9950    -4.8550     0.6380 C.ar  1 <1>  -0.1500 
 27 C       -1.0310    -1.9530    -0.4210 C.3   1 <1>   0.0400 
 28 C       -3.6500    -5.1270     0.4960 C.ar  1 <1>  -0.1500 
 29 H       -5.3910     0.9430    -3.1230 H     1 <1>   0.0800 
 30 H       -6.6200     0.7500    -1.8970 H     1 <1>   0.0800 
 31 H       -6.0960     1.4340     0.4710 H     1 <1>   0.0800 
 32 H       -4.5070     2.0350     0.8560 H     1 <1>   0.0800 
 33 H       -2.0390     0.9790    -0.7780 H     1 <1>   0.1500 
 34 H       -3.2470     5.0600    -1.0300 H     1 <1>   0.1500 
 35 H       -4.0310    -0.7820    -2.1190 H     1 <1>   0.0800 
 36 H       -5.5820    -1.4400    -2.4630 H     1 <1>   0.0800 
 37 H       -4.8710    -0.3350     1.6000 H     1 <1>   0.0800 
 38 H       -3.5320    -0.1250     0.5460 H     1 <1>   0.0800 
 39 H       -1.2020     5.7550     0.1900 H     1 <1>   0.1500 
 40 H        1.1870     4.5230     1.4050 H     1 <1>   0.2700 
 41 H       -7.2640    -2.4190    -1.4170 H     1 <1>   0.0800 
 42 H       -8.4140    -1.9130    -0.1940 H     1 <1>   0.0800 
 43 H       -7.5300    -4.2160     0.2320 H     1 <1>   0.0800 
 44 H       -7.1960    -3.1080     1.5370 H     1 <1>   0.0800 
 45 H       -1.7560    -4.3750    -0.0420 H     1 <1>   0.1500 
 46 H       -5.6590    -5.6350     0.9680 H     1 <1>   0.1500 
 47 H       -0.6000    -1.0020    -0.6790 H     1 <1>   0.0800 
 48 H       -0.6200    -2.7190    -1.0530 H     1 <1>   0.0800 
 49 H       -0.8460    -2.1650     0.6170 H     1 <1>   0.0800 
 50 H       -3.2730    -6.1110     0.7130 H     1 <1>   0.1500 
@<TRIPOS>BOND
  1   1   2  2   
  2   2   3  am  
  3   2   4  1   
  4   3   5  1   
  5   3   6  1   
  6   4   7  ar  
  7   4   8  ar  
  8   5   9  1   
  9   5  29  1   
 10   5  30  1   
 11   6  10  1   
 12   6  31  1   
 13   6  32  1   
 14   7  11  ar  
 15   7  33  1   
 16   8  12  ar  
 17   8  34  1   
 18   9  13  1   
 19   9  35  1   
 20   9  36  1   
 21  10  13  1   
 22  10  37  1   
 23  10  38  1   
 24  11  14  1   
 25  11  15  ar  
 26  12  15  ar  
 27  12  39  1   
 28  13  16  1   
 29  13  17  1   
 30  14  18  2   
 31  15  19  1   
 32  16  20  1   
 33  17  21  ar  
 34  17  22  ar  
 35  18  19  1   
 36  19  40  1   
 37  20  23  1   
 38  20  41  1   
 39  20  42  1   
 40  21  24  1   
 41  21  25  ar  
 42  22  23  1   
 43  22  26  ar  
 44  23  43  1   
 45  23  44  1   
 46  24  27  1   
 47  25  28  ar  
 48  25  45  1   
 49  26  28  ar  
 50  26  46  1   
 51  27  47  1   
 52  27  48  1   
 53  27  49  1   
 54  28  50  1   
@<TRIPOS>SUBSTRUCTURE
  1 ****  10 GROUP 4 **** **** 0

# MOE 2024.06 (io_trps.svl 2023.06)
