@<TRIPOS>MOLECULE
NONAME
27 29 1 0 0 
SMALL
USER_CHARGES


@<TRIPOS>ATOM
  1 CL      -0.4760    -0.0720    -0.3670 Cl    1 <1>  -0.1770 
  2 C       -1.9820    -0.9590    -0.2640 C.ar  1 <1>   0.1770 
  3 C       -1.9980    -2.3310    -0.2640 C.ar  1 <1>   0.1600 
  4 C       -3.1860    -0.3040    -0.1840 C.ar  1 <1>   0.1600 
  5 N       -3.1200    -3.0090    -0.1870 N.ar  1 <1>  -0.6200 
  6 N       -4.3220    -0.9560    -0.1060 N.ar  1 <1>  -0.6200 
  7 C       -4.2470    -2.2920    -0.0990 C.ar  1 <1>   0.7200 
  8 N       -5.4210    -2.9840    -0.0130 N.pl3 1 <1>  -0.8380 
  9 C       -6.6850    -2.3340     0.4460 C.3   1 <1>   0.3040 
 10 C       -5.4580    -4.4290     0.3640 C.3   1 <1>   0.3040 
 11 C       -7.6850    -3.4610     0.6270 C.3   1 <1>  -0.2420 
 12 C       -6.9230    -4.7620     0.5750 C.3   1 <1>  -0.2420 
 13 C       -8.8600    -2.9960     1.4880 C.2   1 <1>   0.9470 
 14 C       -7.9430    -4.4430    -0.4880 C.3   1 <1>  -0.2000 
 15 C       -7.0630    -6.0630     1.3680 C.2   1 <1>   0.9470 
 16 O      -10.0100    -3.0400     1.0290 O.co2 1 <1>  -0.9000 
 17 O       -8.6290    -2.4340     2.5680 O.co2 1 <1>  -0.9000 
 18 O       -6.4230    -6.1980     2.4200 O.co2 1 <1>  -0.9000 
 19 O       -7.6800    -7.0170     0.8720 O.co2 1 <1>  -0.9000 
 20 H       -1.0740    -2.8770    -0.3280 H     1 <1>   0.1500 
 21 H       -3.2110     0.7710    -0.1850 H     1 <1>   0.1500 
 22 H       -6.5120    -1.8350     1.3850 H     1 <1>   0.0800 
 23 H       -7.0390    -1.6250    -0.2810 H     1 <1>   0.0800 
 24 H       -5.0380    -5.0400    -0.4150 H     1 <1>   0.0800 
 25 H       -4.9060    -4.5760     1.2770 H     1 <1>   0.0800 
 26 H       -7.6140    -4.2110    -1.4830 H     1 <1>   0.1000 
 27 H       -8.8720    -4.9880    -0.4740 H     1 <1>   0.1000 
@<TRIPOS>BOND
  1   1   2  1   
  2   2   3  ar  
  3   2   4  ar  
  4   3   5  ar  
  5   3  20  1   
  6   4   6  ar  
  7   4  21  1   
  8   5   7  ar  
  9   6   7  ar  
 10   7   8  1   
 11   8   9  1   
 12   8  10  1   
 13   9  11  1   
 14   9  22  1   
 15   9  23  1   
 16  10  12  1   
 17  10  24  1   
 18  10  25  1   
 19  11  12  1   
 20  11  13  1   
 21  11  14  1   
 22  12  14  1   
 23  12  15  1   
 24  13  16  ar  
 25  13  17  ar  
 26  14  26  1   
 27  14  27  1   
 28  15  18  ar  
 29  15  19  ar  
@<TRIPOS>SUBSTRUCTURE
  1 ****   8 GROUP 4 **** **** 0

# MOE 2024.06 (io_trps.svl 2023.06)
