@<TRIPOS>MOLECULE
NONAME
47 49 1 0 0 
SMALL
USER_CHARGES


@<TRIPOS>ATOM
  1 S        1.0620    -2.4450     0.6470 S.3   1 <1>  -0.0800 
  2 C       -0.4330    -1.9030    -0.0950 C.2   1 <1>  -0.1100 
  3 C        0.1930    -3.5780     1.6660 C.2   1 <1>  -0.1100 
  4 C       -1.4910    -2.5590     0.4190 C.2   1 <1>  -0.1810 
  5 C       -1.1290    -3.5160     1.4250 C.2   1 <1>  -0.1500 
  6 C       -2.9380    -2.3550     0.0180 C.3   1 <1>   0.3210 
  7 N       -3.4370    -3.6120    -0.5560 N.am  1 <1>  -0.7300 
  8 C       -4.7250    -4.0330    -0.5390 C.2   1 <1>   0.5690 
  9 O       -5.5960    -3.3360    -0.0720 O.2   1 <1>  -0.5700 
 10 C       -5.0680    -5.4150    -1.1140 C.3   1 <1>   0.2610 
 11 O       -3.8750    -6.1380    -1.3810 O.3   1 <1>  -0.5600 
 12 C       -6.0440    -6.1640    -0.1600 C.3   1 <1>   0.3640 
 13 C       -4.0880    -7.4550    -1.8130 C.3   1 <1>   0.1810 
 14 N       -5.7810    -7.6340     0.0090 N.am  1 <1>  -0.6600 
 15 C       -7.4830    -5.9650    -0.6460 C.ar  1 <1>  -0.1430 
 16 C       -4.8540    -8.2710    -0.7760 C.2   1 <1>   0.5690 
 17 C       -6.5360    -8.2760     1.1210 C.3   1 <1>   0.2200 
 18 C       -8.2940    -5.0180    -0.0370 C.ar  1 <1>  -0.1500 
 19 C       -7.9980    -6.7120    -1.6980 C.ar  1 <1>  -0.1500 
 20 O       -4.6070    -9.4520    -0.7030 O.2   1 <1>  -0.5700 
 21 C       -5.5730    -8.7220     2.2210 C.3   1 <1>  -0.2400 
 22 C       -7.4020    -9.4320     0.6170 C.3   1 <1>  -0.2400 
 23 C       -9.5950    -4.8230    -0.4670 C.ar  1 <1>  -0.1500 
 24 C       -9.2980    -6.5180    -2.1300 C.ar  1 <1>  -0.1500 
 25 C      -10.0980    -5.5730    -1.5140 C.ar  1 <1>  -0.1500 
 26 H       -0.3560    -1.1400    -0.8490 H     1 <1>   0.1500 
 27 H        0.7730    -4.1790     2.3440 H     1 <1>   0.1500 
 28 H       -1.8790    -4.1100     1.9180 H     1 <1>   0.1500 
 29 H       -3.0150    -1.5730    -0.7190 H     1 <1>   0.0800 
 30 H       -3.5280    -2.0800     0.8760 H     1 <1>   0.0800 
 31 H       -2.7190    -4.2550    -0.9040 H     1 <1>   0.3700 
 32 H       -5.5560    -5.2540    -2.0590 H     1 <1>   0.0800 
 33 H       -5.9530    -5.7160     0.8150 H     1 <1>   0.0800 
 34 H       -4.6310    -7.4360    -2.7400 H     1 <1>   0.0800 
 35 H       -3.1260    -7.9050    -1.9790 H     1 <1>   0.0800 
 36 H       -7.2030    -7.5470     1.5510 H     1 <1>   0.0800 
 37 H       -7.9180    -4.4180     0.7740 H     1 <1>   0.1500 
 38 H       -7.3920    -7.4560    -2.1850 H     1 <1>   0.1500 
 39 H       -4.9270    -9.5060     1.8700 H     1 <1>   0.0800 
 40 H       -6.1290    -9.0960     3.0610 H     1 <1>   0.0800 
 41 H       -4.9760    -7.8910     2.5510 H     1 <1>   0.0800 
 42 H       -6.7980   -10.2410     0.2490 H     1 <1>   0.0800 
 43 H       -8.0570    -9.0920    -0.1640 H     1 <1>   0.0800 
 44 H       -8.0060    -9.8080     1.4210 H     1 <1>   0.0800 
 45 H      -10.2140    -4.0840     0.0110 H     1 <1>   0.1500 
 46 H       -9.6890    -7.1040    -2.9440 H     1 <1>   0.1500 
 47 H      -11.1100    -5.4210    -1.8490 H     1 <1>   0.1500 
@<TRIPOS>BOND
  1   1   2  1   
  2   1   3  1   
  3   2   4  2   
  4   2  26  1   
  5   3   5  2   
  6   3  27  1   
  7   4   5  1   
  8   4   6  1   
  9   5  28  1   
 10   6   7  1   
 11   6  29  1   
 12   6  30  1   
 13   7   8  am  
 14   7  31  1   
 15   8   9  2   
 16   8  10  1   
 17  10  11  1   
 18  10  12  1   
 19  10  32  1   
 20  11  13  1   
 21  12  14  1   
 22  12  15  1   
 23  12  33  1   
 24  13  16  1   
 25  13  34  1   
 26  13  35  1   
 27  14  16  am  
 28  14  17  1   
 29  15  18  ar  
 30  15  19  ar  
 31  16  20  2   
 32  17  21  1   
 33  17  22  1   
 34  17  36  1   
 35  18  23  ar  
 36  18  37  1   
 37  19  24  ar  
 38  19  38  1   
 39  21  39  1   
 40  21  40  1   
 41  21  41  1   
 42  22  42  1   
 43  22  43  1   
 44  22  44  1   
 45  23  25  ar  
 46  23  45  1   
 47  24  25  ar  
 48  24  46  1   
 49  25  47  1   
@<TRIPOS>SUBSTRUCTURE
  1 ****  10 GROUP 4 **** **** 0

# MOE 2024.06 (io_trps.svl 2023.06)
