@<TRIPOS>MOLECULE
NONAME
46 48 1 0 0 
SMALL
USER_CHARGES


@<TRIPOS>ATOM
  1 O       -2.4140     0.4890    -2.5140 O.2   1 <1>  -0.5700 
  2 C       -2.4260     0.4750    -1.3120 C.2   1 <1>   0.4230 
  3 C       -3.4730    -0.1750    -0.5740 C.ar  1 <1>   0.0860 
  4 C       -1.2450     1.1170    -0.6110 C.3   1 <1>  -0.1790 
  5 C       -4.0970     0.2970     0.5820 C.ar  1 <1>   0.1660 
  6 C       -3.9490    -1.3940    -1.0340 C.ar  1 <1>   0.1600 
  7 N       -5.0180    -0.3920     1.2100 N.ar  1 <1>  -0.6200 
  8 C       -3.7850     1.6550     1.1900 C.3   1 <1>  -0.0960 
  9 N       -4.8800    -2.0940    -0.4300 N.ar  1 <1>  -0.6200 
 10 C       -5.3530    -1.5530     0.6850 C.ar  1 <1>   0.7200 
 11 N       -6.3000    -2.2280     1.3620 N.pl3 1 <1>  -0.8690 
 12 C       -6.5220    -3.7030     1.2500 C.3   1 <1>   0.2090 
 13 C       -7.0590    -4.1880    -0.1300 C.3   1 <1>   0.6030 
 14 N       -8.2710    -3.4710    -0.6510 N.4   1 <1>  -0.9590 
 15 C       -7.4290    -5.6650    -0.0910 C.2   1 <1>  -0.0400 
 16 C       -7.9860    -2.1900    -1.3310 C.3   1 <1>   0.3430 
 17 C       -9.3410    -3.1930     0.3280 C.3   1 <1>   0.3430 
 18 O       -8.0220    -6.1730    -1.1590 O.3   1 <1>  -0.2800 
 19 C       -7.2790    -6.6210     0.8560 C.2   1 <1>  -0.1500 
 20 C       -9.3510    -1.5270    -1.4520 C.3   1 <1>  -0.1600 
 21 C      -10.2320    -2.1840    -0.3820 C.3   1 <1>  -0.1600 
 22 C       -8.2570    -7.4480    -0.9220 C.2   1 <1>  -0.0100 
 23 C       -7.8230    -7.7890     0.3080 C.2   1 <1>  -0.1500 
 24 H       -1.1310     0.7310     0.3850 H     1 <1>   0.0800 
 25 H       -1.3750     2.1830    -0.5760 H     1 <1>   0.0800 
 26 H       -0.3470     0.9040    -1.1620 H     1 <1>   0.0800 
 27 H       -3.5250    -1.7940    -1.9420 H     1 <1>   0.1500 
 28 H       -3.5900     2.3850     0.4260 H     1 <1>   0.0800 
 29 H       -2.9370     1.5810     1.8460 H     1 <1>   0.0800 
 30 H       -4.6250     2.0030     1.7660 H     1 <1>   0.0800 
 31 H       -6.4680    -1.8100     2.2820 H     1 <1>   0.4000 
 32 H       -7.2080    -4.0090     2.0200 H     1 <1>   0.0800 
 33 H       -5.5880    -4.2040     1.4400 H     1 <1>   0.0800 
 34 H       -6.2640    -4.0800    -0.8500 H     1 <1>   0.0800 
 35 H       -8.6590    -4.1190    -1.3490 H     1 <1>   0.4500 
 36 H       -7.5180    -2.3370    -2.2910 H     1 <1>   0.0800 
 37 H       -7.3520    -1.5750    -0.7150 H     1 <1>   0.0800 
 38 H       -8.9220    -2.7360     1.2100 H     1 <1>   0.0800 
 39 H       -9.8790    -4.0880     0.6000 H     1 <1>   0.0800 
 40 H       -6.8420    -6.5670     1.8390 H     1 <1>   0.1500 
 41 H       -9.7560    -1.7010    -2.4340 H     1 <1>   0.0800 
 42 H       -9.2630    -0.4650    -1.3000 H     1 <1>   0.0800 
 43 H      -10.6150    -1.4620     0.3190 H     1 <1>   0.0800 
 44 H      -11.0640    -2.6910    -0.8400 H     1 <1>   0.0800 
 45 H       -8.7350    -8.0440    -1.6820 H     1 <1>   0.1500 
 46 H       -7.8670    -8.7500     0.7930 H     1 <1>   0.1500 
@<TRIPOS>BOND
  1   1   2  2   
  2   2   3  1   
  3   2   4  1   
  4   3   5  ar  
  5   3   6  ar  
  6   4  24  1   
  7   4  25  1   
  8   4  26  1   
  9   5   7  ar  
 10   5   8  1   
 11   6   9  ar  
 12   6  27  1   
 13   7  10  ar  
 14   8  28  1   
 15   8  29  1   
 16   8  30  1   
 17   9  10  ar  
 18  10  11  1   
 19  11  12  1   
 20  11  31  1   
 21  12  13  1   
 22  12  32  1   
 23  12  33  1   
 24  13  14  1   
 25  13  15  1   
 26  13  34  1   
 27  14  16  1   
 28  14  17  1   
 29  14  35  1   
 30  15  18  1   
 31  15  19  2   
 32  16  20  1   
 33  16  36  1   
 34  16  37  1   
 35  17  21  1   
 36  17  38  1   
 37  17  39  1   
 38  18  22  1   
 39  19  23  1   
 40  19  40  1   
 41  20  21  1   
 42  20  41  1   
 43  20  42  1   
 44  21  43  1   
 45  21  44  1   
 46  22  23  2   
 47  22  45  1   
 48  23  46  1   
@<TRIPOS>SUBSTRUCTURE
  1 ****   9 GROUP 4 **** **** 0

# MOE 2024.06 (io_trps.svl 2023.06)
