@<TRIPOS>MOLECULE
NONAME
24 23 1 0 0 
SMALL
USER_CHARGES


@<TRIPOS>ATOM
  1 O       -1.9320    -4.5320     0.0480 O.3   1 <1>  -0.5760 
  2 C       -0.7450    -5.2670     0.0640 C.3   1 <1>   0.2820 
  3 C       -3.0730    -5.3320     0.0640 C.3   1 <1>   0.2730 
  4 C        0.4490    -4.3040     0.0550 C.3   1 <1>   0.2820 
  5 C       -4.3210    -4.4360     0.0810 C.3   1 <1>   0.2380 
  6 O        1.6360    -5.0380     0.0490 O.3   1 <1>  -0.5760 
  7 O       -5.4690    -5.2110    -0.0240 O.3   1 <1>  -0.7190 
  8 C        2.7770    -4.2380     0.0510 C.3   1 <1>   0.2730 
  9 C        4.0250    -5.1340     0.0810 C.3   1 <1>   0.2380 
 10 O        5.1730    -4.3610    -0.0380 O.3   1 <1>  -0.7190 
 11 H       -0.7280    -5.8930    -0.8110 H     1 <1>   0.0000 
 12 H       -0.7350    -5.8670     0.9570 H     1 <1>   0.0000 
 13 H       -3.0450    -5.9470     0.9470 H     1 <1>   0.0220 
 14 H       -3.0630    -5.9450    -0.8210 H     1 <1>   0.0220 
 15 H        0.4400    -3.6880     0.9380 H     1 <1>   0.0000 
 16 H        0.4310    -3.6920    -0.8300 H     1 <1>   0.0000 
 17 H       -4.3160    -3.7530    -0.7490 H     1 <1>   0.0090 
 18 H       -4.3800    -3.8940     1.0070 H     1 <1>   0.0090 
 19 H       -5.5820    -5.5220    -0.9420 H     1 <1>   0.4380 
 20 H        2.7510    -3.6090     0.9240 H     1 <1>   0.0220 
 21 H        2.7660    -3.6410    -0.8440 H     1 <1>   0.0220 
 22 H        4.0190    -5.8310    -0.7380 H     1 <1>   0.0090 
 23 H        4.0850    -5.6610     1.0160 H     1 <1>   0.0090 
 24 H        5.2850    -4.0650    -0.9610 H     1 <1>   0.4380 
@<TRIPOS>BOND
  1   1   2  1   
  2   1   3  1   
  3   2   4  1   
  4   2  11  1   
  5   2  12  1   
  6   3   5  1   
  7   3  13  1   
  8   3  14  1   
  9   4   6  1   
 10   4  15  1   
 11   4  16  1   
 12   5   7  1   
 13   5  17  1   
 14   5  18  1   
 15   6   8  1   
 16   7  19  1   
 17   8   9  1   
 18   8  20  1   
 19   8  21  1   
 20   9  10  1   
 21   9  22  1   
 22   9  23  1   
 23  10  24  1   
@<TRIPOS>SUBSTRUCTURE
  1 ****   4 GROUP 4 **** **** 0

# MOE 2024.06 (io_trps.svl 2023.06)
