@<TRIPOS>MOLECULE
NONAME
62 65 1 0 0 
SMALL
USER_CHARGES


@<TRIPOS>ATOM
  1 O       -0.7610    -0.2060    -0.6200 O.3   1 <1>  -0.3630 
  2 C       -0.3320     1.0220    -0.2380 C.ar  1 <1>   0.0820 
  3 C       -1.8590    -0.8260     0.0040 C.3   1 <1>   0.1200 
  4 C       -0.9340     1.7790     0.7640 C.ar  1 <1>  -0.1500 
  5 C        0.7730     1.5310    -0.9000 C.ar  1 <1>  -0.1500 
  6 C       -2.0620    -2.2100    -0.6300 C.3   1 <1>  -0.0800 
  7 C       -0.4270     3.0250     1.0890 C.ar  1 <1>  -0.1500 
  8 C        1.2770     2.7760    -0.5720 C.ar  1 <1>  -0.1500 
  9 C       -3.3370    -2.8640    -0.0630 C.3   1 <1>   0.3430 
 10 C       -0.8230    -3.1120    -0.4490 C.3   1 <1>  -0.1600 
 11 C        0.6780     3.5310     0.4240 C.ar  1 <1>  -0.1440 
 12 N       -3.2310    -4.3570     0.0060 N.4   1 <1>  -0.9590 
 13 C       -1.0380    -4.4910    -1.1030 C.3   1 <1>  -0.1600 
 14 C        1.2320     4.8970     0.7860 C.3   1 <1>  -0.0970 
 15 C       -2.5040    -4.9360    -1.1570 C.3   1 <1>   0.3430 
 16 C       -4.5570    -5.0390     0.2400 C.3   1 <1>   0.4860 
 17 C       -4.3800    -6.4980     0.6780 C.ar  1 <1>   0.4770 
 18 N       -5.0880    -7.4010     0.0570 N.ar  1 <1>  -0.6200 
 19 N       -3.5020    -6.7180     1.6180 N.ar  1 <1>  -0.6200 
 20 C       -4.8590    -8.6350     0.4580 C.ar  1 <1>   0.7200 
 21 C       -3.3700    -7.9860     1.9190 C.ar  1 <1>   0.7200 
 22 N       -4.0070    -8.9800     1.3870 N.ar  1 <1>  -0.6200 
 23 N       -5.6080    -9.5820    -0.1730 N.pl3 1 <1>  -0.6000 
 24 N       -2.4890    -8.2840     2.8710 N.pl3 1 <1>  -0.9000 
 25 C       -5.6110   -10.9810    -0.1060 C.ar  1 <1>   0.1000 
 26 C       -6.8140   -11.6580    -0.2660 C.ar  1 <1>  -0.1500 
 27 C       -4.4530   -11.7270     0.0890 C.ar  1 <1>  -0.1500 
 28 C       -6.8720   -13.0410    -0.2260 C.ar  1 <1>  -0.1440 
 29 C       -4.5000   -13.1080     0.1290 C.ar  1 <1>  -0.1500 
 30 C       -5.7080   -13.7650    -0.0280 C.ar  1 <1>  -0.1500 
 31 C       -8.1930   -13.7700    -0.4000 C.3   1 <1>  -0.0960 
 32 H       -2.7210    -0.2000    -0.1500 H     1 <1>   0.0800 
 33 H       -1.6430    -0.9090     1.0550 H     1 <1>   0.0800 
 34 H       -1.7910     1.4240     1.3010 H     1 <1>   0.1500 
 35 H        1.2380     0.9470    -1.6740 H     1 <1>   0.1500 
 36 H       -2.2200    -2.0540    -1.6840 H     1 <1>   0.0800 
 37 H       -0.8970     3.6030     1.8660 H     1 <1>   0.1500 
 38 H        2.1370     3.1550    -1.0950 H     1 <1>   0.1500 
 39 H       -4.1720    -2.5810    -0.6830 H     1 <1>   0.0800 
 40 H       -3.5180    -2.4830     0.9290 H     1 <1>   0.0800 
 41 H       -0.6270    -3.2390     0.6030 H     1 <1>   0.0800 
 42 H        0.0490    -2.6480    -0.8810 H     1 <1>   0.0800 
 43 H       -2.6550    -4.6040     0.8280 H     1 <1>   0.4500 
 44 H       -0.4590    -5.2280    -0.5740 H     1 <1>   0.0800 
 45 H       -0.6630    -4.4690    -2.1120 H     1 <1>   0.0800 
 46 H        0.4450     5.5410     1.1360 H     1 <1>   0.0800 
 47 H        1.6890     5.3570    -0.0720 H     1 <1>   0.0800 
 48 H        1.9700     4.7960     1.5610 H     1 <1>   0.0800 
 49 H       -2.9530    -4.5870    -2.0730 H     1 <1>   0.0800 
 50 H       -2.5510    -6.0150    -1.1440 H     1 <1>   0.0800 
 51 H       -5.1500    -5.0130    -0.6580 H     1 <1>   0.0800 
 52 H       -5.0970    -4.5270     1.0170 H     1 <1>   0.0800 
 53 H       -6.3450    -9.1730    -0.7380 H     1 <1>   0.4000 
 54 H       -2.5100    -9.2390     3.2290 H     1 <1>   0.4000 
 55 H       -2.2000    -7.5650     3.5280 H     1 <1>   0.4000 
 56 H       -7.7150   -11.0940    -0.4190 H     1 <1>   0.1500 
 57 H       -3.5080   -11.2300     0.2030 H     1 <1>   0.1500 
 58 H       -3.5970   -13.6730     0.2820 H     1 <1>   0.1500 
 59 H       -5.7370   -14.8400     0.0040 H     1 <1>   0.1500 
 60 H       -9.0210   -13.0950    -0.2750 H     1 <1>   0.0800 
 61 H       -8.2810   -14.5540     0.3310 H     1 <1>   0.0800 
 62 H       -8.2440   -14.2020    -1.3830 H     1 <1>   0.0800 
@<TRIPOS>BOND
  1   1   2  1   
  2   1   3  1   
  3   2   4  ar  
  4   2   5  ar  
  5   3   6  1   
  6   3  32  1   
  7   3  33  1   
  8   4   7  ar  
  9   4  34  1   
 10   5   8  ar  
 11   5  35  1   
 12   6   9  1   
 13   6  10  1   
 14   6  36  1   
 15   7  11  ar  
 16   7  37  1   
 17   8  11  ar  
 18   8  38  1   
 19   9  12  1   
 20   9  39  1   
 21   9  40  1   
 22  10  13  1   
 23  10  41  1   
 24  10  42  1   
 25  11  14  1   
 26  12  15  1   
 27  12  16  1   
 28  12  43  1   
 29  13  15  1   
 30  13  44  1   
 31  13  45  1   
 32  14  46  1   
 33  14  47  1   
 34  14  48  1   
 35  15  49  1   
 36  15  50  1   
 37  16  17  1   
 38  16  51  1   
 39  16  52  1   
 40  17  18  ar  
 41  17  19  ar  
 42  18  20  ar  
 43  19  21  ar  
 44  20  22  ar  
 45  20  23  1   
 46  21  22  ar  
 47  21  24  1   
 48  23  25  1   
 49  23  53  1   
 50  24  54  1   
 51  24  55  1   
 52  25  26  ar  
 53  25  27  ar  
 54  26  28  ar  
 55  26  56  1   
 56  27  29  ar  
 57  27  57  1   
 58  28  30  ar  
 59  28  31  1   
 60  29  30  ar  
 61  29  58  1   
 62  30  59  1   
 63  31  60  1   
 64  31  61  1   
 65  31  62  1   
@<TRIPOS>SUBSTRUCTURE
  1 ****  12 GROUP 4 **** **** 0

# MOE 2024.06 (io_trps.svl 2023.06)
