@<TRIPOS>MOLECULE
NONAME
56 59 1 0 0 
SMALL
USER_CHARGES


@<TRIPOS>ATOM
  1 O        0.8200    -1.6830    -1.6830 O.3   1 <1>  -0.6800 
  2 C        0.3140    -1.9670    -0.4220 C.3   1 <1>   0.1200 
  3 C        1.3960    -1.8030     0.6850 C.3   1 <1>   0.0000 
  4 C        2.7460    -2.5050     0.3550 C.3   1 <1>   0.4230 
  5 C        1.6610    -0.2910     0.9240 C.3   1 <1>  -0.1600 
  6 C        0.8360    -2.4110     2.0030 C.3   1 <1>  -0.1600 
  7 N        2.6070    -4.0130     0.1370 N.4   1 <1>  -0.9590 
  8 C        3.5690    -1.7370    -0.7310 C.3   1 <1>   0.3430 
  9 C        2.3990     0.4040    -0.2240 C.3   1 <1>   0.3430 
 10 C        1.3040    -3.8570     2.2700 C.3   1 <1>  -0.1600 
 11 C        1.5420    -4.6530     0.9860 C.3   1 <1>   0.3430 
 12 C        2.3990    -4.4360    -1.2910 C.3   1 <1>   0.2630 
 13 N        3.7200    -0.2600    -0.4550 N.4   1 <1>  -0.9590 
 14 C        4.4550     0.4340    -1.5570 C.3   1 <1>   0.4860 
 15 C        4.8060     1.8310    -1.0840 C.ar  1 <1>  -0.1440 
 16 C        5.8330     2.0310    -0.1290 C.ar  1 <1>   0.0000 
 17 C        4.0990     2.8960    -1.5780 C.ar  1 <1>  -0.1500 
 18 C        6.0640     3.3410     0.3640 C.ar  1 <1>   0.3100 
 19 C        6.6610     0.9970     0.3650 C.ar  1 <1>  -0.1500 
 20 C        4.3550     4.1890    -1.1200 C.ar  1 <1>  -0.1500 
 21 N        6.9890     3.5970     1.3280 N.ar  1 <1>  -0.6200 
 22 C        5.3090     4.4120    -0.1640 C.ar  1 <1>  -0.1440 
 23 C        7.5910     1.2980     1.3120 C.ar  1 <1>  -0.1500 
 24 C        7.7110     2.6150     1.7660 C.ar  1 <1>   0.1600 
 25 C        5.5590     5.8340     0.3280 C.3   1 <1>  -0.0960 
 26 H        0.0860    -1.6390    -2.3400 H     1 <1>   0.4000 
 27 H       -0.5140    -1.3000    -0.2390 H     1 <1>   0.0800 
 28 H       -0.0750    -2.9700    -0.4480 H     1 <1>   0.0800 
 29 H        3.3280    -2.4000     1.2560 H     1 <1>   0.0800 
 30 H        2.2390    -0.1450     1.8200 H     1 <1>   0.0800 
 31 H        0.7240     0.2170     1.0790 H     1 <1>   0.0800 
 32 H        1.1300    -1.8220     2.8570 H     1 <1>   0.0800 
 33 H       -0.2420    -2.3860     1.9870 H     1 <1>   0.0800 
 34 H        3.4900    -4.4450     0.4500 H     1 <1>   0.4500 
 35 H        3.0800    -1.8580    -1.6820 H     1 <1>   0.0800 
 36 H        4.5470    -2.1830    -0.8010 H     1 <1>   0.0800 
 37 H        2.5470     1.4430     0.0290 H     1 <1>   0.0800 
 38 H        1.8010     0.3630    -1.1210 H     1 <1>   0.0800 
 39 H        0.5600    -4.3620     2.8640 H     1 <1>   0.0800 
 40 H        2.2110    -3.8530     2.8520 H     1 <1>   0.0800 
 41 H        0.6150    -4.6990     0.4380 H     1 <1>   0.0800 
 42 H        1.8260    -5.6650     1.2320 H     1 <1>   0.0800 
 43 H        1.4840    -4.0190    -1.6810 H     1 <1>   0.0800 
 44 H        2.3340    -5.5110    -1.3560 H     1 <1>   0.0800 
 45 H        3.2170    -4.1120    -1.9120 H     1 <1>   0.0800 
 46 H        4.2850    -0.0900     0.3910 H     1 <1>   0.4500 
 47 H        5.3610    -0.0950    -1.8050 H     1 <1>   0.0800 
 48 H        3.8400     0.4880    -2.4410 H     1 <1>   0.0800 
 49 H        3.3300     2.7770    -2.3240 H     1 <1>   0.1500 
 50 H        6.5860    -0.0080     0.0010 H     1 <1>   0.1500 
 51 H        3.7850     5.0060    -1.5310 H     1 <1>   0.1500 
 52 H        8.2500     0.5530     1.7220 H     1 <1>   0.1500 
 53 H        8.4500     2.8270     2.5220 H     1 <1>   0.1500 
 54 H        4.9180     6.5410    -0.1660 H     1 <1>   0.0800 
 55 H        6.5810     6.1110     0.1390 H     1 <1>   0.0800 
 56 H        5.3810     5.8920     1.3870 H     1 <1>   0.0800 
@<TRIPOS>BOND
  1   1   2  1   
  2   1  26  1   
  3   2   3  1   
  4   2  27  1   
  5   2  28  1   
  6   3   4  1   
  7   3   5  1   
  8   3   6  1   
  9   4   7  1   
 10   4   8  1   
 11   4  29  1   
 12   5   9  1   
 13   5  30  1   
 14   5  31  1   
 15   6  10  1   
 16   6  32  1   
 17   6  33  1   
 18   7  11  1   
 19   7  12  1   
 20   7  34  1   
 21   8  13  1   
 22   8  35  1   
 23   8  36  1   
 24   9  13  1   
 25   9  37  1   
 26   9  38  1   
 27  10  11  1   
 28  10  39  1   
 29  10  40  1   
 30  11  41  1   
 31  11  42  1   
 32  12  43  1   
 33  12  44  1   
 34  12  45  1   
 35  13  14  1   
 36  13  46  1   
 37  14  15  1   
 38  14  47  1   
 39  14  48  1   
 40  15  16  ar  
 41  15  17  ar  
 42  16  18  ar  
 43  16  19  ar  
 44  17  20  ar  
 45  17  49  1   
 46  18  21  ar  
 47  18  22  ar  
 48  19  23  ar  
 49  19  50  1   
 50  20  22  ar  
 51  20  51  1   
 52  21  24  ar  
 53  22  25  1   
 54  23  24  ar  
 55  23  52  1   
 56  24  53  1   
 57  25  54  1   
 58  25  55  1   
 59  25  56  1   
@<TRIPOS>SUBSTRUCTURE
  1 ****  13 GROUP 4 **** **** 0

# MOE 2024.06 (io_trps.svl 2023.06)
