@<TRIPOS>MOLECULE
NONAME
49 50 1 0 0 
SMALL
USER_CHARGES


@<TRIPOS>ATOM
  1 O       -0.2990     1.4320     1.1450 O.2   1 <1>  -0.5700 
  2 C       -0.2580     2.4920     0.5650 C.2   1 <1>   0.5690 
  3 N       -1.3780     3.2700     0.4090 N.am  1 <1>  -0.6600 
  4 C        1.0800     2.9550    -0.0050 C.3   1 <1>  -0.0990 
  5 C       -2.7060     2.8270     0.9340 C.3   1 <1>   0.1400 
  6 C       -1.4580     4.5500    -0.3460 C.3   1 <1>   0.1400 
  7 C        2.2600     2.0050     0.2820 C.3   1 <1>  -0.1600 
  8 C       -3.6860     2.5730    -0.2260 C.3   1 <1>   0.0000 
  9 C       -2.4030     4.3800    -1.5410 C.3   1 <1>  -0.1600 
 10 C        3.5610     2.5270    -0.3270 C.3   1 <1>   0.1400 
 11 C       -5.0520     2.1180     0.3200 C.3   1 <1>   0.2000 
 12 C       -3.7830     3.8500    -1.1090 C.3   1 <1>  -0.1600 
 13 C       -3.2810     1.3520    -1.0710 C.3   1 <1>  -0.1600 
 14 N        4.6530     1.5820    -0.0160 N.am  1 <1>  -0.7300 
 15 O       -5.8270     3.1970     0.7520 O.3   1 <1>  -0.5600 
 16 C       -5.7230     1.3660    -0.8310 C.3   1 <1>  -0.1600 
 17 C       -4.5780     0.8300    -1.7010 C.3   1 <1>  -0.1600 
 18 C        5.8770     1.8250     0.5050 C.2   1 <1>   0.5690 
 19 C       -6.9360     2.8550     1.5210 C.3   1 <1>   0.0400 
 20 O        6.6480     0.9190     0.6810 O.2   1 <1>  -0.5700 
 21 C        6.2990     3.2270     0.8700 C.3   1 <1>  -0.1790 
 22 H        0.9660     3.0580    -1.0690 H     1 <1>   0.0800 
 23 H        1.3020     3.9190     0.4120 H     1 <1>   0.0800 
 24 H       -2.6010     1.9360     1.5280 H     1 <1>   0.0800 
 25 H       -3.1030     3.5980     1.5730 H     1 <1>   0.0800 
 26 H       -1.8410     5.3140     0.3090 H     1 <1>   0.0800 
 27 H       -0.4920     4.8660    -0.6930 H     1 <1>   0.0800 
 28 H        2.0370     1.0350    -0.1270 H     1 <1>   0.0800 
 29 H        2.3790     1.9050     1.3470 H     1 <1>   0.0800 
 30 H       -2.5270     5.3310    -2.0290 H     1 <1>   0.0800 
 31 H       -1.9530     3.7130    -2.2530 H     1 <1>   0.0800 
 32 H        3.7850     3.5020     0.0690 H     1 <1>   0.0800 
 33 H        3.4620     2.6060    -1.3970 H     1 <1>   0.0800 
 34 H       -4.8940     1.4470     1.1490 H     1 <1>   0.0800 
 35 H       -4.3880     3.6640    -1.9780 H     1 <1>   0.0800 
 36 H       -4.2690     4.6290    -0.5460 H     1 <1>   0.0800 
 37 H       -2.5370     1.5750    -1.8130 H     1 <1>   0.0800 
 38 H       -2.8810     0.5900    -0.4230 H     1 <1>   0.0800 
 39 H        4.4600     0.5980    -0.2150 H     1 <1>   0.3700 
 40 H       -6.3330     0.5620    -0.4590 H     1 <1>   0.0800 
 41 H       -6.3270     2.0430    -1.4100 H     1 <1>   0.0800 
 42 H       -4.5780    -0.2460    -1.7340 H     1 <1>   0.0800 
 43 H       -4.6780     1.2080    -2.7040 H     1 <1>   0.0800 
 44 H       -7.4320     3.7630     1.8120 H     1 <1>   0.0800 
 45 H       -6.6110     2.3230     2.3980 H     1 <1>   0.0800 
 46 H       -7.6060     2.2500     0.9360 H     1 <1>   0.0800 
 47 H        5.6570     3.6090     1.6410 H     1 <1>   0.0800 
 48 H        6.2480     3.8600     0.0050 H     1 <1>   0.0800 
 49 H        7.3100     3.2160     1.2340 H     1 <1>   0.0800 
@<TRIPOS>BOND
  1   1   2  2   
  2   2   3  am  
  3   2   4  1   
  4   3   5  1   
  5   3   6  1   
  6   4   7  1   
  7   4  22  1   
  8   4  23  1   
  9   5   8  1   
 10   5  24  1   
 11   5  25  1   
 12   6   9  1   
 13   6  26  1   
 14   6  27  1   
 15   7  10  1   
 16   7  28  1   
 17   7  29  1   
 18   8  11  1   
 19   8  12  1   
 20   8  13  1   
 21   9  12  1   
 22   9  30  1   
 23   9  31  1   
 24  10  14  1   
 25  10  32  1   
 26  10  33  1   
 27  11  15  1   
 28  11  16  1   
 29  11  34  1   
 30  12  35  1   
 31  12  36  1   
 32  13  17  1   
 33  13  37  1   
 34  13  38  1   
 35  14  18  am  
 36  14  39  1   
 37  15  19  1   
 38  16  17  1   
 39  16  40  1   
 40  16  41  1   
 41  17  42  1   
 42  17  43  1   
 43  18  20  2   
 44  18  21  1   
 45  19  44  1   
 46  19  45  1   
 47  19  46  1   
 48  21  47  1   
 49  21  48  1   
 50  21  49  1   
@<TRIPOS>SUBSTRUCTURE
  1 ****   2 GROUP 4 **** **** 0

# MOE 2024.06 (io_trps.svl 2023.06)
