@<TRIPOS>MOLECULE
NONAME
43 45 1 0 0 
SMALL
USER_CHARGES


@<TRIPOS>ATOM
  1 S       -0.0980     0.6610    -0.5180 S.3   1 <1>  -0.0800 
  2 C       -1.5000    -0.2810    -0.1020 C.2   1 <1>   0.4620 
  3 C        0.8580    -0.7530    -0.2230 C.2   1 <1>   0.1980 
  4 N       -1.1860    -1.4920     0.2040 N.2   1 <1>  -0.3380 
  5 N       -2.7550     0.2990    -0.1220 N.pl3 1 <1>  -0.8220 
  6 N        0.1540    -1.7520     0.1320 N.2   1 <1>  -0.3380 
  7 C        2.3670    -0.6340    -0.4170 C.3   1 <1>   0.1000 
  8 C       -3.9230    -0.4680     0.4010 C.3   1 <1>   0.2090 
  9 C       -2.9970     1.6960    -0.5870 C.3   1 <1>   0.2090 
 10 C        3.0260    -2.0080    -0.6100 C.3   1 <1>  -0.2400 
 11 C        3.0090     0.0890     0.7750 C.3   1 <1>  -0.2400 
 12 C       -4.9280     0.4840     1.0450 C.3   1 <1>  -0.1600 
 13 C       -4.4360     1.8310    -1.0720 C.3   1 <1>  -0.1600 
 14 C       -5.4330     1.5600     0.0670 C.3   1 <1>   0.4180 
 15 O       -5.5640     2.7290     0.8390 O.3   1 <1>  -0.5600 
 16 C       -6.7870     1.1390    -0.5040 C.2   1 <1>  -0.2880 
 17 C       -6.4470     3.7200     0.3910 C.3   1 <1>   0.1200 
 18 C       -7.9110     1.8500    -0.3810 C.2   1 <1>  -0.2760 
 19 C       -7.8840     3.1860     0.3350 C.3   1 <1>  -0.0220 
 20 C       -9.2670     1.4160    -0.9080 C.3   1 <1>  -0.1020 
 21 H        2.5420    -0.0540    -1.3070 H     1 <1>   0.0800 
 22 H       -3.5930    -1.1860     1.1330 H     1 <1>   0.0800 
 23 H       -4.3850    -1.0040    -0.4110 H     1 <1>   0.0800 
 24 H       -2.3300     1.9370    -1.3970 H     1 <1>   0.0800 
 25 H       -2.8170     2.3800     0.2260 H     1 <1>   0.0800 
 26 H        2.8850    -2.6180     0.2650 H     1 <1>   0.0800 
 27 H        4.0800    -1.8990    -0.7910 H     1 <1>   0.0800 
 28 H        2.5830    -2.5130    -1.4500 H     1 <1>   0.0800 
 29 H        2.8340    -0.4640     1.6810 H     1 <1>   0.0800 
 30 H        2.5860     1.0710     0.8870 H     1 <1>   0.0800 
 31 H        4.0690     0.1890     0.6270 H     1 <1>   0.0800 
 32 H       -4.4390     0.9510     1.8820 H     1 <1>   0.0800 
 33 H       -5.7580    -0.0790     1.4290 H     1 <1>   0.0800 
 34 H       -4.5850     1.1180    -1.8620 H     1 <1>   0.0800 
 35 H       -4.5940     2.8040    -1.4930 H     1 <1>   0.0800 
 36 H       -6.7460     0.1920    -1.0110 H     1 <1>   0.1500 
 37 H       -6.1340     4.0490    -0.5830 H     1 <1>   0.0800 
 38 H       -6.3840     4.5490     1.0730 H     1 <1>   0.0800 
 39 H       -8.4940     3.9020    -0.1860 H     1 <1>   0.0800 
 40 H       -8.2710     3.0750     1.3320 H     1 <1>   0.0800 
 41 H       -9.6330     2.1280    -1.6270 H     1 <1>   0.0800 
 42 H       -9.9720     1.3450    -0.0990 H     1 <1>   0.0800 
 43 H       -9.1970     0.4550    -1.3850 H     1 <1>   0.0800 
@<TRIPOS>BOND
  1   1   2  1   
  2   1   3  1   
  3   2   4  2   
  4   2   5  1   
  5   3   6  2   
  6   3   7  1   
  7   4   6  1   
  8   5   8  1   
  9   5   9  1   
 10   7  10  1   
 11   7  11  1   
 12   7  21  1   
 13   8  12  1   
 14   8  22  1   
 15   8  23  1   
 16   9  13  1   
 17   9  24  1   
 18   9  25  1   
 19  10  26  1   
 20  10  27  1   
 21  10  28  1   
 22  11  29  1   
 23  11  30  1   
 24  11  31  1   
 25  12  14  1   
 26  12  32  1   
 27  12  33  1   
 28  13  14  1   
 29  13  34  1   
 30  13  35  1   
 31  14  15  1   
 32  14  16  1   
 33  15  17  1   
 34  16  18  2   
 35  16  36  1   
 36  17  19  1   
 37  17  37  1   
 38  17  38  1   
 39  18  19  1   
 40  18  20  1   
 41  19  39  1   
 42  19  40  1   
 43  20  41  1   
 44  20  42  1   
 45  20  43  1   
@<TRIPOS>SUBSTRUCTURE
  1 ****   5 GROUP 4 **** **** 0

# MOE 2024.06 (io_trps.svl 2023.06)
