@<TRIPOS>MOLECULE
NONAME
61 65 1 0 0 
SMALL
USER_CHARGES


@<TRIPOS>ATOM
  1 O        0.9290    -1.7560    -2.0480 O.3   1 <1>  -0.6800 
  2 C        0.4650    -2.0430    -0.7720 C.3   1 <1>   0.1200 
  3 C        1.5560    -1.7870     0.3090 C.3   1 <1>   0.0000 
  4 C        2.9400    -2.4140    -0.0320 C.3   1 <1>   0.4230 
  5 C        1.7330    -0.2570     0.5070 C.3   1 <1>  -0.1600 
  6 C        1.0600    -2.3950     1.6520 C.3   1 <1>  -0.1600 
  7 N        2.8890    -3.9330    -0.2110 N.4   1 <1>  -0.9590 
  8 C        3.6920    -1.6280    -1.1550 C.3   1 <1>   0.3430 
  9 C        2.4020     0.4530    -0.6730 C.3   1 <1>   0.3430 
 10 C        1.6180    -3.8040     1.9430 C.3   1 <1>  -0.1600 
 11 C        1.8810    -4.6150     0.6730 C.3   1 <1>   0.3430 
 12 C        2.6840    -4.4010    -1.6250 C.3   1 <1>   0.2630 
 13 N        3.7530    -0.1380    -0.9240 N.4   1 <1>  -0.9590 
 14 C        4.4130     0.5630    -2.0670 C.3   1 <1>   0.4860 
 15 C        4.6620     1.9990    -1.6600 C.ar  1 <1>  -0.1430 
 16 C        5.7070     2.3190    -0.8140 C.ar  1 <1>  -0.1500 
 17 C        3.8150     3.0060    -2.1400 C.ar  1 <1>  -0.1500 
 18 C        5.8920     3.6470    -0.4260 C.ar  1 <1>  -0.1520 
 19 C        3.9980     4.3160    -1.7580 C.ar  1 <1>  -0.1500 
 20 N        6.8370     4.2320     0.3970 N.pl3 1 <1>   0.0480 
 21 C        5.0390     4.6400    -0.8910 C.ar  1 <1>   0.0000 
 22 C        6.5850     5.5890     0.4560 C.ar  1 <1>  -0.1520 
 23 C        7.9940     3.5680     1.0260 C.3   1 <1>   0.0160 
 24 C        5.4750     5.8710    -0.3290 C.ar  1 <1>   0.0000 
 25 C        7.2480     6.6100     1.1390 C.ar  1 <1>  -0.1500 
 26 C        5.0120     7.1820    -0.4360 C.ar  1 <1>  -0.1500 
 27 C        6.7830     7.9030     1.0280 C.ar  1 <1>  -0.1500 
 28 C        5.6650     8.1890     0.2420 C.ar  1 <1>  -0.1500 
 29 H        0.1800    -1.7660    -2.6900 H     1 <1>   0.4000 
 30 H       -0.3990    -1.4240    -0.5850 H     1 <1>   0.0800 
 31 H        0.1390    -3.0680    -0.7680 H     1 <1>   0.0800 
 32 H        3.5320    -2.2510     0.8530 H     1 <1>   0.0800 
 33 H        2.3210    -0.0540     1.3860 H     1 <1>   0.0800 
 34 H        0.7710     0.1980     0.6720 H     1 <1>   0.0800 
 35 H        1.3340    -1.7690     2.4860 H     1 <1>   0.0800 
 36 H       -0.0180    -2.4340     1.6590 H     1 <1>   0.0800 
 37 H        3.8030    -4.3010     0.0960 H     1 <1>   0.4500 
 38 H        3.1930    -1.8070    -2.0920 H     1 <1>   0.0800 
 39 H        4.6950    -2.0120    -1.2330 H     1 <1>   0.0800 
 40 H        2.4960     1.5050    -0.4460 H     1 <1>   0.0800 
 41 H        1.7870     0.3590    -1.5540 H     1 <1>   0.0800 
 42 H        0.9170    -4.3380     2.5620 H     1 <1>   0.0800 
 43 H        2.5330    -3.7320     2.5070 H     1 <1>   0.0800 
 44 H        0.9490    -4.7290     0.1440 H     1 <1>   0.0800 
 45 H        2.2300    -5.6010     0.9360 H     1 <1>   0.0800 
 46 H        1.7410    -4.0470    -2.0090 H     1 <1>   0.0800 
 47 H        2.6810    -5.4790    -1.6640 H     1 <1>   0.0800 
 48 H        3.4730    -4.0460    -2.2660 H     1 <1>   0.0800 
 49 H        4.3320     0.0940    -0.1050 H     1 <1>   0.4500 
 50 H        5.3570     0.0960    -2.3010 H     1 <1>   0.0800 
 51 H        3.7880     0.5300    -2.9450 H     1 <1>   0.0800 
 52 H        6.3890     1.5720    -0.4470 H     1 <1>   0.1500 
 53 H        3.0110     2.7720    -2.8170 H     1 <1>   0.1500 
 54 H        3.3570     5.1010    -2.1190 H     1 <1>   0.1500 
 55 H        8.1630     3.9920     1.9980 H     1 <1>   0.0800 
 56 H        8.8630     3.7210     0.4120 H     1 <1>   0.0800 
 57 H        7.8030     2.5170     1.1280 H     1 <1>   0.0800 
 58 H        8.1090     6.3920     1.7440 H     1 <1>   0.1500 
 59 H        4.1520     7.3920    -1.0450 H     1 <1>   0.1500 
 60 H        7.2800     8.7030     1.5470 H     1 <1>   0.1500 
 61 H        5.3190     9.2050     0.1680 H     1 <1>   0.1500 
@<TRIPOS>BOND
  1   1   2  1   
  2   1  29  1   
  3   2   3  1   
  4   2  30  1   
  5   2  31  1   
  6   3   4  1   
  7   3   5  1   
  8   3   6  1   
  9   4   7  1   
 10   4   8  1   
 11   4  32  1   
 12   5   9  1   
 13   5  33  1   
 14   5  34  1   
 15   6  10  1   
 16   6  35  1   
 17   6  36  1   
 18   7  11  1   
 19   7  12  1   
 20   7  37  1   
 21   8  13  1   
 22   8  38  1   
 23   8  39  1   
 24   9  13  1   
 25   9  40  1   
 26   9  41  1   
 27  10  11  1   
 28  10  42  1   
 29  10  43  1   
 30  11  44  1   
 31  11  45  1   
 32  12  46  1   
 33  12  47  1   
 34  12  48  1   
 35  13  14  1   
 36  13  49  1   
 37  14  15  1   
 38  14  50  1   
 39  14  51  1   
 40  15  16  ar  
 41  15  17  ar  
 42  16  18  ar  
 43  16  52  1   
 44  17  19  ar  
 45  17  53  1   
 46  18  20  1   
 47  18  21  ar  
 48  19  21  ar  
 49  19  54  1   
 50  20  22  1   
 51  20  23  1   
 52  21  24  1   
 53  22  24  ar  
 54  22  25  ar  
 55  23  55  1   
 56  23  56  1   
 57  23  57  1   
 58  24  26  ar  
 59  25  27  ar  
 60  25  58  1   
 61  26  28  ar  
 62  26  59  1   
 63  27  28  ar  
 64  27  60  1   
 65  28  61  1   
@<TRIPOS>SUBSTRUCTURE
  1 ****  15 GROUP 4 **** **** 0

# MOE 2024.06 (io_trps.svl 2023.06)
