@<TRIPOS>MOLECULE
NONAME
51 53 1 0 0 
SMALL
USER_CHARGES


@<TRIPOS>ATOM
  1 O       -0.1020     2.2490     2.7690 O.2   1 <1>  -0.5700 
  2 C        0.1370     2.8290     1.7250 C.2   1 <1>   0.5440 
  3 N       -0.9080     3.3930     1.0220 N.am  1 <1>  -0.6600 
  4 C        1.5110     2.9170     1.2700 C.ar  1 <1>   0.0860 
  5 C       -2.3290     3.0350     1.3110 C.3   1 <1>   0.1400 
  6 C       -0.7500     4.4610    -0.0010 C.3   1 <1>   0.1400 
  7 C        1.8780     2.5630    -0.0260 C.ar  1 <1>  -0.1500 
  8 C        2.5210     3.3520     2.1230 C.ar  1 <1>  -0.1500 
  9 C       -3.0670     2.5750     0.0300 C.3   1 <1>   0.0000 
 10 C       -1.4380     4.0370    -1.3010 C.3   1 <1>  -0.1600 
 11 C        3.1830     2.6550    -0.4730 C.ar  1 <1>   0.0830 
 12 C        3.8320     3.4580     1.6980 C.ar  1 <1>  -0.1500 
 13 C       -4.5370     2.2730     0.3890 C.3   1 <1>   0.2000 
 14 C       -2.9110     3.6590    -1.0650 C.3   1 <1>  -0.1600 
 15 C       -2.5420     1.2030    -0.4300 C.3   1 <1>  -0.1600 
 16 O        3.3780     2.2740    -1.7660 O.3   1 <1>  -0.3630 
 17 C        4.1860     3.1250     0.3920 C.ar  1 <1>   0.0830 
 18 O       -5.3140     2.2540    -0.7760 O.3   1 <1>  -0.5600 
 19 C       -4.5200     0.8600     0.9850 C.3   1 <1>  -0.1600 
 20 C       -3.2750     0.1600     0.4200 C.3   1 <1>  -0.1600 
 21 C        4.5500     1.5860    -2.1430 C.3   1 <1>   0.0400 
 22 O        5.4640     3.2610    -0.0560 O.3   1 <1>  -0.3630 
 23 C       -6.6720     2.4980    -0.5850 C.3   1 <1>   0.0400 
 24 C        6.4940     3.8050     0.7400 C.3   1 <1>   0.0400 
 25 H       -2.3710     2.2600     2.0550 H     1 <1>   0.0800 
 26 H       -2.8190     3.9020     1.7180 H     1 <1>   0.0800 
 27 H       -1.2070     5.3620     0.3690 H     1 <1>   0.0800 
 28 H        0.2880     4.6740    -0.1870 H     1 <1>   0.0800 
 29 H        1.1250     2.2010    -0.7010 H     1 <1>   0.1500 
 30 H        2.2620     3.6070     3.1370 H     1 <1>   0.1500 
 31 H       -1.3860     4.8450    -2.0090 H     1 <1>   0.0800 
 32 H       -0.9100     3.2010    -1.7250 H     1 <1>   0.0800 
 33 H        4.5630     3.8050     2.4040 H     1 <1>   0.1500 
 34 H       -4.9380     3.0070     1.0670 H     1 <1>   0.0800 
 35 H       -3.3400     3.3150    -1.9910 H     1 <1>   0.0800 
 36 H       -3.4550     4.5370    -0.7660 H     1 <1>   0.0800 
 37 H       -2.8110     1.0490    -1.4610 H     1 <1>   0.0800 
 38 H       -1.4740     1.1120    -0.3380 H     1 <1>   0.0800 
 39 H       -4.4240     0.9300     2.0540 H     1 <1>   0.0800 
 40 H       -5.4160     0.3130     0.7570 H     1 <1>   0.0800 
 41 H       -2.6420    -0.1700     1.2270 H     1 <1>   0.0800 
 42 H       -3.5470    -0.6900    -0.1810 H     1 <1>   0.0800 
 43 H        4.3450     1.0440    -3.0480 H     1 <1>   0.0800 
 44 H        4.8280     0.9040    -1.3590 H     1 <1>   0.0800 
 45 H        5.3320     2.3030    -2.3200 H     1 <1>   0.0800 
 46 H       -7.1600     2.4240    -1.5410 H     1 <1>   0.0800 
 47 H       -6.8010     3.4890    -0.1880 H     1 <1>   0.0800 
 48 H       -7.0800     1.7640     0.0870 H     1 <1>   0.0800 
 49 H        7.3910     3.8360     0.1480 H     1 <1>   0.0800 
 50 H        6.6440     3.1730     1.5970 H     1 <1>   0.0800 
 51 H        6.2180     4.8020     1.0360 H     1 <1>   0.0800 
@<TRIPOS>BOND
  1   1   2  2   
  2   2   3  am  
  3   2   4  1   
  4   3   5  1   
  5   3   6  1   
  6   4   7  ar  
  7   4   8  ar  
  8   5   9  1   
  9   5  25  1   
 10   5  26  1   
 11   6  10  1   
 12   6  27  1   
 13   6  28  1   
 14   7  11  ar  
 15   7  29  1   
 16   8  12  ar  
 17   8  30  1   
 18   9  13  1   
 19   9  14  1   
 20   9  15  1   
 21  10  14  1   
 22  10  31  1   
 23  10  32  1   
 24  11  16  1   
 25  11  17  ar  
 26  12  17  ar  
 27  12  33  1   
 28  13  18  1   
 29  13  19  1   
 30  13  34  1   
 31  14  35  1   
 32  14  36  1   
 33  15  20  1   
 34  15  37  1   
 35  15  38  1   
 36  16  21  1   
 37  17  22  1   
 38  18  23  1   
 39  19  20  1   
 40  19  39  1   
 41  19  40  1   
 42  20  41  1   
 43  20  42  1   
 44  21  43  1   
 45  21  44  1   
 46  21  45  1   
 47  22  24  1   
 48  23  46  1   
 49  23  47  1   
 50  23  48  1   
 51  24  49  1   
 52  24  50  1   
 53  24  51  1   
@<TRIPOS>SUBSTRUCTURE
  1 ****   3 GROUP 4 **** **** 0

# MOE 2024.06 (io_trps.svl 2023.06)
