@<TRIPOS>MOLECULE
NONAME
49 51 1 0 0 
SMALL
USER_CHARGES


@<TRIPOS>ATOM
  1 S       -0.0410    -0.2600    -1.6970 S.o2  1 <1>   1.4470 
  2 O        0.5100     0.8180    -2.4900 O.2   1 <1>  -0.6500 
  3 O       -0.3930    -1.4980    -2.3590 O.2   1 <1>  -0.6500 
  4 N       -1.4620     0.3130    -0.9770 N.am  1 <1>  -0.8490 
  5 C        1.0590    -0.6040    -0.2820 C.ar  1 <1>  -0.0090 
  6 C       -2.2470     1.1700    -1.8710 C.3   1 <1>   0.1960 
  7 C       -2.2590    -0.7140    -0.3260 C.3   1 <1>   0.1960 
  8 C        1.3760     0.3400     0.7050 C.ar  1 <1>  -0.1440 
  9 C        1.6200    -1.8730    -0.1700 C.ar  1 <1>  -0.1500 
 10 C       -3.7070     1.3440    -1.4200 C.3   1 <1>  -0.1600 
 11 C       -3.2630    -0.0570     0.6300 C.3   1 <1>  -0.1600 
 12 C        2.2170     0.0110     1.7630 C.ar  1 <1>  -0.1500 
 13 C        0.8140     1.7580     0.6670 C.3   1 <1>  -0.0970 
 14 C        2.4520    -2.1750     0.8870 C.ar  1 <1>   0.1900 
 15 C       -3.8860     1.2610     0.1080 C.3   1 <1>   0.2800 
 16 C        2.7640    -1.2540     1.8630 C.ar  1 <1>  -0.1500 
 17 F        2.9610    -3.3740     0.9670 F     1 <1>  -0.1900 
 18 O       -3.1100     2.3180     0.6420 O.3   1 <1>  -0.5600 
 19 C       -5.3790     1.3620     0.5590 C.3   1 <1>   0.2000 
 20 C       -3.7100     3.2880     1.4490 C.3   1 <1>   0.1200 
 21 O       -6.1910     0.4220    -0.0890 O.3   1 <1>  -0.6800 
 22 C       -5.9860     2.7970     0.4740 C.3   1 <1>   0.2800 
 23 C       -4.9110     3.8710     0.7060 C.3   1 <1>  -0.1600 
 24 O       -6.8990     2.8990     1.5070 O.3   1 <1>  -0.6800 
 25 C       -6.7930     3.1080    -0.7970 C.3   1 <1>  -0.2400 
 26 H       -1.7710     2.1370    -1.9010 H     1 <1>   0.0800 
 27 H       -2.2370     0.7670    -2.8710 H     1 <1>   0.0800 
 28 H       -2.7770    -1.2920    -1.0750 H     1 <1>   0.0800 
 29 H       -1.6260    -1.3810     0.2330 H     1 <1>   0.0800 
 30 H        1.4110    -2.6310    -0.9050 H     1 <1>   0.1500 
 31 H       -4.2940     0.5720    -1.8840 H     1 <1>   0.0800 
 32 H       -4.0690     2.2810    -1.7910 H     1 <1>   0.0800 
 33 H       -2.7860     0.1260     1.5760 H     1 <1>   0.0800 
 34 H       -4.0350    -0.7840     0.8060 H     1 <1>   0.0800 
 35 H        2.4520     0.7420     2.5180 H     1 <1>   0.1500 
 36 H        1.3190     2.3950     1.3710 H     1 <1>   0.0800 
 37 H       -0.2330     1.7520     0.9160 H     1 <1>   0.0800 
 38 H        0.9360     2.1930    -0.3080 H     1 <1>   0.0800 
 39 H        3.4160    -1.5220     2.6740 H     1 <1>   0.1500 
 40 H       -5.3870     1.0800     1.5980 H     1 <1>   0.0800 
 41 H       -3.9980     2.8370     2.3840 H     1 <1>   0.0800 
 42 H       -2.9750     4.0500     1.6400 H     1 <1>   0.0800 
 43 H       -7.1000     0.5110     0.2640 H     1 <1>   0.4000 
 44 H       -4.5510     4.2440    -0.2360 H     1 <1>   0.0800 
 45 H       -5.3130     4.7060     1.2510 H     1 <1>   0.0800 
 46 H       -7.3680     3.7530     1.4480 H     1 <1>   0.4000 
 47 H       -6.1840     2.9790    -1.6710 H     1 <1>   0.0800 
 48 H       -7.1440     4.1240    -0.7850 H     1 <1>   0.0800 
 49 H       -7.6380     2.4490    -0.8860 H     1 <1>   0.0800 
@<TRIPOS>BOND
  1   1   2  2   
  2   1   3  2   
  3   1   4  am  
  4   1   5  1   
  5   4   6  1   
  6   4   7  1   
  7   5   8  ar  
  8   5   9  ar  
  9   6  10  1   
 10   6  26  1   
 11   6  27  1   
 12   7  11  1   
 13   7  28  1   
 14   7  29  1   
 15   8  12  ar  
 16   8  13  1   
 17   9  14  ar  
 18   9  30  1   
 19  10  15  1   
 20  10  31  1   
 21  10  32  1   
 22  11  15  1   
 23  11  33  1   
 24  11  34  1   
 25  12  16  ar  
 26  12  35  1   
 27  13  36  1   
 28  13  37  1   
 29  13  38  1   
 30  14  16  ar  
 31  14  17  1   
 32  15  18  1   
 33  15  19  1   
 34  16  39  1   
 35  18  20  1   
 36  19  21  1   
 37  19  22  1   
 38  19  40  1   
 39  20  23  1   
 40  20  41  1   
 41  20  42  1   
 42  21  43  1   
 43  22  23  1   
 44  22  24  1   
 45  22  25  1   
 46  23  44  1   
 47  23  45  1   
 48  24  46  1   
 49  25  47  1   
 50  25  48  1   
 51  25  49  1   
@<TRIPOS>SUBSTRUCTURE
  1 ****   4 GROUP 4 **** **** 0

# MOE 2024.06 (io_trps.svl 2023.06)
