@<TRIPOS>MOLECULE
NONAME
54 57 1 0 0 
SMALL
USER_CHARGES


@<TRIPOS>ATOM
  1 O        1.6190     4.2990    -1.4640 O.3   1 <1>  -0.0190 
  2 N        2.8840     4.5810    -1.4700 N.2   1 <1>  -0.4100 
  3 C        1.3800     3.1470    -0.9010 C.2   1 <1>  -0.0400 
  4 C        3.4830     3.5560    -0.9790 C.2   1 <1>   0.1080 
  5 C        2.5590     2.5920    -0.5830 C.2   1 <1>  -0.1500 
  6 C       -0.0530     2.6970    -0.6770 C.3   1 <1>   0.0200 
  7 C        4.9860     3.4290    -0.8490 C.3   1 <1>  -0.0590 
  8 C       -0.8500     3.6460     0.2540 C.3   1 <1>  -0.0800 
  9 C       -1.3090     4.9310    -0.4500 C.3   1 <1>   0.2000 
 10 C       -0.0190     4.1600     1.4360 C.3   1 <1>   0.3430 
 11 O       -2.5980     5.2360    -0.0330 O.3   1 <1>  -0.6800 
 12 C       -0.3530     6.0490    -0.0010 C.3   1 <1>   0.3430 
 13 N        0.6170     5.4160     0.9520 N.4   1 <1>  -0.9590 
 14 C        1.1520     6.3190     2.0070 C.3   1 <1>   0.4860 
 15 C        1.7120     7.5710     1.3700 C.ar  1 <1>  -0.1440 
 16 C        1.1220     8.7970     1.5800 C.ar  1 <1>   0.1600 
 17 C        2.8220     7.5470     0.5530 C.ar  1 <1>   0.1600 
 18 N        1.5690     9.8910     1.0210 N.ar  1 <1>  -0.6200 
 19 N        3.2900     8.6290    -0.0140 N.ar  1 <1>  -0.6200 
 20 C        2.6300     9.7530     0.2420 C.ar  1 <1>   0.7200 
 21 N        3.0570    10.8900    -0.3370 N.pl3 1 <1>  -0.8690 
 22 C        4.4370    11.1060    -0.7920 C.3   1 <1>   0.3530 
 23 C        4.7850    12.5650    -0.5570 C.ar  1 <1>  -0.1440 
 24 C        4.6280    13.4980    -1.5710 C.ar  1 <1>  -0.1500 
 25 C        5.2570    12.9790     0.6800 C.ar  1 <1>  -0.1500 
 26 C        4.9450    14.8280    -1.3530 C.ar  1 <1>  -0.1500 
 27 C        5.5750    14.3080     0.8990 C.ar  1 <1>  -0.1500 
 28 C        5.4200    15.2330    -0.1180 C.ar  1 <1>  -0.1500 
 29 H        2.7850     1.6460    -0.1230 H     1 <1>   0.1500 
 30 H       -0.5520     2.5990    -1.6260 H     1 <1>   0.0800 
 31 H       -0.0270     1.7160    -0.2340 H     1 <1>   0.0800 
 32 H        5.2530     3.1490     0.1540 H     1 <1>   0.0800 
 33 H        5.4590     4.3650    -1.0880 H     1 <1>   0.0800 
 34 H        5.3460     2.6800    -1.5300 H     1 <1>   0.0800 
 35 H       -1.7010     3.0920     0.6140 H     1 <1>   0.0800 
 36 H       -1.3290     4.8420    -1.5240 H     1 <1>   0.0800 
 37 H        0.7170     3.4360     1.7490 H     1 <1>   0.0800 
 38 H       -0.6740     4.3800     2.2640 H     1 <1>   0.0800 
 39 H       -2.7250     5.1760     0.9330 H     1 <1>   0.4000 
 40 H       -0.9140     6.8350     0.4770 H     1 <1>   0.0800 
 41 H        0.1750     6.4560    -0.8490 H     1 <1>   0.0800 
 42 H        1.4160     5.1310     0.3520 H     1 <1>   0.4500 
 43 H        0.3660     6.5860     2.6940 H     1 <1>   0.0800 
 44 H        1.9310     5.8190     2.5600 H     1 <1>   0.0800 
 45 H        0.2590     8.8940     2.2180 H     1 <1>   0.1500 
 46 H        3.3430     6.6260     0.3490 H     1 <1>   0.1500 
 47 H        2.6140    11.7290     0.0340 H     1 <1>   0.4000 
 48 H        5.1170    10.4740    -0.2460 H     1 <1>   0.0800 
 49 H        4.5100    10.8630    -1.8380 H     1 <1>   0.0800 
 50 H        4.2540    13.1930    -2.5330 H     1 <1>   0.1500 
 51 H        5.3760    12.2660     1.4770 H     1 <1>   0.1500 
 52 H        4.8210    15.5470    -2.1440 H     1 <1>   0.1500 
 53 H        5.9410    14.6220     1.8610 H     1 <1>   0.1500 
 54 H        5.6670    16.2670     0.0520 H     1 <1>   0.1500 
@<TRIPOS>BOND
  1   1   2  1   
  2   1   3  1   
  3   2   4  2   
  4   3   5  2   
  5   3   6  1   
  6   4   5  1   
  7   4   7  1   
  8   5  29  1   
  9   6   8  1   
 10   6  30  1   
 11   6  31  1   
 12   7  32  1   
 13   7  33  1   
 14   7  34  1   
 15   8   9  1   
 16   8  10  1   
 17   8  35  1   
 18   9  11  1   
 19   9  12  1   
 20   9  36  1   
 21  10  13  1   
 22  10  37  1   
 23  10  38  1   
 24  11  39  1   
 25  12  13  1   
 26  12  40  1   
 27  12  41  1   
 28  13  14  1   
 29  13  42  1   
 30  14  15  1   
 31  14  43  1   
 32  14  44  1   
 33  15  16  ar  
 34  15  17  ar  
 35  16  18  ar  
 36  16  45  1   
 37  17  19  ar  
 38  17  46  1   
 39  18  20  ar  
 40  19  20  ar  
 41  20  21  1   
 42  21  22  1   
 43  21  47  1   
 44  22  23  1   
 45  22  48  1   
 46  22  49  1   
 47  23  24  ar  
 48  23  25  ar  
 49  24  26  ar  
 50  24  50  1   
 51  25  27  ar  
 52  25  51  1   
 53  26  28  ar  
 54  26  52  1   
 55  27  28  ar  
 56  27  53  1   
 57  28  54  1   
@<TRIPOS>SUBSTRUCTURE
  1 ****  17 GROUP 4 **** **** 0

# MOE 2024.06 (io_trps.svl 2023.06)
