@<TRIPOS>MOLECULE
NONAME
52 55 1 0 0 
SMALL
USER_CHARGES


@<TRIPOS>ATOM
  1 S       -1.1890     0.4250     0.2650 S.o2  1 <1>   1.2040 
  2 O       -1.6940     1.4540     1.1450 O.2   1 <1>  -0.6500 
  3 O       -0.9900     0.7030    -1.1400 O.2   1 <1>  -0.6500 
  4 C       -2.2300    -1.0480     0.4230 C.ar  1 <1>  -0.0090 
  5 C        0.3690    -0.1290     0.9280 C.3   1 <1>  -0.1350 
  6 C       -2.9990    -1.2670     1.5590 C.ar  1 <1>  -0.1500 
  7 C       -2.2740    -2.0060    -0.5820 C.ar  1 <1>  -0.1500 
  8 C       -3.7970    -2.3910     1.6840 C.ar  1 <1>  -0.1500 
  9 C       -3.0680    -3.1340    -0.4680 C.ar  1 <1>  -0.1500 
 10 C       -3.8460    -3.3280     0.6630 C.ar  1 <1>  -0.1430 
 11 C       -4.7550    -4.5380     0.7720 C.3   1 <1>   0.4860 
 12 N       -5.9430    -4.2930    -0.0890 N.4   1 <1>  -0.9590 
 13 C       -6.7730    -3.1540     0.4420 C.3   1 <1>   0.3430 
 14 C       -6.7650    -5.5230    -0.2700 C.3   1 <1>   0.3430 
 15 C       -7.9340    -2.7980    -0.4990 C.3   1 <1>   0.1440 
 16 C       -7.9010    -5.2400    -1.2580 C.3   1 <1>  -0.1600 
 17 C       -8.7870    -1.7540     0.1780 C.ar  1 <1>   0.1670 
 18 C       -8.7750    -4.0540    -0.8120 C.3   1 <1>  -0.1600 
 19 C       -7.4690    -2.0670    -1.7880 C.3   1 <1>  -0.1600 
 20 N       -9.1970    -1.8240     1.4230 N.ar  1 <1>  -0.6200 
 21 C       -9.0740    -0.7140    -0.6520 C.ar  1 <1>  -0.1430 
 22 C       -8.4520    -0.9000    -2.0130 C.3   1 <1>  -0.0170 
 23 C       -9.9410    -0.7920     1.8050 C.ar  1 <1>   0.4770 
 24 C       -9.8460     0.3040    -0.1500 C.ar  1 <1>   0.1600 
 25 N      -10.2880     0.2700     1.0900 N.ar  1 <1>  -0.6200 
 26 C      -10.4480    -0.8230     3.2270 C.3   1 <1>  -0.0970 
 27 H        1.0860     0.6680     0.8890 H     1 <1>   0.0800 
 28 H        0.7480    -0.9550     0.3580 H     1 <1>   0.0800 
 29 H        0.2550    -0.4340     1.9500 H     1 <1>   0.0800 
 30 H       -2.9790    -0.5390     2.3560 H     1 <1>   0.1500 
 31 H       -1.6810    -1.8610    -1.4710 H     1 <1>   0.1500 
 32 H       -4.3780    -2.5160     2.5830 H     1 <1>   0.1500 
 33 H       -3.0690    -3.8500    -1.2740 H     1 <1>   0.1500 
 34 H       -5.0570    -4.6890     1.7960 H     1 <1>   0.0800 
 35 H       -4.2240    -5.4140     0.4360 H     1 <1>   0.0800 
 36 H       -5.5850    -4.0000    -1.0060 H     1 <1>   0.4500 
 37 H       -6.1630    -2.2770     0.5810 H     1 <1>   0.0800 
 38 H       -7.1840    -3.4240     1.4010 H     1 <1>   0.0800 
 39 H       -7.1820    -5.8270     0.6770 H     1 <1>   0.0800 
 40 H       -6.1540    -6.3280    -0.6470 H     1 <1>   0.0800 
 41 H       -8.5190    -6.1190    -1.3350 H     1 <1>   0.0800 
 42 H       -7.4900    -5.0580    -2.2350 H     1 <1>   0.0800 
 43 H       -9.5100    -3.8290    -1.5680 H     1 <1>   0.0800 
 44 H       -9.3150    -4.3390     0.0760 H     1 <1>   0.0800 
 45 H       -7.4310    -2.7100    -2.6490 H     1 <1>   0.0800 
 46 H       -6.4900    -1.6460    -1.6330 H     1 <1>   0.0800 
 47 H       -9.2140    -1.1720    -2.7240 H     1 <1>   0.0800 
 48 H       -7.9460    -0.0100    -2.3450 H     1 <1>   0.0800 
 49 H      -10.1050     1.1520    -0.7620 H     1 <1>   0.1500 
 50 H      -10.5360    -1.8370     3.5700 H     1 <1>   0.0800 
 51 H      -11.4120    -0.3530     3.2820 H     1 <1>   0.0800 
 52 H       -9.7620    -0.2930     3.8590 H     1 <1>   0.0800 
@<TRIPOS>BOND
  1   1   2  2   
  2   1   3  2   
  3   1   4  1   
  4   1   5  1   
  5   4   6  ar  
  6   4   7  ar  
  7   5  27  1   
  8   5  28  1   
  9   5  29  1   
 10   6   8  ar  
 11   6  30  1   
 12   7   9  ar  
 13   7  31  1   
 14   8  10  ar  
 15   8  32  1   
 16   9  10  ar  
 17   9  33  1   
 18  10  11  1   
 19  11  12  1   
 20  11  34  1   
 21  11  35  1   
 22  12  13  1   
 23  12  14  1   
 24  12  36  1   
 25  13  15  1   
 26  13  37  1   
 27  13  38  1   
 28  14  16  1   
 29  14  39  1   
 30  14  40  1   
 31  15  17  1   
 32  15  18  1   
 33  15  19  1   
 34  16  18  1   
 35  16  41  1   
 36  16  42  1   
 37  17  20  ar  
 38  17  21  ar  
 39  18  43  1   
 40  18  44  1   
 41  19  22  1   
 42  19  45  1   
 43  19  46  1   
 44  20  23  ar  
 45  21  22  1   
 46  21  24  ar  
 47  22  47  1   
 48  22  48  1   
 49  23  25  ar  
 50  23  26  1   
 51  24  25  ar  
 52  24  49  1   
 53  26  50  1   
 54  26  51  1   
 55  26  52  1   
@<TRIPOS>SUBSTRUCTURE
  1 ****  13 GROUP 4 **** **** 0

# MOE 2024.06 (io_trps.svl 2023.06)
