@<TRIPOS>MOLECULE
NONAME
32 32 1 0 0 
SMALL
USER_CHARGES


@<TRIPOS>ATOM
  1 O       -0.2480    -0.4920    -0.4510 O.3   1 <1>  -0.5600 
  2 C       -0.3640    -1.8610    -0.2490 C.3   1 <1>   0.4800 
  3 C       -1.4310     0.2310    -0.5720 C.3   1 <1>   0.0400 
  4 O       -0.9000    -2.0710     1.0200 O.3   1 <1>  -0.5600 
  5 C        1.0520    -2.4430    -0.2930 C.3   1 <1>  -0.1600 
  6 C       -2.2310    -2.4810     1.0550 C.3   1 <1>   0.0400 
  7 C        1.1730    -3.9180     0.1400 C.3   1 <1>  -0.0800 
  8 C        2.6550    -4.3230     0.2130 C.3   1 <1>  -0.1600 
  9 C        0.4170    -4.8690    -0.8040 C.3   1 <1>  -0.1600 
 10 C        2.8220    -5.7940     0.5930 C.3   1 <1>   0.3430 
 11 C        0.6240    -6.3330    -0.4120 C.3   1 <1>   0.3430 
 12 N        2.0790    -6.6420    -0.3780 N.4   1 <1>  -0.9060 
 13 H       -0.9980    -2.2900    -1.0080 H     1 <1>   0.0800 
 14 H       -1.1790     1.2290    -0.8840 H     1 <1>   0.0800 
 15 H       -1.9170     0.2710     0.3870 H     1 <1>   0.0800 
 16 H       -2.0640    -0.2310    -1.3080 H     1 <1>   0.0800 
 17 H        1.6600    -1.8380     0.3590 H     1 <1>   0.0800 
 18 H        1.4310    -2.3230    -1.2920 H     1 <1>   0.0800 
 19 H       -2.5260    -2.5660     2.0870 H     1 <1>   0.0800 
 20 H       -2.3230    -3.4370     0.5730 H     1 <1>   0.0800 
 21 H       -2.8530    -1.7530     0.5660 H     1 <1>   0.0800 
 22 H        0.7560    -4.0120     1.1310 H     1 <1>   0.0800 
 23 H        3.1510    -3.7190     0.9540 H     1 <1>   0.0800 
 24 H        3.1410    -4.1370    -0.7290 H     1 <1>   0.0800 
 25 H        0.7400    -4.7200    -1.8200 H     1 <1>   0.0800 
 26 H       -0.6370    -4.6550    -0.7660 H     1 <1>   0.0800 
 27 H        2.4370    -5.9530     1.5880 H     1 <1>   0.0800 
 28 H        3.8700    -6.0520     0.5890 H     1 <1>   0.0800 
 29 H        0.1250    -6.9730    -1.1230 H     1 <1>   0.0800 
 30 H        0.1920    -6.5070     0.5610 H     1 <1>   0.0800 
 31 H        2.2200    -7.6340    -0.1500 H     1 <1>   0.4500 
 32 H        2.4720    -6.4880    -1.3140 H     1 <1>   0.4500 
@<TRIPOS>BOND
  1   1   2  1   
  2   1   3  1   
  3   2   4  1   
  4   2   5  1   
  5   2  13  1   
  6   3  14  1   
  7   3  15  1   
  8   3  16  1   
  9   4   6  1   
 10   5   7  1   
 11   5  17  1   
 12   5  18  1   
 13   6  19  1   
 14   6  20  1   
 15   6  21  1   
 16   7   8  1   
 17   7   9  1   
 18   7  22  1   
 19   8  10  1   
 20   8  23  1   
 21   8  24  1   
 22   9  11  1   
 23   9  25  1   
 24   9  26  1   
 25  10  12  1   
 26  10  27  1   
 27  10  28  1   
 28  11  12  1   
 29  11  29  1   
 30  11  30  1   
 31  12  31  1   
 32  12  32  1   
@<TRIPOS>SUBSTRUCTURE
  1 ****   7 GROUP 4 **** **** 0

# MOE 2024.06 (io_trps.svl 2023.06)
