@<TRIPOS>MOLECULE
NONAME
44 47 1 0 0 
SMALL
USER_CHARGES


@<TRIPOS>ATOM
  1 O       -0.4960    -0.7500    -1.4250 O.2   1 <1>  -0.5700 
  2 C       -1.5450    -1.1840    -1.0020 C.2   1 <1>   0.6900 
  3 N       -1.5650    -2.4430    -0.5080 N.am  1 <1>  -0.4900 
  4 N       -2.7200    -0.4430    -0.9970 N.am  1 <1>  -0.4690 
  5 C       -2.6760    -3.0290     0.0070 C.2   1 <1>   0.6160 
  6 C       -3.8810    -0.9890    -0.4870 C.2   1 <1>   0.2090 
  7 C       -2.6890     0.9480    -1.5640 C.3   1 <1>   0.1400 
  8 O       -2.5690    -4.1650     0.4280 O.2   1 <1>  -0.5700 
  9 C       -3.8950    -2.2810     0.0280 C.2   1 <1>   0.0140 
 10 N       -5.0320    -0.2630    -0.4740 N.pl3 1 <1>  -0.6000 
 11 C       -2.6160     2.0110    -0.4590 C.3   1 <1>   0.2000 
 12 C       -5.1040    -2.7730     0.5490 C.2   1 <1>  -0.1500 
 13 C       -6.2560    -0.6900    -0.0030 C.2   1 <1>   0.1000 
 14 O       -2.5680     3.2700    -1.0420 O.3   1 <1>  -0.5600 
 15 C       -1.3690     1.9610     0.4120 C.3   1 <1>  -0.1600 
 16 C       -6.2340    -1.9990     0.5350 C.2   1 <1>  -0.1500 
 17 C       -7.3800     0.1670    -0.0730 C.2   1 <1>   0.0290 
 18 C       -2.0330     4.1970    -0.1520 C.3   1 <1>   0.1200 
 19 C       -1.2280     3.4010     0.8730 C.3   1 <1>  -0.1600 
 20 C       -8.7190    -0.2920     0.1110 C.2   1 <1>   0.7060 
 21 C       -7.2620     1.5630    -0.3360 C.2   1 <1>   0.5410 
 22 O       -9.0610    -1.4650     0.0850 O.2   1 <1>  -0.5700 
 23 O       -9.7380     0.5700     0.2950 O.3   1 <1>  -0.2270 
 24 O       -6.2200     2.1120    -0.6820 O.2   1 <1>  -0.5700 
 25 C       -8.4050     2.4010    -0.1910 C.2   1 <1>  -0.1360 
 26 C       -9.6020     1.8870     0.1280 C.2   1 <1>  -0.0610 
 27 C      -10.8860     2.6710     0.3210 C.3   1 <1>  -0.1020 
 28 H       -0.7020    -2.9740    -0.5220 H     1 <1>   0.3700 
 29 H       -3.5710     1.1120    -2.1550 H     1 <1>   0.0800 
 30 H       -1.8400     1.0640    -2.2150 H     1 <1>   0.0800 
 31 H       -4.9990     0.7070    -0.8290 H     1 <1>   0.4000 
 32 H       -3.5020     1.9820     0.1530 H     1 <1>   0.0800 
 33 H       -5.1210    -3.7690     0.9600 H     1 <1>   0.1500 
 34 H       -0.5190     1.6800    -0.1850 H     1 <1>   0.0800 
 35 H       -1.4760     1.2680     1.2280 H     1 <1>   0.0800 
 36 H       -7.1240    -2.4220     0.9630 H     1 <1>   0.1500 
 37 H       -2.8470     4.7270     0.3130 H     1 <1>   0.0800 
 38 H       -1.4150     4.8810    -0.7080 H     1 <1>   0.0800 
 39 H       -0.1990     3.7140     0.8950 H     1 <1>   0.0800 
 40 H       -1.6570     3.5350     1.8510 H     1 <1>   0.0800 
 41 H       -8.2450     3.4520    -0.3500 H     1 <1>   0.1500 
 42 H      -11.2610     2.5210     1.3180 H     1 <1>   0.0800 
 43 H      -11.6290     2.3370    -0.3810 H     1 <1>   0.0800 
 44 H      -10.7170     3.7220     0.1710 H     1 <1>   0.0800 
@<TRIPOS>BOND
  1   1   2  2   
  2   2   3  am  
  3   2   4  am  
  4   3   5  am  
  5   3  28  1   
  6   4   6  1   
  7   4   7  1   
  8   5   8  2   
  9   5   9  1   
 10   6   9  2   
 11   6  10  1   
 12   7  11  1   
 13   7  29  1   
 14   7  30  1   
 15   9  12  1   
 16  10  13  1   
 17  10  31  1   
 18  11  14  1   
 19  11  15  1   
 20  11  32  1   
 21  12  16  2   
 22  12  33  1   
 23  13  16  1   
 24  13  17  2   
 25  14  18  1   
 26  15  19  1   
 27  15  34  1   
 28  15  35  1   
 29  16  36  1   
 30  17  20  1   
 31  17  21  1   
 32  18  19  1   
 33  18  37  1   
 34  18  38  1   
 35  19  39  1   
 36  19  40  1   
 37  20  22  2   
 38  20  23  1   
 39  21  24  2   
 40  21  25  1   
 41  23  26  1   
 42  25  26  2   
 43  25  41  1   
 44  26  27  1   
 45  27  42  1   
 46  27  43  1   
 47  27  44  1   
@<TRIPOS>SUBSTRUCTURE
  1 ****  10 GROUP 4 **** **** 0

# MOE 2024.06 (io_trps.svl 2023.06)
