@<TRIPOS>MOLECULE
NONAME
45 46 1 0 0 
SMALL
USER_CHARGES


@<TRIPOS>ATOM
  1 CL       2.8010     1.7060     4.0880 Cl    1 <1>  -0.1770 
  2 C        2.7200     2.1900     2.4140 C.ar  1 <1>   0.1770 
  3 C        2.9720     3.5070     2.0780 C.ar  1 <1>  -0.1500 
  4 C        2.4080     1.2490     1.4510 C.ar  1 <1>  -0.1500 
  5 C        2.9110     3.8980     0.7490 C.ar  1 <1>  -0.1440 
  6 C        2.3460     1.6380     0.1240 C.ar  1 <1>  -0.1500 
  7 C        2.5980     2.9570    -0.2220 C.ar  1 <1>  -0.1500 
  8 C        3.1890     5.3400     0.3540 C.3   1 <1>  -0.0160 
  9 C        4.6430     5.4990    -0.0850 C.3   1 <1>   0.1400 
 10 N        4.9060     6.9070    -0.4520 N.am  1 <1>  -0.7300 
 11 C        4.9390     7.4100    -1.7130 C.2   1 <1>   0.5690 
 12 O        4.7120     6.7280    -2.6850 O.2   1 <1>  -0.5700 
 13 C        5.2580     8.8980    -1.8930 C.3   1 <1>   0.1710 
 14 N        6.0350     9.5150    -0.7640 N.3   1 <1>  -0.8100 
 15 C        6.0280    10.9980    -0.8130 C.3   1 <1>   0.3340 
 16 C        7.4180     8.9870    -0.7980 C.3   1 <1>   0.0300 
 17 C        6.9370    11.5910     0.2640 C.ar  1 <1>  -0.1430 
 18 C        4.6150    11.5450    -0.5920 C.3   1 <1>  -0.2400 
 19 C        6.8010    11.2780     1.6030 C.ar  1 <1>  -0.1500 
 20 C        7.9480    12.4810    -0.0470 C.ar  1 <1>  -0.1500 
 21 C        7.6510    11.8480     2.5340 C.ar  1 <1>   0.1600 
 22 C        8.7450    12.9940     0.9620 C.ar  1 <1>   0.1600 
 23 N        8.6220    12.7000     2.2450 N.ar  1 <1>  -0.6200 
 24 H        3.2120     4.2100     2.8550 H     1 <1>   0.1500 
 25 H        2.2160     0.2310     1.7390 H     1 <1>   0.1500 
 26 H        2.1040     0.9180    -0.6390 H     1 <1>   0.1500 
 27 H        2.5490     3.2490    -1.2580 H     1 <1>   0.1500 
 28 H        2.9880     5.9910     1.1850 H     1 <1>   0.0800 
 29 H        2.5410     5.6190    -0.4590 H     1 <1>   0.0800 
 30 H        4.8340     4.8630    -0.9340 H     1 <1>   0.0800 
 31 H        5.3060     5.2060     0.7110 H     1 <1>   0.0800 
 32 H        5.1630     7.5620     0.2940 H     1 <1>   0.3700 
 33 H        4.3080     9.3820    -2.0020 H     1 <1>   0.0800 
 34 H        5.7940     9.0240    -2.8170 H     1 <1>   0.0800 
 35 H        6.3810    11.3200    -1.7790 H     1 <1>   0.0800 
 36 H        7.4150     7.9110    -0.8290 H     1 <1>   0.0800 
 37 H        7.9590     9.2800     0.0850 H     1 <1>   0.0800 
 38 H        7.9420     9.3550    -1.6640 H     1 <1>   0.0800 
 39 H        4.1630    11.0800     0.2650 H     1 <1>   0.0800 
 40 H        3.9950    11.3970    -1.4550 H     1 <1>   0.0800 
 41 H        4.6660    12.6040    -0.4150 H     1 <1>   0.0800 
 42 H        6.0390    10.5890     1.9200 H     1 <1>   0.1500 
 43 H        8.1230    12.7800    -1.0640 H     1 <1>   0.1500 
 44 H        7.5270    11.5890     3.5720 H     1 <1>   0.1500 
 45 H        9.5270    13.6860     0.6990 H     1 <1>   0.1500 
@<TRIPOS>BOND
  1   1   2  1   
  2   2   3  ar  
  3   2   4  ar  
  4   3   5  ar  
  5   3  24  1   
  6   4   6  ar  
  7   4  25  1   
  8   5   7  ar  
  9   5   8  1   
 10   6   7  ar  
 11   6  26  1   
 12   7  27  1   
 13   8   9  1   
 14   8  28  1   
 15   8  29  1   
 16   9  10  1   
 17   9  30  1   
 18   9  31  1   
 19  10  11  am  
 20  10  32  1   
 21  11  12  2   
 22  11  13  1   
 23  13  14  1   
 24  13  33  1   
 25  13  34  1   
 26  14  15  1   
 27  14  16  1   
 28  15  17  1   
 29  15  18  1   
 30  15  35  1   
 31  16  36  1   
 32  16  37  1   
 33  16  38  1   
 34  17  19  ar  
 35  17  20  ar  
 36  18  39  1   
 37  18  40  1   
 38  18  41  1   
 39  19  21  ar  
 40  19  42  1   
 41  20  22  ar  
 42  20  43  1   
 43  21  23  ar  
 44  21  44  1   
 45  22  23  ar  
 46  22  45  1   
@<TRIPOS>SUBSTRUCTURE
  1 ****  10 GROUP 4 **** **** 0

# MOE 2024.06 (io_trps.svl 2023.06)
