@<TRIPOS>MOLECULE
NONAME
40 41 1 0 0 
SMALL
USER_CHARGES


@<TRIPOS>ATOM
  1 O        0.0260     0.7000    -1.1960 O.2   1 <1>  -0.5700 
  2 C       -0.0980     1.7990    -0.7070 C.2   1 <1>   0.5690 
  3 N       -1.3070     2.2800    -0.2800 N.am  1 <1>  -0.6600 
  4 C        1.1500     2.6780    -0.6010 C.3   1 <1>   0.1810 
  5 C       -1.4360     3.6510     0.3190 C.3   1 <1>   0.3640 
  6 C       -2.5390     1.4390    -0.2730 C.3   1 <1>   0.0600 
  7 O        1.0240     3.7110     0.3430 O.3   1 <1>  -0.5600 
  8 C       -2.6110     4.3820    -0.3550 C.ar  1 <1>  -0.1430 
  9 C       -0.1420     4.4990     0.1870 C.3   1 <1>   0.2610 
 10 C       -3.7060     4.8770     0.3550 C.ar  1 <1>  -0.1430 
 11 C       -2.5770     4.5490    -1.7360 C.ar  1 <1>  -0.1500 
 12 C       -0.1330     5.6780     1.1750 C.2   1 <1>   0.5690 
 13 C       -4.7170     5.5420    -0.3230 C.ar  1 <1>  -0.1500 
 14 C       -3.8540     4.7170     1.8640 C.3   1 <1>  -0.0960 
 15 C       -3.5910     5.2100    -2.4030 C.ar  1 <1>  -0.1500 
 16 O       -0.6380     5.5250     2.2670 O.2   1 <1>  -0.5700 
 17 N        0.4340     6.8860     0.8250 N.am  1 <1>  -0.6600 
 18 C       -4.6630     5.7120    -1.6930 C.ar  1 <1>  -0.1500 
 19 C        1.2910     7.0920    -0.3750 C.3   1 <1>   0.0600 
 20 C        0.3080     8.0850     1.7010 C.3   1 <1>   0.0600 
 21 H        1.3630     3.1150    -1.5590 H     1 <1>   0.0800 
 22 H        1.9850     2.0690    -0.3060 H     1 <1>   0.0800 
 23 H       -1.6340     3.5130     1.3650 H     1 <1>   0.0800 
 24 H       -2.9860     1.4530     0.7050 H     1 <1>   0.0800 
 25 H       -2.3060     0.4190    -0.5290 H     1 <1>   0.0800 
 26 H       -3.2460     1.8190    -0.9900 H     1 <1>   0.0800 
 27 H       -0.1120     4.9050    -0.8050 H     1 <1>   0.0800 
 28 H       -1.7570     4.1530    -2.3100 H     1 <1>   0.1500 
 29 H       -5.5620     5.9360     0.2150 H     1 <1>   0.1500 
 30 H       -4.8440     4.9880     2.1830 H     1 <1>   0.0800 
 31 H       -3.1560     5.3530     2.3760 H     1 <1>   0.0800 
 32 H       -3.6860     3.6970     2.1570 H     1 <1>   0.0800 
 33 H       -3.5480     5.3310    -3.4710 H     1 <1>   0.1500 
 34 H       -5.4560     6.2300    -2.2040 H     1 <1>   0.1500 
 35 H        2.0640     7.8080    -0.1560 H     1 <1>   0.0800 
 36 H        0.6920     7.4610    -1.1900 H     1 <1>   0.0800 
 37 H        1.7660     6.1710    -0.6660 H     1 <1>   0.0800 
 38 H        0.0120     8.9360     1.1150 H     1 <1>   0.0800 
 39 H        1.2530     8.2880     2.1740 H     1 <1>   0.0800 
 40 H       -0.4320     7.9240     2.4660 H     1 <1>   0.0800 
@<TRIPOS>BOND
  1   1   2  2   
  2   2   3  am  
  3   2   4  1   
  4   3   5  1   
  5   3   6  1   
  6   4   7  1   
  7   4  21  1   
  8   4  22  1   
  9   5   8  1   
 10   5   9  1   
 11   5  23  1   
 12   6  24  1   
 13   6  25  1   
 14   6  26  1   
 15   7   9  1   
 16   8  10  ar  
 17   8  11  ar  
 18   9  12  1   
 19   9  27  1   
 20  10  13  ar  
 21  10  14  1   
 22  11  15  ar  
 23  11  28  1   
 24  12  16  2   
 25  12  17  am  
 26  13  18  ar  
 27  13  29  1   
 28  14  30  1   
 29  14  31  1   
 30  14  32  1   
 31  15  18  ar  
 32  15  33  1   
 33  17  19  1   
 34  17  20  1   
 35  18  34  1   
 36  19  35  1   
 37  19  36  1   
 38  19  37  1   
 39  20  38  1   
 40  20  39  1   
 41  20  40  1   
@<TRIPOS>SUBSTRUCTURE
  1 ****   5 GROUP 4 **** **** 0

# MOE 2024.06 (io_trps.svl 2023.06)
