@<TRIPOS>MOLECULE
NONAME
51 53 1 0 0 
SMALL
USER_CHARGES


@<TRIPOS>ATOM
  1 CL       4.5350     0.1560    -3.8140 Cl    1 <1>  -0.1770 
  2 C        4.7510     1.3230    -2.5320 C.ar  1 <1>   0.1770 
  3 C        4.4480     0.9650    -1.2330 C.ar  1 <1>  -0.1500 
  4 C        5.2230     2.5840    -2.8390 C.ar  1 <1>  -0.1500 
  5 C        4.6160     1.8860    -0.2100 C.ar  1 <1>  -0.1440 
  6 C        5.3930     3.5080    -1.8230 C.ar  1 <1>  -0.1500 
  7 C        5.0900     3.1650    -0.5040 C.ar  1 <1>   0.0830 
  8 C        4.2830     1.4930     1.2220 C.3   1 <1>  -0.0960 
  9 O        5.2360     4.0320     0.5320 O.3   1 <1>  -0.3630 
 10 C        5.6740     5.3600     0.3270 C.3   1 <1>   0.1200 
 11 C        5.7540     6.0700     1.6790 C.3   1 <1>   0.2090 
 12 N        5.9780     7.5400     1.4990 N.pl3 1 <1>  -0.8380 
 13 C        7.1230     8.0070     0.8840 C.ar  1 <1>   0.4100 
 14 C        5.2570     8.3970     2.4780 C.3   1 <1>   0.1290 
 15 N        8.1990     7.2280     0.9190 N.ar  1 <1>  -0.6200 
 16 C        7.1250     9.2480     0.2470 C.ar  1 <1>  -0.1500 
 17 C        9.2840     7.6920     0.3230 C.ar  1 <1>   0.1600 
 18 C        8.2640     9.7180    -0.3610 C.ar  1 <1>  -0.1500 
 19 C        9.4030     8.9210    -0.3190 C.ar  1 <1>   0.0860 
 20 C       10.6550     9.3100    -0.9190 C.2   1 <1>   0.5440 
 21 O       11.2170     8.5310    -1.6660 O.2   1 <1>  -0.5700 
 22 N       11.2470    10.5320    -0.6720 N.am  1 <1>  -0.6600 
 23 C       10.9580    11.3980     0.5100 C.3   1 <1>   0.1400 
 24 C       12.4140    11.0130    -1.4710 C.3   1 <1>   0.1400 
 25 C       10.8960    12.8770     0.0910 C.3   1 <1>   0.1200 
 26 C       12.2810    12.5150    -1.7720 C.3   1 <1>   0.1200 
 27 O       12.0590    13.2440    -0.5960 O.3   1 <1>  -0.5600 
 28 H        4.0840    -0.0260    -1.0340 H     1 <1>   0.1500 
 29 H        5.4520     2.8350    -3.8590 H     1 <1>   0.1500 
 30 H        5.7620     4.4840    -2.0770 H     1 <1>   0.1500 
 31 H        3.9390     0.4760     1.2780 H     1 <1>   0.0800 
 32 H        3.5140     2.1380     1.6070 H     1 <1>   0.0800 
 33 H        5.1580     1.5940     1.8390 H     1 <1>   0.0800 
 34 H        4.9620     5.8560    -0.3070 H     1 <1>   0.0800 
 35 H        6.6440     5.3330    -0.1350 H     1 <1>   0.0800 
 36 H        6.5590     5.6520     2.2600 H     1 <1>   0.0800 
 37 H        4.8280     5.9120     2.2040 H     1 <1>   0.0800 
 38 H        4.2200     8.4730     2.1990 H     1 <1>   0.0800 
 39 H        5.6850     9.3840     2.5110 H     1 <1>   0.0800 
 40 H        5.3260     7.9660     3.4620 H     1 <1>   0.0800 
 41 H        6.2180     9.8200     0.2300 H     1 <1>   0.1500 
 42 H       10.1540     7.0570     0.3390 H     1 <1>   0.1500 
 43 H        8.2830    10.6670    -0.8660 H     1 <1>   0.1500 
 44 H       11.7450    11.2760     1.2330 H     1 <1>   0.0800 
 45 H       10.0340    11.1180     0.9820 H     1 <1>   0.0800 
 46 H       12.4820    10.4720    -2.3990 H     1 <1>   0.0800 
 47 H       13.3190    10.8370    -0.9170 H     1 <1>   0.0800 
 48 H       10.8170    13.5060     0.9600 H     1 <1>   0.0800 
 49 H       10.0480    13.0580    -0.5460 H     1 <1>   0.0800 
 50 H       11.4630    12.6930    -2.4480 H     1 <1>   0.0800 
 51 H       13.1870    12.8840    -2.2210 H     1 <1>   0.0800 
@<TRIPOS>BOND
  1   1   2  1   
  2   2   3  ar  
  3   2   4  ar  
  4   3   5  ar  
  5   3  28  1   
  6   4   6  ar  
  7   4  29  1   
  8   5   7  ar  
  9   5   8  1   
 10   6   7  ar  
 11   6  30  1   
 12   7   9  1   
 13   8  31  1   
 14   8  32  1   
 15   8  33  1   
 16   9  10  1   
 17  10  11  1   
 18  10  34  1   
 19  10  35  1   
 20  11  12  1   
 21  11  36  1   
 22  11  37  1   
 23  12  13  1   
 24  12  14  1   
 25  13  15  ar  
 26  13  16  ar  
 27  14  38  1   
 28  14  39  1   
 29  14  40  1   
 30  15  17  ar  
 31  16  18  ar  
 32  16  41  1   
 33  17  19  ar  
 34  17  42  1   
 35  18  19  ar  
 36  18  43  1   
 37  19  20  1   
 38  20  21  2   
 39  20  22  am  
 40  22  23  1   
 41  22  24  1   
 42  23  25  1   
 43  23  44  1   
 44  23  45  1   
 45  24  26  1   
 46  24  46  1   
 47  24  47  1   
 48  25  27  1   
 49  25  48  1   
 50  25  49  1   
 51  26  27  1   
 52  26  50  1   
 53  26  51  1   
@<TRIPOS>SUBSTRUCTURE
  1 ****  15 GROUP 4 **** **** 0

# MOE 2024.06 (io_trps.svl 2023.06)
