@<TRIPOS>MOLECULE
NONAME
46 47 1 0 0 
SMALL
USER_CHARGES


@<TRIPOS>ATOM
  1 S        0.6890     0.6480    -1.3750 S.o2  1 <1>   1.3330 
  2 O        0.2930     1.6320    -2.3570 O.2   1 <1>  -0.6500 
  3 O        0.3690    -0.7450    -1.5970 O.2   1 <1>  -0.6500 
  4 N       -0.0020     1.1040     0.1060 N.am  1 <1>  -0.8490 
  5 C        2.4540     0.7760    -1.0890 C.3   1 <1>  -0.0550 
  6 C       -1.4000     0.6790     0.2060 C.3   1 <1>   0.1160 
  7 C        0.1020     2.5420     0.3780 C.3   1 <1>   0.1160 
  8 C        2.9560    -0.0290     0.1230 C.3   1 <1>  -0.0800 
  9 C        4.4260     0.2010     0.3920 C.3   1 <1>   0.2890 
 10 C        2.8840    -1.5460    -0.0380 C.3   1 <1>   0.1200 
 11 N        4.6160     1.4270     1.1950 N.pl3 1 <1>  -0.8690 
 12 C        4.8260    -1.0720     1.1260 C.3   1 <1>   0.1200 
 13 O        3.9670    -2.0770     0.6690 O.3   1 <1>  -0.5600 
 14 C        5.1610     2.5740     0.7380 C.ar  1 <1>   0.7200 
 15 N        5.6190     3.3700     1.6880 N.ar  1 <1>  -0.6200 
 16 N        5.1760     2.7840    -0.5730 N.ar  1 <1>  -0.6200 
 17 C        6.1520     4.4940     1.2720 C.ar  1 <1>   0.1600 
 18 C        5.7170     3.9170    -0.9540 C.ar  1 <1>   0.1600 
 19 C        6.2320     4.8310    -0.0620 C.ar  1 <1>  -0.1440 
 20 C        6.8550     6.1390    -0.5390 C.3   1 <1>   0.0630 
 21 C        8.3310     6.2180    -0.1370 C.3   1 <1>  -0.2400 
 22 C        6.0800     7.3430     0.0060 C.3   1 <1>  -0.2400 
 23 H        2.9780     0.4580    -1.9700 H     1 <1>   0.0800 
 24 H        2.6980     1.8080    -0.9320 H     1 <1>   0.0800 
 25 H       -1.8070     0.9550     1.1640 H     1 <1>   0.0800 
 26 H       -1.4660    -0.3920     0.1090 H     1 <1>   0.0800 
 27 H       -1.9870     1.1330    -0.5750 H     1 <1>   0.0800 
 28 H       -0.3060     2.7650     1.3490 H     1 <1>   0.0800 
 29 H       -0.4350     3.1080    -0.3670 H     1 <1>   0.0800 
 30 H        1.1340     2.8500     0.3710 H     1 <1>   0.0800 
 31 H        2.3920     0.2360     1.0000 H     1 <1>   0.0800 
 32 H        4.9810     0.2530    -0.5310 H     1 <1>   0.0800 
 33 H        2.9920    -1.8410    -1.0680 H     1 <1>   0.0800 
 34 H        1.9700    -1.9530     0.3600 H     1 <1>   0.0800 
 35 H        4.7180     1.3170     2.2020 H     1 <1>   0.4000 
 36 H        4.6720    -0.9740     2.1860 H     1 <1>   0.0800 
 37 H        5.8410    -1.3570     0.9150 H     1 <1>   0.0800 
 38 H        6.5370     5.1670     2.0200 H     1 <1>   0.1500 
 39 H        5.7480     4.1210    -2.0100 H     1 <1>   0.1500 
 40 H        6.8050     6.1750    -1.6150 H     1 <1>   0.0800 
 41 H        8.4400     6.2370     0.9330 H     1 <1>   0.0800 
 42 H        8.7800     7.1080    -0.5410 H     1 <1>   0.0800 
 43 H        8.8640     5.3650    -0.5200 H     1 <1>   0.0800 
 44 H        6.1350     7.3840     1.0790 H     1 <1>   0.0800 
 45 H        5.0450     7.2760    -0.2810 H     1 <1>   0.0800 
 46 H        6.4840     8.2560    -0.3920 H     1 <1>   0.0800 
@<TRIPOS>BOND
  1   1   2  2   
  2   1   3  2   
  3   1   4  am  
  4   1   5  1   
  5   4   6  1   
  6   4   7  1   
  7   5   8  1   
  8   5  23  1   
  9   5  24  1   
 10   6  25  1   
 11   6  26  1   
 12   6  27  1   
 13   7  28  1   
 14   7  29  1   
 15   7  30  1   
 16   8   9  1   
 17   8  10  1   
 18   8  31  1   
 19   9  11  1   
 20   9  12  1   
 21   9  32  1   
 22  10  13  1   
 23  10  33  1   
 24  10  34  1   
 25  11  14  1   
 26  11  35  1   
 27  12  13  1   
 28  12  36  1   
 29  12  37  1   
 30  14  15  ar  
 31  14  16  ar  
 32  15  17  ar  
 33  16  18  ar  
 34  17  19  ar  
 35  17  38  1   
 36  18  19  ar  
 37  18  39  1   
 38  19  20  1   
 39  20  21  1   
 40  20  22  1   
 41  20  40  1   
 42  21  41  1   
 43  21  42  1   
 44  21  43  1   
 45  22  44  1   
 46  22  45  1   
 47  22  46  1   
@<TRIPOS>SUBSTRUCTURE
  1 ****  11 GROUP 4 **** **** 0

# MOE 2024.06 (io_trps.svl 2023.06)
