@<TRIPOS>MOLECULE
NONAME
54 57 1 0 0 
SMALL
USER_CHARGES


@<TRIPOS>ATOM
  1 BR      -1.4320    -0.7950     2.1290 Br    1 <1>  -0.1110 
  2 C       -0.8520    -2.1850     0.9250 C.ar  1 <1>   0.1110 
  3 C       -1.7790    -3.0410     0.3510 C.ar  1 <1>  -0.1440 
  4 C        0.5040    -2.2800     0.6740 C.ar  1 <1>  -0.1500 
  5 C       -1.3000    -4.0230    -0.5060 C.ar  1 <1>  -0.1500 
  6 C       -3.2630    -2.9180     0.6710 C.3   1 <1>   0.6240 
  7 C        0.9590    -3.2710    -0.1780 C.ar  1 <1>  -0.1500 
  8 C        0.0590    -4.1490    -0.7670 C.ar  1 <1>  -0.1440 
  9 O       -3.5860    -3.7450     1.7370 O.3   1 <1>  -0.5600 
 10 O       -4.0490    -3.3880    -0.3770 O.3   1 <1>  -0.5600 
 11 C        0.5540    -5.2520    -1.6890 C.3   1 <1>   0.2840 
 12 C       -4.9210    -4.0760     1.6260 C.3   1 <1>   0.1200 
 13 C       -5.2340    -3.8580     0.1560 C.3   1 <1>   0.1200 
 14 N        1.4310    -6.2090    -0.9740 N.am  1 <1>  -0.4200 
 15 C        2.6780    -6.5100    -1.4020 C.2   1 <1>   0.5690 
 16 C        1.1760    -6.9810     0.1500 C.2   1 <1>   0.4490 
 17 O        3.2420    -6.0380    -2.3640 O.2   1 <1>  -0.5700 
 18 C        3.2340    -7.5650    -0.4470 C.3   1 <1>   0.3070 
 19 N        2.1190    -7.7510     0.4970 N.2   1 <1>  -0.6960 
 20 C       -0.1270    -6.9150     0.9320 C.3   1 <1>  -0.0990 
 21 C        3.6020    -8.9050    -1.0810 C.3   1 <1>  -0.1600 
 22 C        4.4950    -7.1640     0.3170 C.3   1 <1>  -0.1600 
 23 C       -1.3210    -7.5420     0.1940 C.3   1 <1>  -0.1600 
 24 C        4.5320    -9.5910    -0.0740 C.3   1 <1>  -0.1600 
 25 C        5.1010    -8.4800     0.8210 C.3   1 <1>  -0.1600 
 26 C       -2.6190    -7.3400     0.9840 C.3   1 <1>  -0.1600 
 27 C       -3.8250    -7.8910     0.2200 C.3   1 <1>  -0.2400 
 28 H        1.1890    -1.5950     1.1390 H     1 <1>   0.1500 
 29 H       -2.0010    -4.7010    -0.9630 H     1 <1>   0.1500 
 30 H       -3.5580    -1.9090     0.8990 H     1 <1>   0.0800 
 31 H        2.0130    -3.3610    -0.3780 H     1 <1>   0.1500 
 32 H        1.1010    -4.8000    -2.4990 H     1 <1>   0.0800 
 33 H       -0.2730    -5.7860    -2.1200 H     1 <1>   0.0800 
 34 H       -5.4990    -3.4230     2.2570 H     1 <1>   0.0800 
 35 H       -5.0560    -5.1010     1.9250 H     1 <1>   0.0800 
 36 H       -5.5020    -4.7740    -0.3400 H     1 <1>   0.0800 
 37 H       -6.0030    -3.1180     0.0180 H     1 <1>   0.0800 
 38 H       -0.3320    -5.8950     1.1950 H     1 <1>   0.0800 
 39 H        0.0150    -7.4450     1.8580 H     1 <1>   0.0800 
 40 H        4.1480    -8.7180    -1.9890 H     1 <1>   0.0800 
 41 H        2.7330    -9.4960    -1.3100 H     1 <1>   0.0800 
 42 H        4.2820    -6.4750     1.1150 H     1 <1>   0.0800 
 43 H        5.1830    -6.7040    -0.3700 H     1 <1>   0.0800 
 44 H       -1.1380    -8.5950     0.0570 H     1 <1>   0.0800 
 45 H       -1.4310    -7.0990    -0.7770 H     1 <1>   0.0800 
 46 H        5.3130   -10.1350    -0.5760 H     1 <1>   0.0800 
 47 H        3.9620   -10.2770     0.5310 H     1 <1>   0.0800 
 48 H        4.7910    -8.6500     1.8380 H     1 <1>   0.0800 
 49 H        6.1760    -8.4500     0.7830 H     1 <1>   0.0800 
 50 H       -2.7700    -6.2890     1.1670 H     1 <1>   0.0800 
 51 H       -2.5430    -7.8350     1.9380 H     1 <1>   0.0800 
 52 H       -3.9400    -7.3800    -0.7200 H     1 <1>   0.0800 
 53 H       -4.7210    -7.7510     0.7980 H     1 <1>   0.0800 
 54 H       -3.7010    -8.9440     0.0310 H     1 <1>   0.0800 
@<TRIPOS>BOND
  1   1   2  1   
  2   2   3  ar  
  3   2   4  ar  
  4   3   5  ar  
  5   3   6  1   
  6   4   7  ar  
  7   4  28  1   
  8   5   8  ar  
  9   5  29  1   
 10   6   9  1   
 11   6  10  1   
 12   6  30  1   
 13   7   8  ar  
 14   7  31  1   
 15   8  11  1   
 16   9  12  1   
 17  10  13  1   
 18  11  14  1   
 19  11  32  1   
 20  11  33  1   
 21  12  13  1   
 22  12  34  1   
 23  12  35  1   
 24  13  36  1   
 25  13  37  1   
 26  14  15  am  
 27  14  16  1   
 28  15  17  2   
 29  15  18  1   
 30  16  19  2   
 31  16  20  1   
 32  18  19  1   
 33  18  21  1   
 34  18  22  1   
 35  20  23  1   
 36  20  38  1   
 37  20  39  1   
 38  21  24  1   
 39  21  40  1   
 40  21  41  1   
 41  22  25  1   
 42  22  42  1   
 43  22  43  1   
 44  23  26  1   
 45  23  44  1   
 46  23  45  1   
 47  24  25  1   
 48  24  46  1   
 49  24  47  1   
 50  25  48  1   
 51  25  49  1   
 52  26  27  1   
 53  26  50  1   
 54  26  51  1   
 55  27  52  1   
 56  27  53  1   
 57  27  54  1   
@<TRIPOS>SUBSTRUCTURE
  1 ****   8 GROUP 4 **** **** 0

# MOE 2024.06 (io_trps.svl 2023.06)
