@<TRIPOS>MOLECULE
NONAME
54 57 1 0 0 
SMALL
USER_CHARGES


@<TRIPOS>ATOM
  1 O        1.2260    -0.2690    -0.4000 O.3   1 <1>  -0.5600 
  2 C        2.0830    -1.1660     0.2670 C.3   1 <1>   0.4240 
  3 C       -0.1280    -0.6010    -0.4880 C.3   1 <1>   0.1200 
  4 C        1.6650    -2.6370     0.0750 C.ar  1 <1>  -0.1440 
  5 C        2.0860    -0.7630     1.7470 C.3   1 <1>  -0.1600 
  6 C        3.4770    -0.9190    -0.3380 C.3   1 <1>  -0.1600 
  7 C       -0.2740    -1.8760    -1.3130 C.3   1 <1>  -0.0160 
  8 C        0.5550    -2.9760    -0.6830 C.ar  1 <1>  -0.1440 
  9 C        2.3940    -3.6600     0.6650 C.ar  1 <1>  -0.1500 
 10 C        2.4120     0.7220     1.9390 C.3   1 <1>   0.3430 
 11 C        4.2130     0.2850     0.2570 C.3   1 <1>   0.3430 
 12 C        0.2010    -4.3040    -0.8590 C.ar  1 <1>  -0.1500 
 13 C        2.0540    -4.9930     0.5110 C.ar  1 <1>   0.0830 
 14 N        3.2370     1.2520     0.8160 N.4   1 <1>  -0.9590 
 15 C        0.9390    -5.3310    -0.2760 C.ar  1 <1>   0.0830 
 16 O        2.8860    -5.8490     1.1730 O.3   1 <1>  -0.3630 
 17 C        3.8030     2.6090     1.0360 C.3   1 <1>   0.5230 
 18 O        0.5950    -6.6390    -0.4660 O.3   1 <1>  -0.3630 
 19 C        2.6130    -7.2230     1.3370 C.3   1 <1>   0.0400 
 20 C        3.9830     3.2900    -0.3140 C.2   1 <1>   0.0060 
 21 C       -0.4230    -7.0340    -1.3600 C.3   1 <1>   0.0400 
 22 N        3.4290     2.8560    -1.4060 N.2   1 <1>  -0.5650 
 23 N        4.7290     4.4100    -0.4940 N.pl3 1 <1>   0.0480 
 24 C        3.8310     3.7310    -2.3440 C.2   1 <1>   0.0770 
 25 C        4.6230     4.6810    -1.8060 C.2   1 <1>  -0.3020 
 26 C        5.4980     5.2070     0.4840 C.3   1 <1>   0.0160 
 27 H       -0.6400     0.2160    -0.9670 H     1 <1>   0.0800 
 28 H       -0.5240    -0.7370     0.5030 H     1 <1>   0.0800 
 29 H        2.8190    -1.3460     2.2740 H     1 <1>   0.0800 
 30 H        1.1360    -0.9890     2.1940 H     1 <1>   0.0800 
 31 H        3.3770    -0.7930    -1.4010 H     1 <1>   0.0800 
 32 H        4.1050    -1.7780    -0.1940 H     1 <1>   0.0800 
 33 H        0.0580    -1.6960    -2.3200 H     1 <1>   0.0800 
 34 H       -1.3110    -2.1600    -1.3440 H     1 <1>   0.0800 
 35 H        3.2560    -3.4440     1.2680 H     1 <1>   0.1500 
 36 H        2.9260     0.8530     2.8770 H     1 <1>   0.0800 
 37 H        1.4880     1.2770     1.9790 H     1 <1>   0.0800 
 38 H        4.8020     0.7540    -0.5170 H     1 <1>   0.0800 
 39 H        4.8770    -0.0470     1.0390 H     1 <1>   0.0800 
 40 H       -0.6620    -4.5180    -1.4580 H     1 <1>   0.1500 
 41 H        2.5860     1.3950     0.0120 H     1 <1>   0.4500 
 42 H        4.7460     2.5400     1.5510 H     1 <1>   0.0800 
 43 H        3.1220     3.1980     1.6270 H     1 <1>   0.0800 
 44 H        3.3510    -7.6350     2.0010 H     1 <1>   0.0800 
 45 H        2.6740    -7.7060     0.3790 H     1 <1>   0.0800 
 46 H        1.6320    -7.3350     1.7630 H     1 <1>   0.0800 
 47 H       -0.4530    -8.1080    -1.3770 H     1 <1>   0.0800 
 48 H       -0.1910    -6.6600    -2.3410 H     1 <1>   0.0800 
 49 H       -1.3650    -6.6490    -1.0100 H     1 <1>   0.0800 
 50 H        3.5260     3.6320    -3.3750 H     1 <1>   0.1500 
 51 H        5.1020     5.5170    -2.2840 H     1 <1>   0.1500 
 52 H        4.8450     5.5510     1.2650 H     1 <1>   0.0800 
 53 H        5.9290     6.0600    -0.0110 H     1 <1>   0.0800 
 54 H        6.2870     4.6080     0.9000 H     1 <1>   0.0800 
@<TRIPOS>BOND
  1   1   2  1   
  2   1   3  1   
  3   2   4  1   
  4   2   5  1   
  5   2   6  1   
  6   3   7  1   
  7   3  27  1   
  8   3  28  1   
  9   4   8  ar  
 10   4   9  ar  
 11   5  10  1   
 12   5  29  1   
 13   5  30  1   
 14   6  11  1   
 15   6  31  1   
 16   6  32  1   
 17   7   8  1   
 18   7  33  1   
 19   7  34  1   
 20   8  12  ar  
 21   9  13  ar  
 22   9  35  1   
 23  10  14  1   
 24  10  36  1   
 25  10  37  1   
 26  11  14  1   
 27  11  38  1   
 28  11  39  1   
 29  12  15  ar  
 30  12  40  1   
 31  13  15  ar  
 32  13  16  1   
 33  14  17  1   
 34  14  41  1   
 35  15  18  1   
 36  16  19  1   
 37  17  20  1   
 38  17  42  1   
 39  17  43  1   
 40  18  21  1   
 41  19  44  1   
 42  19  45  1   
 43  19  46  1   
 44  20  22  2   
 45  20  23  1   
 46  21  47  1   
 47  21  48  1   
 48  21  49  1   
 49  22  24  1   
 50  23  25  1   
 51  23  26  1   
 52  24  25  2   
 53  24  50  1   
 54  25  51  1   
 55  26  52  1   
 56  26  53  1   
 57  26  54  1   
@<TRIPOS>SUBSTRUCTURE
  1 ****   2 GROUP 4 **** **** 0

# MOE 2024.06 (io_trps.svl 2023.06)
