@<TRIPOS>MOLECULE
NONAME
46 48 1 0 0 
SMALL
USER_CHARGES


@<TRIPOS>ATOM
  1 O       -0.3920     1.0470     0.4360 O.2   1 <1>  -0.5700 
  2 C       -0.5220     2.2470     0.3610 C.2   1 <1>   0.5690 
  3 N       -1.6420     2.8950     0.8040 N.am  1 <1>  -0.6600 
  4 C        0.6030     3.0560    -0.2810 C.3   1 <1>   0.1810 
  5 C       -1.8030     4.3790     0.6450 C.3   1 <1>   0.3640 
  6 C       -2.7590     2.1820     1.4890 C.3   1 <1>   0.0600 
  7 O        0.6270     4.3880     0.1640 O.3   1 <1>  -0.5600 
  8 C       -3.1220     4.7000    -0.0840 C.ar  1 <1>  -0.1430 
  9 C       -0.5920     5.1000    -0.0130 C.3   1 <1>   0.2610 
 10 C       -3.5070     4.1630    -1.3180 C.ar  1 <1>  -0.1430 
 11 C       -3.9810     5.5900     0.5510 C.ar  1 <1>  -0.1500 
 12 C       -0.4400     6.5200     0.5550 C.2   1 <1>   0.5690 
 13 C       -4.7290     4.5250    -1.8690 C.ar  1 <1>  -0.1500 
 14 C       -2.6630     3.1730    -2.1130 C.3   1 <1>  -0.0960 
 15 C       -5.1940     5.9450    -0.0080 C.ar  1 <1>  -0.1500 
 16 O       -1.3900     7.2650     0.6050 O.2   1 <1>  -0.5700 
 17 N        0.7760     6.9250     0.9990 N.am  1 <1>  -0.7300 
 18 C       -5.5700     5.4100    -1.2220 C.ar  1 <1>  -0.1500 
 19 C        1.1150     8.2760     1.4840 C.3   1 <1>   0.3200 
 20 C        2.4220     8.7150     0.8580 C.2   1 <1>  -0.0400 
 21 O        3.5290     8.0870     1.1550 O.3   1 <1>  -0.0190 
 22 C        2.7220     9.6910    -0.0120 C.2   1 <1>  -0.1500 
 23 N        4.5530     8.5910     0.5290 N.2   1 <1>  -0.4100 
 24 C        4.0970     9.5590    -0.1820 C.2   1 <1>   0.1080 
 25 C        4.9490    10.4300    -1.0780 C.3   1 <1>  -0.0590 
 26 H        0.4960     3.0500    -1.3500 H     1 <1>   0.0800 
 27 H        1.5480     2.6100    -0.0260 H     1 <1>   0.0800 
 28 H       -1.8790     4.7730     1.6440 H     1 <1>   0.0800 
 29 H       -2.9760     2.6580     2.4290 H     1 <1>   0.0800 
 30 H       -2.4980     1.1550     1.6760 H     1 <1>   0.0800 
 31 H       -3.6410     2.2040     0.8720 H     1 <1>   0.0800 
 32 H       -0.7610     5.1960    -1.0680 H     1 <1>   0.0800 
 33 H       -3.7090     6.0300     1.4950 H     1 <1>   0.1500 
 34 H       -5.0410     4.1180    -2.8140 H     1 <1>   0.1500 
 35 H       -3.0640     3.0320    -3.1010 H     1 <1>   0.0800 
 36 H       -2.6570     2.2160    -1.6230 H     1 <1>   0.0800 
 37 H       -1.6570     3.5240    -2.2220 H     1 <1>   0.0800 
 38 H       -5.8400     6.6390     0.5000 H     1 <1>   0.1500 
 39 H        1.5600     6.2670     0.9230 H     1 <1>   0.3700 
 40 H       -6.5130     5.6810    -1.6640 H     1 <1>   0.1500 
 41 H        0.3340     8.9690     1.2220 H     1 <1>   0.0800 
 42 H        1.2150     8.2580     2.5550 H     1 <1>   0.0800 
 43 H        2.0830    10.4140    -0.4860 H     1 <1>   0.1500 
 44 H        4.8810    11.4540    -0.7620 H     1 <1>   0.0800 
 45 H        4.6110    10.3480    -2.0940 H     1 <1>   0.0800 
 46 H        5.9760    10.1160    -1.0260 H     1 <1>   0.0800 
@<TRIPOS>BOND
  1   1   2  2   
  2   2   3  am  
  3   2   4  1   
  4   3   5  1   
  5   3   6  1   
  6   4   7  1   
  7   4  26  1   
  8   4  27  1   
  9   5   8  1   
 10   5   9  1   
 11   5  28  1   
 12   6  29  1   
 13   6  30  1   
 14   6  31  1   
 15   7   9  1   
 16   8  10  ar  
 17   8  11  ar  
 18   9  12  1   
 19   9  32  1   
 20  10  13  ar  
 21  10  14  1   
 22  11  15  ar  
 23  11  33  1   
 24  12  16  2   
 25  12  17  am  
 26  13  18  ar  
 27  13  34  1   
 28  14  35  1   
 29  14  36  1   
 30  14  37  1   
 31  15  18  ar  
 32  15  38  1   
 33  17  19  1   
 34  17  39  1   
 35  18  40  1   
 36  19  20  1   
 37  19  41  1   
 38  19  42  1   
 39  20  21  1   
 40  20  22  2   
 41  21  23  1   
 42  22  24  1   
 43  22  43  1   
 44  23  24  2   
 45  24  25  1   
 46  25  44  1   
 47  25  45  1   
 48  25  46  1   
@<TRIPOS>SUBSTRUCTURE
  1 ****   9 GROUP 4 **** **** 0

# MOE 2024.06 (io_trps.svl 2023.06)
