@<TRIPOS>MOLECULE
NONAME
48 50 1 0 0 
SMALL
USER_CHARGES


@<TRIPOS>ATOM
  1 S       -0.4010     0.5040    -0.9210 S.o2  1 <1>   1.2040 
  2 O        0.4740    -0.3260    -1.7220 O.2   1 <1>  -0.6500 
  3 O       -1.3780     1.3490    -1.5730 O.2   1 <1>  -0.6500 
  4 C       -1.2120    -0.5050     0.3400 C.ar  1 <1>  -0.0090 
  5 C        0.6370     1.5540     0.0780 C.3   1 <1>  -0.0550 
  6 C       -2.3900    -0.0830     0.9470 C.ar  1 <1>  -0.1500 
  7 C       -0.6600    -1.7100     0.7600 C.ar  1 <1>  -0.1500 
  8 C        1.4110     2.5380    -0.7920 C.3   1 <1>   0.1100 
  9 C       -2.9950    -0.8340     1.9400 C.ar  1 <1>  -0.1500 
 10 C       -1.2580    -2.4670     1.7520 C.ar  1 <1>  -0.1500 
 11 N        2.2370     3.4030     0.0620 N.3   1 <1>  -0.8100 
 12 C       -2.4280    -2.0280     2.3450 C.ar  1 <1>  -0.1500 
 13 C        2.4390     4.7170    -0.5970 C.3   1 <1>   0.1100 
 14 C        3.5220     2.7560     0.3950 C.3   1 <1>   0.1100 
 15 C        3.1880     5.7520     0.2570 C.3   1 <1>   0.2090 
 16 C        4.1150     3.3710     1.6660 C.3   1 <1>  -0.1600 
 17 N        4.6470     5.4410     0.3190 N.pl3 1 <1>  -0.8380 
 18 C        5.0800     4.5370     1.4140 C.3   1 <1>   0.2090 
 19 C        5.5230     6.4730     0.0100 C.ar  1 <1>   0.1000 
 20 C        6.3530     6.3540    -1.1000 C.ar  1 <1>  -0.1500 
 21 C        5.5880     7.6240     0.7920 C.ar  1 <1>  -0.1500 
 22 C        7.2380     7.3640    -1.4330 C.ar  1 <1>  -0.1500 
 23 C        6.4670     8.6440     0.4730 C.ar  1 <1>  -0.1500 
 24 C        7.2770     8.4930    -0.6370 C.ar  1 <1>   0.1900 
 25 F        8.1120     9.4540    -0.9440 F     1 <1>  -0.1900 
 26 H        1.3220     0.9490     0.6360 H     1 <1>   0.0800 
 27 H        0.0310     2.1120     0.7650 H     1 <1>   0.0800 
 28 H       -2.8440     0.8430     0.6360 H     1 <1>   0.1500 
 29 H        0.2490    -2.0650     0.3020 H     1 <1>   0.1500 
 30 H        0.6950     3.1330    -1.3380 H     1 <1>   0.0800 
 31 H        2.0250     2.0170    -1.5100 H     1 <1>   0.0800 
 32 H       -3.9080    -0.4900     2.3960 H     1 <1>   0.1500 
 33 H       -0.8150    -3.3990     2.0620 H     1 <1>   0.1500 
 34 H       -2.8960    -2.6140     3.1170 H     1 <1>   0.1500 
 35 H        1.4720     5.1330    -0.8220 H     1 <1>   0.0800 
 36 H        2.9660     4.5890    -1.5270 H     1 <1>   0.0800 
 37 H        4.2130     2.8340    -0.4290 H     1 <1>   0.0800 
 38 H        3.3570     1.7100     0.5860 H     1 <1>   0.0800 
 39 H        2.7630     5.7930     1.2440 H     1 <1>   0.0800 
 40 H        3.0600     6.7190    -0.1990 H     1 <1>   0.0800 
 41 H        4.6680     2.6110     2.1860 H     1 <1>   0.0800 
 42 H        3.3230     3.6830     2.3220 H     1 <1>   0.0800 
 43 H        6.0430     4.1360     1.1450 H     1 <1>   0.0800 
 44 H        5.2040     5.1050     2.3200 H     1 <1>   0.0800 
 45 H        6.2910     5.4610    -1.6950 H     1 <1>   0.1500 
 46 H        4.9470     7.7100     1.6500 H     1 <1>   0.1500 
 47 H        7.8830     7.2820    -2.2890 H     1 <1>   0.1500 
 48 H        6.5280     9.5370     1.0680 H     1 <1>   0.1500 
@<TRIPOS>BOND
  1   1   2  2   
  2   1   3  2   
  3   1   4  1   
  4   1   5  1   
  5   4   6  ar  
  6   4   7  ar  
  7   5   8  1   
  8   5  26  1   
  9   5  27  1   
 10   6   9  ar  
 11   6  28  1   
 12   7  10  ar  
 13   7  29  1   
 14   8  11  1   
 15   8  30  1   
 16   8  31  1   
 17   9  12  ar  
 18   9  32  1   
 19  10  12  ar  
 20  10  33  1   
 21  11  13  1   
 22  11  14  1   
 23  12  34  1   
 24  13  15  1   
 25  13  35  1   
 26  13  36  1   
 27  14  16  1   
 28  14  37  1   
 29  14  38  1   
 30  15  17  1   
 31  15  39  1   
 32  15  40  1   
 33  16  18  1   
 34  16  41  1   
 35  16  42  1   
 36  17  18  1   
 37  17  19  1   
 38  18  43  1   
 39  18  44  1   
 40  19  20  ar  
 41  19  21  ar  
 42  20  22  ar  
 43  20  45  1   
 44  21  23  ar  
 45  21  46  1   
 46  22  24  ar  
 47  22  47  1   
 48  23  24  ar  
 49  23  48  1   
 50  24  25  1   
@<TRIPOS>SUBSTRUCTURE
  1 ****  11 GROUP 4 **** **** 0

# MOE 2024.06 (io_trps.svl 2023.06)
