@<TRIPOS>MOLECULE
NONAME
49 52 1 0 0 
SMALL
USER_CHARGES


@<TRIPOS>ATOM
  1 F        0.7270     1.2150     0.7350 F     1 <1>  -0.1900 
  2 C        2.0020     1.5400     0.6780 C.ar  1 <1>   0.1900 
  3 C        2.9840     0.6030     0.3700 C.ar  1 <1>   0.4100 
  4 C        2.3690     2.8300     0.9370 C.ar  1 <1>   0.1600 
  5 N        4.2500     0.9760     0.3460 N.ar  1 <1>  -0.6200 
  6 N        2.7220    -0.7300     0.0810 N.pl3 1 <1>  -0.8380 
  7 N        3.6330     3.2100     0.9050 N.ar  1 <1>  -0.6200 
  8 C        4.5090     2.2450     0.6250 C.ar  1 <1>   0.7200 
  9 C        1.7970    -1.0980    -1.0320 C.3   1 <1>   0.2090 
 10 C        3.7620    -1.7750     0.3260 C.3   1 <1>   0.2090 
 11 N        5.8330     2.6270     0.6040 N.pl3 1 <1>  -0.8380 
 12 C        1.2600    -2.5290    -0.8410 C.3   1 <1>   0.1200 
 13 C        3.1210    -3.1710     0.4330 C.3   1 <1>   0.1200 
 14 C        6.3740     3.5840     1.6220 C.3   1 <1>   0.2090 
 15 C        6.8540     1.9220    -0.2270 C.3   1 <1>   0.2090 
 16 O        2.3120    -3.4420    -0.6790 O.3   1 <1>  -0.5600 
 17 C        7.1340     4.8070     1.0280 C.3   1 <1>   0.4230 
 18 C        7.5750     2.9120    -1.1630 C.3   1 <1>  -0.0800 
 19 N        6.7290     5.2340    -0.3750 N.4   1 <1>  -0.9590 
 20 C        8.6650     4.6310     1.1380 C.3   1 <1>   0.1200 
 21 C        9.0210     3.2210    -0.7440 C.3   1 <1>   0.1200 
 22 C        6.7230     4.1620    -1.4360 C.3   1 <1>   0.3430 
 23 C        5.3680     5.8510    -0.3340 C.3   1 <1>   0.2630 
 24 O        9.1150     3.4150     0.6290 O.3   1 <1>  -0.5600 
 25 H        1.6140     3.5590     1.1760 H     1 <1>   0.1500 
 26 H        0.9700    -0.4140    -1.0810 H     1 <1>   0.0800 
 27 H        2.3290    -1.0460    -1.9660 H     1 <1>   0.0800 
 28 H        4.4720    -1.7700    -0.4820 H     1 <1>   0.0800 
 29 H        4.2890    -1.5540     1.2380 H     1 <1>   0.0800 
 30 H        0.6940    -2.8300    -1.7040 H     1 <1>   0.0800 
 31 H        0.6240    -2.5770     0.0250 H     1 <1>   0.0800 
 32 H        2.5170    -3.2370     1.3220 H     1 <1>   0.0800 
 33 H        3.8840    -3.9260     0.4770 H     1 <1>   0.0800 
 34 H        5.5730     3.9560     2.2360 H     1 <1>   0.0800 
 35 H        7.0280     3.0440     2.2860 H     1 <1>   0.0800 
 36 H        7.5540     1.4110     0.4140 H     1 <1>   0.0800 
 37 H        6.3770     1.1710    -0.8340 H     1 <1>   0.0800 
 38 H        6.9110     5.6320     1.6820 H     1 <1>   0.0800 
 39 H        7.6570     2.4080    -2.1090 H     1 <1>   0.0800 
 40 H        7.4000     5.9510    -0.6730 H     1 <1>   0.4500 
 41 H        8.9400     4.6400     2.1780 H     1 <1>   0.0800 
 42 H        9.1910     5.4320     0.6510 H     1 <1>   0.0800 
 43 H        9.4230     4.0780    -1.2580 H     1 <1>   0.0800 
 44 H        9.6440     2.3730    -0.9720 H     1 <1>   0.0800 
 45 H        5.7090     3.8220    -1.5790 H     1 <1>   0.0800 
 46 H        7.0430     4.5980    -2.3680 H     1 <1>   0.0800 
 47 H        4.6370     5.1160    -0.0430 H     1 <1>   0.0800 
 48 H        5.0990     6.2330    -1.3050 H     1 <1>   0.0800 
 49 H        5.3410     6.6630     0.3750 H     1 <1>   0.0800 
@<TRIPOS>BOND
  1   1   2  1   
  2   2   3  ar  
  3   2   4  ar  
  4   3   5  ar  
  5   3   6  1   
  6   4   7  ar  
  7   4  25  1   
  8   5   8  ar  
  9   6   9  1   
 10   6  10  1   
 11   7   8  ar  
 12   8  11  1   
 13   9  12  1   
 14   9  26  1   
 15   9  27  1   
 16  10  13  1   
 17  10  28  1   
 18  10  29  1   
 19  11  14  1   
 20  11  15  1   
 21  12  16  1   
 22  12  30  1   
 23  12  31  1   
 24  13  16  1   
 25  13  32  1   
 26  13  33  1   
 27  14  17  1   
 28  14  34  1   
 29  14  35  1   
 30  15  18  1   
 31  15  36  1   
 32  15  37  1   
 33  17  19  1   
 34  17  20  1   
 35  17  38  1   
 36  18  21  1   
 37  18  22  1   
 38  18  39  1   
 39  19  22  1   
 40  19  23  1   
 41  19  40  1   
 42  20  24  1   
 43  20  41  1   
 44  20  42  1   
 45  21  24  1   
 46  21  43  1   
 47  21  44  1   
 48  22  45  1   
 49  22  46  1   
 50  23  47  1   
 51  23  48  1   
 52  23  49  1   
@<TRIPOS>SUBSTRUCTURE
  1 ****   8 GROUP 4 **** **** 0

# MOE 2024.06 (io_trps.svl 2023.06)
