@<TRIPOS>MOLECULE
NONAME
53 56 1 0 0 
SMALL
USER_CHARGES


@<TRIPOS>ATOM
  1 CL      -0.9230    -1.6580     0.1790 Cl    1 <1>  -0.1240 
  2 C       -2.3070    -0.6450     0.5300 C.2   1 <1>  -0.0280 
  3 N       -2.2790     0.6980     0.4680 N.pl3 1 <1>   0.3140 
  4 C       -3.5460    -1.0350     0.8840 C.2   1 <1>  -0.1810 
  5 N       -3.4960     1.1940     0.7650 N.2   1 <1>  -0.7070 
  6 C       -1.1390     1.5650     0.1370 C.3   1 <1>   0.0160 
  7 C       -4.2440     0.1630     1.0190 C.2   1 <1>   0.1080 
  8 C       -4.0760    -2.4320     1.0810 C.3   1 <1>   0.5240 
  9 C       -5.7050     0.3070     1.4100 C.3   1 <1>   0.0210 
 10 N       -3.8660    -3.1900    -0.1800 N.4   1 <1>  -0.9590 
 11 C       -5.9050     0.0950     2.9140 C.3   1 <1>  -0.2400 
 12 C       -4.6960    -2.6120    -1.2860 C.3   1 <1>   0.3430 
 13 C       -4.2900    -4.6140    -0.0160 C.3   1 <1>   0.3430 
 14 C       -5.9630    -3.4700    -1.3360 C.3   1 <1>   0.2000 
 15 C       -5.4160    -4.8650    -1.0290 C.3   1 <1>  -0.0800 
 16 O       -6.8120    -3.0600    -0.3090 O.3   1 <1>  -0.6800 
 17 C       -6.4470    -5.9230    -0.5810 C.3   1 <1>  -0.0170 
 18 C       -5.7320    -7.1730    -0.0820 C.ar  1 <1>  -0.1440 
 19 C       -5.4150    -7.3930     1.2830 C.ar  1 <1>   0.0000 
 20 C       -5.3490    -8.1270    -0.9800 C.ar  1 <1>  -0.1500 
 21 C       -4.6770    -8.5600     1.6030 C.ar  1 <1>   0.3100 
 22 C       -5.7790    -6.5330     2.3480 C.ar  1 <1>  -0.1500 
 23 C       -4.6420    -9.2560    -0.5530 C.ar  1 <1>   0.1600 
 24 N       -4.2990    -9.4730     0.6760 N.ar  1 <1>  -0.6200 
 25 C       -4.3110    -8.7920     2.9380 C.ar  1 <1>  -0.1500 
 26 C       -5.4090    -6.7910     3.6400 C.ar  1 <1>  -0.1500 
 27 C       -4.6610    -7.9310     3.9410 C.ar  1 <1>  -0.1500 
 28 H       -0.8210     1.3660    -0.8690 H     1 <1>   0.0800 
 29 H       -0.3340     1.3680     0.8210 H     1 <1>   0.0800 
 30 H       -1.4410     2.5920     0.2240 H     1 <1>   0.0800 
 31 H       -5.1250    -2.4000     1.3270 H     1 <1>   0.0800 
 32 H       -3.5440    -2.9030     1.8910 H     1 <1>   0.0800 
 33 H       -6.0360     1.2980     1.1480 H     1 <1>   0.0800 
 34 H       -6.3040    -0.3930     0.8560 H     1 <1>   0.0800 
 35 H       -2.8650    -3.1100    -0.4090 H     1 <1>   0.4500 
 36 H       -5.3130     0.8070     3.4620 H     1 <1>   0.0800 
 37 H       -5.6120    -0.8960     3.2080 H     1 <1>   0.0800 
 38 H       -6.9390     0.2410     3.1730 H     1 <1>   0.0800 
 39 H       -4.9320    -1.5720    -1.1280 H     1 <1>   0.0800 
 40 H       -4.1670    -2.7130    -2.2190 H     1 <1>   0.0800 
 41 H       -3.4680    -5.2920    -0.1870 H     1 <1>   0.0800 
 42 H       -4.6620    -4.7700     0.9820 H     1 <1>   0.0800 
 43 H       -6.4800    -3.3940    -2.2780 H     1 <1>   0.0800 
 44 H       -4.9430    -5.2370    -1.9220 H     1 <1>   0.0800 
 45 H       -7.7330    -3.3550    -0.4750 H     1 <1>   0.4000 
 46 H       -7.0660    -6.1830    -1.4230 H     1 <1>   0.0800 
 47 H       -7.1100    -5.5460     0.1740 H     1 <1>   0.0800 
 48 H       -5.5690    -8.0420    -2.0290 H     1 <1>   0.1500 
 49 H       -6.3680    -5.6580     2.1580 H     1 <1>   0.1500 
 50 H       -4.3600    -9.9880    -1.2930 H     1 <1>   0.1500 
 51 H       -3.7430    -9.6800     3.1470 H     1 <1>   0.1500 
 52 H       -5.6920    -6.1320     4.4440 H     1 <1>   0.1500 
 53 H       -4.3750    -8.1250     4.9610 H     1 <1>   0.1500 
@<TRIPOS>BOND
  1   1   2  1   
  2   2   3  1   
  3   2   4  2   
  4   3   5  1   
  5   3   6  1   
  6   4   7  1   
  7   4   8  1   
  8   5   7  2   
  9   6  28  1   
 10   6  29  1   
 11   6  30  1   
 12   7   9  1   
 13   8  10  1   
 14   8  31  1   
 15   8  32  1   
 16   9  11  1   
 17   9  33  1   
 18   9  34  1   
 19  10  12  1   
 20  10  13  1   
 21  10  35  1   
 22  11  36  1   
 23  11  37  1   
 24  11  38  1   
 25  12  14  1   
 26  12  39  1   
 27  12  40  1   
 28  13  15  1   
 29  13  41  1   
 30  13  42  1   
 31  14  15  1   
 32  14  16  1   
 33  14  43  1   
 34  15  17  1   
 35  15  44  1   
 36  16  45  1   
 37  17  18  1   
 38  17  46  1   
 39  17  47  1   
 40  18  19  ar  
 41  18  20  ar  
 42  19  21  ar  
 43  19  22  ar  
 44  20  23  ar  
 45  20  48  1   
 46  21  24  ar  
 47  21  25  ar  
 48  22  26  ar  
 49  22  49  1   
 50  23  24  ar  
 51  23  50  1   
 52  25  27  ar  
 53  25  51  1   
 54  26  27  ar  
 55  26  52  1   
 56  27  53  1   
@<TRIPOS>SUBSTRUCTURE
  1 ****  13 GROUP 4 **** **** 0

# MOE 2024.06 (io_trps.svl 2023.06)
