@<TRIPOS>MOLECULE
NONAME
46 48 1 0 0 
SMALL
USER_CHARGES


@<TRIPOS>ATOM
  1 F        0.7550    -1.5370    -0.2470 F     1 <1>  -0.1900 
  2 C        0.2340    -2.6570     0.1740 C.ar  1 <1>   0.1900 
  3 C        0.8610    -3.8420    -0.1510 C.ar  1 <1>  -0.1500 
  4 C       -0.9230    -2.6090     0.9250 C.ar  1 <1>  -0.1500 
  5 C        0.3000    -5.0350     0.2960 C.ar  1 <1>   0.0830 
  6 C       -1.4750    -3.7980     1.3690 C.ar  1 <1>  -0.1500 
  7 O        0.8370    -6.2500     0.0170 O.3   1 <1>  -0.3630 
  8 C       -0.8690    -5.0090     1.0570 C.ar  1 <1>  -0.1440 
  9 C        1.9330    -6.3840    -0.8650 C.3   1 <1>   0.0400 
 10 C       -1.4850    -6.3090     1.5470 C.3   1 <1>   0.4870 
 11 N       -1.9390    -7.1230     0.3920 N.4   1 <1>  -0.9590 
 12 C       -2.7400    -6.4010    -0.6470 C.3   1 <1>   0.3430 
 13 C       -2.6660    -8.3680     0.7270 C.3   1 <1>   0.3430 
 14 C       -3.8540    -7.3720    -1.0750 C.3   1 <1>   0.2000 
 15 C       -3.3850    -8.7390    -0.5740 C.3   1 <1>  -0.0800 
 16 O       -5.0410    -7.0390    -0.4330 O.3   1 <1>  -0.6800 
 17 C       -2.4630    -9.4120    -1.6260 C.3   1 <1>   0.0210 
 18 C       -1.1860    -9.9920    -1.0470 C.2   1 <1>   0.1080 
 19 N       -0.1830    -9.2490    -0.6860 N.2   1 <1>  -0.7070 
 20 C       -0.9460   -11.3440    -0.8360 C.2   1 <1>  -0.1500 
 21 N        0.7450   -10.1280    -0.2450 N.pl3 1 <1>   0.3000 
 22 C        0.2980   -11.3980    -0.3180 C.2   1 <1>  -0.3320 
 23 C        1.1070   -12.6110     0.1080 C.3   1 <1>  -0.0600 
 24 H        1.7610    -3.8040    -0.7340 H     1 <1>   0.1500 
 25 H       -1.3740    -1.6590     1.1550 H     1 <1>   0.1500 
 26 H       -2.3760    -3.7640     1.9600 H     1 <1>   0.1500 
 27 H        2.1330    -7.4320    -0.9960 H     1 <1>   0.0800 
 28 H        2.7910    -5.8990    -0.4350 H     1 <1>   0.0800 
 29 H        1.6780    -5.9450    -1.8140 H     1 <1>   0.0800 
 30 H       -2.3190    -6.0890     2.1920 H     1 <1>   0.0800 
 31 H       -0.7500    -6.8590     2.1120 H     1 <1>   0.0800 
 32 H       -1.0610    -7.4500    -0.0750 H     1 <1>   0.4500 
 33 H       -3.1670    -5.4890    -0.2640 H     1 <1>   0.0800 
 34 H       -2.1050    -6.1690    -1.4860 H     1 <1>   0.0800 
 35 H       -1.9940    -9.1440     1.0590 H     1 <1>   0.0800 
 36 H       -3.3910    -8.1740     1.4990 H     1 <1>   0.0800 
 37 H       -4.0390    -7.3390    -2.1360 H     1 <1>   0.0800 
 38 H       -4.2130    -9.3960    -0.3710 H     1 <1>   0.0800 
 39 H       -4.9860    -7.1010     0.5390 H     1 <1>   0.4000 
 40 H       -2.1660    -8.7080    -2.3840 H     1 <1>   0.0800 
 41 H       -3.0080   -10.1920    -2.1280 H     1 <1>   0.0800 
 42 H       -1.6190   -12.1570    -1.0510 H     1 <1>   0.1500 
 43 H        1.6720    -9.8400     0.0950 H     1 <1>   0.2700 
 44 H        0.5370   -13.5100    -0.0510 H     1 <1>   0.0800 
 45 H        1.3590   -12.5470     1.1510 H     1 <1>   0.0800 
 46 H        2.0130   -12.6770    -0.4690 H     1 <1>   0.0800 
@<TRIPOS>BOND
  1   1   2  1   
  2   2   3  ar  
  3   2   4  ar  
  4   3   5  ar  
  5   3  24  1   
  6   4   6  ar  
  7   4  25  1   
  8   5   7  1   
  9   5   8  ar  
 10   6   8  ar  
 11   6  26  1   
 12   7   9  1   
 13   8  10  1   
 14   9  27  1   
 15   9  28  1   
 16   9  29  1   
 17  10  11  1   
 18  10  30  1   
 19  10  31  1   
 20  11  12  1   
 21  11  13  1   
 22  11  32  1   
 23  12  14  1   
 24  12  33  1   
 25  12  34  1   
 26  13  15  1   
 27  13  35  1   
 28  13  36  1   
 29  14  15  1   
 30  14  16  1   
 31  14  37  1   
 32  15  17  1   
 33  15  38  1   
 34  16  39  1   
 35  17  18  1   
 36  17  40  1   
 37  17  41  1   
 38  18  19  2   
 39  18  20  1   
 40  19  21  1   
 41  20  22  2   
 42  20  42  1   
 43  21  22  1   
 44  21  43  1   
 45  22  23  1   
 46  23  44  1   
 47  23  45  1   
 48  23  46  1   
@<TRIPOS>SUBSTRUCTURE
  1 ****  11 GROUP 4 **** **** 0

# MOE 2024.06 (io_trps.svl 2023.06)
