@<TRIPOS>MOLECULE
NONAME
45 47 1 0 0 
SMALL
USER_CHARGES


@<TRIPOS>ATOM
  1 O       -2.0750     0.6350    -1.9490 O.2   1 <1>  -0.5700 
  2 C       -1.9630     0.8450    -0.7560 C.2   1 <1>   0.5440 
  3 N       -2.0410    -0.2230     0.0910 N.am  1 <1>  -0.7300 
  4 C       -1.7510     2.1890    -0.2460 C.ar  1 <1>   0.0860 
  5 C       -2.2790    -1.6230    -0.3250 C.3   1 <1>   0.2200 
  6 C       -1.1730     3.1750    -1.0440 C.ar  1 <1>  -0.1500 
  7 C       -2.1130     2.5560     1.0510 C.ar  1 <1>  -0.1500 
  8 C       -3.7460    -1.9570    -0.1200 C.3   1 <1>  -0.0800 
  9 C       -1.6030    -2.5750     0.6550 C.3   1 <1>   0.1200 
 10 C       -0.9480     4.4630    -0.5840 C.ar  1 <1>  -0.1430 
 11 C       -1.8940     3.8360     1.5240 C.ar  1 <1>  -0.1500 
 12 C       -3.7860    -2.3430     1.3620 C.3   1 <1>   0.1200 
 13 C       -4.1980    -3.1070    -1.0390 C.3   1 <1>  -0.0160 
 14 O       -2.4900    -2.7290     1.7240 O.3   1 <1>  -0.5600 
 15 C       -1.3100     4.7980     0.7160 C.ar  1 <1>  -0.1430 
 16 C       -0.3100     5.4810    -1.5180 C.3   1 <1>  -0.0970 
 17 C       -5.6780    -3.4110    -0.8600 C.ar  1 <1>  -0.1430 
 18 C       -1.0850     6.1970     1.2710 C.3   1 <1>  -0.0970 
 19 C       -6.1230    -4.5280    -0.1820 C.ar  1 <1>  -0.1500 
 20 C       -6.6530    -2.5780    -1.3690 C.ar  1 <1>  -0.1500 
 21 C       -7.4840    -4.7480    -0.0460 C.ar  1 <1>   0.1600 
 22 C       -7.9890    -2.8900    -1.1770 C.ar  1 <1>   0.1600 
 23 N       -8.4280    -3.9550    -0.5260 N.ar  1 <1>  -0.6200 
 24 H       -1.9230    -0.0940     1.0970 H     1 <1>   0.3700 
 25 H       -1.9440    -1.7750    -1.3380 H     1 <1>   0.0800 
 26 H       -0.8960     2.9120    -2.0500 H     1 <1>   0.1500 
 27 H       -2.5780     1.8370     1.7000 H     1 <1>   0.1500 
 28 H       -4.3680    -1.0990    -0.3120 H     1 <1>   0.0800 
 29 H       -0.6610    -2.2010     1.0150 H     1 <1>   0.0800 
 30 H       -1.4620    -3.5430     0.2080 H     1 <1>   0.0800 
 31 H       -2.1840     4.0810     2.5300 H     1 <1>   0.1500 
 32 H       -4.4630    -3.1520     1.5710 H     1 <1>   0.0800 
 33 H       -4.0500    -1.4930     1.9670 H     1 <1>   0.0800 
 34 H       -3.6210    -3.9930    -0.8420 H     1 <1>   0.0800 
 35 H       -4.0280    -2.8300    -2.0650 H     1 <1>   0.0800 
 36 H       -0.1030     5.0460    -2.4800 H     1 <1>   0.0800 
 37 H        0.6160     5.8340    -1.1020 H     1 <1>   0.0800 
 38 H       -0.9730     6.3150    -1.6630 H     1 <1>   0.0800 
 39 H       -1.4210     6.2680     2.2890 H     1 <1>   0.0800 
 40 H       -1.6290     6.9170     0.6860 H     1 <1>   0.0800 
 41 H       -0.0380     6.4400     1.2430 H     1 <1>   0.0800 
 42 H       -5.4280    -5.2280     0.2430 H     1 <1>   0.1500 
 43 H       -6.3870    -1.6890    -1.9130 H     1 <1>   0.1500 
 44 H       -7.8130    -5.6240     0.4860 H     1 <1>   0.1500 
 45 H       -8.7360    -2.2280    -1.5820 H     1 <1>   0.1500 
@<TRIPOS>BOND
  1   1   2  2   
  2   2   3  am  
  3   2   4  1   
  4   3   5  1   
  5   3  24  1   
  6   4   6  ar  
  7   4   7  ar  
  8   5   8  1   
  9   5   9  1   
 10   5  25  1   
 11   6  10  ar  
 12   6  26  1   
 13   7  11  ar  
 14   7  27  1   
 15   8  12  1   
 16   8  13  1   
 17   8  28  1   
 18   9  14  1   
 19   9  29  1   
 20   9  30  1   
 21  10  15  ar  
 22  10  16  1   
 23  11  15  ar  
 24  11  31  1   
 25  12  14  1   
 26  12  32  1   
 27  12  33  1   
 28  13  17  1   
 29  13  34  1   
 30  13  35  1   
 31  15  18  1   
 32  16  36  1   
 33  16  37  1   
 34  16  38  1   
 35  17  19  ar  
 36  17  20  ar  
 37  18  39  1   
 38  18  40  1   
 39  18  41  1   
 40  19  21  ar  
 41  19  42  1   
 42  20  22  ar  
 43  20  43  1   
 44  21  23  ar  
 45  21  44  1   
 46  22  23  ar  
 47  22  45  1   
@<TRIPOS>SUBSTRUCTURE
  1 ****   3 GROUP 4 **** **** 0

# MOE 2024.06 (io_trps.svl 2023.06)
