@<TRIPOS>MOLECULE
NONAME
47 51 1 0 0 
SMALL
USER_CHARGES


@<TRIPOS>ATOM
  1 S        0.2540     1.6580     3.1970 S.3   1 <1>  -0.0800 
  2 C        0.1340     2.5120     1.6730 C.2   1 <1>  -0.1400 
  3 C        1.8940     2.2490     3.4210 C.2   1 <1>  -0.1100 
  4 C        1.2630     3.1680     1.3780 C.2   1 <1>  -0.1810 
  5 C       -1.1090     2.4970     0.8270 C.3   1 <1>   0.0200 
  6 C        2.2740     3.0250     2.3860 C.2   1 <1>  -0.1500 
  7 C        1.3950     3.9710     0.0820 C.3   1 <1>   0.4610 
  8 C       -1.0080     3.6860    -0.1430 C.3   1 <1>   0.1200 
  9 O        0.2640     3.7480    -0.7440 O.3   1 <1>  -0.5600 
 10 C        1.5130     5.4730     0.3720 C.3   1 <1>  -0.1600 
 11 C        2.6050     3.4860    -0.7230 C.3   1 <1>  -0.1600 
 12 C        1.7380     6.2810    -0.9080 C.3   1 <1>   0.1400 
 13 C        2.8050     4.3070    -1.9980 C.3   1 <1>   0.1400 
 14 N        2.9250     5.7460    -1.6320 N.am  1 <1>  -0.6600 
 15 C        4.0540     6.4830    -1.9400 C.2   1 <1>   0.6160 
 16 O        4.8480     6.0320    -2.7470 O.2   1 <1>  -0.5700 
 17 C        4.2990     7.7850    -1.4070 C.2   1 <1>   0.0290 
 18 C        4.5350     7.9220    -0.0010 C.2   1 <1>   0.5650 
 19 C        4.3320     8.8880    -2.2250 C.2   1 <1>  -0.0500 
 20 O        4.5510     6.9550     0.7520 O.2   1 <1>  -0.5700 
 21 N        4.7480     9.2390     0.4900 N.pl3 1 <1>   0.5610 
 22 N        4.5480    10.1410    -1.7350 N.pl3 1 <1>  -0.5840 
 23 N        4.9480     9.6800     1.7780 N.2   1 <1>  -0.7070 
 24 C        4.7480    10.3180    -0.3600 C.2   1 <1>  -0.0680 
 25 C        5.0730    10.9650     1.6900 C.2   1 <1>   0.1080 
 26 C        4.9580    11.4260     0.3840 C.2   1 <1>  -0.1500 
 27 C        5.3150    11.8330     2.9020 C.3   1 <1>  -0.0590 
 28 H        2.4080     1.9510     4.3170 H     1 <1>   0.1500 
 29 H       -1.9850     2.6000     1.4410 H     1 <1>   0.0800 
 30 H       -1.1720     1.5730     0.2810 H     1 <1>   0.0800 
 31 H        3.2310     3.5080     2.2900 H     1 <1>   0.1500 
 32 H       -1.1840     4.6100     0.3790 H     1 <1>   0.0800 
 33 H       -1.7380     3.5880    -0.9270 H     1 <1>   0.0800 
 34 H        2.3440     5.6350     1.0330 H     1 <1>   0.0800 
 35 H        0.6370     5.8220     0.8820 H     1 <1>   0.0800 
 36 H        2.4730     2.4490    -0.9710 H     1 <1>   0.0800 
 37 H        3.4950     3.5680    -0.1270 H     1 <1>   0.0800 
 38 H        1.8650     7.3200    -0.6660 H     1 <1>   0.0800 
 39 H        0.8740     6.1920    -1.5470 H     1 <1>   0.0800 
 40 H        1.9640     4.1780    -2.6590 H     1 <1>   0.0800 
 41 H        3.6880     3.9640    -2.5090 H     1 <1>   0.0800 
 42 H        4.1860     8.7800    -3.2900 H     1 <1>   0.1500 
 43 H        4.5830    10.9660    -2.3530 H     1 <1>   0.4000 
 44 H        5.0240    12.4490     0.0610 H     1 <1>   0.1500 
 45 H        6.2250    11.5280     3.3850 H     1 <1>   0.0800 
 46 H        4.5010    11.7190     3.5940 H     1 <1>   0.0800 
 47 H        5.3950    12.8660     2.6190 H     1 <1>   0.0800 
@<TRIPOS>BOND
  1   1   2  1   
  2   1   3  1   
  3   2   4  2   
  4   2   5  1   
  5   3   6  2   
  6   3  28  1   
  7   4   6  1   
  8   4   7  1   
  9   5   8  1   
 10   5  29  1   
 11   5  30  1   
 12   6  31  1   
 13   7   9  1   
 14   7  10  1   
 15   7  11  1   
 16   8   9  1   
 17   8  32  1   
 18   8  33  1   
 19  10  12  1   
 20  10  34  1   
 21  10  35  1   
 22  11  13  1   
 23  11  36  1   
 24  11  37  1   
 25  12  14  1   
 26  12  38  1   
 27  12  39  1   
 28  13  14  1   
 29  13  40  1   
 30  13  41  1   
 31  14  15  am  
 32  15  16  2   
 33  15  17  1   
 34  17  18  1   
 35  17  19  2   
 36  18  20  2   
 37  18  21  1   
 38  19  22  1   
 39  19  42  1   
 40  21  23  1   
 41  21  24  1   
 42  22  24  1   
 43  22  43  1   
 44  23  25  2   
 45  24  26  2   
 46  25  26  1   
 47  25  27  1   
 48  26  44  1   
 49  27  45  1   
 50  27  46  1   
 51  27  47  1   
@<TRIPOS>SUBSTRUCTURE
  1 ****  12 GROUP 4 **** **** 0

# MOE 2024.06 (io_trps.svl 2023.06)
