@<TRIPOS>MOLECULE
NONAME
38 39 1 0 0 
SMALL
USER_CHARGES


@<TRIPOS>ATOM
  1 S        0.6880     0.1540     0.1770 S.3   1 <1>  -0.0800 
  2 C       -0.7770     1.0890     0.3760 C.2   1 <1>   0.1980 
  3 C       -0.2820    -1.2610    -0.1180 C.2   1 <1>  -0.1400 
  4 N       -1.8480     0.4170     0.2360 N.2   1 <1>  -0.5650 
  5 C       -0.6290     2.5630     0.6820 C.3   1 <1>   0.0200 
  6 C       -1.5780    -0.9120    -0.0420 C.2   1 <1>   0.0460 
  7 C        0.4650    -2.5520    -0.3890 C.3   1 <1>  -0.0600 
  8 C       -0.2760     3.3310    -0.5890 C.3   1 <1>   0.2090 
  9 C       -2.7850    -1.8060    -0.2260 C.3   1 <1>  -0.0590 
 10 N       -0.1110     4.7760    -0.2830 N.pl3 1 <1>  -0.8690 
 11 C        1.0900     5.3700     0.0280 C.ar  1 <1>   0.4100 
 12 N        2.0530     4.5420     0.4320 N.ar  1 <1>  -0.6200 
 13 C        1.2520     6.7680    -0.0740 C.ar  1 <1>   0.0860 
 14 C        3.2150     5.0820     0.7310 C.ar  1 <1>   0.1600 
 15 C        0.1700     7.6340    -0.4860 C.2   1 <1>   0.5440 
 16 C        2.4980     7.2960     0.2450 C.ar  1 <1>  -0.1500 
 17 C        3.4900     6.4350     0.6540 C.ar  1 <1>  -0.1500 
 18 O       -0.6070     7.3120    -1.3680 O.2   1 <1>  -0.5700 
 19 N        0.0000     8.8550     0.1140 N.am  1 <1>  -0.7300 
 20 C       -1.0510     9.8490    -0.2280 C.3   1 <1>   0.0600 
 21 H        0.1420     2.6980     1.4170 H     1 <1>   0.0800 
 22 H       -1.5570     2.9340     1.0760 H     1 <1>   0.0800 
 23 H        1.0870    -2.4370    -1.2580 H     1 <1>   0.0800 
 24 H       -0.2200    -3.3610    -0.5580 H     1 <1>   0.0800 
 25 H        1.0870    -2.7960     0.4540 H     1 <1>   0.0800 
 26 H       -1.0620     3.2070    -1.3150 H     1 <1>   0.0800 
 27 H        0.6350     2.9420    -1.0120 H     1 <1>   0.0800 
 28 H       -2.4910    -2.8150    -0.4380 H     1 <1>   0.0800 
 29 H       -3.3830    -1.4380    -1.0400 H     1 <1>   0.0800 
 30 H       -3.3770    -1.7950     0.6700 H     1 <1>   0.0800 
 31 H       -0.7570     5.3950    -0.8020 H     1 <1>   0.4000 
 32 H        3.9950     4.4120     1.0540 H     1 <1>   0.1500 
 33 H        2.6870     8.3520     0.1670 H     1 <1>   0.1500 
 34 H        4.4690     6.8010     0.9110 H     1 <1>   0.1500 
 35 H        0.5660     9.0780     0.9350 H     1 <1>   0.3700 
 36 H       -1.5770     9.5520    -1.1200 H     1 <1>   0.0800 
 37 H       -0.6010    10.8110    -0.3980 H     1 <1>   0.0800 
 38 H       -1.7570     9.9240     0.5810 H     1 <1>   0.0800 
@<TRIPOS>BOND
  1   1   2  1   
  2   1   3  1   
  3   2   4  2   
  4   2   5  1   
  5   3   6  2   
  6   3   7  1   
  7   4   6  1   
  8   5   8  1   
  9   5  21  1   
 10   5  22  1   
 11   6   9  1   
 12   7  23  1   
 13   7  24  1   
 14   7  25  1   
 15   8  10  1   
 16   8  26  1   
 17   8  27  1   
 18   9  28  1   
 19   9  29  1   
 20   9  30  1   
 21  10  11  1   
 22  10  31  1   
 23  11  12  ar  
 24  11  13  ar  
 25  12  14  ar  
 26  13  15  1   
 27  13  16  ar  
 28  14  17  ar  
 29  14  32  1   
 30  15  18  2   
 31  15  19  am  
 32  16  17  ar  
 33  16  33  1   
 34  17  34  1   
 35  19  20  1   
 36  19  35  1   
 37  20  36  1   
 38  20  37  1   
 39  20  38  1   
@<TRIPOS>SUBSTRUCTURE
  1 ****   8 GROUP 4 **** **** 0

# MOE 2024.06 (io_trps.svl 2023.06)
