@<TRIPOS>MOLECULE
NONAME
45 47 1 0 0 
SMALL
USER_CHARGES


@<TRIPOS>ATOM
  1 O        3.8280    -1.4880    -1.7440 O.2   1 <1>  -0.5700 
  2 C        2.9240    -1.3850    -0.9350 C.2   1 <1>   0.5440 
  3 N        2.7830    -0.1570    -0.3430 N.am  1 <1>  -0.6600 
  4 C        2.0960    -2.5180    -0.5610 C.ar  1 <1>   0.0860 
  5 C        3.4390     0.0320     0.9980 C.3   1 <1>   0.2200 
  6 C        2.5850     1.0330    -1.2300 C.3   1 <1>   0.1400 
  7 C        2.4060    -3.8160    -0.9390 C.ar  1 <1>  -0.1500 
  8 C        0.9420    -2.3940     0.2020 C.ar  1 <1>  -0.1500 
  9 C        2.8550     1.2110     1.7940 C.3   1 <1>   0.1200 
 10 C        4.9790     0.1740     0.8550 C.3   1 <1>   0.3430 
 11 C        3.5180     2.2250    -0.9460 C.3   1 <1>  -0.0800 
 12 C        1.6070    -4.8730    -0.5470 C.ar  1 <1>   0.1660 
 13 C        0.2040    -3.5110     0.5460 C.ar  1 <1>   0.1660 
 14 O        3.5100     2.3990     1.4650 O.3   1 <1>  -0.5600 
 15 N        5.4080     0.5330    -0.5410 N.4   1 <1>  -0.9590 
 16 C        3.0880     3.0190     0.2980 C.3   1 <1>   0.1200 
 17 C        5.0320     1.9200    -0.9570 C.3   1 <1>   0.3430 
 18 N        0.5210    -4.7410     0.1910 N.ar  1 <1>  -0.6200 
 19 C        1.9510    -6.2880    -0.9610 C.3   1 <1>  -0.0970 
 20 C       -1.0530    -3.3730     1.3780 C.3   1 <1>  -0.0970 
 21 C        6.8550     0.2620    -0.7620 C.3   1 <1>   0.2630 
 22 H        3.2460    -0.8510     1.5830 H     1 <1>   0.0800 
 23 H        2.7190     0.7300    -2.2560 H     1 <1>   0.0800 
 24 H        1.5610     1.3560    -1.1370 H     1 <1>   0.0800 
 25 H        3.2770    -3.9970    -1.5430 H     1 <1>   0.1500 
 26 H        0.6160    -1.4230     0.5230 H     1 <1>   0.1500 
 27 H        3.0310     1.0490     2.8430 H     1 <1>   0.0800 
 28 H        1.7940     1.3140     1.6430 H     1 <1>   0.0800 
 29 H        5.4190    -0.7720     1.1220 H     1 <1>   0.0800 
 30 H        5.3410     0.9080     1.5560 H     1 <1>   0.0800 
 31 H        3.3570     2.9090    -1.7600 H     1 <1>   0.0800 
 32 H        4.8590    -0.1180    -1.1500 H     1 <1>   0.4500 
 33 H        2.0190     3.1550     0.3370 H     1 <1>   0.0800 
 34 H        3.5450     3.9940     0.2830 H     1 <1>   0.0800 
 35 H        5.5350     2.6340    -0.3240 H     1 <1>   0.0800 
 36 H        5.3890     2.0740    -1.9620 H     1 <1>   0.0800 
 37 H        2.8450    -6.3160    -1.5560 H     1 <1>   0.0800 
 38 H        1.1400    -6.6990    -1.5340 H     1 <1>   0.0800 
 39 H        2.0940    -6.8940    -0.0850 H     1 <1>   0.0800 
 40 H       -1.2510    -2.3480     1.6270 H     1 <1>   0.0800 
 41 H       -0.9450    -3.9390     2.2860 H     1 <1>   0.0800 
 42 H       -1.8890    -3.7650     0.8280 H     1 <1>   0.0800 
 43 H        7.4560     0.9000    -0.1340 H     1 <1>   0.0800 
 44 H        7.1140     0.4420    -1.7920 H     1 <1>   0.0800 
 45 H        7.0800    -0.7670    -0.5300 H     1 <1>   0.0800 
@<TRIPOS>BOND
  1   1   2  2   
  2   2   3  am  
  3   2   4  1   
  4   3   5  1   
  5   3   6  1   
  6   4   7  ar  
  7   4   8  ar  
  8   5   9  1   
  9   5  10  1   
 10   5  22  1   
 11   6  11  1   
 12   6  23  1   
 13   6  24  1   
 14   7  12  ar  
 15   7  25  1   
 16   8  13  ar  
 17   8  26  1   
 18   9  14  1   
 19   9  27  1   
 20   9  28  1   
 21  10  15  1   
 22  10  29  1   
 23  10  30  1   
 24  11  16  1   
 25  11  17  1   
 26  11  31  1   
 27  12  18  ar  
 28  12  19  1   
 29  13  18  ar  
 30  13  20  1   
 31  14  16  1   
 32  15  17  1   
 33  15  21  1   
 34  15  32  1   
 35  16  33  1   
 36  16  34  1   
 37  17  35  1   
 38  17  36  1   
 39  19  37  1   
 40  19  38  1   
 41  19  39  1   
 42  20  40  1   
 43  20  41  1   
 44  20  42  1   
 45  21  43  1   
 46  21  44  1   
 47  21  45  1   
@<TRIPOS>SUBSTRUCTURE
  1 ****   2 GROUP 4 **** **** 0

# MOE 2024.06 (io_trps.svl 2023.06)
