@<TRIPOS>MOLECULE
NONAME
50 51 1 0 0 
SMALL
USER_CHARGES


@<TRIPOS>ATOM
  1 F       -1.3810    -1.2580    -0.9480 F     1 <1>  -0.1900 
  2 C       -1.7240    -0.1180    -0.4080 C.ar  1 <1>   0.1900 
  3 C       -2.5780    -0.1120     0.6910 C.ar  1 <1>  -0.1440 
  4 C       -1.2200     1.0380    -0.9710 C.ar  1 <1>  -0.1500 
  5 C       -2.9340     1.1140     1.2420 C.ar  1 <1>  -0.1500 
  6 C       -3.1180    -1.4050     1.2920 C.3   1 <1>  -0.0160 
  7 C       -1.6000     2.2330    -0.3940 C.ar  1 <1>   0.1900 
  8 C       -2.4450     2.2930     0.7000 C.ar  1 <1>  -0.1500 
  9 C       -4.2900    -1.9420     0.4540 C.3   1 <1>  -0.0990 
 10 F       -1.1450     3.3480    -0.8990 F     1 <1>  -0.1900 
 11 C       -4.8820    -3.2340     1.0010 C.2   1 <1>   0.5690 
 12 O       -4.7110    -3.4990     2.1650 O.2   1 <1>  -0.5700 
 13 N       -5.6370    -4.0570     0.2090 N.am  1 <1>  -0.6600 
 14 C       -5.8670    -5.4630     0.7070 C.3   1 <1>   0.3210 
 15 C       -6.2680    -3.6150    -1.0830 C.3   1 <1>   0.1400 
 16 C       -6.7200    -6.3550    -0.1980 C.2   1 <1>   0.0460 
 17 C       -7.5570    -2.7840    -0.8740 C.3   1 <1>   0.3430 
 18 N       -8.0650    -6.2220    -0.2600 N.2   1 <1>  -0.5650 
 19 C       -6.3020    -7.3570    -1.0080 C.2   1 <1>  -0.3320 
 20 N       -8.5200    -3.4020     0.0960 N.4   1 <1>  -0.9590 
 21 C       -8.4310    -7.1530    -1.0820 C.2   1 <1>   0.0360 
 22 N       -7.4060    -7.8770    -1.5740 N.pl3 1 <1>   0.0330 
 23 C       -4.9110    -7.8990    -1.2990 C.3   1 <1>  -0.0600 
 24 C       -9.9390    -3.1790    -0.3000 C.3   1 <1>   0.2630 
 25 C       -8.2830    -2.9820     1.5110 C.3   1 <1>   0.2630 
 26 H       -0.5620     1.0110    -1.8180 H     1 <1>   0.1500 
 27 H       -3.5880     1.1580     2.0960 H     1 <1>   0.1500 
 28 H       -3.4430    -1.2260     2.3030 H     1 <1>   0.0800 
 29 H       -2.3340    -2.1420     1.3350 H     1 <1>   0.0800 
 30 H       -2.7130     3.2480     1.1170 H     1 <1>   0.1500 
 31 H       -3.9270    -2.1180    -0.5410 H     1 <1>   0.0800 
 32 H       -5.0610    -1.1960     0.4140 H     1 <1>   0.0800 
 33 H       -6.3380    -5.4210     1.6740 H     1 <1>   0.0800 
 34 H       -4.9080    -5.9280     0.8490 H     1 <1>   0.0800 
 35 H       -6.4910    -4.4600    -1.7080 H     1 <1>   0.0800 
 36 H       -5.5690    -3.0220    -1.6440 H     1 <1>   0.0800 
 37 H       -8.0360    -2.6800    -1.8330 H     1 <1>   0.0800 
 38 H       -7.2920    -1.7960    -0.5370 H     1 <1>   0.0800 
 39 H       -8.3460    -4.4330     0.0510 H     1 <1>   0.4500 
 40 H       -9.4510    -7.3570    -1.3610 H     1 <1>   0.1500 
 41 H       -7.4620    -8.6650    -2.2270 H     1 <1>   0.2700 
 42 H       -4.1580    -7.3250    -0.7900 H     1 <1>   0.0800 
 43 H       -4.7090    -7.8570    -2.3550 H     1 <1>   0.0800 
 44 H       -4.8350    -8.9210    -0.9730 H     1 <1>   0.0800 
 45 H      -10.1760    -2.1280    -0.2780 H     1 <1>   0.0800 
 46 H      -10.5970    -3.6980     0.3790 H     1 <1>   0.0800 
 47 H      -10.1110    -3.5570    -1.2940 H     1 <1>   0.0800 
 48 H       -8.4210    -1.9180     1.6170 H     1 <1>   0.0800 
 49 H       -7.2820    -3.2330     1.8200 H     1 <1>   0.0800 
 50 H       -8.9720    -3.4880     2.1670 H     1 <1>   0.0800 
@<TRIPOS>BOND
  1   1   2  1   
  2   2   3  ar  
  3   2   4  ar  
  4   3   5  ar  
  5   3   6  1   
  6   4   7  ar  
  7   4  26  1   
  8   5   8  ar  
  9   5  27  1   
 10   6   9  1   
 11   6  28  1   
 12   6  29  1   
 13   7   8  ar  
 14   7  10  1   
 15   8  30  1   
 16   9  11  1   
 17   9  31  1   
 18   9  32  1   
 19  11  12  2   
 20  11  13  am  
 21  13  14  1   
 22  13  15  1   
 23  14  16  1   
 24  14  33  1   
 25  14  34  1   
 26  15  17  1   
 27  15  35  1   
 28  15  36  1   
 29  16  18  1   
 30  16  19  2   
 31  17  20  1   
 32  17  37  1   
 33  17  38  1   
 34  18  21  2   
 35  19  22  1   
 36  19  23  1   
 37  20  24  1   
 38  20  25  1   
 39  20  39  1   
 40  21  22  1   
 41  21  40  1   
 42  22  41  1   
 43  23  42  1   
 44  23  43  1   
 45  23  44  1   
 46  24  45  1   
 47  24  46  1   
 48  24  47  1   
 49  25  48  1   
 50  25  49  1   
 51  25  50  1   
@<TRIPOS>SUBSTRUCTURE
  1 ****  11 GROUP 4 **** **** 0

# MOE 2024.06 (io_trps.svl 2023.06)
