@<TRIPOS>MOLECULE
NONAME
57 60 1 0 0 
SMALL
USER_CHARGES


@<TRIPOS>ATOM
  1 S        0.0430    -0.2840    -1.8910 S.o2  1 <1>   1.4470 
  2 O       -0.4120    -1.4290    -2.6530 O.2   1 <1>  -0.6500 
  3 O        0.6970     0.7860    -2.6170 O.2   1 <1>  -0.6500 
  4 N       -1.3350     0.3530    -1.1370 N.am  1 <1>  -0.8490 
  5 C        1.0910    -0.8520    -0.5240 C.ar  1 <1>  -0.0090 
  6 C       -2.0290     1.3390    -1.9740 C.3   1 <1>   0.1960 
  7 C       -2.2170    -0.6560    -0.5710 C.3   1 <1>   0.1960 
  8 C        1.6670     0.0420     0.3720 C.ar  1 <1>   0.0820 
  9 C        1.3390    -2.2060    -0.3300 C.ar  1 <1>  -0.1500 
 10 C       -3.5280     1.4720    -1.6600 C.3   1 <1>  -0.1600 
 11 C       -3.2240     0.0070     0.3760 C.3   1 <1>  -0.1600 
 12 O        1.4470     1.3660     0.2550 O.3   1 <1>  -0.3620 
 13 C        2.4550    -0.4020     1.4220 C.ar  1 <1>  -0.1500 
 14 C        2.1320    -2.6770     0.7130 C.ar  1 <1>  -0.0230 
 15 C       -3.8440     1.3210    -0.1620 C.3   1 <1>   0.2800 
 16 C        2.4860     2.1380    -0.3020 C.3   1 <1>   0.0400 
 17 C        2.6880    -1.7530     1.5920 C.ar  1 <1>  -0.1500 
 18 N        2.3620    -4.0760     0.8760 N.pl3 1 <1>   0.5930 
 19 O       -3.1590     2.3850     0.4700 O.3   1 <1>  -0.5600 
 20 C       -5.3750     1.3590     0.1530 C.3   1 <1>   0.2000 
 21 N        1.4300    -5.0220     0.5970 N.2   1 <1>  -0.7070 
 22 C        3.4980    -4.6730     1.3140 C.2   1 <1>  -0.3020 
 23 C       -3.8530     3.2620     1.3040 C.3   1 <1>   0.1200 
 24 O       -6.0980     0.4350    -0.6120 O.3   1 <1>  -0.6800 
 25 C       -6.0170     2.7790     0.0910 C.3   1 <1>   0.2800 
 26 C        1.9910    -6.1580     0.8650 C.2   1 <1>   0.1390 
 27 C        3.2940    -6.0060     1.3210 C.2   1 <1>  -0.1500 
 28 C       -5.0140     3.8650     0.5130 C.3   1 <1>  -0.1600 
 29 O       -7.0450     2.7860     1.0170 O.3   1 <1>  -0.6800 
 30 C       -6.6880     3.1520    -1.2410 C.3   1 <1>  -0.2400 
 31 H       -1.5490     2.2920    -1.8200 H     1 <1>   0.0800 
 32 H       -1.9200     1.0830    -3.0150 H     1 <1>   0.0800 
 33 H       -2.7330    -1.1710    -1.3650 H     1 <1>   0.0800 
 34 H       -1.6440    -1.3830    -0.0190 H     1 <1>   0.0800 
 35 H        0.9010    -2.9210    -1.0100 H     1 <1>   0.1500 
 36 H       -4.0560     0.7170    -2.2130 H     1 <1>   0.0800 
 37 H       -3.8670     2.4230    -2.0190 H     1 <1>   0.0800 
 38 H       -2.7460     0.1970     1.3200 H     1 <1>   0.0800 
 39 H       -3.9960    -0.7180     0.5560 H     1 <1>   0.0800 
 40 H        2.8740     0.3140     2.1070 H     1 <1>   0.1500 
 41 H        2.1330     3.1490    -0.4020 H     1 <1>   0.0800 
 42 H        2.7350     1.7420    -1.2710 H     1 <1>   0.0800 
 43 H        3.3390     2.1050     0.3510 H     1 <1>   0.0800 
 44 H        3.2950    -2.0840     2.4170 H     1 <1>   0.1500 
 45 H       -5.4680     1.0220     1.1710 H     1 <1>   0.0800 
 46 H        4.3740    -4.1150     1.5870 H     1 <1>   0.1500 
 47 H       -4.1910     2.7270     2.1750 H     1 <1>   0.0800 
 48 H       -3.1630     4.0290     1.6110 H     1 <1>   0.0800 
 49 H       -7.0380     0.4910    -0.3440 H     1 <1>   0.4000 
 50 H        1.4960    -7.1080     0.7430 H     1 <1>   0.1500 
 51 H        3.9630    -6.7980     1.6060 H     1 <1>   0.1500 
 52 H       -4.5900     4.3350    -0.3570 H     1 <1>   0.0800 
 53 H       -5.4940     4.6330     1.0910 H     1 <1>   0.0800 
 54 H       -7.5250     3.6330     0.9670 H     1 <1>   0.4000 
 55 H       -5.9800     3.1070    -2.0450 H     1 <1>   0.0800 
 56 H       -7.0800     4.1520    -1.2020 H     1 <1>   0.0800 
 57 H       -7.4890     2.4730    -1.4710 H     1 <1>   0.0800 
@<TRIPOS>BOND
  1   1   2  2   
  2   1   3  2   
  3   1   4  am  
  4   1   5  1   
  5   4   6  1   
  6   4   7  1   
  7   5   8  ar  
  8   5   9  ar  
  9   6  10  1   
 10   6  31  1   
 11   6  32  1   
 12   7  11  1   
 13   7  33  1   
 14   7  34  1   
 15   8  12  1   
 16   8  13  ar  
 17   9  14  ar  
 18   9  35  1   
 19  10  15  1   
 20  10  36  1   
 21  10  37  1   
 22  11  15  1   
 23  11  38  1   
 24  11  39  1   
 25  12  16  1   
 26  13  17  ar  
 27  13  40  1   
 28  14  17  ar  
 29  14  18  1   
 30  15  19  1   
 31  15  20  1   
 32  16  41  1   
 33  16  42  1   
 34  16  43  1   
 35  17  44  1   
 36  18  21  1   
 37  18  22  1   
 38  19  23  1   
 39  20  24  1   
 40  20  25  1   
 41  20  45  1   
 42  21  26  2   
 43  22  27  2   
 44  22  46  1   
 45  23  28  1   
 46  23  47  1   
 47  23  48  1   
 48  24  49  1   
 49  25  28  1   
 50  25  29  1   
 51  25  30  1   
 52  26  27  1   
 53  26  50  1   
 54  27  51  1   
 55  28  52  1   
 56  28  53  1   
 57  29  54  1   
 58  30  55  1   
 59  30  56  1   
 60  30  57  1   
@<TRIPOS>SUBSTRUCTURE
  1 ****   4 GROUP 4 **** **** 0

# MOE 2024.06 (io_trps.svl 2023.06)
