@<TRIPOS>MOLECULE
NONAME
51 54 1 0 0 
SMALL
USER_CHARGES


@<TRIPOS>ATOM
  1 CL      -2.7020    -1.5230    -3.6000 Cl    1 <1>  -0.1770 
  2 C       -3.9930    -2.1010    -2.5780 C.ar  1 <1>   0.1770 
  3 C       -4.4430    -1.3180    -1.5410 C.ar  1 <1>  -0.1500 
  4 C       -4.5450    -3.3580    -2.8450 C.ar  1 <1>  -0.1500 
  5 C       -5.4780    -1.8220    -0.7490 C.ar  1 <1>  -0.1520 
  6 C       -5.5650    -3.8430    -2.0540 C.ar  1 <1>  -0.1500 
  7 N       -6.1490    -1.3260     0.3170 N.pl3 1 <1>   0.0330 
  8 C       -6.0310    -3.0660    -0.9900 C.ar  1 <1>   0.2270 
  9 C       -7.0580    -2.2740     0.6660 C.2   1 <1>   0.0060 
 10 N       -7.0150    -3.3320    -0.0790 N.2   1 <1>  -0.5650 
 11 C       -8.0040    -2.0280     1.8410 C.3   1 <1>   0.0200 
 12 C       -8.9380    -3.2070     2.1550 C.3   1 <1>  -0.1600 
 13 C       -9.9610    -3.4630     1.0390 C.3   1 <1>   0.2090 
 14 N      -10.3240    -4.8970     1.0290 N.pl3 1 <1>  -0.8690 
 15 C       -9.6340    -5.9550     0.5890 C.ar  1 <1>   0.7710 
 16 N      -10.2360    -7.1240     0.6670 N.ar  1 <1>  -0.6200 
 17 N       -8.3860    -5.8040     0.1130 N.ar  1 <1>  -0.1790 
 18 C       -9.5760    -8.1890     0.2490 C.ar  1 <1>   0.4100 
 19 C       -7.6620    -6.8700    -0.2910 C.ar  1 <1>   0.2110 
 20 N      -10.2140    -9.3880     0.2960 N.pl3 1 <1>  -0.8380 
 21 C       -8.2520    -8.0870    -0.2270 C.ar  1 <1>  -0.1500 
 22 C       -9.9620   -10.5250    -0.6480 C.3   1 <1>   0.2090 
 23 C      -11.3160    -9.6760     1.2670 C.3   1 <1>   0.2090 
 24 C       -9.5970   -11.7950     0.1380 C.3   1 <1>   0.2000 
 25 C      -10.9710   -10.9370     2.0720 C.3   1 <1>  -0.1600 
 26 O       -9.4590   -12.8590    -0.7350 O.3   1 <1>  -0.6800 
 27 C      -10.6740   -12.1490     1.1700 C.3   1 <1>  -0.1600 
 28 H       -4.0090    -0.3520    -1.3520 H     1 <1>   0.1500 
 29 H       -4.1580    -3.9270    -3.6730 H     1 <1>   0.1500 
 30 H       -6.0060    -4.8010    -2.2490 H     1 <1>   0.1500 
 31 H       -5.9920    -0.4130     0.7570 H     1 <1>   0.2700 
 32 H       -8.5930    -1.1500     1.6400 H     1 <1>   0.0800 
 33 H       -7.4090    -1.8260     2.7150 H     1 <1>   0.0800 
 34 H       -9.4740    -2.9960     3.0640 H     1 <1>   0.0800 
 35 H       -8.3310    -4.0760     2.3350 H     1 <1>   0.0800 
 36 H       -9.5700    -3.1900     0.0730 H     1 <1>   0.0800 
 37 H      -10.8430    -2.8660     1.2060 H     1 <1>   0.0800 
 38 H      -11.2600    -5.1180     1.3900 H     1 <1>   0.4000 
 39 H       -8.0070    -4.8480     0.1040 H     1 <1>   0.4570 
 40 H       -6.6530    -6.7170    -0.6380 H     1 <1>   0.1500 
 41 H       -7.7240    -8.9750    -0.5150 H     1 <1>   0.1500 
 42 H       -9.1780   -10.2910    -1.3430 H     1 <1>   0.0800 
 43 H      -10.8620   -10.7030    -1.2110 H     1 <1>   0.0800 
 44 H      -12.2350    -9.8210     0.7260 H     1 <1>   0.0800 
 45 H      -11.4560    -8.8540     1.9480 H     1 <1>   0.0800 
 46 H       -8.6470   -11.6500     0.6220 H     1 <1>   0.0800 
 47 H      -11.7910   -11.1710     2.7280 H     1 <1>   0.0800 
 48 H      -10.1140   -10.7260     2.6870 H     1 <1>   0.0800 
 49 H      -10.3340   -13.1820    -1.0230 H     1 <1>   0.4000 
 50 H      -10.3370   -12.9720     1.7750 H     1 <1>   0.0800 
 51 H      -11.5810   -12.4350     0.6670 H     1 <1>   0.0800 
@<TRIPOS>BOND
  1   1   2  1   
  2   2   3  ar  
  3   2   4  ar  
  4   3   5  ar  
  5   3  28  1   
  6   4   6  ar  
  7   4  29  1   
  8   5   7  1   
  9   5   8  ar  
 10   6   8  ar  
 11   6  30  1   
 12   7   9  1   
 13   7  31  1   
 14   8  10  1   
 15   9  10  2   
 16   9  11  1   
 17  11  12  1   
 18  11  32  1   
 19  11  33  1   
 20  12  13  1   
 21  12  34  1   
 22  12  35  1   
 23  13  14  1   
 24  13  36  1   
 25  13  37  1   
 26  14  15  1   
 27  14  38  1   
 28  15  16  ar  
 29  15  17  ar  
 30  16  18  ar  
 31  17  19  ar  
 32  17  39  1   
 33  18  20  1   
 34  18  21  ar  
 35  19  21  ar  
 36  19  40  1   
 37  20  22  1   
 38  20  23  1   
 39  21  41  1   
 40  22  24  1   
 41  22  42  1   
 42  22  43  1   
 43  23  25  1   
 44  23  44  1   
 45  23  45  1   
 46  24  26  1   
 47  24  27  1   
 48  24  46  1   
 49  25  27  1   
 50  25  47  1   
 51  25  48  1   
 52  26  49  1   
 53  27  50  1   
 54  27  51  1   
@<TRIPOS>SUBSTRUCTURE
  1 ****  17 GROUP 4 **** **** 0

# MOE 2024.06 (io_trps.svl 2023.06)
