@<TRIPOS>MOLECULE
NONAME
49 50 1 0 0 
SMALL
USER_CHARGES


@<TRIPOS>ATOM
  1 S        0.1150     0.0860    -1.1340 S.o2  1 <1>   1.3330 
  2 O       -0.5670     0.0100    -2.4050 O.2   1 <1>  -0.6500 
  3 O        1.4530     0.6200    -1.0410 O.2   1 <1>  -0.6500 
  4 N       -0.8780     0.9290    -0.0440 N.am  1 <1>  -0.8490 
  5 C        0.1060    -1.5770    -0.4510 C.3   1 <1>  -0.0550 
  6 C       -1.6000     2.0280    -0.6970 C.3   1 <1>   0.1160 
  7 C       -0.1450     1.4550     1.1160 C.3   1 <1>   0.1160 
  8 C       -1.2980    -2.2130    -0.4390 C.3   1 <1>  -0.1600 
  9 C       -1.2710    -3.6470     0.0870 C.3   1 <1>   0.3430 
 10 N       -2.6070    -4.2810    -0.0870 N.4   1 <1>  -0.9590 
 11 C       -3.6350    -3.7070     0.8360 C.3   1 <1>   0.3430 
 12 C       -2.5080    -5.7610     0.0660 C.3   1 <1>   0.3430 
 13 C       -5.0020    -4.3140     0.5270 C.3   1 <1>  -0.1600 
 14 C       -3.8540    -6.4080    -0.2590 C.3   1 <1>  -0.1600 
 15 C       -4.9810    -5.8510     0.6330 C.3   1 <1>  -0.0800 
 16 C       -6.3520    -6.4790     0.2940 C.3   1 <1>   0.3800 
 17 O       -7.2900    -5.9850     1.1720 O.3   1 <1>  -0.6800 
 18 C       -6.3730    -7.9940     0.4070 C.2   1 <1>  -0.1400 
 19 S       -5.9530    -8.7280     1.9520 S.3   1 <1>  -0.0800 
 20 C       -6.6650    -8.9480    -0.4980 C.2   1 <1>  -0.1500 
 21 C       -6.1910   -10.3400     1.3040 C.2   1 <1>  -0.1100 
 22 C       -6.5610   -10.2820     0.0120 C.2   1 <1>  -0.1500 
 23 H        0.4990    -1.5450     0.5470 H     1 <1>   0.0800 
 24 H        0.7640    -2.1840    -1.0420 H     1 <1>   0.0800 
 25 H       -2.2300     1.6440    -1.4820 H     1 <1>   0.0800 
 26 H       -0.9030     2.7300    -1.1280 H     1 <1>   0.0800 
 27 H       -2.2240     2.5420     0.0130 H     1 <1>   0.0800 
 28 H        0.3780     0.6610     1.6190 H     1 <1>   0.0800 
 29 H       -0.8300     1.9070     1.8130 H     1 <1>   0.0800 
 30 H        0.5730     2.1960     0.8030 H     1 <1>   0.0800 
 31 H       -1.6800    -2.2080    -1.4460 H     1 <1>   0.0800 
 32 H       -1.9400    -1.6030     0.1720 H     1 <1>   0.0800 
 33 H       -0.9860    -3.6580     1.1270 H     1 <1>   0.0800 
 34 H       -0.5360    -4.2060    -0.4710 H     1 <1>   0.0800 
 35 H       -2.9240    -4.0950    -1.0480 H     1 <1>   0.4500 
 36 H       -3.6910    -2.6370     0.7170 H     1 <1>   0.0800 
 37 H       -3.3700    -3.9220     1.8590 H     1 <1>   0.0800 
 38 H       -2.2290    -6.0060     1.0790 H     1 <1>   0.0800 
 39 H       -1.7550    -6.1540    -0.5980 H     1 <1>   0.0800 
 40 H       -5.3200    -4.0080    -0.4540 H     1 <1>   0.0800 
 41 H       -5.7130    -3.9150     1.2310 H     1 <1>   0.0800 
 42 H       -3.7610    -7.4700    -0.1040 H     1 <1>   0.0800 
 43 H       -4.0860    -6.2540    -1.2980 H     1 <1>   0.0800 
 44 H       -4.7520    -6.1130     1.6530 H     1 <1>   0.0800 
 45 H       -6.6580    -6.1930    -0.6970 H     1 <1>   0.0800 
 46 H       -7.9720    -6.6720     1.3120 H     1 <1>   0.4000 
 47 H       -6.9580    -8.7800    -1.5200 H     1 <1>   0.1500 
 48 H       -6.0290   -11.1710     1.9680 H     1 <1>   0.1500 
 49 H       -6.7710   -11.1320    -0.6150 H     1 <1>   0.1500 
@<TRIPOS>BOND
  1   1   2  2   
  2   1   3  2   
  3   1   4  am  
  4   1   5  1   
  5   4   6  1   
  6   4   7  1   
  7   5   8  1   
  8   5  23  1   
  9   5  24  1   
 10   6  25  1   
 11   6  26  1   
 12   6  27  1   
 13   7  28  1   
 14   7  29  1   
 15   7  30  1   
 16   8   9  1   
 17   8  31  1   
 18   8  32  1   
 19   9  10  1   
 20   9  33  1   
 21   9  34  1   
 22  10  11  1   
 23  10  12  1   
 24  10  35  1   
 25  11  13  1   
 26  11  36  1   
 27  11  37  1   
 28  12  14  1   
 29  12  38  1   
 30  12  39  1   
 31  13  15  1   
 32  13  40  1   
 33  13  41  1   
 34  14  15  1   
 35  14  42  1   
 36  14  43  1   
 37  15  16  1   
 38  15  44  1   
 39  16  17  1   
 40  16  18  1   
 41  16  45  1   
 42  17  46  1   
 43  18  19  1   
 44  18  20  2   
 45  19  21  1   
 46  20  22  1   
 47  20  47  1   
 48  21  22  2   
 49  21  48  1   
 50  22  49  1   
@<TRIPOS>SUBSTRUCTURE
  1 ****  10 GROUP 4 **** **** 0

# MOE 2024.06 (io_trps.svl 2023.06)
