@<TRIPOS>MOLECULE
NONAME
46 48 1 0 0 
SMALL
USER_CHARGES


@<TRIPOS>ATOM
  1 S        2.0410     0.5370     2.0290 S.3   1 <1>  -0.0800 
  2 C        1.6380     1.3540     0.5250 C.2   1 <1>  -0.1400 
  3 C        1.6350    -1.0270     1.3450 C.2   1 <1>  -0.1100 
  4 C        1.2310     0.4580    -0.3970 C.2   1 <1>  -0.1500 
  5 C        1.8090     2.8640     0.5040 C.3   1 <1>   0.3800 
  6 C        1.2290    -0.8950     0.0690 C.2   1 <1>  -0.1500 
  7 O        1.2000     3.3510    -0.6370 O.3   1 <1>  -0.6800 
  8 C        3.2960     3.2900     0.5010 C.3   1 <1>  -0.0800 
  9 C        3.4510     4.8250     0.5230 C.3   1 <1>  -0.1600 
 10 C        4.0810     2.6960    -0.6890 C.3   1 <1>  -0.1600 
 11 C        4.9140     5.2580     0.4680 C.3   1 <1>   0.3430 
 12 C        5.5310     3.1730    -0.7220 C.3   1 <1>   0.3430 
 13 N        5.5620     4.6590    -0.7340 N.4   1 <1>  -0.9590 
 14 C        6.9490     5.2130    -0.9580 C.3   1 <1>   0.4040 
 15 C        6.9470     6.7140    -1.2910 C.2   1 <1>   0.5690 
 16 O        6.0110     7.1440    -1.9220 O.2   1 <1>  -0.5700 
 17 N        7.9450     7.5220    -0.8540 N.am  1 <1>  -0.7300 
 18 C        7.9620     8.9940    -0.9940 C.3   1 <1>   0.3200 
 19 C        8.3100     9.5800     0.3600 C.2   1 <1>  -0.0400 
 20 O        9.4050     9.1620     0.9710 O.3   1 <1>  -0.2800 
 21 C        7.6710    10.5010     1.1130 C.2   1 <1>  -0.1500 
 22 C        9.4920     9.8080     2.1170 C.2   1 <1>  -0.0100 
 23 C        8.4490    10.6510     2.2680 C.2   1 <1>  -0.1500 
 24 H        1.7440    -1.8890     1.9790 H     1 <1>   0.1500 
 25 H        0.9290     0.6860    -1.4050 H     1 <1>   0.1500 
 26 H        1.2990     3.2920     1.3510 H     1 <1>   0.0800 
 27 H        0.9230    -1.7010    -0.5750 H     1 <1>   0.1500 
 28 H        0.2960     2.9840    -0.6870 H     1 <1>   0.4000 
 29 H        3.7340     2.9070     1.4070 H     1 <1>   0.0800 
 30 H        3.0050     5.2190     1.4200 H     1 <1>   0.0800 
 31 H        2.9310     5.2660    -0.3110 H     1 <1>   0.0800 
 32 H        3.6060     2.9600    -1.6180 H     1 <1>   0.0800 
 33 H        4.0790     1.6210    -0.6250 H     1 <1>   0.0800 
 34 H        5.4230     4.9340     1.3610 H     1 <1>   0.0800 
 35 H        4.9620     6.3350     0.4160 H     1 <1>   0.0800 
 36 H        6.0130     2.7830    -1.6040 H     1 <1>   0.0800 
 37 H        6.0520     2.8010     0.1460 H     1 <1>   0.0800 
 38 H        5.0020     4.9900    -1.5390 H     1 <1>   0.4500 
 39 H        7.4090     4.6990    -1.7840 H     1 <1>   0.0800 
 40 H        7.5520     5.0500    -0.0820 H     1 <1>   0.0800 
 41 H        8.7170     7.1990    -0.2620 H     1 <1>   0.3700 
 42 H        7.0040     9.3610    -1.3240 H     1 <1>   0.0800 
 43 H        8.7110     9.2780    -1.7130 H     1 <1>   0.0800 
 44 H        6.7590    11.0330     0.9070 H     1 <1>   0.1500 
 45 H       10.3280     9.6100     2.7650 H     1 <1>   0.1500 
 46 H        8.2330    11.3140     3.0880 H     1 <1>   0.1500 
@<TRIPOS>BOND
  1   1   2  1   
  2   1   3  1   
  3   2   4  2   
  4   2   5  1   
  5   3   6  2   
  6   3  24  1   
  7   4   6  1   
  8   4  25  1   
  9   5   7  1   
 10   5   8  1   
 11   5  26  1   
 12   6  27  1   
 13   7  28  1   
 14   8   9  1   
 15   8  10  1   
 16   8  29  1   
 17   9  11  1   
 18   9  30  1   
 19   9  31  1   
 20  10  12  1   
 21  10  32  1   
 22  10  33  1   
 23  11  13  1   
 24  11  34  1   
 25  11  35  1   
 26  12  13  1   
 27  12  36  1   
 28  12  37  1   
 29  13  14  1   
 30  13  38  1   
 31  14  15  1   
 32  14  39  1   
 33  14  40  1   
 34  15  16  2   
 35  15  17  am  
 36  17  18  1   
 37  17  41  1   
 38  18  19  1   
 39  18  42  1   
 40  18  43  1   
 41  19  20  1   
 42  19  21  2   
 43  20  22  1   
 44  21  23  1   
 45  21  44  1   
 46  22  23  2   
 47  22  45  1   
 48  23  46  1   
@<TRIPOS>SUBSTRUCTURE
  1 ****  11 GROUP 4 **** **** 0

# MOE 2024.06 (io_trps.svl 2023.06)
