@<TRIPOS>MOLECULE
NONAME
44 46 1 0 0 
SMALL
USER_CHARGES


@<TRIPOS>ATOM
  1 CL      -0.9980    -0.0090    -1.7100 Cl    1 <1>  -0.1770 
  2 C       -1.9470    -0.8030    -0.4670 C.ar  1 <1>   0.1770 
  3 C       -2.6320    -0.1240     0.5510 C.ar  1 <1>   0.0830 
  4 C       -1.9950    -2.1810    -0.5530 C.ar  1 <1>  -0.1500 
  5 O       -2.6830     1.2140     0.7740 O.3   1 <1>  -0.3630 
  6 C       -3.3530    -0.8840     1.4600 C.ar  1 <1>  -0.1500 
  7 C       -2.7250    -2.9460     0.3530 C.ar  1 <1>   0.0860 
  8 C       -1.8970     2.1710     0.1030 C.3   1 <1>   0.0400 
  9 C       -3.3960    -2.2630     1.3680 C.ar  1 <1>  -0.1500 
 10 C       -2.7680    -4.3910     0.2390 C.2   1 <1>   0.5440 
 11 O       -1.7410    -5.0050     0.0220 O.2   1 <1>  -0.5700 
 12 N       -3.9450    -5.0960     0.3500 N.am  1 <1>  -0.6600 
 13 C       -5.2970    -4.5300     0.1100 C.3   1 <1>   0.1400 
 14 C       -3.9830    -6.5790     0.2650 C.3   1 <1>   0.1400 
 15 C       -6.1230    -5.7040    -0.4120 C.3   1 <1>   0.2000 
 16 C       -5.4650    -6.9460     0.1810 C.3   1 <1>  -0.0800 
 17 O       -7.4460    -5.6190    -0.0080 O.3   1 <1>  -0.6800 
 18 C       -5.7370    -8.2230    -0.6280 C.3   1 <1>   0.0210 
 19 C       -4.9900    -9.4030    -0.0410 C.2   1 <1>   0.1080 
 20 N       -5.2290    -9.8660     1.1460 N.2   1 <1>  -0.7070 
 21 C       -3.9750   -10.1040    -0.6850 C.2   1 <1>  -0.1500 
 22 N       -4.3650   -10.8890     1.2920 N.pl3 1 <1>   0.3000 
 23 C       -3.5930   -11.0510     0.1970 C.2   1 <1>  -0.3320 
 24 C       -2.5220   -12.1170     0.0590 C.3   1 <1>  -0.0600 
 25 H       -1.4540    -2.6810    -1.3380 H     1 <1>   0.1500 
 26 H       -3.8800    -0.3800     2.2520 H     1 <1>   0.1500 
 27 H       -2.0650     3.1250     0.5690 H     1 <1>   0.0800 
 28 H       -2.2020     2.2150    -0.9270 H     1 <1>   0.0800 
 29 H       -0.8600     1.9020     0.1940 H     1 <1>   0.0800 
 30 H       -3.9510    -2.8260     2.0980 H     1 <1>   0.1500 
 31 H       -5.6990    -4.1700     1.0400 H     1 <1>   0.0800 
 32 H       -5.2600    -3.7360    -0.6160 H     1 <1>   0.0800 
 33 H       -3.4560    -6.8940    -0.6200 H     1 <1>   0.0800 
 34 H       -3.5170    -7.0230     1.1290 H     1 <1>   0.0800 
 35 H       -6.0950    -5.7160    -1.4880 H     1 <1>   0.0800 
 36 H       -5.8100    -7.0910     1.1900 H     1 <1>   0.0800 
 37 H       -7.5200    -5.8050     0.9480 H     1 <1>   0.4000 
 38 H       -5.4400    -8.0840    -1.6520 H     1 <1>   0.0800 
 39 H       -6.7900    -8.4400    -0.6120 H     1 <1>   0.0800 
 40 H       -3.5950    -9.9100    -1.6720 H     1 <1>   0.1500 
 41 H       -4.3270   -11.4540     2.1490 H     1 <1>   0.2700 
 42 H       -2.0470   -12.0400    -0.9040 H     1 <1>   0.0800 
 43 H       -2.9560   -13.0960     0.1500 H     1 <1>   0.0800 
 44 H       -1.7730   -11.9910     0.8200 H     1 <1>   0.0800 
@<TRIPOS>BOND
  1   1   2  1   
  2   2   3  ar  
  3   2   4  ar  
  4   3   5  1   
  5   3   6  ar  
  6   4   7  ar  
  7   4  25  1   
  8   5   8  1   
  9   6   9  ar  
 10   6  26  1   
 11   7   9  ar  
 12   7  10  1   
 13   8  27  1   
 14   8  28  1   
 15   8  29  1   
 16   9  30  1   
 17  10  11  2   
 18  10  12  am  
 19  12  13  1   
 20  12  14  1   
 21  13  15  1   
 22  13  31  1   
 23  13  32  1   
 24  14  16  1   
 25  14  33  1   
 26  14  34  1   
 27  15  16  1   
 28  15  17  1   
 29  15  35  1   
 30  16  18  1   
 31  16  36  1   
 32  17  37  1   
 33  18  19  1   
 34  18  38  1   
 35  18  39  1   
 36  19  20  2   
 37  19  21  1   
 38  20  22  1   
 39  21  23  2   
 40  21  40  1   
 41  22  23  1   
 42  22  41  1   
 43  23  24  1   
 44  24  42  1   
 45  24  43  1   
 46  24  44  1   
@<TRIPOS>SUBSTRUCTURE
  1 ****  12 GROUP 4 **** **** 0

# MOE 2024.06 (io_trps.svl 2023.06)
