@<TRIPOS>MOLECULE
NONAME
53 56 1 0 0 
SMALL
USER_CHARGES


@<TRIPOS>ATOM
  1 O        1.7500    -0.3520    -2.1440 O.2   1 <1>  -0.5700 
  2 C        2.4160    -1.0040    -1.3750 C.2   1 <1>   0.5690 
  3 N        2.5140    -0.7260    -0.0410 N.am  1 <1>  -0.6600 
  4 C        3.2160    -2.1750    -1.9100 C.3   1 <1>  -0.0990 
  5 C        3.3370    -1.5880     0.8440 C.3   1 <1>   0.1400 
  6 C        1.9090     0.4810     0.5770 C.3   1 <1>   0.0600 
  7 C        3.1370    -3.4060    -0.9830 C.3   1 <1>  -0.0800 
  8 C        3.0620    -3.0680     0.5210 C.3   1 <1>  -0.0800 
  9 C        4.3280    -4.3510    -1.1680 C.3   1 <1>  -0.1600 
 10 C        4.0280    -4.0170     1.2480 C.3   1 <1>  -0.1600 
 11 C        4.5720    -4.9880     0.1970 C.3   1 <1>   0.2200 
 12 N        6.0020    -5.3800     0.3910 N.am  1 <1>  -0.6600 
 13 C        7.0910    -4.5440     0.1910 C.2   1 <1>   0.5440 
 14 C        6.2150    -6.8550     0.3870 C.3   1 <1>   0.0600 
 15 O        8.0680    -4.9900    -0.3810 O.2   1 <1>  -0.5700 
 16 C        7.1200    -3.1750     0.6590 C.ar  1 <1>   0.0860 
 17 C        6.9440    -2.0960    -0.1920 C.ar  1 <1>  -0.1500 
 18 C        7.3320    -2.9160     2.0290 C.ar  1 <1>  -0.1500 
 19 C        6.9090    -0.7920     0.3050 C.ar  1 <1>   0.0000 
 20 C        7.3230    -1.6390     2.5360 C.ar  1 <1>  -0.1500 
 21 C        7.0990    -0.5730     1.6640 C.ar  1 <1>  -0.1520 
 22 C        6.6930     0.4780    -0.2780 C.2   1 <1>  -0.1810 
 23 N        7.0190     0.7730     1.8960 N.pl3 1 <1>   0.0330 
 24 C        6.7640     1.4030     0.7100 C.2   1 <1>  -0.3320 
 25 C        6.4260     0.6740    -1.7590 C.3   1 <1>  -0.0590 
 26 C        6.6050     2.9120     0.6520 C.3   1 <1>  -0.0600 
 27 H        2.8660    -2.4310    -2.8930 H     1 <1>   0.0800 
 28 H        4.2310    -1.8370    -1.9980 H     1 <1>   0.0800 
 29 H        4.3730    -1.3540     0.6840 H     1 <1>   0.0800 
 30 H        3.1020    -1.3910     1.8760 H     1 <1>   0.0800 
 31 H        1.2300     0.1880     1.3580 H     1 <1>   0.0800 
 32 H        1.3660     1.0500    -0.1580 H     1 <1>   0.0800 
 33 H        2.6850     1.1020     0.9900 H     1 <1>   0.0800 
 34 H        2.2380    -3.9470    -1.2270 H     1 <1>   0.0800 
 35 H        2.0620    -3.2820     0.8590 H     1 <1>   0.0800 
 36 H        5.1920    -3.8020    -1.4840 H     1 <1>   0.0800 
 37 H        4.1150    -5.1020    -1.9080 H     1 <1>   0.0800 
 38 H        3.5060    -4.5660     2.0110 H     1 <1>   0.0800 
 39 H        4.8080    -3.4610     1.7210 H     1 <1>   0.0800 
 40 H        3.9570    -5.8720     0.2430 H     1 <1>   0.0800 
 41 H        5.5810    -7.3210     1.1200 H     1 <1>   0.0800 
 42 H        7.2390    -7.0870     0.6250 H     1 <1>   0.0800 
 43 H        5.9890    -7.2500    -0.5880 H     1 <1>   0.0800 
 44 H        6.8270    -2.2520    -1.2470 H     1 <1>   0.1500 
 45 H        7.5000    -3.7560     2.6800 H     1 <1>   0.1500 
 46 H        7.4840    -1.4530     3.5830 H     1 <1>   0.1500 
 47 H        7.1390     1.2240     2.8080 H     1 <1>   0.2700 
 48 H        7.1760     0.1630    -2.3350 H     1 <1>   0.0800 
 49 H        6.4480     1.7140    -2.0200 H     1 <1>   0.0800 
 50 H        5.4590     0.2780    -2.0090 H     1 <1>   0.0800 
 51 H        6.3750     3.2380    -0.3450 H     1 <1>   0.0800 
 52 H        7.5150     3.3910     0.9650 H     1 <1>   0.0800 
 53 H        5.8050     3.2240     1.3000 H     1 <1>   0.0800 
@<TRIPOS>BOND
  1   1   2  2   
  2   2   3  am  
  3   2   4  1   
  4   3   5  1   
  5   3   6  1   
  6   4   7  1   
  7   4  27  1   
  8   4  28  1   
  9   5   8  1   
 10   5  29  1   
 11   5  30  1   
 12   6  31  1   
 13   6  32  1   
 14   6  33  1   
 15   7   8  1   
 16   7   9  1   
 17   7  34  1   
 18   8  10  1   
 19   8  35  1   
 20   9  11  1   
 21   9  36  1   
 22   9  37  1   
 23  10  11  1   
 24  10  38  1   
 25  10  39  1   
 26  11  12  1   
 27  11  40  1   
 28  12  13  am  
 29  12  14  1   
 30  13  15  2   
 31  13  16  1   
 32  14  41  1   
 33  14  42  1   
 34  14  43  1   
 35  16  17  ar  
 36  16  18  ar  
 37  17  19  ar  
 38  17  44  1   
 39  18  20  ar  
 40  18  45  1   
 41  19  21  ar  
 42  19  22  1   
 43  20  21  ar  
 44  20  46  1   
 45  21  23  1   
 46  22  24  2   
 47  22  25  1   
 48  23  24  1   
 49  23  47  1   
 50  24  26  1   
 51  25  48  1   
 52  25  49  1   
 53  25  50  1   
 54  26  51  1   
 55  26  52  1   
 56  26  53  1   
@<TRIPOS>SUBSTRUCTURE
  1 ****  17 GROUP 4 **** **** 0

# MOE 2024.06 (io_trps.svl 2023.06)
