@<TRIPOS>MOLECULE
NONAME
53 55 1 0 0 
SMALL
USER_CHARGES


@<TRIPOS>ATOM
  1 O       -0.1800     1.3010    -1.2950 O.2   1 <1>  -0.5700 
  2 C       -0.3070     2.4850    -1.0870 C.2   1 <1>   0.5690 
  3 N       -1.1060     2.9720    -0.0870 N.am  1 <1>  -0.6600 
  4 C        0.4440     3.4600    -1.9960 C.3   1 <1>   0.1810 
  5 C       -1.2540     4.4470     0.1380 C.3   1 <1>   0.3640 
  6 C       -1.7990     2.0830     0.8910 C.3   1 <1>   0.0600 
  7 O        0.6680     4.7080    -1.3880 O.3   1 <1>  -0.5600 
  8 C       -2.7280     4.8630     0.2540 C.ar  1 <1>  -0.1430 
  9 C       -0.5110     5.3260    -0.9000 C.3   1 <1>   0.2610 
 10 C       -3.7270     4.5270    -0.6660 C.ar  1 <1>  -0.1430 
 11 C       -3.0680     5.6370     1.3580 C.ar  1 <1>  -0.1500 
 12 C       -0.2180     6.7070    -0.2960 C.2   1 <1>   0.5690 
 13 C       -5.0270     4.9640    -0.4500 C.ar  1 <1>  -0.1500 
 14 C       -3.4820     3.6840    -1.9140 C.3   1 <1>  -0.0960 
 15 C       -4.3650     6.0690     1.5600 C.ar  1 <1>  -0.1500 
 16 O       -0.8650     7.6360    -0.7270 O.2   1 <1>  -0.5700 
 17 N        0.7270     6.9120     0.6860 N.am  1 <1>  -0.6600 
 18 C       -5.3480     5.7300     0.6530 C.ar  1 <1>  -0.1500 
 19 C        0.9290     8.2740     1.2760 C.3   1 <1>   0.3200 
 20 C        1.7200     5.9010     1.1650 C.3   1 <1>   0.0600 
 21 C        2.3490     8.7770     1.0550 C.2   1 <1>   0.0060 
 22 N        3.2160     8.8850     2.0140 N.2   1 <1>  -0.5650 
 23 N        2.8300     9.1560    -0.1580 N.pl3 1 <1>   0.0480 
 24 C        4.3160     9.3600     1.4030 C.2   1 <1>   0.0770 
 25 C        4.1000     9.5300     0.0830 C.2   1 <1>  -0.3020 
 26 C        2.1640     9.1650    -1.4800 C.3   1 <1>   0.0960 
 27 C        1.3400    10.4410    -1.6680 C.3   1 <1>  -0.2400 
 28 H       -0.1140     3.6140    -2.9020 H     1 <1>   0.0800 
 29 H        1.4020     3.0430    -2.2460 H     1 <1>   0.0800 
 30 H       -0.7970     4.6410     1.0910 H     1 <1>   0.0800 
 31 H       -1.5000     2.3360     1.8920 H     1 <1>   0.0800 
 32 H       -1.5510     1.0510     0.7090 H     1 <1>   0.0800 
 33 H       -2.8650     2.1970     0.8030 H     1 <1>   0.0800 
 34 H       -1.1520     5.4880    -1.7450 H     1 <1>   0.0800 
 35 H       -2.3210     5.9200     2.0790 H     1 <1>   0.1500 
 36 H       -5.8070     4.7100    -1.1460 H     1 <1>   0.1500 
 37 H       -4.3150     3.7500    -2.5910 H     1 <1>   0.0800 
 38 H       -3.3580     2.6510    -1.6420 H     1 <1>   0.0800 
 39 H       -2.6110     4.0130    -2.4430 H     1 <1>   0.0800 
 40 H       -4.6090     6.6680     2.4200 H     1 <1>   0.1500 
 41 H       -6.3600     6.0620     0.8040 H     1 <1>   0.1500 
 42 H        0.2340     8.9850     0.8690 H     1 <1>   0.0800 
 43 H        0.7450     8.2200     2.3350 H     1 <1>   0.0800 
 44 H        1.8790     6.0170     2.2240 H     1 <1>   0.0800 
 45 H        2.6590     6.0550     0.6610 H     1 <1>   0.0800 
 46 H        1.3930     4.8960     0.9790 H     1 <1>   0.0800 
 47 H        5.2200     9.5580     1.9550 H     1 <1>   0.1500 
 48 H        4.7660     9.8910    -0.6790 H     1 <1>   0.1500 
 49 H        2.9190     9.1030    -2.2420 H     1 <1>   0.0800 
 50 H        1.5360     8.2990    -1.5660 H     1 <1>   0.0800 
 51 H        1.9680    11.3100    -1.5820 H     1 <1>   0.0800 
 52 H        0.5540    10.4940    -0.9370 H     1 <1>   0.0800 
 53 H        0.8890    10.4390    -2.6440 H     1 <1>   0.0800 
@<TRIPOS>BOND
  1   1   2  2   
  2   2   3  am  
  3   2   4  1   
  4   3   5  1   
  5   3   6  1   
  6   4   7  1   
  7   4  28  1   
  8   4  29  1   
  9   5   8  1   
 10   5   9  1   
 11   5  30  1   
 12   6  31  1   
 13   6  32  1   
 14   6  33  1   
 15   7   9  1   
 16   8  10  ar  
 17   8  11  ar  
 18   9  12  1   
 19   9  34  1   
 20  10  13  ar  
 21  10  14  1   
 22  11  15  ar  
 23  11  35  1   
 24  12  16  2   
 25  12  17  am  
 26  13  18  ar  
 27  13  36  1   
 28  14  37  1   
 29  14  38  1   
 30  14  39  1   
 31  15  18  ar  
 32  15  40  1   
 33  17  19  1   
 34  17  20  1   
 35  18  41  1   
 36  19  21  1   
 37  19  42  1   
 38  19  43  1   
 39  20  44  1   
 40  20  45  1   
 41  20  46  1   
 42  21  22  2   
 43  21  23  1   
 44  22  24  1   
 45  23  25  1   
 46  23  26  1   
 47  24  25  2   
 48  24  47  1   
 49  25  48  1   
 50  26  27  1   
 51  26  49  1   
 52  26  50  1   
 53  27  51  1   
 54  27  52  1   
 55  27  53  1   
@<TRIPOS>SUBSTRUCTURE
  1 ****  12 GROUP 4 **** **** 0

# MOE 2024.06 (io_trps.svl 2023.06)
