@<TRIPOS>MOLECULE
NONAME
31 32 1 0 0 
SMALL
USER_CHARGES


@<TRIPOS>ATOM
  1 S       -1.4240    -0.9980    -2.4720 S.3   1 <1>  -0.1970 
  2 C       -2.7170    -0.8960    -1.2960 C.2   1 <1>   0.2420 
  3 C       -0.3730    -0.1610    -1.3080 C.2   1 <1>   0.5310 
  4 N       -3.9500    -1.2740    -1.2700 N.2   1 <1>  -0.5650 
  5 N       -2.2440    -0.2740    -0.2060 N.pl3 1 <1>   0.5050 
  6 N       -0.9200     0.1470    -0.2030 N.2   1 <1>  -0.6520 
  7 C       -4.3260    -0.8550    -0.0270 C.2   1 <1>   0.0460 
  8 C       -3.2990    -0.2460     0.6270 C.2   1 <1>  -0.3020 
  9 C       -5.7410    -1.0920     0.5040 C.3   1 <1>   0.4010 
 10 N       -6.0250    -2.5270     0.4440 N.am  1 <1>  -0.7300 
 11 C       -6.7830    -0.3610    -0.3380 C.3   1 <1>  -0.2400 
 12 C       -6.5800    -3.2700     1.4290 C.2   1 <1>   0.5690 
 13 O       -6.9810    -2.7680     2.4510 O.2   1 <1>  -0.5700 
 14 C       -6.7160    -4.7790     1.2600 C.3   1 <1>   0.1310 
 15 S       -5.8160    -5.4060    -0.2100 S.3   1 <1>  -0.4600 
 16 C       -6.0060    -7.2040    -0.1040 C.3   1 <1>   0.0700 
 17 C       -7.4260    -7.5640    -0.5350 C.3   1 <1>  -0.2400 
 18 H        0.6380     0.0190    -1.6290 H     1 <1>   0.0600 
 19 H       -3.2420     0.1900     1.6060 H     1 <1>   0.1500 
 20 H       -5.8010    -0.7520     1.5240 H     1 <1>   0.0800 
 21 H       -5.6180    -2.9920    -0.3760 H     1 <1>   0.3700 
 22 H       -6.7440    -0.7000    -1.3570 H     1 <1>   0.0800 
 23 H       -6.5850     0.6950    -0.3200 H     1 <1>   0.0800 
 24 H       -7.7650    -0.5350     0.0630 H     1 <1>   0.0800 
 25 H       -7.7500    -5.0380     1.1400 H     1 <1>   0.0800 
 26 H       -6.3100    -5.2790     2.1190 H     1 <1>   0.0800 
 27 H       -5.8000    -7.5000     0.9100 H     1 <1>   0.0800 
 28 H       -5.2760    -7.6350    -0.7680 H     1 <1>   0.0800 
 29 H       -8.1480    -7.1420     0.1390 H     1 <1>   0.0800 
 30 H       -7.5450    -8.6330    -0.5370 H     1 <1>   0.0800 
 31 H       -7.6140    -7.1970    -1.5290 H     1 <1>   0.0800 
@<TRIPOS>BOND
  1   1   2  1   
  2   1   3  1   
  3   2   4  2   
  4   2   5  1   
  5   3   6  2   
  6   3  18  1   
  7   4   7  1   
  8   5   6  1   
  9   5   8  1   
 10   7   8  2   
 11   7   9  1   
 12   8  19  1   
 13   9  10  1   
 14   9  11  1   
 15   9  20  1   
 16  10  12  am  
 17  10  21  1   
 18  11  22  1   
 19  11  23  1   
 20  11  24  1   
 21  12  13  2   
 22  12  14  1   
 23  14  15  1   
 24  14  25  1   
 25  14  26  1   
 26  15  16  1   
 27  16  17  1   
 28  16  27  1   
 29  16  28  1   
 30  17  29  1   
 31  17  30  1   
 32  17  31  1   
@<TRIPOS>SUBSTRUCTURE
  1 ****   7 GROUP 4 **** **** 0

# MOE 2024.06 (io_trps.svl 2023.06)
