@<TRIPOS>MOLECULE
NONAME
54 56 1 0 0 
SMALL
USER_CHARGES


@<TRIPOS>ATOM
  1 F       -1.4160    -1.0670     0.7230 F     1 <1>  -0.1900 
  2 C       -2.5220    -0.3790     0.6030 C.ar  1 <1>   0.1900 
  3 C       -2.5550     1.0100     0.7690 C.ar  1 <1>   0.0830 
  4 C       -3.6630    -1.0990     0.3050 C.ar  1 <1>  -0.1500 
  5 O       -1.5030     1.8270     1.0630 O.3   1 <1>  -0.3630 
  6 C       -3.7780     1.6450     0.6240 C.ar  1 <1>  -0.1500 
  7 C       -4.8670    -0.4330     0.1670 C.ar  1 <1>  -0.1500 
  8 C       -0.1800     1.3590     1.2000 C.3   1 <1>   0.0400 
  9 C       -4.9530     0.9530     0.3200 C.ar  1 <1>   0.0530 
 10 C       -6.2050     1.6570     0.1800 C.2   1 <1>   0.0870 
 11 O       -6.4060     2.7920     0.8020 O.3   1 <1>  -0.0190 
 12 C       -7.3460     1.3810    -0.5030 C.2   1 <1>  -0.0860 
 13 N       -7.5970     3.2870     0.5900 N.2   1 <1>  -0.4100 
 14 C       -8.1840     2.4560    -0.2000 C.2   1 <1>   0.3720 
 15 C       -7.6690     0.2740    -1.3420 C.2   1 <1>   0.7160 
 16 N       -9.4950     2.6140    -0.6760 N.pl3 1 <1>  -0.8210 
 17 O       -7.1540     0.1990    -2.4430 O.2   1 <1>  -0.5700 
 18 N       -8.5070    -0.7410    -0.9210 N.am  1 <1>  -0.6600 
 19 C       -9.5830     2.9000    -2.1340 C.3   1 <1>   0.1290 
 20 C      -10.3640     3.5230     0.1230 C.3   1 <1>   0.1290 
 21 C       -8.7430    -1.9640    -1.7370 C.3   1 <1>   0.1400 
 22 C       -9.2290    -0.7180     0.3820 C.3   1 <1>   0.1400 
 23 C       -8.3370    -3.2000    -0.9300 C.3   1 <1>  -0.1600 
 24 C       -8.8220    -1.9400     1.2070 C.3   1 <1>  -0.1600 
 25 C       -9.0540    -3.2320     0.4240 C.3   1 <1>   0.2000 
 26 O       -8.5300    -4.2730     1.1860 O.3   1 <1>  -0.5600 
 27 C       -9.1320    -5.5180     1.0280 C.3   1 <1>   0.1200 
 28 C      -10.3240    -5.6170     1.9780 C.3   1 <1>  -0.2400 
 29 H       -3.6080    -2.1660     0.1840 H     1 <1>   0.1500 
 30 H       -3.8130     2.7120     0.7480 H     1 <1>   0.1500 
 31 H       -5.7490    -1.0060    -0.0580 H     1 <1>   0.1500 
 32 H        0.4530     2.2030     1.4060 H     1 <1>   0.0800 
 33 H        0.1240     0.8910     0.2800 H     1 <1>   0.0800 
 34 H       -0.1360     0.6640     2.0200 H     1 <1>   0.0800 
 35 H       -8.9340     2.2460    -2.6900 H     1 <1>   0.0800 
 36 H       -9.2920     3.9180    -2.3280 H     1 <1>   0.0800 
 37 H      -10.5930     2.7480    -2.4750 H     1 <1>   0.0800 
 38 H      -10.2890     3.2740     1.1680 H     1 <1>   0.0800 
 39 H      -11.3890     3.4170    -0.1850 H     1 <1>   0.0800 
 40 H      -10.0540     4.5460    -0.0130 H     1 <1>   0.0800 
 41 H       -8.1770    -1.9320    -2.6530 H     1 <1>   0.0800 
 42 H       -9.7870    -2.0170    -1.9930 H     1 <1>   0.0800 
 43 H      -10.2890    -0.7370     0.1920 H     1 <1>   0.0800 
 44 H       -9.0140     0.1760     0.9390 H     1 <1>   0.0800 
 45 H       -7.2730    -3.1770    -0.7750 H     1 <1>   0.0800 
 46 H       -8.5790    -4.0790    -1.4970 H     1 <1>   0.0800 
 47 H       -9.3980    -1.9640     2.1130 H     1 <1>   0.0800 
 48 H       -7.7820    -1.8540     1.4670 H     1 <1>   0.0800 
 49 H      -10.1120    -3.3810     0.2870 H     1 <1>   0.0800 
 50 H       -8.3980    -6.2620     1.2860 H     1 <1>   0.0800 
 51 H       -9.4260    -5.6600     0.0020 H     1 <1>   0.0800 
 52 H      -10.0000    -5.4480     2.9900 H     1 <1>   0.0800 
 53 H      -10.7530    -6.6000     1.9180 H     1 <1>   0.0800 
 54 H      -11.0830    -4.9010     1.7210 H     1 <1>   0.0800 
@<TRIPOS>BOND
  1   1   2  1   
  2   2   3  ar  
  3   2   4  ar  
  4   3   5  1   
  5   3   6  ar  
  6   4   7  ar  
  7   4  29  1   
  8   5   8  1   
  9   6   9  ar  
 10   6  30  1   
 11   7   9  ar  
 12   7  31  1   
 13   8  32  1   
 14   8  33  1   
 15   8  34  1   
 16   9  10  1   
 17  10  11  1   
 18  10  12  2   
 19  11  13  1   
 20  12  14  1   
 21  12  15  1   
 22  13  14  2   
 23  14  16  1   
 24  15  17  2   
 25  15  18  am  
 26  16  19  1   
 27  16  20  1   
 28  18  21  1   
 29  18  22  1   
 30  19  35  1   
 31  19  36  1   
 32  19  37  1   
 33  20  38  1   
 34  20  39  1   
 35  20  40  1   
 36  21  23  1   
 37  21  41  1   
 38  21  42  1   
 39  22  24  1   
 40  22  43  1   
 41  22  44  1   
 42  23  25  1   
 43  23  45  1   
 44  23  46  1   
 45  24  25  1   
 46  24  47  1   
 47  24  48  1   
 48  25  26  1   
 49  25  49  1   
 50  26  27  1   
 51  27  28  1   
 52  27  50  1   
 53  27  51  1   
 54  28  52  1   
 55  28  53  1   
 56  28  54  1   
@<TRIPOS>SUBSTRUCTURE
  1 ****  12 GROUP 4 **** **** 0

# MOE 2024.06 (io_trps.svl 2023.06)
