@<TRIPOS>MOLECULE
NONAME
58 60 1 0 0 
SMALL
USER_CHARGES


@<TRIPOS>ATOM
  1 O       -2.2560     1.0230    -2.4010 O.2   1 <1>  -0.5700 
  2 C       -2.1750     1.2710    -1.2140 C.2   1 <1>   0.5440 
  3 N       -2.3710     0.2260    -0.3320 N.am  1 <1>  -0.6600 
  4 C       -1.9640     2.6340    -0.7770 C.ar  1 <1>   0.0860 
  5 C       -2.9160     0.4180     1.0440 C.3   1 <1>   0.1400 
  6 C       -2.4360    -1.1870    -0.8050 C.3   1 <1>   0.1400 
  7 C       -0.9940     2.9920     0.1670 C.ar  1 <1>   0.0830 
  8 C       -2.7610     3.6570    -1.2860 C.ar  1 <1>  -0.1500 
  9 C       -4.3730    -0.0930     1.1290 C.3   1 <1>   0.4230 
 10 C       -3.8920    -1.6780    -0.7620 C.3   1 <1>   0.3430 
 11 O       -0.1660     2.0690     0.6970 O.3   1 <1>  -0.3630 
 12 C       -0.8620     4.2980     0.6080 C.ar  1 <1>  -0.1500 
 13 C       -2.6350     4.9660    -0.8650 C.ar  1 <1>   0.0820 
 14 N       -4.5150    -1.5180     0.6110 N.4   1 <1>  -0.9590 
 15 C       -5.3280     0.8640     0.3770 C.3   1 <1>   0.1200 
 16 C        0.9380     1.6860    -0.0940 C.3   1 <1>   0.0400 
 17 C       -1.6820     5.3030     0.1090 C.ar  1 <1>   0.0830 
 18 O       -3.4940     5.8520    -1.4390 O.3   1 <1>  -0.3630 
 19 C       -5.9670    -1.9160     0.6550 C.3   1 <1>   0.4230 
 20 O       -6.6460     0.4010     0.4640 O.3   1 <1>  -0.5600 
 21 O       -1.5940     6.5870     0.5490 O.3   1 <1>  -0.3630 
 22 C       -2.9950     7.0840    -1.9140 C.3   1 <1>   0.0400 
 23 C       -6.8590    -0.8760    -0.0670 C.3   1 <1>   0.1200 
 24 C       -6.1550    -3.3430     0.1150 C.3   1 <1>  -0.1600 
 25 C       -0.7160     6.9750     1.5840 C.3   1 <1>   0.0400 
 26 C       -7.5250    -3.9330     0.4840 C.3   1 <1>  -0.1600 
 27 C       -7.6420    -5.3820     0.0030 C.3   1 <1>  -0.2400 
 28 H       -2.2990    -0.1170     1.7440 H     1 <1>   0.0800 
 29 H       -2.8880     1.4560     1.3270 H     1 <1>   0.0800 
 30 H       -2.0590    -1.2690    -1.8110 H     1 <1>   0.0800 
 31 H       -1.8160    -1.8040    -0.1780 H     1 <1>   0.0800 
 32 H       -3.5000     3.4250    -2.0340 H     1 <1>   0.1500 
 33 H       -4.6640    -0.0680     2.1670 H     1 <1>   0.0800 
 34 H       -3.9150    -2.7130    -1.0600 H     1 <1>   0.0800 
 35 H       -4.4540    -1.1140    -1.4880 H     1 <1>   0.0800 
 36 H       -0.1100     4.5010     1.3460 H     1 <1>   0.1500 
 37 H       -4.0050    -2.1300     1.2570 H     1 <1>   0.4500 
 38 H       -5.0600     0.9570    -0.6610 H     1 <1>   0.0800 
 39 H       -5.3000     1.8440     0.8230 H     1 <1>   0.0800 
 40 H        1.5310     0.9880     0.4680 H     1 <1>   0.0800 
 41 H        1.5210     2.5600    -0.3260 H     1 <1>   0.0800 
 42 H        0.5850     1.2240    -0.9990 H     1 <1>   0.0800 
 43 H       -6.2790    -1.9240     1.6870 H     1 <1>   0.0800 
 44 H       -3.6610     7.4430    -2.6780 H     1 <1>   0.0800 
 45 H       -2.0110     6.9340    -2.3230 H     1 <1>   0.0800 
 46 H       -2.9660     7.7860    -1.1010 H     1 <1>   0.0800 
 47 H       -7.8990    -1.1090     0.0800 H     1 <1>   0.0800 
 48 H       -6.6630    -0.8500    -1.1250 H     1 <1>   0.0800 
 49 H       -6.0570    -3.3550    -0.9560 H     1 <1>   0.0800 
 50 H       -5.3970    -3.9810     0.5370 H     1 <1>   0.0800 
 51 H       -0.8610     8.0240     1.7680 H     1 <1>   0.0800 
 52 H        0.2970     6.7970     1.2690 H     1 <1>   0.0800 
 53 H       -0.9510     6.4130     2.4700 H     1 <1>   0.0800 
 54 H       -7.6630    -3.9110     1.5530 H     1 <1>   0.0800 
 55 H       -8.3190    -3.3610     0.0340 H     1 <1>   0.0800 
 56 H       -6.8890    -6.0000     0.4600 H     1 <1>   0.0800 
 57 H       -7.5370    -5.4400    -1.0670 H     1 <1>   0.0800 
 58 H       -8.6070    -5.7790     0.2670 H     1 <1>   0.0800 
@<TRIPOS>BOND
  1   1   2  2   
  2   2   3  am  
  3   2   4  1   
  4   3   5  1   
  5   3   6  1   
  6   4   7  ar  
  7   4   8  ar  
  8   5   9  1   
  9   5  28  1   
 10   5  29  1   
 11   6  10  1   
 12   6  30  1   
 13   6  31  1   
 14   7  11  1   
 15   7  12  ar  
 16   8  13  ar  
 17   8  32  1   
 18   9  14  1   
 19   9  15  1   
 20   9  33  1   
 21  10  14  1   
 22  10  34  1   
 23  10  35  1   
 24  11  16  1   
 25  12  17  ar  
 26  12  36  1   
 27  13  17  ar  
 28  13  18  1   
 29  14  19  1   
 30  14  37  1   
 31  15  20  1   
 32  15  38  1   
 33  15  39  1   
 34  16  40  1   
 35  16  41  1   
 36  16  42  1   
 37  17  21  1   
 38  18  22  1   
 39  19  23  1   
 40  19  24  1   
 41  19  43  1   
 42  20  23  1   
 43  21  25  1   
 44  22  44  1   
 45  22  45  1   
 46  22  46  1   
 47  23  47  1   
 48  23  48  1   
 49  24  26  1   
 50  24  49  1   
 51  24  50  1   
 52  25  51  1   
 53  25  52  1   
 54  25  53  1   
 55  26  27  1   
 56  26  54  1   
 57  26  55  1   
 58  27  56  1   
 59  27  57  1   
 60  27  58  1   
@<TRIPOS>SUBSTRUCTURE
  1 ****   3 GROUP 4 **** **** 0

# MOE 2024.06 (io_trps.svl 2023.06)
