@<TRIPOS>MOLECULE
NONAME
47 49 1 0 0 
SMALL
USER_CHARGES


@<TRIPOS>ATOM
  1 O        0.2950     1.8020     3.6900 O.2   1 <1>  -0.5700 
  2 C        0.4570     2.2790     2.5900 C.2   1 <1>   0.5690 
  3 N       -0.4950     2.1930     1.6080 N.am  1 <1>  -0.6600 
  4 C        1.7950     2.9780     2.3020 C.3   1 <1>   0.1710 
  5 C       -0.3110     2.8490     0.2770 C.3   1 <1>   0.1400 
  6 C       -1.8020     1.5230     1.8450 C.3   1 <1>   0.2840 
  7 N        1.7920     3.8900     1.1210 N.3   1 <1>  -0.8100 
  8 C        1.1610     3.1920    -0.0190 C.3   1 <1>   0.1100 
  9 C       -2.0060     0.3940     0.8440 C.ar  1 <1>  -0.1440 
 10 C        3.1670     4.3170     0.7900 C.3   1 <1>   0.2900 
 11 C       -1.1750    -0.7150     0.8770 C.ar  1 <1>  -0.1500 
 12 C       -3.0150     0.4590    -0.1060 C.ar  1 <1>  -0.1500 
 13 C        3.1420     5.4550    -0.2110 C.2   1 <1>   0.0070 
 14 C       -1.3490    -1.7450    -0.0300 C.ar  1 <1>  -0.1500 
 15 C       -3.1920    -0.5710    -1.0150 C.ar  1 <1>  -0.1500 
 16 N        3.9280     5.5930    -1.2220 N.2   1 <1>  -0.3380 
 17 N        2.2650     6.4520    -0.1390 N.pl3 1 <1>   0.0330 
 18 C       -2.3550    -1.6830    -0.9800 C.ar  1 <1>   0.0820 
 19 N        3.5650     6.7180    -1.8450 N.2   1 <1>  -0.3380 
 20 C        2.5730     7.2130    -1.1870 C.2   1 <1>   0.0060 
 21 O       -2.4600    -2.7340    -1.8310 O.3   1 <1>  -0.3620 
 22 C        1.8440     8.4940    -1.5480 C.3   1 <1>   0.0200 
 23 C       -3.4730    -2.7880    -2.8100 C.3   1 <1>   0.0400 
 24 C        0.3880     8.2220    -1.9410 C.3   1 <1>  -0.2400 
 25 H        2.5300     2.2060     2.1590 H     1 <1>   0.0800 
 26 H        2.0700     3.5390     3.1770 H     1 <1>   0.0800 
 27 H       -0.8930     3.7530     0.2520 H     1 <1>   0.0800 
 28 H       -0.6700     2.2000    -0.5020 H     1 <1>   0.0800 
 29 H       -2.5900     2.2500     1.7550 H     1 <1>   0.0800 
 30 H       -1.8440     1.1180     2.8410 H     1 <1>   0.0800 
 31 H        1.1950     3.8120    -0.9000 H     1 <1>   0.0800 
 32 H        1.6970     2.2840    -0.2390 H     1 <1>   0.0800 
 33 H        3.7320     3.4930     0.3870 H     1 <1>   0.0800 
 34 H        3.6620     4.6640     1.6800 H     1 <1>   0.0800 
 35 H       -0.3900    -0.7750     1.6110 H     1 <1>   0.1500 
 36 H       -3.6690     1.3120    -0.1430 H     1 <1>   0.1500 
 37 H       -0.7060    -2.6060    -0.0050 H     1 <1>   0.1500 
 38 H       -3.9810    -0.4910    -1.7370 H     1 <1>   0.1500 
 39 H        1.5250     6.5570     0.5580 H     1 <1>   0.2700 
 40 H        2.3530     8.9600    -2.3750 H     1 <1>   0.0800 
 41 H        1.8810     9.1730    -0.7150 H     1 <1>   0.0800 
 42 H       -3.3650    -3.7110    -3.3510 H     1 <1>   0.0800 
 43 H       -3.3550    -1.9560    -3.4810 H     1 <1>   0.0800 
 44 H       -4.4310    -2.7600    -2.3230 H     1 <1>   0.0800 
 45 H        0.3560     7.5360    -2.7690 H     1 <1>   0.0800 
 46 H       -0.0910     9.1390    -2.2350 H     1 <1>   0.0800 
 47 H       -0.1550     7.7980    -1.1160 H     1 <1>   0.0800 
@<TRIPOS>BOND
  1   1   2  2   
  2   2   3  am  
  3   2   4  1   
  4   3   5  1   
  5   3   6  1   
  6   4   7  1   
  7   4  25  1   
  8   4  26  1   
  9   5   8  1   
 10   5  27  1   
 11   5  28  1   
 12   6   9  1   
 13   6  29  1   
 14   6  30  1   
 15   7   8  1   
 16   7  10  1   
 17   8  31  1   
 18   8  32  1   
 19   9  11  ar  
 20   9  12  ar  
 21  10  13  1   
 22  10  33  1   
 23  10  34  1   
 24  11  14  ar  
 25  11  35  1   
 26  12  15  ar  
 27  12  36  1   
 28  13  16  2   
 29  13  17  1   
 30  14  18  ar  
 31  14  37  1   
 32  15  18  ar  
 33  15  38  1   
 34  16  19  1   
 35  17  20  1   
 36  17  39  1   
 37  18  21  1   
 38  19  20  2   
 39  20  22  1   
 40  21  23  1   
 41  22  24  1   
 42  22  40  1   
 43  22  41  1   
 44  23  42  1   
 45  23  43  1   
 46  23  44  1   
 47  24  45  1   
 48  24  46  1   
 49  24  47  1   
@<TRIPOS>SUBSTRUCTURE
  1 ****   5 GROUP 4 **** **** 0

# MOE 2024.06 (io_trps.svl 2023.06)
