@<TRIPOS>MOLECULE
NONAME
45 46 1 0 0 
SMALL
USER_CHARGES


@<TRIPOS>ATOM
  1 O        0.3410     2.3160    -2.5910 O.co2 1 <1>  -0.9000 
  2 C       -0.4370     1.7050    -1.8520 C.2   1 <1>   0.9060 
  3 O       -0.9670     0.6300    -2.1880 O.co2 1 <1>  -0.9000 
  4 C       -0.7210     2.1850    -0.4010 C.3   1 <1>   0.4600 
  5 N       -1.7180     1.2800     0.3190 N.4   1 <1>  -0.9590 
  6 C       -1.0920     3.6610    -0.2020 C.ar  1 <1>  -0.1430 
  7 C       -3.0880     1.4700    -0.2460 C.3   1 <1>   0.3430 
  8 C       -1.6200     1.3760     1.7990 C.3   1 <1>   0.2630 
  9 C       -2.0020     4.3440    -1.0070 C.ar  1 <1>   0.0830 
 10 C       -0.4830     4.3530     0.8350 C.ar  1 <1>  -0.1500 
 11 C       -4.0430     0.3250     0.1030 C.3   1 <1>   0.0000 
 12 O       -2.6320     3.7110    -2.0180 O.3   1 <1>  -0.3630 
 13 C       -2.2990     5.6770    -0.7660 C.ar  1 <1>  -0.1500 
 14 C       -0.7750     5.6840     1.0850 C.ar  1 <1>   0.0830 
 15 C       -5.4370     0.5770    -0.4920 C.3   1 <1>   0.2580 
 16 C       -4.7880     0.5170     1.4330 C.3   1 <1>   0.2580 
 17 C       -3.5080    -1.1010    -0.1600 C.3   1 <1>  -0.2400 
 18 C       -2.2370     4.0780    -3.3250 C.3   1 <1>   0.0400 
 19 C       -1.6900     6.3500     0.2770 C.ar  1 <1>  -0.1500 
 20 O       -0.1300     6.2590     2.1320 O.3   1 <1>  -0.3630 
 21 O       -5.9830     0.1640     0.7550 O.3   1 <1>  -0.5160 
 22 C       -0.2310     7.6460     2.3720 C.3   1 <1>   0.0400 
 23 H        0.2290     2.0550     0.0830 H     1 <1>   0.0800 
 24 H       -1.4330     0.3520    -0.0500 H     1 <1>   0.4500 
 25 H       -3.0110     1.5070    -1.3220 H     1 <1>   0.0800 
 26 H       -3.4970     2.4120     0.0820 H     1 <1>   0.0800 
 27 H       -1.9300     2.3560     2.1250 H     1 <1>   0.0800 
 28 H       -0.6030     1.2120     2.1150 H     1 <1>   0.0800 
 29 H       -2.2490     0.6360     2.2650 H     1 <1>   0.0800 
 30 H        0.2410     3.8730     1.4690 H     1 <1>   0.1500 
 31 H       -3.0100     6.1830    -1.3940 H     1 <1>   0.1500 
 32 H       -5.7350    -0.0970    -1.2750 H     1 <1>   0.0000 
 33 H       -5.6790     1.6110    -0.6700 H     1 <1>   0.0000 
 34 H       -4.8500     1.5350     1.7780 H     1 <1>   0.0000 
 35 H       -4.5610    -0.2060     2.1960 H     1 <1>   0.0000 
 36 H       -3.1530    -1.1800    -1.1750 H     1 <1>   0.0800 
 37 H       -4.2860    -1.8300    -0.0160 H     1 <1>   0.0800 
 38 H       -2.6990    -1.3390     0.5060 H     1 <1>   0.0800 
 39 H       -2.5730     3.3160    -4.0050 H     1 <1>   0.0800 
 40 H       -1.1630     4.1480    -3.3670 H     1 <1>   0.0800 
 41 H       -2.6820     5.0240    -3.5740 H     1 <1>   0.0800 
 42 H       -1.9390     7.3810     0.4430 H     1 <1>   0.1500 
 43 H        0.4070     7.8880     3.2040 H     1 <1>   0.0800 
 44 H       -1.2510     7.8870     2.6120 H     1 <1>   0.0800 
 45 H        0.0960     8.1770     1.4950 H     1 <1>   0.0800 
@<TRIPOS>BOND
  1   1   2  ar  
  2   2   3  ar  
  3   2   4  1   
  4   4   5  1   
  5   4   6  1   
  6   4  23  1   
  7   5   7  1   
  8   5   8  1   
  9   5  24  1   
 10   6   9  ar  
 11   6  10  ar  
 12   7  11  1   
 13   7  25  1   
 14   7  26  1   
 15   8  27  1   
 16   8  28  1   
 17   8  29  1   
 18   9  12  1   
 19   9  13  ar  
 20  10  14  ar  
 21  10  30  1   
 22  11  15  1   
 23  11  16  1   
 24  11  17  1   
 25  12  18  1   
 26  13  19  ar  
 27  13  31  1   
 28  14  19  ar  
 29  14  20  1   
 30  15  21  1   
 31  15  32  1   
 32  15  33  1   
 33  16  21  1   
 34  16  34  1   
 35  16  35  1   
 36  17  36  1   
 37  17  37  1   
 38  17  38  1   
 39  18  39  1   
 40  18  40  1   
 41  18  41  1   
 42  19  42  1   
 43  20  22  1   
 44  22  43  1   
 45  22  44  1   
 46  22  45  1   
@<TRIPOS>SUBSTRUCTURE
  1 ****   6 GROUP 4 **** **** 0

# MOE 2024.06 (io_trps.svl 2023.06)
