@<TRIPOS>MOLECULE
NONAME
48 50 1 0 0 
SMALL
USER_CHARGES


@<TRIPOS>ATOM
  1 O        1.8000     0.6390    -1.3150 O.3   1 <1>  -0.3630 
  2 C        1.2090     0.5390    -0.0960 C.ar  1 <1>   0.0830 
  3 C        1.0120     1.1940    -2.3440 C.3   1 <1>   0.0400 
  4 C        0.9040     1.6830     0.6530 C.ar  1 <1>   0.0830 
  5 C        0.9030    -0.7250     0.4060 C.ar  1 <1>  -0.1440 
  6 O        1.2230     2.9350     0.2430 O.3   1 <1>  -0.3620 
  7 C        0.2510     1.5620     1.8670 C.ar  1 <1>  -0.1500 
  8 C        0.2600    -0.8220     1.6350 C.ar  1 <1>  -0.1500 
  9 C        1.2490    -2.0050    -0.3640 C.3   1 <1>   0.0630 
 10 C        2.5990     3.2460     0.2110 C.3   1 <1>   0.0400 
 11 C       -0.0710     0.3100     2.3580 C.ar  1 <1>  -0.1500 
 12 C        0.0280    -2.8820    -0.6520 C.3   1 <1>   0.2090 
 13 C        2.2170    -2.9100     0.3940 C.3   1 <1>  -0.1600 
 14 N        0.4480    -4.2920    -0.4220 N.pl3 1 <1>  -0.8380 
 15 C        1.8930    -4.3130    -0.0940 C.3   1 <1>   0.2090 
 16 C       -0.3850    -5.0710     0.3600 C.ar  1 <1>   0.4100 
 17 N       -0.4530    -4.7160     1.6400 N.ar  1 <1>  -0.6200 
 18 C       -1.0930    -6.1480    -0.1910 C.ar  1 <1>   0.0730 
 19 C       -1.2400    -5.4370     2.4110 C.ar  1 <1>   0.1670 
 20 C       -0.9550    -6.4500    -1.5840 C.1   1 <1>   0.4840 
 21 C       -1.9170    -6.8960     0.6390 C.ar  1 <1>  -0.1430 
 22 C       -1.9790    -6.5190     1.9660 C.ar  1 <1>  -0.1500 
 23 C       -1.3030    -5.0150     3.8630 C.3   1 <1>  -0.0970 
 24 N       -0.8910    -6.7400    -2.6870 N.1   1 <1>  -0.5570 
 25 C       -2.7280    -8.0860     0.1380 C.3   1 <1>  -0.0970 
 26 H        1.5560     1.1130    -3.2670 H     1 <1>   0.0800 
 27 H        0.8160     2.2280    -2.1250 H     1 <1>   0.0800 
 28 H        0.0890     0.6450    -2.4090 H     1 <1>   0.0800 
 29 H        0.0030     2.4470     2.4230 H     1 <1>   0.1500 
 30 H        0.0090    -1.7910     2.0380 H     1 <1>   0.1500 
 31 H        1.6940    -1.7730    -1.3140 H     1 <1>   0.0800 
 32 H        2.7030     4.2880    -0.0290 H     1 <1>   0.0800 
 33 H        3.0820     2.6470    -0.5390 H     1 <1>   0.0800 
 34 H        3.0220     3.0450     1.1800 H     1 <1>   0.0800 
 35 H       -0.5740     0.2160     3.3050 H     1 <1>   0.1500 
 36 H       -0.2930    -2.7560    -1.6710 H     1 <1>   0.0800 
 37 H       -0.7920    -2.6310    -0.0010 H     1 <1>   0.0800 
 38 H        2.0300    -2.8720     1.4520 H     1 <1>   0.0800 
 39 H        3.2420    -2.6470     0.2120 H     1 <1>   0.0800 
 40 H        2.1160    -5.0500     0.6610 H     1 <1>   0.0800 
 41 H        2.4500    -4.5390    -0.9870 H     1 <1>   0.0800 
 42 H       -2.6000    -7.0610     2.6550 H     1 <1>   0.1500 
 43 H       -0.3180    -5.0570     4.2910 H     1 <1>   0.0800 
 44 H       -1.9560    -5.6540     4.4280 H     1 <1>   0.0800 
 45 H       -1.6630    -4.0040     3.9270 H     1 <1>   0.0800 
 46 H       -3.4120    -7.7710    -0.6300 H     1 <1>   0.0800 
 47 H       -3.2960    -8.5300     0.9360 H     1 <1>   0.0800 
 48 H       -2.0730    -8.8360    -0.2680 H     1 <1>   0.0800 
@<TRIPOS>BOND
  1   1   2  1   
  2   1   3  1   
  3   2   4  ar  
  4   2   5  ar  
  5   3  26  1   
  6   3  27  1   
  7   3  28  1   
  8   4   6  1   
  9   4   7  ar  
 10   5   8  ar  
 11   5   9  1   
 12   6  10  1   
 13   7  11  ar  
 14   7  29  1   
 15   8  11  ar  
 16   8  30  1   
 17   9  12  1   
 18   9  13  1   
 19   9  31  1   
 20  10  32  1   
 21  10  33  1   
 22  10  34  1   
 23  11  35  1   
 24  12  14  1   
 25  12  36  1   
 26  12  37  1   
 27  13  15  1   
 28  13  38  1   
 29  13  39  1   
 30  14  15  1   
 31  14  16  1   
 32  15  40  1   
 33  15  41  1   
 34  16  17  ar  
 35  16  18  ar  
 36  17  19  ar  
 37  18  20  1   
 38  18  21  ar  
 39  19  22  ar  
 40  19  23  1   
 41  20  24  3   
 42  21  22  ar  
 43  21  25  1   
 44  22  42  1   
 45  23  43  1   
 46  23  44  1   
 47  23  45  1   
 48  25  46  1   
 49  25  47  1   
 50  25  48  1   
@<TRIPOS>SUBSTRUCTURE
  1 ****  12 GROUP 4 **** **** 0

# MOE 2024.06 (io_trps.svl 2023.06)
