@<TRIPOS>MOLECULE
NONAME
52 55 1 0 0 
SMALL
USER_CHARGES


@<TRIPOS>ATOM
  1 O       -2.8350     1.9590    -2.0180 O.2   1 <1>  -0.5700 
  2 C       -2.8130     1.5790    -0.8600 C.2   1 <1>   0.7160 
  3 N       -3.1830     0.2800    -0.5720 N.am  1 <1>  -0.6600 
  4 C       -2.3360     2.4590     0.1580 C.2   1 <1>  -0.0860 
  5 C       -3.4570    -0.7180    -1.6420 C.3   1 <1>   0.1400 
  6 C       -3.3060    -0.2520     0.8150 C.3   1 <1>   0.1400 
  7 C       -3.0180     3.5400     0.7200 C.2   1 <1>   0.3720 
  8 C       -1.1660     2.4260     0.8460 C.2   1 <1>   0.0870 
  9 C       -2.5180    -1.9160    -1.4800 C.3   1 <1>  -0.1600 
 10 C       -2.3670    -1.4460     0.9930 C.3   1 <1>  -0.1600 
 11 N       -2.3220     4.0870     1.6570 N.2   1 <1>  -0.4100 
 12 N       -4.2970     3.9670     0.3480 N.pl3 1 <1>  -0.8210 
 13 O       -1.2090     3.4040     1.7140 O.3   1 <1>  -0.0190 
 14 C       -0.0300     1.5420     0.7760 C.ar  1 <1>   0.0530 
 15 C       -2.6280    -2.5120    -0.0720 C.3   1 <1>   0.2000 
 16 C       -4.3280     4.7280    -0.9380 C.3   1 <1>   0.2090 
 17 C       -5.0590     4.7100     1.3990 C.3   1 <1>   0.2090 
 18 C        0.7430     1.2810     1.9080 C.ar  1 <1>  -0.1500 
 19 C        0.3330     0.9030    -0.4110 C.ar  1 <1>  -0.1500 
 20 O       -1.6640    -3.5020     0.0910 O.3   1 <1>  -0.5600 
 21 C       -5.7720     5.0840    -1.3320 C.3   1 <1>   0.1200 
 22 C       -6.4740     5.0640     0.9050 C.3   1 <1>   0.1200 
 23 C        1.8160     0.4110     1.8640 C.ar  1 <1>  -0.1500 
 24 C        1.4030     0.0290    -0.4600 C.ar  1 <1>  -0.1500 
 25 C       -2.0080    -4.7640    -0.3870 C.3   1 <1>   0.0400 
 26 O       -6.4200     5.7780    -0.3000 O.3   1 <1>  -0.5600 
 27 C        2.1460    -0.2200     0.6790 C.ar  1 <1>  -0.1500 
 28 H       -3.3180    -0.2860    -2.6180 H     1 <1>   0.0800 
 29 H       -4.4820    -1.0400    -1.5670 H     1 <1>   0.0800 
 30 H       -4.3240    -0.5630     0.9770 H     1 <1>   0.0800 
 31 H       -3.0750     0.5020     1.5470 H     1 <1>   0.0800 
 32 H       -1.5070    -1.5910    -1.6560 H     1 <1>   0.0800 
 33 H       -2.7720    -2.6550    -2.2170 H     1 <1>   0.0800 
 34 H       -2.5150    -1.8730     1.9680 H     1 <1>   0.0800 
 35 H       -1.3480    -1.1080     0.9240 H     1 <1>   0.0800 
 36 H       -3.6040    -2.9410     0.0850 H     1 <1>   0.0800 
 37 H       -3.8860     4.1440    -1.7240 H     1 <1>   0.0800 
 38 H       -3.7540     5.6330    -0.8350 H     1 <1>   0.0800 
 39 H       -4.5390     5.6170     1.6560 H     1 <1>   0.0800 
 40 H       -5.1300     4.1020     2.2840 H     1 <1>   0.0800 
 41 H        0.4950     1.7640     2.8370 H     1 <1>   0.1500 
 42 H       -0.2250     1.0890    -1.3110 H     1 <1>   0.1500 
 43 H       -6.3290     4.1900    -1.5500 H     1 <1>   0.0800 
 44 H       -5.7730     5.7140    -2.2030 H     1 <1>   0.0800 
 45 H       -6.9760     5.6800     1.6290 H     1 <1>   0.0800 
 46 H       -7.0500     4.1690     0.7490 H     1 <1>   0.0800 
 47 H        2.3950     0.2220     2.7510 H     1 <1>   0.1500 
 48 H        1.6580    -0.4580    -1.3850 H     1 <1>   0.1500 
 49 H       -1.1930    -5.4330    -0.1750 H     1 <1>   0.0800 
 50 H       -2.1670    -4.7180    -1.4490 H     1 <1>   0.0800 
 51 H       -2.8950    -5.1060     0.1170 H     1 <1>   0.0800 
 52 H        2.9780    -0.9020     0.6420 H     1 <1>   0.1500 
@<TRIPOS>BOND
  1   1   2  2   
  2   2   3  am  
  3   2   4  1   
  4   3   5  1   
  5   3   6  1   
  6   4   7  1   
  7   4   8  2   
  8   5   9  1   
  9   5  28  1   
 10   5  29  1   
 11   6  10  1   
 12   6  30  1   
 13   6  31  1   
 14   7  11  2   
 15   7  12  1   
 16   8  13  1   
 17   8  14  1   
 18   9  15  1   
 19   9  32  1   
 20   9  33  1   
 21  10  15  1   
 22  10  34  1   
 23  10  35  1   
 24  11  13  1   
 25  12  16  1   
 26  12  17  1   
 27  14  18  ar  
 28  14  19  ar  
 29  15  20  1   
 30  15  36  1   
 31  16  21  1   
 32  16  37  1   
 33  16  38  1   
 34  17  22  1   
 35  17  39  1   
 36  17  40  1   
 37  18  23  ar  
 38  18  41  1   
 39  19  24  ar  
 40  19  42  1   
 41  20  25  1   
 42  21  26  1   
 43  21  43  1   
 44  21  44  1   
 45  22  26  1   
 46  22  45  1   
 47  22  46  1   
 48  23  27  ar  
 49  23  47  1   
 50  24  27  ar  
 51  24  48  1   
 52  25  49  1   
 53  25  50  1   
 54  25  51  1   
 55  27  52  1   
@<TRIPOS>SUBSTRUCTURE
  1 ****   4 GROUP 4 **** **** 0

# MOE 2024.06 (io_trps.svl 2023.06)
