@<TRIPOS>MOLECULE
NONAME
50 52 1 0 0 
SMALL
USER_CHARGES


@<TRIPOS>ATOM
  1 O        0.5630    -0.2050    -0.2250 O.3   1 <1>  -0.6800 
  2 C        1.6910    -0.2270    -1.0420 C.3   1 <1>   0.2000 
  3 C        2.6130    -1.3810    -0.6400 C.3   1 <1>  -0.0800 
  4 C        2.5270     1.0340    -0.7760 C.3   1 <1>   0.2090 
  5 C        3.4300    -0.7990     0.5100 C.3   1 <1>   0.2090 
  6 C        1.9380    -2.7200    -0.2940 C.3   1 <1>  -0.0170 
  7 N        3.6370     0.6270     0.1390 N.pl3 1 <1>  -0.8380 
  8 C        2.9880    -3.7790     0.0070 C.ar  1 <1>  -0.1440 
  9 C        4.8610     1.2120     0.1050 C.ar  1 <1>   0.4100 
 10 C        3.6430    -4.4580    -1.0010 C.ar  1 <1>  -0.1500 
 11 C        3.3490    -4.1080     1.2980 C.ar  1 <1>  -0.1500 
 12 N        5.8690     0.4290    -0.2210 N.ar  1 <1>  -0.6200 
 13 C        5.0430     2.5920     0.3900 C.ar  1 <1>  -0.1440 
 14 C        4.6060    -5.4000    -0.6780 C.ar  1 <1>   0.1600 
 15 C        4.3260    -5.0650     1.5120 C.ar  1 <1>   0.1600 
 16 C        7.0770     0.9520    -0.3090 C.ar  1 <1>   0.7710 
 17 C        6.2950     3.1120     0.2460 C.ar  1 <1>   0.2180 
 18 C        3.8550     3.4300     0.8770 C.3   1 <1>  -0.0960 
 19 N        4.9670    -5.7160     0.5550 N.ar  1 <1>  -0.6200 
 20 N        7.2860     2.2600    -0.1070 N.ar  1 <1>  -0.1790 
 21 N        8.1350     0.1480    -0.6160 N.pl3 1 <1>  -0.8380 
 22 C        6.6930     4.5680     0.4530 C.3   1 <1>  -0.0970 
 23 C        7.9260    -1.3010    -0.9560 C.3   1 <1>   0.1290 
 24 C        9.5870     0.5090    -0.5770 C.3   1 <1>   0.1290 
 25 H       -0.0140    -0.9690    -0.4110 H     1 <1>   0.4000 
 26 H        1.3660    -0.2840    -2.0660 H     1 <1>   0.0800 
 27 H        3.2980    -1.5480    -1.4530 H     1 <1>   0.0800 
 28 H        1.9180     1.8020    -0.3320 H     1 <1>   0.0800 
 29 H        2.9470     1.3940    -1.6990 H     1 <1>   0.0800 
 30 H        4.3560    -1.3330     0.6450 H     1 <1>   0.0800 
 31 H        2.8650    -0.8380     1.4260 H     1 <1>   0.0800 
 32 H        1.3350    -3.0470    -1.1230 H     1 <1>   0.0800 
 33 H        1.2930    -2.6060     0.5590 H     1 <1>   0.0800 
 34 H        3.4170    -4.2640    -2.0330 H     1 <1>   0.1500 
 35 H        2.8820    -3.6300     2.1400 H     1 <1>   0.1500 
 36 H        5.1070    -5.9200    -1.4770 H     1 <1>   0.1500 
 37 H        4.5960    -5.3080     2.5260 H     1 <1>   0.1500 
 38 H        4.1650     4.2570     1.4880 H     1 <1>   0.0800 
 39 H        3.1980     2.8310     1.4850 H     1 <1>   0.0800 
 40 H        3.2960     3.8070     0.0390 H     1 <1>   0.0800 
 41 H        8.2390     2.5650    -0.2390 H     1 <1>   0.4570 
 42 H        5.8420     5.2220     0.4060 H     1 <1>   0.0800 
 43 H        7.3770     4.8860    -0.3130 H     1 <1>   0.0800 
 44 H        7.1630     4.6900     1.4130 H     1 <1>   0.0800 
 45 H        8.6490    -1.6220    -1.6870 H     1 <1>   0.0800 
 46 H        6.9460    -1.4730    -1.3680 H     1 <1>   0.0800 
 47 H        8.0350    -1.9030    -0.0700 H     1 <1>   0.0800 
 48 H       10.1450    -0.2800    -0.0980 H     1 <1>   0.0800 
 49 H        9.7650     1.4140    -0.0240 H     1 <1>   0.0800 
 50 H        9.9610     0.6260    -1.5810 H     1 <1>   0.0800 
@<TRIPOS>BOND
  1   1   2  1   
  2   1  25  1   
  3   2   3  1   
  4   2   4  1   
  5   2  26  1   
  6   3   5  1   
  7   3   6  1   
  8   3  27  1   
  9   4   7  1   
 10   4  28  1   
 11   4  29  1   
 12   5   7  1   
 13   5  30  1   
 14   5  31  1   
 15   6   8  1   
 16   6  32  1   
 17   6  33  1   
 18   7   9  1   
 19   8  10  ar  
 20   8  11  ar  
 21   9  12  ar  
 22   9  13  ar  
 23  10  14  ar  
 24  10  34  1   
 25  11  15  ar  
 26  11  35  1   
 27  12  16  ar  
 28  13  17  ar  
 29  13  18  1   
 30  14  19  ar  
 31  14  36  1   
 32  15  19  ar  
 33  15  37  1   
 34  16  20  ar  
 35  16  21  1   
 36  17  20  ar  
 37  17  22  1   
 38  18  38  1   
 39  18  39  1   
 40  18  40  1   
 41  20  41  1   
 42  21  23  1   
 43  21  24  1   
 44  22  42  1   
 45  22  43  1   
 46  22  44  1   
 47  23  45  1   
 48  23  46  1   
 49  23  47  1   
 50  24  48  1   
 51  24  49  1   
 52  24  50  1   
@<TRIPOS>SUBSTRUCTURE
  1 ****   5 GROUP 4 **** **** 0

# MOE 2024.06 (io_trps.svl 2023.06)
