@<TRIPOS>MOLECULE
NONAME
50 52 1 0 0 
SMALL
USER_CHARGES


@<TRIPOS>ATOM
  1 O       -0.4530     0.1260     0.5460 O.2   1 <1>  -0.5700 
  2 C       -1.4050     0.8790     0.6100 C.2   1 <1>   0.5440 
  3 N       -2.6710     0.3320     0.5440 N.am  1 <1>  -0.6600 
  4 C       -1.1930     2.3050     0.7700 C.ar  1 <1>   0.0860 
  5 C       -2.8160    -1.1390     0.3230 C.3   1 <1>   0.1400 
  6 C       -3.9230     1.1480     0.6450 C.3   1 <1>   0.1400 
  7 C       -1.2020     3.1890    -0.3170 C.ar  1 <1>  -0.1440 
  8 C       -0.9860     2.8250     2.0450 C.ar  1 <1>  -0.1500 
  9 C       -4.2510    -1.5960     0.6310 C.3   1 <1>   0.4230 
 10 C       -4.9520     0.6430    -0.3740 C.3   1 <1>  -0.1600 
 11 C       -1.0350     4.5510    -0.1130 C.ar  1 <1>  -0.1500 
 12 C       -1.3870     2.6690    -1.7370 C.3   1 <1>  -0.0960 
 13 C       -0.8180     4.1830     2.2360 C.ar  1 <1>   0.0830 
 14 N       -4.4470    -3.0990     0.7330 N.4   1 <1>  -0.9590 
 15 C       -5.3020    -0.8760    -0.2610 C.3   1 <1>   0.0000 
 16 C       -0.8460     5.0510     1.1620 C.ar  1 <1>  -0.1500 
 17 O       -0.6220     4.6760     3.4680 O.3   1 <1>  -0.5330 
 18 C       -5.8910    -3.5130     0.7090 C.3   1 <1>   0.3430 
 19 C       -3.6440    -3.9110    -0.2410 C.3   1 <1>   0.2630 
 20 C       -6.6760    -1.0680     0.4410 C.3   1 <1>  -0.1600 
 21 C       -5.3240    -1.4690    -1.6980 C.3   1 <1>   0.1200 
 22 C       -6.8030    -2.3940     1.2280 C.3   1 <1>  -0.1600 
 23 O       -6.1750    -0.7560    -2.5290 O.3   1 <1>  -0.6800 
 24 H       -2.5550    -1.3550    -0.6980 H     1 <1>   0.0800 
 25 H       -2.1300    -1.6520     0.9740 H     1 <1>   0.0800 
 26 H       -4.3180     1.0750     1.6440 H     1 <1>   0.0800 
 27 H       -3.7160     2.1870     0.4490 H     1 <1>   0.0800 
 28 H       -0.9570     2.1520     2.8820 H     1 <1>   0.1500 
 29 H       -4.4340    -1.2180     1.6230 H     1 <1>   0.0800 
 30 H       -5.8430     1.2430    -0.3040 H     1 <1>   0.0800 
 31 H       -4.5350     0.8580    -1.3440 H     1 <1>   0.0800 
 32 H       -1.0460     5.2330    -0.9460 H     1 <1>   0.1500 
 33 H       -1.2520     3.4560    -2.4580 H     1 <1>   0.0800 
 34 H       -2.3730     2.2610    -1.8600 H     1 <1>   0.0800 
 35 H       -0.6640     1.8990    -1.9440 H     1 <1>   0.0800 
 36 H       -4.0980    -3.3440     1.6720 H     1 <1>   0.4500 
 37 H       -0.7150     6.1060     1.3270 H     1 <1>   0.1500 
 38 H       -0.5470     3.9890     4.1540 H     1 <1>   0.4500 
 39 H       -6.1860    -3.7530    -0.2990 H     1 <1>   0.0800 
 40 H       -6.0280    -4.4010     1.3070 H     1 <1>   0.0800 
 41 H       -3.9310    -3.6840    -1.2540 H     1 <1>   0.0800 
 42 H       -3.8000    -4.9640    -0.0680 H     1 <1>   0.0800 
 43 H       -2.5910    -3.7040    -0.1280 H     1 <1>   0.0800 
 44 H       -6.8420    -0.2660     1.1420 H     1 <1>   0.0800 
 45 H       -7.4730    -1.0030    -0.2800 H     1 <1>   0.0800 
 46 H       -5.6510    -2.4910    -1.7190 H     1 <1>   0.0800 
 47 H       -4.3450    -1.4150    -2.1430 H     1 <1>   0.0800 
 48 H       -7.8250    -2.7290     1.1910 H     1 <1>   0.0800 
 49 H       -6.5730    -2.2220     2.2660 H     1 <1>   0.0800 
 50 H       -7.1070    -0.8030    -2.2390 H     1 <1>   0.4000 
@<TRIPOS>BOND
  1   1   2  2   
  2   2   3  am  
  3   2   4  1   
  4   3   5  1   
  5   3   6  1   
  6   4   7  ar  
  7   4   8  ar  
  8   5   9  1   
  9   5  24  1   
 10   5  25  1   
 11   6  10  1   
 12   6  26  1   
 13   6  27  1   
 14   7  11  ar  
 15   7  12  1   
 16   8  13  ar  
 17   8  28  1   
 18   9  14  1   
 19   9  15  1   
 20   9  29  1   
 21  10  15  1   
 22  10  30  1   
 23  10  31  1   
 24  11  16  ar  
 25  11  32  1   
 26  12  33  1   
 27  12  34  1   
 28  12  35  1   
 29  13  16  ar  
 30  13  17  1   
 31  14  18  1   
 32  14  19  1   
 33  14  36  1   
 34  15  20  1   
 35  15  21  1   
 36  16  37  1   
 37  17  38  1   
 38  18  22  1   
 39  18  39  1   
 40  18  40  1   
 41  19  41  1   
 42  19  42  1   
 43  19  43  1   
 44  20  22  1   
 45  20  44  1   
 46  20  45  1   
 47  21  23  1   
 48  21  46  1   
 49  21  47  1   
 50  22  48  1   
 51  22  49  1   
 52  23  50  1   
@<TRIPOS>SUBSTRUCTURE
  1 ****   3 GROUP 4 **** **** 0

# MOE 2024.06 (io_trps.svl 2023.06)
