@<TRIPOS>MOLECULE
NONAME
47 48 1 0 0 
SMALL
USER_CHARGES


@<TRIPOS>ATOM
  1 CL      -3.5620    -1.7710     2.4250 Cl    1 <1>  -0.1770 
  2 C       -3.4210    -0.3560     1.4050 C.ar  1 <1>   0.1770 
  3 C       -3.3420    -0.4870     0.0230 C.ar  1 <1>  -0.1440 
  4 C       -3.3970     0.8840     2.0150 C.ar  1 <1>  -0.1500 
  5 C       -3.2430     0.6640    -0.7440 C.ar  1 <1>  -0.1500 
  6 C       -3.3660    -1.8500    -0.6550 C.3   1 <1>  -0.0160 
  7 C       -3.2960     2.0240     1.2370 C.ar  1 <1>  -0.1500 
  8 C       -3.2200     1.9110    -0.1410 C.ar  1 <1>  -0.1500 
  9 C       -4.8070    -2.3480    -0.8120 C.3   1 <1>  -0.0990 
 10 C       -4.8320    -3.7520    -1.3670 C.2   1 <1>   0.5690 
 11 O       -4.9460    -3.9180    -2.5550 O.2   1 <1>  -0.5700 
 12 N       -4.7270    -4.7900    -0.5050 N.am  1 <1>  -0.7300 
 13 C       -4.6590    -6.2170    -0.8980 C.3   1 <1>   0.2200 
 14 C       -5.9910    -6.9100    -0.6600 C.3   1 <1>  -0.0800 
 15 C       -3.7780    -6.9570     0.0980 C.3   1 <1>   0.1200 
 16 C       -5.9270    -7.2660     0.8310 C.3   1 <1>   0.1200 
 17 C       -7.2310    -6.0960    -1.0910 C.3   1 <1>  -0.0550 
 18 O       -4.5870    -7.1470     1.2170 O.3   1 <1>  -0.5600 
 19 S       -8.7740    -7.0090    -1.0140 S.o2  1 <1>   1.3330 
 20 O       -8.5570    -8.3040    -1.6190 O.2   1 <1>  -0.6500 
 21 O       -9.8500    -6.1680    -1.4880 O.2   1 <1>  -0.6500 
 22 N       -9.0210    -7.2480     0.6500 N.am  1 <1>  -0.8490 
 23 C       -9.8250    -8.4430     0.9230 C.3   1 <1>   0.1160 
 24 C       -9.6180    -6.0880     1.3220 C.3   1 <1>   0.1160 
 25 H       -3.4590     0.9530     3.0860 H     1 <1>   0.1500 
 26 H       -3.1830     0.5970    -1.8170 H     1 <1>   0.1500 
 27 H       -2.9060    -1.7870    -1.6260 H     1 <1>   0.0800 
 28 H       -2.7930    -2.5540    -0.0780 H     1 <1>   0.0800 
 29 H       -3.2770     2.9960     1.7010 H     1 <1>   0.1500 
 30 H       -3.1420     2.7980    -0.7470 H     1 <1>   0.1500 
 31 H       -5.3420    -1.6980    -1.4800 H     1 <1>   0.0800 
 32 H       -5.3100    -2.3350     0.1360 H     1 <1>   0.0800 
 33 H       -4.6430    -4.6320     0.5030 H     1 <1>   0.3700 
 34 H       -4.3090    -6.3180    -1.9120 H     1 <1>   0.0800 
 35 H       -5.9830    -7.8330    -1.2140 H     1 <1>   0.0800 
 36 H       -2.8980    -6.4030     0.3730 H     1 <1>   0.0800 
 37 H       -3.5020    -7.9260    -0.2800 H     1 <1>   0.0800 
 38 H       -6.2590    -8.2730     1.0160 H     1 <1>   0.0800 
 39 H       -6.4980    -6.5800     1.4320 H     1 <1>   0.0800 
 40 H       -7.0810    -5.7790    -2.1050 H     1 <1>   0.0800 
 41 H       -7.3130    -5.2120    -0.4920 H     1 <1>   0.0800 
 42 H       -9.9540    -8.5740     1.9830 H     1 <1>   0.0800 
 43 H       -9.3290    -9.3180     0.5350 H     1 <1>   0.0800 
 44 H      -10.7920    -8.3590     0.4540 H     1 <1>   0.0800 
 45 H       -9.6680    -6.2610     2.3840 H     1 <1>   0.0800 
 46 H      -10.6130    -5.9070     0.9490 H     1 <1>   0.0800 
 47 H       -9.0200    -5.2090     1.1490 H     1 <1>   0.0800 
@<TRIPOS>BOND
  1   1   2  1   
  2   2   3  ar  
  3   2   4  ar  
  4   3   5  ar  
  5   3   6  1   
  6   4   7  ar  
  7   4  25  1   
  8   5   8  ar  
  9   5  26  1   
 10   6   9  1   
 11   6  27  1   
 12   6  28  1   
 13   7   8  ar  
 14   7  29  1   
 15   8  30  1   
 16   9  10  1   
 17   9  31  1   
 18   9  32  1   
 19  10  11  2   
 20  10  12  am  
 21  12  13  1   
 22  12  33  1   
 23  13  14  1   
 24  13  15  1   
 25  13  34  1   
 26  14  16  1   
 27  14  17  1   
 28  14  35  1   
 29  15  18  1   
 30  15  36  1   
 31  15  37  1   
 32  16  18  1   
 33  16  38  1   
 34  16  39  1   
 35  17  19  1   
 36  17  40  1   
 37  17  41  1   
 38  19  20  2   
 39  19  21  2   
 40  19  22  am  
 41  22  23  1   
 42  22  24  1   
 43  23  42  1   
 44  23  43  1   
 45  23  44  1   
 46  24  45  1   
 47  24  46  1   
 48  24  47  1   
@<TRIPOS>SUBSTRUCTURE
  1 ****  12 GROUP 4 **** **** 0

# MOE 2024.06 (io_trps.svl 2023.06)
