@<TRIPOS>MOLECULE
NONAME
53 56 1 0 0 
SMALL
USER_CHARGES


@<TRIPOS>ATOM
  1 N        0.1360    -0.0320     0.4320 N.ar  1 <1>  -0.6200 
  2 C       -0.8970    -0.6910     0.9420 C.ar  1 <1>   0.7710 
  3 C        1.1900    -0.7450     0.0590 C.ar  1 <1>   0.4100 
  4 N       -0.9290    -2.0320     1.1160 N.ar  1 <1>  -0.1260 
  5 N       -1.9470     0.0500     1.2910 N.pl3 1 <1>  -0.9000 
  6 N        2.2430    -0.0980    -0.4920 N.pl3 1 <1>  -0.8690 
  7 C        1.2400    -2.1530     0.2230 C.ar  1 <1>   0.2270 
  8 C        0.1570    -2.7860     0.7570 C.ar  1 <1>   0.1560 
  9 C        2.3780     1.3520    -0.8240 C.3   1 <1>   0.2090 
 10 N        2.2140    -3.0660    -0.0610 N.2   1 <1>  -0.5650 
 11 N        0.4500    -4.1010     0.8050 N.pl3 1 <1>   0.0330 
 12 C        3.4660     2.0500     0.0390 C.3   1 <1>   0.5660 
 13 C        1.7100    -4.1970     0.2950 C.2   1 <1>   0.0360 
 14 N        3.7070     3.4970    -0.3060 N.4   1 <1>  -0.9590 
 15 C        4.7850     1.2940    -0.0950 C.ar  1 <1>  -0.1430 
 16 C        4.8080     4.0540     0.5410 C.3   1 <1>   0.3430 
 17 C        2.4700     4.3330    -0.2450 C.3   1 <1>   0.3430 
 18 C        5.3290     0.6770     1.0240 C.ar  1 <1>  -0.1500 
 19 C        5.4600     1.2120    -1.3090 C.ar  1 <1>  -0.1500 
 20 C        5.3150     5.4020     0.0240 C.3   1 <1>  -0.1600 
 21 C        2.5510     5.4460    -1.2890 C.3   1 <1>  -0.1600 
 22 C        6.5290    -0.0040     0.9350 C.ar  1 <1>  -0.1500 
 23 C        6.6600     0.5300    -1.3950 C.ar  1 <1>  -0.1500 
 24 C        4.3370     6.5590     0.2630 C.3   1 <1>  -0.1600 
 25 C        3.2740     6.7250    -0.8320 C.3   1 <1>  -0.1600 
 26 C        7.1960    -0.0760    -0.2740 C.ar  1 <1>  -0.1500 
 27 H       -1.7730    -2.4340     1.5150 H     1 <1>   0.4570 
 28 H       -2.8400    -0.2460     1.6920 H     1 <1>   0.4000 
 29 H       -1.8950     1.0610     1.1340 H     1 <1>   0.4000 
 30 H        3.0570    -0.6840    -0.7490 H     1 <1>   0.4000 
 31 H        1.4290     1.8310    -0.6750 H     1 <1>   0.0800 
 32 H        2.6370     1.4340    -1.8650 H     1 <1>   0.0800 
 33 H       -0.1120    -4.8900     1.1400 H     1 <1>   0.2700 
 34 H        3.1430     1.9930     1.0650 H     1 <1>   0.0800 
 35 H        2.2200    -5.1450     0.2060 H     1 <1>   0.1500 
 36 H        4.0580     3.5140    -1.2690 H     1 <1>   0.4500 
 37 H        5.6450     3.3740     0.5430 H     1 <1>   0.0800 
 38 H        4.4730     4.1620     1.5600 H     1 <1>   0.0800 
 39 H        2.3350     4.7490     0.7410 H     1 <1>   0.0800 
 40 H        1.6060     3.7350    -0.4720 H     1 <1>   0.0800 
 41 H        4.8270     0.7120     1.9770 H     1 <1>   0.1500 
 42 H        5.0690     1.6650    -2.2030 H     1 <1>   0.1500 
 43 H        5.5970     5.3370    -1.0130 H     1 <1>   0.0800 
 44 H        6.2140     5.6240     0.5740 H     1 <1>   0.0800 
 45 H        1.5450     5.7260    -1.5540 H     1 <1>   0.0800 
 46 H        3.0070     5.0700    -2.1880 H     1 <1>   0.0800 
 47 H        6.9470    -0.4830     1.8040 H     1 <1>   0.1500 
 48 H        7.1820     0.4640    -2.3360 H     1 <1>   0.1500 
 49 H        4.9000     7.4780     0.3060 H     1 <1>   0.0800 
 50 H        3.8630     6.4470     1.2240 H     1 <1>   0.0800 
 51 H        2.5400     7.4260    -0.4680 H     1 <1>   0.0800 
 52 H        3.7290     7.1830    -1.6940 H     1 <1>   0.0800 
 53 H        8.1300    -0.6090    -0.3430 H     1 <1>   0.1500 
@<TRIPOS>BOND
  1   1   2  ar  
  2   1   3  ar  
  3   2   4  ar  
  4   2   5  1   
  5   3   6  1   
  6   3   7  ar  
  7   4   8  ar  
  8   4  27  1   
  9   5  28  1   
 10   5  29  1   
 11   6   9  1   
 12   6  30  1   
 13   7   8  ar  
 14   7  10  1   
 15   8  11  1   
 16   9  12  1   
 17   9  31  1   
 18   9  32  1   
 19  10  13  2   
 20  11  13  1   
 21  11  33  1   
 22  12  14  1   
 23  12  15  1   
 24  12  34  1   
 25  13  35  1   
 26  14  16  1   
 27  14  17  1   
 28  14  36  1   
 29  15  18  ar  
 30  15  19  ar  
 31  16  20  1   
 32  16  37  1   
 33  16  38  1   
 34  17  21  1   
 35  17  39  1   
 36  17  40  1   
 37  18  22  ar  
 38  18  41  1   
 39  19  23  ar  
 40  19  42  1   
 41  20  24  1   
 42  20  43  1   
 43  20  44  1   
 44  21  25  1   
 45  21  45  1   
 46  21  46  1   
 47  22  26  ar  
 48  22  47  1   
 49  23  26  ar  
 50  23  48  1   
 51  24  25  1   
 52  24  49  1   
 53  24  50  1   
 54  25  51  1   
 55  25  52  1   
 56  26  53  1   
@<TRIPOS>SUBSTRUCTURE
  1 ****   9 GROUP 4 **** **** 0

# MOE 2024.06 (io_trps.svl 2023.06)
