@<TRIPOS>MOLECULE
NONAME
49 50 1 0 0 
SMALL
USER_CHARGES


@<TRIPOS>ATOM
  1 S        0.0830     0.5420     0.1900 S.o2  1 <1>   1.3330 
  2 O        0.1170    -0.5130     1.1780 O.2   1 <1>  -0.6500 
  3 O       -0.3480     1.8670     0.5740 O.2   1 <1>  -0.6500 
  4 N       -0.8830     0.0140    -1.1020 N.am  1 <1>  -0.8490 
  5 C        1.7000     0.6960    -0.5690 C.3   1 <1>  -0.0550 
  6 C       -0.8740    -1.4420    -1.2830 C.3   1 <1>   0.1160 
  7 C       -2.2650     0.4950    -1.0000 C.3   1 <1>   0.1160 
  8 C        2.7700     1.2660     0.3820 C.3   1 <1>  -0.0800 
  9 C        4.0690     1.5530    -0.3590 C.3   1 <1>   0.2200 
 10 C        3.1960     0.2560     1.4620 C.3   1 <1>   0.1200 
 11 N        4.7490     2.6920     0.2940 N.am  1 <1>  -0.7300 
 12 C        4.8630     0.2820    -0.0990 C.3   1 <1>   0.1200 
 13 O        4.5270    -0.0800     1.2010 O.3   1 <1>  -0.5600 
 14 C        4.7740     3.9710    -0.1840 C.2   1 <1>   0.7160 
 15 O        4.2310     4.1900    -1.2510 O.2   1 <1>  -0.5700 
 16 C        5.4210     5.0390     0.5770 C.2   1 <1>   0.1410 
 17 N        5.3550     6.3710     0.1320 N.2   1 <1>  -0.5650 
 18 C        6.1130     4.8930     1.7320 C.2   1 <1>  -0.1100 
 19 C        5.9540     7.1830     0.9050 C.2   1 <1>   0.1980 
 20 S        6.6950     6.4310     2.2920 S.3   1 <1>  -0.0800 
 21 C        6.0790     8.6910     0.7350 C.3   1 <1>   0.5230 
 22 N        5.1870     9.1320    -0.3920 N.4   1 <1>  -0.9590 
 23 C        5.6350    10.4010    -1.0350 C.3   1 <1>   0.2630 
 24 C        3.7520     9.1820     0.0280 C.3   1 <1>   0.2630 
 25 H        2.0160    -0.2600    -0.9400 H     1 <1>   0.0800 
 26 H        1.6060     1.3580    -1.4090 H     1 <1>   0.0800 
 27 H       -1.4240    -1.7080    -2.1690 H     1 <1>   0.0800 
 28 H       -1.3220    -1.9300    -0.4330 H     1 <1>   0.0800 
 29 H        0.1360    -1.7970    -1.3910 H     1 <1>   0.0800 
 30 H       -2.8430     0.1560    -1.8420 H     1 <1>   0.0800 
 31 H       -2.2810     1.5730    -0.9950 H     1 <1>   0.0800 
 32 H       -2.7190     0.1390    -0.0900 H     1 <1>   0.0800 
 33 H        2.3790     2.1630     0.8310 H     1 <1>   0.0800 
 34 H        3.9350     1.7400    -1.4120 H     1 <1>   0.0800 
 35 H        2.6140    -0.6500     1.4400 H     1 <1>   0.0800 
 36 H        3.1480     0.6870     2.4470 H     1 <1>   0.0800 
 37 H        5.1410     2.4630     1.2080 H     1 <1>   0.3700 
 38 H        5.9270     0.4290    -0.1740 H     1 <1>   0.0800 
 39 H        4.5530    -0.5110    -0.7570 H     1 <1>   0.0800 
 40 H        6.3470     4.0280     2.3250 H     1 <1>   0.1500 
 41 H        7.1050     8.9230     0.5060 H     1 <1>   0.0800 
 42 H        5.8060     9.1910     1.6490 H     1 <1>   0.0800 
 43 H        5.2520     8.3480    -1.0710 H     1 <1>   0.4500 
 44 H        5.5840    11.2180    -0.3340 H     1 <1>   0.0800 
 45 H        5.0050    10.6320    -1.8790 H     1 <1>   0.0800 
 46 H        6.6510    10.3070    -1.3860 H     1 <1>   0.0800 
 47 H        3.6020     9.9380     0.7810 H     1 <1>   0.0800 
 48 H        3.4480     8.2270     0.4280 H     1 <1>   0.0800 
 49 H        3.1230     9.4060    -0.8190 H     1 <1>   0.0800 
@<TRIPOS>BOND
  1   1   2  2   
  2   1   3  2   
  3   1   4  am  
  4   1   5  1   
  5   4   6  1   
  6   4   7  1   
  7   5   8  1   
  8   5  25  1   
  9   5  26  1   
 10   6  27  1   
 11   6  28  1   
 12   6  29  1   
 13   7  30  1   
 14   7  31  1   
 15   7  32  1   
 16   8   9  1   
 17   8  10  1   
 18   8  33  1   
 19   9  11  1   
 20   9  12  1   
 21   9  34  1   
 22  10  13  1   
 23  10  35  1   
 24  10  36  1   
 25  11  14  am  
 26  11  37  1   
 27  12  13  1   
 28  12  38  1   
 29  12  39  1   
 30  14  15  2   
 31  14  16  1   
 32  16  17  1   
 33  16  18  2   
 34  17  19  2   
 35  18  20  1   
 36  18  40  1   
 37  19  20  1   
 38  19  21  1   
 39  21  22  1   
 40  21  41  1   
 41  21  42  1   
 42  22  23  1   
 43  22  24  1   
 44  22  43  1   
 45  23  44  1   
 46  23  45  1   
 47  23  46  1   
 48  24  47  1   
 49  24  48  1   
 50  24  49  1   
@<TRIPOS>SUBSTRUCTURE
  1 ****  14 GROUP 4 **** **** 0

# MOE 2024.06 (io_trps.svl 2023.06)
