@<TRIPOS>MOLECULE
NONAME
54 57 1 0 0 
SMALL
USER_CHARGES


@<TRIPOS>ATOM
  1 O        0.7490    -0.7150     1.0890 O.3   1 <1>  -0.0190 
  2 N        0.0820    -1.8290     1.0510 N.2   1 <1>  -0.4100 
  3 C        1.5110    -0.7590     0.0220 C.2   1 <1>   0.2980 
  4 C        0.4660    -2.4550     0.0090 C.2   1 <1>   0.3350 
  5 N        1.3820    -1.8090    -0.6920 N.2   1 <1>  -0.5650 
  6 C        2.4550     0.4030    -0.2700 C.3   1 <1>   0.1000 
  7 C       -0.0650    -3.8220    -0.4280 C.3   1 <1>   0.5240 
  8 C        3.4720     0.6710     0.8400 C.3   1 <1>  -0.1600 
  9 C        1.7500     1.7480    -0.4410 C.3   1 <1>  -0.1600 
 10 N       -1.4400    -4.0990     0.1250 N.4   1 <1>  -0.9590 
 11 C        3.9350     2.1130     0.6160 C.3   1 <1>  -0.1600 
 12 C        2.8370     2.8000    -0.2070 C.3   1 <1>  -0.1600 
 13 C       -1.7490    -5.5600     0.0510 C.3   1 <1>   0.3430 
 14 C       -2.4550    -3.2180    -0.5320 C.3   1 <1>   0.2630 
 15 C       -3.0210    -5.9440     0.8250 C.3   1 <1>  -0.0800 
 16 C       -2.8870    -7.4140     1.1910 C.3   1 <1>   0.2090 
 17 C       -4.2700    -5.9670    -0.0710 C.3   1 <1>  -0.1600 
 18 N       -3.1730    -8.0890    -0.0870 N.pl3 1 <1>  -0.8380 
 19 C       -4.2080    -7.3070    -0.8070 C.3   1 <1>   0.2090 
 20 C       -3.3590    -9.4670    -0.0280 C.ar  1 <1>   0.1000 
 21 C       -2.4560   -10.3020    -0.6720 C.ar  1 <1>  -0.1500 
 22 C       -4.4230   -10.0410     0.6610 C.ar  1 <1>  -0.1500 
 23 C       -2.6060   -11.6760    -0.6310 C.ar  1 <1>  -0.1500 
 24 C       -4.5770   -11.4150     0.7060 C.ar  1 <1>  -0.1500 
 25 C       -3.6680   -12.2350     0.0600 C.ar  1 <1>  -0.1500 
 26 H        2.9950     0.1880    -1.1760 H     1 <1>   0.0800 
 27 H        0.6290    -4.5690    -0.0830 H     1 <1>   0.0800 
 28 H       -0.0860    -3.8570    -1.5040 H     1 <1>   0.0800 
 29 H        4.2920    -0.0250     0.8090 H     1 <1>   0.0800 
 30 H        2.9910     0.6040     1.8010 H     1 <1>   0.0800 
 31 H        0.9870     1.8600     0.3110 H     1 <1>   0.0800 
 32 H        1.3000     1.8440    -1.4140 H     1 <1>   0.0800 
 33 H       -1.3850    -3.8160     1.1180 H     1 <1>   0.4500 
 34 H        4.8580     2.1200     0.0610 H     1 <1>   0.0800 
 35 H        4.0940     2.6150     1.5560 H     1 <1>   0.0800 
 36 H        2.4380     3.6570     0.3090 H     1 <1>   0.0800 
 37 H        3.2440     3.1230    -1.1500 H     1 <1>   0.0800 
 38 H       -0.9240    -6.1090     0.4760 H     1 <1>   0.0800 
 39 H       -1.8480    -5.8780    -0.9750 H     1 <1>   0.0800 
 40 H       -2.5580    -3.4720    -1.5740 H     1 <1>   0.0800 
 41 H       -2.1590    -2.1830    -0.4550 H     1 <1>   0.0800 
 42 H       -3.4130    -3.3290    -0.0510 H     1 <1>   0.0800 
 43 H       -3.1420    -5.3490     1.7120 H     1 <1>   0.0800 
 44 H       -3.6210    -7.6930     1.9290 H     1 <1>   0.0800 
 45 H       -1.9050    -7.6750     1.5510 H     1 <1>   0.0800 
 46 H       -4.3360    -5.1520    -0.7660 H     1 <1>   0.0800 
 47 H       -5.1550    -5.9590     0.5420 H     1 <1>   0.0800 
 48 H       -3.8990    -7.1750    -1.8300 H     1 <1>   0.0800 
 49 H       -5.1610    -7.8110    -0.7890 H     1 <1>   0.0800 
 50 H       -1.6360    -9.8630    -1.2080 H     1 <1>   0.1500 
 51 H       -5.1320    -9.4110     1.1620 H     1 <1>   0.1500 
 52 H       -1.8990   -12.3100    -1.1350 H     1 <1>   0.1500 
 53 H       -5.4030   -11.8470     1.2420 H     1 <1>   0.1500 
 54 H       -3.7860   -13.3040     0.0940 H     1 <1>   0.1500 
@<TRIPOS>BOND
  1   1   2  1   
  2   1   3  1   
  3   2   4  2   
  4   3   5  2   
  5   3   6  1   
  6   4   5  1   
  7   4   7  1   
  8   6   8  1   
  9   6   9  1   
 10   6  26  1   
 11   7  10  1   
 12   7  27  1   
 13   7  28  1   
 14   8  11  1   
 15   8  29  1   
 16   8  30  1   
 17   9  12  1   
 18   9  31  1   
 19   9  32  1   
 20  10  13  1   
 21  10  14  1   
 22  10  33  1   
 23  11  12  1   
 24  11  34  1   
 25  11  35  1   
 26  12  36  1   
 27  12  37  1   
 28  13  15  1   
 29  13  38  1   
 30  13  39  1   
 31  14  40  1   
 32  14  41  1   
 33  14  42  1   
 34  15  16  1   
 35  15  17  1   
 36  15  43  1   
 37  16  18  1   
 38  16  44  1   
 39  16  45  1   
 40  17  19  1   
 41  17  46  1   
 42  17  47  1   
 43  18  19  1   
 44  18  20  1   
 45  19  48  1   
 46  19  49  1   
 47  20  21  ar  
 48  20  22  ar  
 49  21  23  ar  
 50  21  50  1   
 51  22  24  ar  
 52  22  51  1   
 53  23  25  ar  
 54  23  52  1   
 55  24  25  ar  
 56  24  53  1   
 57  25  54  1   
@<TRIPOS>SUBSTRUCTURE
  1 ****  10 GROUP 4 **** **** 0

# MOE 2024.06 (io_trps.svl 2023.06)
