@<TRIPOS>MOLECULE
NONAME
53 55 1 0 0 
SMALL
USER_CHARGES


@<TRIPOS>ATOM
  1 F       -0.4610    -2.2090    -0.8230 F     1 <1>  -0.1900 
  2 C       -1.4980    -2.4680    -0.0720 C.ar  1 <1>   0.1900 
  3 C       -1.9760    -3.7620    -0.0210 C.ar  1 <1>  -0.1500 
  4 C       -2.0770    -1.4350     0.6410 C.ar  1 <1>  -0.1500 
  5 C       -3.0770    -4.0360     0.7730 C.ar  1 <1>   0.0830 
  6 C       -3.1760    -1.7140     1.4350 C.ar  1 <1>  -0.1500 
  7 O       -3.5100    -5.3190     0.7850 O.3   1 <1>  -0.3630 
  8 C       -3.6750    -3.0070     1.5030 C.ar  1 <1>  -0.1500 
  9 C       -4.6720    -5.7040     1.5060 C.3   1 <1>   0.1810 
 10 C       -4.9660    -7.1920     1.3330 C.2   1 <1>   0.5690 
 11 O       -4.9860    -7.8670     2.3360 O.2   1 <1>  -0.5700 
 12 N       -5.2180    -7.7330     0.0970 N.am  1 <1>  -0.6600 
 13 C       -5.5610    -9.1850    -0.0620 C.3   1 <1>   0.3640 
 14 C       -5.2270    -6.9280    -1.1630 C.3   1 <1>   0.1400 
 15 C       -4.3090    -9.9630    -0.5140 C.ar  1 <1>  -0.1430 
 16 C       -6.8070    -9.3290    -0.9850 C.3   1 <1>   0.2000 
 17 C       -5.6430    -7.7450    -2.3990 C.3   1 <1>   0.1200 
 18 C       -3.2000    -9.9550     0.3220 C.ar  1 <1>  -0.1500 
 19 C       -4.2270   -10.6810    -1.7020 C.ar  1 <1>  -0.1500 
 20 O       -6.7810    -8.5280    -2.1540 O.3   1 <1>  -0.5600 
 21 C       -8.1000    -8.9680    -0.2400 C.3   1 <1>   0.1200 
 22 C       -2.0200   -10.6190    -0.0030 C.ar  1 <1>   0.0830 
 23 C       -3.0690   -11.3600    -2.0350 C.ar  1 <1>  -0.1500 
 24 O       -8.3890    -9.9260     0.7280 O.3   1 <1>  -0.6800 
 25 O       -0.9280   -10.5520     0.8150 O.3   1 <1>  -0.3630 
 26 C       -1.9640   -11.3490    -1.2020 C.ar  1 <1>   0.0830 
 27 C       -0.8480    -9.6180     1.8710 C.3   1 <1>   0.0400 
 28 O       -0.9010   -12.0720    -1.6560 O.3   1 <1>  -0.3630 
 29 C        0.0340   -12.6470    -0.7710 C.3   1 <1>   0.0400 
 30 H       -1.5010    -4.5420    -0.5850 H     1 <1>   0.1500 
 31 H       -1.6730    -0.4410     0.5730 H     1 <1>   0.1500 
 32 H       -3.6420    -0.9240     2.0010 H     1 <1>   0.1500 
 33 H       -4.5270    -3.1890     2.1310 H     1 <1>   0.1500 
 34 H       -4.5040    -5.4960     2.5460 H     1 <1>   0.0800 
 35 H       -5.5040    -5.1280     1.1480 H     1 <1>   0.0800 
 36 H       -5.8320    -9.5910     0.8970 H     1 <1>   0.0800 
 37 H       -5.9090    -6.1040    -1.0530 H     1 <1>   0.0800 
 38 H       -4.2430    -6.5270    -1.3350 H     1 <1>   0.0800 
 39 H       -6.8990   -10.3490    -1.3090 H     1 <1>   0.0800 
 40 H       -4.8400    -8.3850    -2.7130 H     1 <1>   0.0800 
 41 H       -5.8720    -7.0830    -3.2150 H     1 <1>   0.0800 
 42 H       -3.2770    -9.4130     1.2440 H     1 <1>   0.1500 
 43 H       -5.0500   -10.7270    -2.3920 H     1 <1>   0.1500 
 44 H       -8.9310    -8.9250    -0.9230 H     1 <1>   0.0800 
 45 H       -7.9930    -8.0200     0.2570 H     1 <1>   0.0800 
 46 H       -3.0160   -11.9130    -2.9550 H     1 <1>   0.1500 
 47 H       -8.7300   -10.7470     0.3200 H     1 <1>   0.4000 
 48 H        0.1420    -9.6660     2.2860 H     1 <1>   0.0800 
 49 H       -1.5710    -9.8770     2.6240 H     1 <1>   0.0800 
 50 H       -1.0340    -8.6320     1.4820 H     1 <1>   0.0800 
 51 H        0.5700   -13.4130    -1.3010 H     1 <1>   0.0800 
 52 H       -0.4900   -13.0720     0.0660 H     1 <1>   0.0800 
 53 H        0.7180   -11.8830    -0.4460 H     1 <1>   0.0800 
@<TRIPOS>BOND
  1   1   2  1   
  2   2   3  ar  
  3   2   4  ar  
  4   3   5  ar  
  5   3  30  1   
  6   4   6  ar  
  7   4  31  1   
  8   5   7  1   
  9   5   8  ar  
 10   6   8  ar  
 11   6  32  1   
 12   7   9  1   
 13   8  33  1   
 14   9  10  1   
 15   9  34  1   
 16   9  35  1   
 17  10  11  2   
 18  10  12  am  
 19  12  13  1   
 20  12  14  1   
 21  13  15  1   
 22  13  16  1   
 23  13  36  1   
 24  14  17  1   
 25  14  37  1   
 26  14  38  1   
 27  15  18  ar  
 28  15  19  ar  
 29  16  20  1   
 30  16  21  1   
 31  16  39  1   
 32  17  20  1   
 33  17  40  1   
 34  17  41  1   
 35  18  22  ar  
 36  18  42  1   
 37  19  23  ar  
 38  19  43  1   
 39  21  24  1   
 40  21  44  1   
 41  21  45  1   
 42  22  25  1   
 43  22  26  ar  
 44  23  26  ar  
 45  23  46  1   
 46  24  47  1   
 47  25  27  1   
 48  26  28  1   
 49  27  48  1   
 50  27  49  1   
 51  27  50  1   
 52  28  29  1   
 53  29  51  1   
 54  29  52  1   
 55  29  53  1   
@<TRIPOS>SUBSTRUCTURE
  1 ****  12 GROUP 4 **** **** 0

# MOE 2024.06 (io_trps.svl 2023.06)
