@<TRIPOS>MOLECULE
NONAME
45 48 1 0 0 
SMALL
USER_CHARGES


@<TRIPOS>ATOM
  1 O       -2.7510    -0.1990    -1.9800 O.2   1 <1>  -0.5700 
  2 C       -2.7700     0.5370    -1.0060 C.2   1 <1>   0.7670 
  3 N       -2.6990     1.8860    -1.2570 N.2   1 <1>  -0.6610 
  4 C       -2.8630     0.0370     0.3290 C.2   1 <1>   0.0290 
  5 C       -2.6670     2.6920    -0.2650 C.2   1 <1>   0.5000 
  6 C       -2.9810    -1.3680     0.5810 C.2   1 <1>   0.6160 
  7 C       -2.8090     0.9490     1.3420 C.2   1 <1>  -0.0500 
  8 N       -2.7110     2.2700     1.0320 N.pl3 1 <1>  -0.5500 
  9 C       -2.5760     4.1930    -0.5130 C.3   1 <1>  -0.1000 
 10 O       -2.2520    -1.8730     1.4160 O.2   1 <1>  -0.5700 
 11 N       -3.9360    -2.1730     0.0000 N.am  1 <1>  -0.6600 
 12 C       -1.7780     5.1040     0.3750 C.3   1 <1>  -0.2000 
 13 C       -3.2750     5.1950     0.3600 C.3   1 <1>  -0.2000 
 14 C       -5.1000    -1.7300    -0.8120 C.3   1 <1>   0.1400 
 15 C       -4.0000    -3.6400     0.2200 C.3   1 <1>   0.1400 
 16 C       -6.1310    -2.8380    -0.6160 C.3   1 <1>   0.2000 
 17 C       -5.2740    -4.1040    -0.5000 C.3   1 <1>  -0.0800 
 18 O       -6.7850    -2.6080     0.5860 O.3   1 <1>  -0.6800 
 19 C       -5.9650    -5.3080     0.1670 C.3   1 <1>  -0.0160 
 20 C       -5.0620    -6.5320     0.1520 C.ar  1 <1>  -0.1430 
 21 C       -4.2860    -6.8840     1.2380 C.ar  1 <1>  -0.1500 
 22 C       -4.9730    -7.3550    -0.9520 C.ar  1 <1>  -0.1500 
 23 C       -3.4800    -8.0080     1.1680 C.ar  1 <1>   0.1600 
 24 C       -4.1350    -8.4570    -0.9190 C.ar  1 <1>   0.1600 
 25 N       -3.3860    -8.8040     0.1150 N.ar  1 <1>  -0.6200 
 26 H       -2.8390     0.6520     2.3800 H     1 <1>   0.1500 
 27 H       -2.6600     2.9950     1.7540 H     1 <1>   0.4000 
 28 H       -2.5520     4.4080    -1.5680 H     1 <1>   0.1000 
 29 H       -1.2830     4.7020     1.2410 H     1 <1>   0.1000 
 30 H       -1.2070     5.8910    -0.0890 H     1 <1>   0.1000 
 31 H       -3.7380     6.0450    -0.1120 H     1 <1>   0.1000 
 32 H       -3.8300     4.8570     1.2180 H     1 <1>   0.1000 
 33 H       -5.4770    -0.7710    -0.5010 H     1 <1>   0.0800 
 34 H       -4.8100    -1.6870    -1.8480 H     1 <1>   0.0800 
 35 H       -3.1240    -4.1220    -0.1810 H     1 <1>   0.0800 
 36 H       -4.0590    -3.8350     1.2770 H     1 <1>   0.0800 
 37 H       -6.8620    -2.8820    -1.4050 H     1 <1>   0.0800 
 38 H       -4.9860    -4.3910    -1.4960 H     1 <1>   0.0800 
 39 H       -6.1130    -2.4500     1.2790 H     1 <1>   0.4000 
 40 H       -6.8760    -5.5310    -0.3600 H     1 <1>   0.0800 
 41 H       -6.2320    -5.0730     1.1820 H     1 <1>   0.0800 
 42 H       -4.2980    -6.2970     2.1380 H     1 <1>   0.1500 
 43 H       -5.5470    -7.1520    -1.8370 H     1 <1>   0.1500 
 44 H       -2.8810    -8.2660     2.0240 H     1 <1>   0.1500 
 45 H       -4.0790    -9.0880    -1.7900 H     1 <1>   0.1500 
@<TRIPOS>BOND
  1   1   2  2   
  2   2   3  1   
  3   2   4  1   
  4   3   5  2   
  5   4   6  1   
  6   4   7  2   
  7   5   8  1   
  8   5   9  1   
  9   6  10  2   
 10   6  11  am  
 11   7   8  1   
 12   7  26  1   
 13   8  27  1   
 14   9  12  1   
 15   9  13  1   
 16   9  28  1   
 17  11  14  1   
 18  11  15  1   
 19  12  13  1   
 20  12  29  1   
 21  12  30  1   
 22  13  31  1   
 23  13  32  1   
 24  14  16  1   
 25  14  33  1   
 26  14  34  1   
 27  15  17  1   
 28  15  35  1   
 29  15  36  1   
 30  16  17  1   
 31  16  18  1   
 32  16  37  1   
 33  17  19  1   
 34  17  38  1   
 35  18  39  1   
 36  19  20  1   
 37  19  40  1   
 38  19  41  1   
 39  20  21  ar  
 40  20  22  ar  
 41  21  23  ar  
 42  21  42  1   
 43  22  24  ar  
 44  22  43  1   
 45  23  25  ar  
 46  23  44  1   
 47  24  25  ar  
 48  24  45  1   
@<TRIPOS>SUBSTRUCTURE
  1 ****  11 GROUP 4 **** **** 0

# MOE 2024.06 (io_trps.svl 2023.06)
