@<TRIPOS>MOLECULE
NONAME
39 41 1 0 0 
SMALL
USER_CHARGES


@<TRIPOS>ATOM
  1 O        0.9090    -0.1360    -1.3470 O.3   1 <1>  -0.0190 
  2 N        0.9170     1.1570    -1.2020 N.2   1 <1>  -0.4100 
  3 C        1.2380    -0.7520    -0.2420 C.2   1 <1>  -0.0400 
  4 C        1.2580     1.3770     0.0170 C.2   1 <1>   0.1080 
  5 C        1.4820     0.1800     0.6910 C.2   1 <1>  -0.1500 
  6 C        1.2930    -2.2690    -0.2050 C.3   1 <1>   0.2900 
  7 C        1.3920     2.7540     0.6280 C.3   1 <1>  -0.0590 
  8 N       -0.0250    -2.8530     0.1000 N.3   1 <1>  -0.8100 
  9 C       -1.0760    -2.4780    -0.8590 C.3   1 <1>   0.1100 
 10 C       -0.0120    -4.3240     0.1500 C.3   1 <1>   0.1100 
 11 C       -2.1620    -3.5200    -0.6340 C.3   1 <1>   0.2000 
 12 C       -1.3430    -4.8010    -0.4570 C.3   1 <1>  -0.0800 
 13 O       -2.7890    -3.2030     0.5570 O.3   1 <1>  -0.6800 
 14 C       -2.0350    -5.9090     0.3600 C.3   1 <1>   0.0200 
 15 C       -1.2530    -7.2120     0.3760 C.2   1 <1>  -0.0400 
 16 O       -1.6470    -8.1710     1.1710 O.3   1 <1>  -0.0190 
 17 C       -0.1700    -7.6520    -0.2860 C.2   1 <1>  -0.1500 
 18 N       -0.8880    -9.2240     1.0800 N.2   1 <1>  -0.4100 
 19 C        0.0110    -8.9400     0.2080 C.2   1 <1>   0.1080 
 20 C        1.1110    -9.8880    -0.2150 C.3   1 <1>  -0.0590 
 21 H        1.7760     0.0640     1.7180 H     1 <1>   0.1500 
 22 H        1.9860    -2.5680     0.5620 H     1 <1>   0.0800 
 23 H        1.6560    -2.6350    -1.1510 H     1 <1>   0.0800 
 24 H        0.7050     2.8560     1.4480 H     1 <1>   0.0800 
 25 H        1.1700     3.5050    -0.1090 H     1 <1>   0.0800 
 26 H        2.3950     2.8990     0.9830 H     1 <1>   0.0800 
 27 H       -1.4380    -1.4780    -0.6860 H     1 <1>   0.0800 
 28 H       -0.7040    -2.5530    -1.8670 H     1 <1>   0.0800 
 29 H        0.8120    -4.7260    -0.4150 H     1 <1>   0.0800 
 30 H        0.0830    -4.6380     1.1770 H     1 <1>   0.0800 
 31 H       -2.8960    -3.5700    -1.4200 H     1 <1>   0.0800 
 32 H       -1.1370    -5.1840    -1.4400 H     1 <1>   0.0800 
 33 H       -2.0800    -2.8970     1.1640 H     1 <1>   0.4000 
 34 H       -3.0110    -6.1000    -0.0500 H     1 <1>   0.0800 
 35 H       -2.1710    -5.5820     1.3770 H     1 <1>   0.0800 
 36 H        0.4380    -7.1690    -1.0270 H     1 <1>   0.1500 
 37 H        1.0560   -10.0620    -1.2740 H     1 <1>   0.0800 
 38 H        1.0030   -10.8270     0.2970 H     1 <1>   0.0800 
 39 H        2.0690    -9.4680     0.0280 H     1 <1>   0.0800 
@<TRIPOS>BOND
  1   1   2  1   
  2   1   3  1   
  3   2   4  2   
  4   3   5  2   
  5   3   6  1   
  6   4   5  1   
  7   4   7  1   
  8   5  21  1   
  9   6   8  1   
 10   6  22  1   
 11   6  23  1   
 12   7  24  1   
 13   7  25  1   
 14   7  26  1   
 15   8   9  1   
 16   8  10  1   
 17   9  11  1   
 18   9  27  1   
 19   9  28  1   
 20  10  12  1   
 21  10  29  1   
 22  10  30  1   
 23  11  12  1   
 24  11  13  1   
 25  11  31  1   
 26  12  14  1   
 27  12  32  1   
 28  13  33  1   
 29  14  15  1   
 30  14  34  1   
 31  14  35  1   
 32  15  16  1   
 33  15  17  2   
 34  16  18  1   
 35  17  19  1   
 36  17  36  1   
 37  18  19  2   
 38  19  20  1   
 39  20  37  1   
 40  20  38  1   
 41  20  39  1   
@<TRIPOS>SUBSTRUCTURE
  1 ****  10 GROUP 4 **** **** 0

# MOE 2024.06 (io_trps.svl 2023.06)
