@<TRIPOS>MOLECULE
NONAME
18 18 1 0 0 
SMALL
USER_CHARGES


@<TRIPOS>ATOM
  1 F       -1.4940    -0.5360    -0.4380 F     1 <1>  -0.3400 
  2 C       -0.4750    -1.2010    -0.9780 C.3   1 <1>   0.6000 
  3 F       -1.0340    -1.8690    -1.9870 F     1 <1>  -0.3400 
  4 C        0.1360    -2.1600     0.0380 C.3   1 <1>  -0.0710 
  5 C        1.0470    -1.3460     0.9240 C.2   1 <1>   0.8710 
  6 C       -0.8530    -3.1390     0.7430 C.3   1 <1>   0.0000 
  7 C        0.8750    -3.4100    -0.5290 C.3   1 <1>   0.0000 
  8 O        1.7850    -0.5200     0.3770 O.co2 1 <1>  -0.9000 
  9 O        1.0690    -1.5400     2.1420 O.co2 1 <1>  -0.9000 
 10 C        0.2620    -4.2160     0.6490 C.3   1 <1>   0.2580 
 11 O       -0.2410    -5.4350     0.2220 O.3   1 <1>  -0.6580 
 12 H        0.2170    -0.4880    -1.3920 H     1 <1>   0.0800 
 13 H       -1.7110    -3.3730     0.1360 H     1 <1>   0.0000 
 14 H       -1.1100    -2.8600     1.7490 H     1 <1>   0.0000 
 15 H        1.9470    -3.3350    -0.4840 H     1 <1>   0.0000 
 16 H        0.5130    -3.7370    -1.4890 H     1 <1>   0.0000 
 17 H        0.8890    -4.3120     1.5180 H     1 <1>   0.0000 
 18 H       -0.8330    -5.2770    -0.5370 H     1 <1>   0.4000 
@<TRIPOS>BOND
  1   1   2  1   
  2   2   3  1   
  3   2   4  1   
  4   2  12  1   
  5   4   5  1   
  6   4   6  1   
  7   4   7  1   
  8   5   8  ar  
  9   5   9  ar  
 10   6  10  1   
 11   6  13  1   
 12   6  14  1   
 13   7  10  1   
 14   7  15  1   
 15   7  16  1   
 16  10  11  1   
 17  10  17  1   
 18  11  18  1   
@<TRIPOS>SUBSTRUCTURE
  1 ****   4 GROUP 4 **** **** 0

# MOE 2024.06 (io_trps.svl 2023.06)
