@<TRIPOS>MOLECULE
NONAME
48 50 1 0 0 
SMALL
USER_CHARGES


@<TRIPOS>ATOM
  1 O        1.2720    -0.4930     1.8710 O.2   1 <1>  -0.5700 
  2 C        0.9010    -1.3390     1.0760 C.2   1 <1>   0.5440 
  3 N        1.8120    -2.2750     0.6610 N.am  1 <1>  -0.6600 
  4 C       -0.4790    -1.3870     0.6210 C.ar  1 <1>   0.0860 
  5 C        3.1840    -1.8810     0.1520 C.3   1 <1>   0.2810 
  6 C        1.7260    -3.6070     1.3170 C.3   1 <1>   0.1400 
  7 C       -1.5000    -0.7670     1.3430 C.ar  1 <1>  -0.1500 
  8 C       -0.8410    -2.0520    -0.5530 C.ar  1 <1>  -0.1500 
  9 C        3.2480    -0.5280    -0.6130 C.2   1 <1>   0.5690 
 10 C        3.7530    -3.0280    -0.7160 C.3   1 <1>  -0.1600 
 11 C        2.2670    -4.7040     0.4020 C.3   1 <1>  -0.1600 
 12 C       -2.8170    -0.8120     0.9210 C.ar  1 <1>  -0.1500 
 13 C       -2.1550    -2.1010    -0.9810 C.ar  1 <1>  -0.1500 
 14 O        3.5360    -0.4940    -1.7890 O.2   1 <1>  -0.5700 
 15 N        3.0120     0.6250     0.0600 N.am  1 <1>  -0.7300 
 16 C        3.7030    -4.3960    -0.0270 C.3   1 <1>  -0.1600 
 17 C       -3.1470    -1.4810    -0.2430 C.ar  1 <1>  -0.1500 
 18 C        3.0160     1.9790    -0.5100 C.3   1 <1>   0.3210 
 19 C        4.0610     2.8020     0.2110 C.2   1 <1>  -0.1810 
 20 C        3.9300     3.7340     1.1690 C.2   1 <1>  -0.0400 
 21 C        5.4390     2.7460     0.0050 C.2   1 <1>   0.1080 
 22 O        5.1240     4.1690     1.4710 O.3   1 <1>  -0.0190 
 23 C        2.7270     4.3010     1.8920 C.3   1 <1>  -0.0600 
 24 N        6.0490     3.5780     0.7710 N.2   1 <1>  -0.4100 
 25 C        6.1420     1.8340    -0.9780 C.3   1 <1>  -0.0590 
 26 H        3.8220    -1.7760     1.0110 H     1 <1>   0.0800 
 27 H        0.7020    -3.8230     1.5710 H     1 <1>   0.0800 
 28 H        2.2970    -3.5810     2.2300 H     1 <1>   0.0800 
 29 H       -1.2530    -0.2430     2.2510 H     1 <1>   0.1500 
 30 H       -0.0790    -2.5330    -1.1420 H     1 <1>   0.1500 
 31 H        4.7720    -2.7980    -0.9750 H     1 <1>   0.0800 
 32 H        3.1930    -3.0760    -1.6350 H     1 <1>   0.0800 
 33 H        1.6320    -4.7890    -0.4640 H     1 <1>   0.0800 
 34 H        2.2400    -5.6450     0.9220 H     1 <1>   0.0800 
 35 H       -3.5850    -0.3270     1.4980 H     1 <1>   0.1500 
 36 H       -2.4070    -2.6200    -1.8900 H     1 <1>   0.1500 
 37 H        2.6220     0.5480     1.0120 H     1 <1>   0.3700 
 38 H        4.3480    -4.3920     0.8350 H     1 <1>   0.0800 
 39 H        4.0530    -5.1570    -0.7040 H     1 <1>   0.0800 
 40 H       -4.1700    -1.5180    -0.5740 H     1 <1>   0.1500 
 41 H        2.0420     2.4180    -0.3820 H     1 <1>   0.0800 
 42 H        3.2360     1.9470    -1.5630 H     1 <1>   0.0800 
 43 H        1.8230     3.8290     1.5540 H     1 <1>   0.0800 
 44 H        2.6610     5.3590     1.7120 H     1 <1>   0.0800 
 45 H        2.8300     4.1340     2.9490 H     1 <1>   0.0800 
 46 H        5.7400     1.9730    -1.9640 H     1 <1>   0.0800 
 47 H        6.0040     0.8100    -0.6850 H     1 <1>   0.0800 
 48 H        7.1940     2.0530    -0.9960 H     1 <1>   0.0800 
@<TRIPOS>BOND
  1   1   2  2   
  2   2   3  am  
  3   2   4  1   
  4   3   5  1   
  5   3   6  1   
  6   4   7  ar  
  7   4   8  ar  
  8   5   9  1   
  9   5  10  1   
 10   5  26  1   
 11   6  11  1   
 12   6  27  1   
 13   6  28  1   
 14   7  12  ar  
 15   7  29  1   
 16   8  13  ar  
 17   8  30  1   
 18   9  14  2   
 19   9  15  am  
 20  10  16  1   
 21  10  31  1   
 22  10  32  1   
 23  11  16  1   
 24  11  33  1   
 25  11  34  1   
 26  12  17  ar  
 27  12  35  1   
 28  13  17  ar  
 29  13  36  1   
 30  15  18  1   
 31  15  37  1   
 32  16  38  1   
 33  16  39  1   
 34  17  40  1   
 35  18  19  1   
 36  18  41  1   
 37  18  42  1   
 38  19  20  2   
 39  19  21  1   
 40  20  22  1   
 41  20  23  1   
 42  21  24  2   
 43  21  25  1   
 44  22  24  1   
 45  23  43  1   
 46  23  44  1   
 47  23  45  1   
 48  25  46  1   
 49  25  47  1   
 50  25  48  1   
@<TRIPOS>SUBSTRUCTURE
  1 ****  15 GROUP 4 **** **** 0

# MOE 2024.06 (io_trps.svl 2023.06)
