@<TRIPOS>MOLECULE
NONAME
54 58 1 0 0 
SMALL
USER_CHARGES


@<TRIPOS>ATOM
  1 O        1.6110     0.8090     3.2250 O.2   1 <1>  -0.5700 
  2 C        1.9430     0.9010     2.0560 C.2   1 <1>   0.5440 
  3 N        1.4780     1.9720     1.3270 N.am  1 <1>  -0.6600 
  4 C        2.8400    -0.0740     1.4900 C.ar  1 <1>   0.0860 
  5 C        1.7740     2.2260    -0.0980 C.3   1 <1>   0.1400 
  6 C        0.5750     2.9990     1.8830 C.3   1 <1>   0.1400 
  7 C        2.4190    -1.0350     0.5460 C.ar  1 <1>   0.4100 
  8 C        4.1740    -0.0710     1.8680 C.ar  1 <1>  -0.1500 
  9 C        0.8080     3.3360    -0.4980 C.3   1 <1>  -0.1600 
 10 C        0.5030     4.0730     0.8030 C.3   1 <1>  -0.1600 
 11 N        3.2540    -1.8960    -0.0390 N.ar  1 <1>  -0.6200 
 12 N        1.0930    -1.1560     0.1590 N.pl3 1 <1>  -0.8380 
 13 C        5.0230    -0.9790     1.2800 C.ar  1 <1>  -0.1500 
 14 C        4.5150    -1.8550     0.3390 C.ar  1 <1>   0.1600 
 15 C        0.0330    -1.3940     1.1790 C.3   1 <1>   0.2090 
 16 C        0.7240    -1.4750    -1.2470 C.3   1 <1>   0.2090 
 17 C       -0.5130    -2.8190     1.0580 C.3   1 <1>  -0.1600 
 18 C        0.2330    -2.9190    -1.3400 C.3   1 <1>  -0.1600 
 19 C       -0.9350    -3.1850    -0.3760 C.3   1 <1>   0.1430 
 20 C       -1.3770    -4.6370    -0.4070 C.ar  1 <1>  -0.1430 
 21 C       -2.2250    -2.4420    -0.8070 C.3   1 <1>  -0.1600 
 22 C       -2.7440    -4.7440    -0.4910 C.ar  1 <1>  -0.1430 
 23 C       -0.5910    -5.7760    -0.3520 C.ar  1 <1>  -0.1500 
 24 C       -3.4010    -3.3890    -0.5250 C.3   1 <1>  -0.0170 
 25 C       -3.3610    -5.9810    -0.5300 C.ar  1 <1>  -0.1500 
 26 C       -1.1980    -7.0210    -0.3910 C.ar  1 <1>  -0.1500 
 27 C       -2.5790    -7.1240    -0.4810 C.ar  1 <1>  -0.1500 
 28 H        1.6220     1.3430    -0.6940 H     1 <1>   0.0800 
 29 H        2.7930     2.5590    -0.1920 H     1 <1>   0.0800 
 30 H        0.9610     3.3860     2.8110 H     1 <1>   0.0800 
 31 H       -0.3930     2.5580     2.0500 H     1 <1>   0.0800 
 32 H        4.5250     0.6320     2.6040 H     1 <1>   0.1500 
 33 H       -0.0920     2.8890    -0.8840 H     1 <1>   0.0800 
 34 H        1.2290     3.9810    -1.2480 H     1 <1>   0.0800 
 35 H        1.2640     4.8090     0.9940 H     1 <1>   0.0800 
 36 H       -0.4570     4.5580     0.7870 H     1 <1>   0.0800 
 37 H        6.0650    -1.0110     1.5440 H     1 <1>   0.1500 
 38 H        5.1840    -2.5600    -0.1250 H     1 <1>   0.1500 
 39 H       -0.7510    -0.6700     1.0450 H     1 <1>   0.0800 
 40 H        0.4320    -1.2670     2.1710 H     1 <1>   0.0800 
 41 H        1.5760    -1.3390    -1.8920 H     1 <1>   0.0800 
 42 H       -0.0470    -0.7980    -1.5690 H     1 <1>   0.0800 
 43 H       -1.3440    -2.9420     1.7280 H     1 <1>   0.0800 
 44 H        0.2600    -3.4950     1.3780 H     1 <1>   0.0800 
 45 H        1.0600    -3.5620    -1.0970 H     1 <1>   0.0800 
 46 H       -0.0610    -3.1400    -2.3490 H     1 <1>   0.0800 
 47 H       -2.1970    -2.2680    -1.8680 H     1 <1>   0.0800 
 48 H       -2.3560    -1.4960    -0.3140 H     1 <1>   0.0800 
 49 H        0.4790    -5.6970    -0.2770 H     1 <1>   0.1500 
 50 H       -4.1520    -3.3300    -1.2920 H     1 <1>   0.0800 
 51 H       -3.8380    -3.1800     0.4360 H     1 <1>   0.0800 
 52 H       -4.4320    -6.0550    -0.5970 H     1 <1>   0.1500 
 53 H       -0.5950    -7.9110    -0.3510 H     1 <1>   0.1500 
 54 H       -3.0430    -8.0930    -0.5110 H     1 <1>   0.1500 
@<TRIPOS>BOND
  1   1   2  2   
  2   2   3  am  
  3   2   4  1   
  4   3   5  1   
  5   3   6  1   
  6   4   7  ar  
  7   4   8  ar  
  8   5   9  1   
  9   5  28  1   
 10   5  29  1   
 11   6  10  1   
 12   6  30  1   
 13   6  31  1   
 14   7  11  ar  
 15   7  12  1   
 16   8  13  ar  
 17   8  32  1   
 18   9  10  1   
 19   9  33  1   
 20   9  34  1   
 21  10  35  1   
 22  10  36  1   
 23  11  14  ar  
 24  12  15  1   
 25  12  16  1   
 26  13  14  ar  
 27  13  37  1   
 28  14  38  1   
 29  15  17  1   
 30  15  39  1   
 31  15  40  1   
 32  16  18  1   
 33  16  41  1   
 34  16  42  1   
 35  17  19  1   
 36  17  43  1   
 37  17  44  1   
 38  18  19  1   
 39  18  45  1   
 40  18  46  1   
 41  19  20  1   
 42  19  21  1   
 43  20  22  ar  
 44  20  23  ar  
 45  21  24  1   
 46  21  47  1   
 47  21  48  1   
 48  22  24  1   
 49  22  25  ar  
 50  23  26  ar  
 51  23  49  1   
 52  24  50  1   
 53  24  51  1   
 54  25  27  ar  
 55  25  52  1   
 56  26  27  ar  
 57  26  53  1   
 58  27  54  1   
@<TRIPOS>SUBSTRUCTURE
  1 ****  12 GROUP 4 **** **** 0

# MOE 2024.06 (io_trps.svl 2023.06)
