@<TRIPOS>MOLECULE
NONAME
55 58 1 0 0 
SMALL
USER_CHARGES


@<TRIPOS>ATOM
  1 O        2.2760    -1.4530    -2.5900 O.2   1 <1>  -0.5700 
  2 C        1.7290    -1.7640    -1.5440 C.2   1 <1>   0.5440 
  3 N        1.3590    -0.7330    -0.6990 N.am  1 <1>  -0.6600 
  4 C        1.5270    -3.1840    -1.2450 C.ar  1 <1>   0.3960 
  5 C        0.8230    -0.8770     0.6730 C.3   1 <1>   0.1400 
  6 C        1.5520     0.6920    -1.0440 C.3   1 <1>   0.1400 
  7 N        0.4850    -3.6000    -0.5020 N.ar  1 <1>  -0.6200 
  8 C        2.4550    -4.0920    -1.7670 C.ar  1 <1>   0.1600 
  9 C        0.9540     0.5120     1.2880 C.3   1 <1>  -0.1600 
 10 C        0.9010     1.4650     0.0980 C.3   1 <1>  -0.1600 
 11 C        0.4460    -4.9030    -0.3290 C.ar  1 <1>   0.4100 
 12 N        2.4360    -5.4080    -1.5930 N.ar  1 <1>  -0.6200 
 13 N       -0.6230    -5.3160     0.4210 N.pl3 1 <1>  -0.8690 
 14 C        1.4080    -5.7780    -0.8580 C.ar  1 <1>   0.1600 
 15 C       -1.3950    -6.5340     0.0640 C.3   1 <1>   0.2090 
 16 C       -1.1210    -7.6430     1.0770 C.3   1 <1>   0.0210 
 17 C       -1.7710    -8.9270     0.6000 C.2   1 <1>  -0.1810 
 18 C       -3.1530    -9.1950     0.7340 C.ar  1 <1>   0.0000 
 19 C       -1.2030    -9.9880    -0.0250 C.2   1 <1>  -0.3320 
 20 C       -3.3750   -10.4440     0.1670 C.ar  1 <1>  -0.1520 
 21 C       -4.2290    -8.4940     1.2820 C.ar  1 <1>  -0.1500 
 22 N       -2.1700   -10.9160    -0.2880 N.pl3 1 <1>   0.0330 
 23 C        0.2410   -10.2320    -0.4290 C.3   1 <1>  -0.0600 
 24 C       -4.6530   -11.0180     0.1250 C.ar  1 <1>  -0.1430 
 25 C       -5.4860    -9.0470     1.2400 C.ar  1 <1>  -0.1500 
 26 C       -5.7110   -10.3050     0.6610 C.ar  1 <1>  -0.1430 
 27 C       -4.7970   -12.3940    -0.5130 C.3   1 <1>  -0.0970 
 28 C       -7.1380   -10.8340     0.6520 C.3   1 <1>  -0.0970 
 29 H        1.3750    -1.6120     1.2340 H     1 <1>   0.0800 
 30 H       -0.2130    -1.1650     0.6160 H     1 <1>   0.0800 
 31 H        1.0960     0.9200    -1.9930 H     1 <1>   0.0800 
 32 H        2.6070     0.9010    -1.0920 H     1 <1>   0.0800 
 33 H        3.2610    -3.7000    -2.3630 H     1 <1>   0.1500 
 34 H        1.9100     0.5890     1.7760 H     1 <1>   0.0800 
 35 H        0.1770     0.7060     2.0060 H     1 <1>   0.0800 
 36 H       -0.1230     1.6700    -0.1610 H     1 <1>   0.0800 
 37 H        1.4070     2.3940     0.2910 H     1 <1>   0.0800 
 38 H       -1.2190    -4.5200     0.6670 H     1 <1>   0.4000 
 39 H        1.3020    -6.8250    -0.6500 H     1 <1>   0.1500 
 40 H       -1.1220    -6.8710    -0.9220 H     1 <1>   0.0800 
 41 H       -2.4470    -6.3050     0.0540 H     1 <1>   0.0800 
 42 H       -1.5190    -7.3710     2.0380 H     1 <1>   0.0800 
 43 H       -0.0630    -7.7890     1.1800 H     1 <1>   0.0800 
 44 H       -4.0610    -7.5330     1.7300 H     1 <1>   0.1500 
 45 H       -2.0380   -11.8180    -0.7530 H     1 <1>   0.2700 
 46 H        0.8610    -9.3930    -0.1770 H     1 <1>   0.0800 
 47 H        0.3040   -10.3930    -1.4910 H     1 <1>   0.0800 
 48 H        0.6220   -11.1010     0.0780 H     1 <1>   0.0800 
 49 H       -6.3130    -8.5030     1.6610 H     1 <1>   0.1500 
 50 H       -4.0520   -13.0600    -0.1170 H     1 <1>   0.0800 
 51 H       -4.6640   -12.3140    -1.5770 H     1 <1>   0.0800 
 52 H       -5.7570   -12.8330    -0.3220 H     1 <1>   0.0800 
 53 H       -7.4230   -11.1070    -0.3480 H     1 <1>   0.0800 
 54 H       -7.8300   -10.0910     1.0050 H     1 <1>   0.0800 
 55 H       -7.2120   -11.6960     1.2900 H     1 <1>   0.0800 
@<TRIPOS>BOND
  1   1   2  2   
  2   2   3  am  
  3   2   4  1   
  4   3   5  1   
  5   3   6  1   
  6   4   7  ar  
  7   4   8  ar  
  8   5   9  1   
  9   5  29  1   
 10   5  30  1   
 11   6  10  1   
 12   6  31  1   
 13   6  32  1   
 14   7  11  ar  
 15   8  12  ar  
 16   8  33  1   
 17   9  10  1   
 18   9  34  1   
 19   9  35  1   
 20  10  36  1   
 21  10  37  1   
 22  11  13  1   
 23  11  14  ar  
 24  12  14  ar  
 25  13  15  1   
 26  13  38  1   
 27  14  39  1   
 28  15  16  1   
 29  15  40  1   
 30  15  41  1   
 31  16  17  1   
 32  16  42  1   
 33  16  43  1   
 34  17  18  1   
 35  17  19  2   
 36  18  20  ar  
 37  18  21  ar  
 38  19  22  1   
 39  19  23  1   
 40  20  22  1   
 41  20  24  ar  
 42  21  25  ar  
 43  21  44  1   
 44  22  45  1   
 45  23  46  1   
 46  23  47  1   
 47  23  48  1   
 48  24  26  ar  
 49  24  27  1   
 50  25  26  ar  
 51  25  49  1   
 52  26  28  1   
 53  27  50  1   
 54  27  51  1   
 55  27  52  1   
 56  28  53  1   
 57  28  54  1   
 58  28  55  1   
@<TRIPOS>SUBSTRUCTURE
  1 ****  15 GROUP 4 **** **** 0

# MOE 2024.06 (io_trps.svl 2023.06)
