@<TRIPOS>MOLECULE
NONAME
51 52 1 0 0 
SMALL
USER_CHARGES


@<TRIPOS>ATOM
  1 O       -3.8160     1.1570     1.4920 O.2   1 <1>  -0.5700 
  2 C       -3.0700     1.3690     0.5540 C.2   1 <1>   0.5440 
  3 N       -3.0630     0.4210    -0.4350 N.am  1 <1>  -0.6600 
  4 C       -2.3150     2.6060     0.4440 C.ar  1 <1>   0.0860 
  5 C       -2.5310    -0.9320    -0.1190 C.3   1 <1>   0.3200 
  6 C       -3.8360     0.6090    -1.7090 C.3   1 <1>   0.1400 
  7 C       -2.5350     3.6650     1.3290 C.ar  1 <1>  -0.1500 
  8 C       -1.3490     2.8010    -0.5470 C.ar  1 <1>  -0.1500 
  9 C       -3.6780    -1.9150    -0.0170 C.2   1 <1>  -0.3320 
 10 C       -5.1590     1.3870    -1.5020 C.3   1 <1>   0.3430 
 11 C       -1.8480     4.8600     1.2240 C.ar  1 <1>  -0.1500 
 12 C       -0.6590     3.9930    -0.6590 C.ar  1 <1>  -0.1500 
 13 N       -3.9210    -2.9170    -0.8850 N.pl3 1 <1>   0.0330 
 14 C       -4.6350    -1.9920     0.9330 C.2   1 <1>   0.0770 
 15 N       -5.9540     0.8390    -0.3590 N.4   1 <1>  -0.9590 
 16 C       -0.9010     5.0350     0.2200 C.ar  1 <1>   0.0830 
 17 C       -5.0380    -3.5160    -0.4220 C.2   1 <1>   0.0360 
 18 N       -5.5090    -2.9770     0.6550 N.2   1 <1>  -0.5650 
 19 C       -6.7370    -0.3840    -0.7110 C.3   1 <1>   0.2630 
 20 C       -6.8180     1.8710     0.2780 C.3   1 <1>   0.2630 
 21 O       -0.1830     6.1650     0.0320 O.3   1 <1>  -0.3620 
 22 C       -0.2300     7.2790     0.8960 C.3   1 <1>   0.2000 
 23 C        0.3230     8.4720     0.1190 C.3   1 <1>  -0.2400 
 24 C        0.6230     6.9840     2.1320 C.3   1 <1>  -0.2400 
 25 H       -2.0070    -0.9010     0.8230 H     1 <1>   0.0800 
 26 H       -1.8310    -1.2340    -0.8790 H     1 <1>   0.0800 
 27 H       -4.0660    -0.3480    -2.1420 H     1 <1>   0.0800 
 28 H       -3.2230     1.1420    -2.4140 H     1 <1>   0.0800 
 29 H       -3.2570     3.5470     2.1190 H     1 <1>   0.1500 
 30 H       -1.1250     2.0110    -1.2410 H     1 <1>   0.1500 
 31 H       -5.7440     1.3670    -2.4060 H     1 <1>   0.0800 
 32 H       -4.9070     2.4140    -1.2960 H     1 <1>   0.0800 
 33 H       -2.0570     5.6400     1.9320 H     1 <1>   0.1500 
 34 H        0.0810     4.1290    -1.4290 H     1 <1>   0.1500 
 35 H       -3.3740    -3.2040    -1.7040 H     1 <1>   0.2700 
 36 H       -4.7430    -1.3750     1.8130 H     1 <1>   0.1500 
 37 H       -5.2390     0.5670     0.3580 H     1 <1>   0.4500 
 38 H       -5.4790    -4.3670    -0.9140 H     1 <1>   0.1500 
 39 H       -7.5160    -0.1480    -1.4160 H     1 <1>   0.0800 
 40 H       -7.1850    -0.8060     0.1750 H     1 <1>   0.0800 
 41 H       -6.0900    -1.1310    -1.1400 H     1 <1>   0.0800 
 42 H       -7.5610     2.2240    -0.4180 H     1 <1>   0.0800 
 43 H       -6.2190     2.7050     0.6060 H     1 <1>   0.0800 
 44 H       -7.3170     1.4550     1.1390 H     1 <1>   0.0800 
 45 H       -1.2540     7.4760     1.1590 H     1 <1>   0.0800 
 46 H        1.3380     8.2830    -0.1850 H     1 <1>   0.0800 
 47 H        0.3060     9.3530     0.7340 H     1 <1>   0.0800 
 48 H       -0.2800     8.6520    -0.7520 H     1 <1>   0.0800 
 49 H        1.6380     6.7770     1.8420 H     1 <1>   0.0800 
 50 H        0.2330     6.1420     2.6720 H     1 <1>   0.0800 
 51 H        0.6220     7.8350     2.7890 H     1 <1>   0.0800 
@<TRIPOS>BOND
  1   1   2  2   
  2   2   3  am  
  3   2   4  1   
  4   3   5  1   
  5   3   6  1   
  6   4   7  ar  
  7   4   8  ar  
  8   5   9  1   
  9   5  25  1   
 10   5  26  1   
 11   6  10  1   
 12   6  27  1   
 13   6  28  1   
 14   7  11  ar  
 15   7  29  1   
 16   8  12  ar  
 17   8  30  1   
 18   9  13  1   
 19   9  14  2   
 20  10  15  1   
 21  10  31  1   
 22  10  32  1   
 23  11  16  ar  
 24  11  33  1   
 25  12  16  ar  
 26  12  34  1   
 27  13  17  1   
 28  13  35  1   
 29  14  18  1   
 30  14  36  1   
 31  15  19  1   
 32  15  20  1   
 33  15  37  1   
 34  16  21  1   
 35  17  18  2   
 36  17  38  1   
 37  19  39  1   
 38  19  40  1   
 39  19  41  1   
 40  20  42  1   
 41  20  43  1   
 42  20  44  1   
 43  21  22  1   
 44  22  23  1   
 45  22  24  1   
 46  22  45  1   
 47  23  46  1   
 48  23  47  1   
 49  23  48  1   
 50  24  49  1   
 51  24  50  1   
 52  24  51  1   
@<TRIPOS>SUBSTRUCTURE
  1 ****   2 GROUP 4 **** **** 0

# MOE 2024.06 (io_trps.svl 2023.06)
