@<TRIPOS>MOLECULE
NONAME
53 56 1 0 0 
SMALL
USER_CHARGES


@<TRIPOS>ATOM
  1 O       -1.3310     0.1900     0.6490 O.2   1 <1>  -0.5700 
  2 C       -2.1010     1.0030     0.1750 C.2   1 <1>   0.5440 
  3 N       -3.3120     0.5440    -0.2930 N.am  1 <1>  -0.6600 
  4 C       -1.7640     2.4060     0.1630 C.ar  1 <1>   0.0860 
  5 C       -3.4460    -0.8750    -0.7170 C.3   1 <1>   0.1400 
  6 C       -4.5670     1.1000     0.3000 C.3   1 <1>   0.1400 
  7 C       -2.2430     3.2850    -0.7880 C.ar  1 <1>   0.1600 
  8 C       -0.9280     2.9700     1.1050 C.ar  1 <1>   0.1600 
  9 C       -4.3790    -1.5330     0.3200 C.3   1 <1>   0.4230 
 10 C       -5.8100     0.2020    -0.0040 C.3   1 <1>  -0.1600 
 11 N       -1.9660     4.5680    -0.7930 N.ar  1 <1>  -0.6200 
 12 N       -0.6320     4.2470     1.1310 N.ar  1 <1>  -0.6200 
 13 N       -3.7610    -2.7260     0.9990 N.4   1 <1>  -0.9590 
 14 C       -5.8840    -1.4200    -0.1980 C.3   1 <1>   0.0000 
 15 C       -1.1730     5.0300     0.1870 C.ar  1 <1>   0.6200 
 16 C       -3.7290    -3.8750     0.1140 C.3   1 <1>   0.3430 
 17 C       -2.4190    -2.4340     1.6050 C.3   1 <1>   0.2630 
 18 C       -6.0420    -3.0100    -0.4860 C.3   1 <1>  -0.1600 
 19 C       -7.4190    -1.2330    -0.6550 C.3   1 <1>   0.1200 
 20 C       -0.8770     6.4620     0.2020 C.ar  1 <1>   0.3100 
 21 C       -5.1850    -4.2020    -0.0060 C.3   1 <1>  -0.1600 
 22 O       -8.2230    -1.3770     0.4740 O.3   1 <1>  -0.6800 
 23 N       -1.0130     7.1670     1.3410 N.ar  1 <1>  -0.6200 
 24 C       -0.4610     7.0810    -0.9810 C.ar  1 <1>  -0.1500 
 25 C       -0.7310     8.4550     1.2920 C.ar  1 <1>   0.1600 
 26 C       -0.1710     8.4270    -1.0200 C.ar  1 <1>  -0.1500 
 27 C       -0.3130     9.1260     0.1570 C.ar  1 <1>  -0.1500 
 28 H       -3.8900    -0.9080    -1.6970 H     1 <1>   0.0800 
 29 H       -2.4860    -1.3530    -0.7770 H     1 <1>   0.0800 
 30 H       -4.4390     1.1820     1.3680 H     1 <1>   0.0800 
 31 H       -4.7380     2.0960    -0.0770 H     1 <1>   0.0800 
 32 H       -2.8770     2.9120    -1.5740 H     1 <1>   0.1500 
 33 H       -0.4940     2.3400     1.8640 H     1 <1>   0.1500 
 34 H       -4.3670    -0.8720     1.1660 H     1 <1>   0.0800 
 35 H       -6.5470     0.5170     0.7190 H     1 <1>   0.0800 
 36 H       -6.0730     0.6570    -0.9470 H     1 <1>   0.0800 
 37 H       -4.4050    -2.9660     1.7650 H     1 <1>   0.4500 
 38 H       -3.2970    -3.6240    -0.8410 H     1 <1>   0.0800 
 39 H       -3.1910    -4.6970     0.5580 H     1 <1>   0.0800 
 40 H       -1.6840    -2.2480     0.8380 H     1 <1>   0.0800 
 41 H       -2.0860    -3.2670     2.2030 H     1 <1>   0.0800 
 42 H       -2.4730    -1.5590     2.2330 H     1 <1>   0.0800 
 43 H       -7.0110    -3.3870    -0.1890 H     1 <1>   0.0800 
 44 H       -6.0050    -3.0990    -1.5620 H     1 <1>   0.0800 
 45 H       -7.7740    -1.9340    -1.3970 H     1 <1>   0.0800 
 46 H       -7.7170    -0.2990    -1.1000 H     1 <1>   0.0800 
 47 H       -5.3030    -5.0260    -0.6890 H     1 <1>   0.0800 
 48 H       -5.5450    -4.5450     0.9500 H     1 <1>   0.0800 
 49 H       -9.1730    -1.2980     0.2470 H     1 <1>   0.4000 
 50 H       -0.3680     6.4900    -1.8750 H     1 <1>   0.1500 
 51 H       -0.8390     9.0100     2.2080 H     1 <1>   0.1500 
 52 H        0.1500     8.9100    -1.9270 H     1 <1>   0.1500 
 53 H       -0.1030    10.1790     0.1990 H     1 <1>   0.1500 
@<TRIPOS>BOND
  1   1   2  2   
  2   2   3  am  
  3   2   4  1   
  4   3   5  1   
  5   3   6  1   
  6   4   7  ar  
  7   4   8  ar  
  8   5   9  1   
  9   5  28  1   
 10   5  29  1   
 11   6  10  1   
 12   6  30  1   
 13   6  31  1   
 14   7  11  ar  
 15   7  32  1   
 16   8  12  ar  
 17   8  33  1   
 18   9  13  1   
 19   9  14  1   
 20   9  34  1   
 21  10  14  1   
 22  10  35  1   
 23  10  36  1   
 24  11  15  ar  
 25  12  15  ar  
 26  13  16  1   
 27  13  17  1   
 28  13  37  1   
 29  14  18  1   
 30  14  19  1   
 31  15  20  1   
 32  16  21  1   
 33  16  38  1   
 34  16  39  1   
 35  17  40  1   
 36  17  41  1   
 37  17  42  1   
 38  18  21  1   
 39  18  43  1   
 40  18  44  1   
 41  19  22  1   
 42  19  45  1   
 43  19  46  1   
 44  20  23  ar  
 45  20  24  ar  
 46  21  47  1   
 47  21  48  1   
 48  22  49  1   
 49  23  25  ar  
 50  24  26  ar  
 51  24  50  1   
 52  25  27  ar  
 53  25  51  1   
 54  26  27  ar  
 55  26  52  1   
 56  27  53  1   
@<TRIPOS>SUBSTRUCTURE
  1 ****   2 GROUP 4 **** **** 0

# MOE 2024.06 (io_trps.svl 2023.06)
