@<TRIPOS>MOLECULE
NONAME
55 57 1 0 0 
SMALL
USER_CHARGES


@<TRIPOS>ATOM
  1 O       -1.6430    -1.1020     1.9700 O.2   1 <1>  -0.5700 
  2 C       -1.8940    -0.6250     0.8950 C.2   1 <1>   0.4230 
  3 C       -3.1550    -0.8550     0.2440 C.ar  1 <1>   0.0860 
  4 C       -0.7850     0.1640     0.2270 C.3   1 <1>  -0.1790 
  5 C       -3.8910     0.0570    -0.5120 C.ar  1 <1>   0.1660 
  6 C       -3.7390    -2.1080     0.3690 C.ar  1 <1>   0.1600 
  7 N       -5.0120    -0.2710    -1.1050 N.ar  1 <1>  -0.6200 
  8 C       -3.4790     1.5090    -0.6890 C.3   1 <1>  -0.0960 
  9 N       -4.8700    -2.4560    -0.1990 N.ar  1 <1>  -0.6200 
 10 C       -5.4410    -1.5060    -0.9300 C.ar  1 <1>   0.7200 
 11 N       -6.5950    -1.7980    -1.5550 N.pl3 1 <1>  -0.8690 
 12 C       -7.2590    -3.1270    -1.6150 C.3   1 <1>   0.2090 
 13 C       -7.8140    -3.5440    -0.2240 C.3   1 <1>   0.5660 
 14 N       -7.5760    -4.9730     0.1540 N.4   1 <1>  -0.9590 
 15 C       -9.2930    -3.2410    -0.0060 C.ar  1 <1>  -0.1430 
 16 C       -6.1490    -5.1490     0.5460 C.3   1 <1>   0.3430 
 17 C       -8.0740    -5.9540    -0.8520 C.3   1 <1>   0.3430 
 18 C      -10.2760    -3.4830    -0.9600 C.ar  1 <1>  -0.1500 
 19 C       -9.6680    -2.7060     1.2200 C.ar  1 <1>  -0.1500 
 20 C       -5.8890    -6.4910     1.2330 C.3   1 <1>  -0.1600 
 21 C       -8.4780    -7.2510    -0.1550 C.3   1 <1>  -0.1600 
 22 C      -11.6040    -3.2030    -0.6870 C.ar  1 <1>  -0.1500 
 23 C      -10.9950    -2.4260     1.4920 C.ar  1 <1>  -0.1500 
 24 C       -5.9370    -7.6830     0.2680 C.3   1 <1>  -0.1600 
 25 C       -7.3410    -8.2650     0.0500 C.3   1 <1>  -0.1600 
 26 C      -11.9640    -2.6760     0.5390 C.ar  1 <1>  -0.1500 
 27 H       -0.9090     0.1750    -0.8400 H     1 <1>   0.0800 
 28 H        0.1610    -0.2940     0.4520 H     1 <1>   0.0800 
 29 H       -0.7700     1.1690     0.6050 H     1 <1>   0.0800 
 30 H       -3.2280    -2.8430     0.9700 H     1 <1>   0.1500 
 31 H       -3.0400     1.8970     0.2110 H     1 <1>   0.0800 
 32 H       -4.3410     2.1120    -0.9150 H     1 <1>   0.0800 
 33 H       -2.7850     1.6010    -1.5030 H     1 <1>   0.0800 
 34 H       -6.9700    -1.0350    -2.1260 H     1 <1>   0.4000 
 35 H       -6.5280    -3.8430    -1.9450 H     1 <1>   0.0800 
 36 H       -8.0430    -3.0880    -2.3490 H     1 <1>   0.0800 
 37 H       -7.2760    -2.9390     0.4880 H     1 <1>   0.0800 
 38 H       -8.1460    -5.1100     0.9970 H     1 <1>   0.4500 
 39 H       -5.8730    -4.3610     1.2290 H     1 <1>   0.0800 
 40 H       -5.5140    -5.0590    -0.3210 H     1 <1>   0.0800 
 41 H       -7.3280    -6.1460    -1.6070 H     1 <1>   0.0800 
 42 H       -8.9490    -5.5570    -1.3360 H     1 <1>   0.0800 
 43 H      -10.0430    -3.8870    -1.9290 H     1 <1>   0.1500 
 44 H       -8.9340    -2.4940     1.9800 H     1 <1>   0.1500 
 45 H       -6.5530    -6.6350     2.0670 H     1 <1>   0.0800 
 46 H       -4.8910    -6.4430     1.6340 H     1 <1>   0.0800 
 47 H       -9.2310    -7.7310    -0.7570 H     1 <1>   0.0800 
 48 H       -8.9450    -7.0260     0.7890 H     1 <1>   0.0800 
 49 H      -12.3620    -3.3900    -1.4290 H     1 <1>   0.1500 
 50 H      -11.2780    -2.0100     2.4440 H     1 <1>   0.1500 
 51 H       -5.3180    -8.4710     0.6660 H     1 <1>   0.0800 
 52 H       -5.5040    -7.4040    -0.6780 H     1 <1>   0.0800 
 53 H       -7.2950    -8.9160    -0.8080 H     1 <1>   0.0800 
 54 H       -7.5940    -8.8890     0.8910 H     1 <1>   0.0800 
 55 H      -12.9970    -2.4570     0.7500 H     1 <1>   0.1500 
@<TRIPOS>BOND
  1   1   2  2   
  2   2   3  1   
  3   2   4  1   
  4   3   5  ar  
  5   3   6  ar  
  6   4  27  1   
  7   4  28  1   
  8   4  29  1   
  9   5   7  ar  
 10   5   8  1   
 11   6   9  ar  
 12   6  30  1   
 13   7  10  ar  
 14   8  31  1   
 15   8  32  1   
 16   8  33  1   
 17   9  10  ar  
 18  10  11  1   
 19  11  12  1   
 20  11  34  1   
 21  12  13  1   
 22  12  35  1   
 23  12  36  1   
 24  13  14  1   
 25  13  15  1   
 26  13  37  1   
 27  14  16  1   
 28  14  17  1   
 29  14  38  1   
 30  15  18  ar  
 31  15  19  ar  
 32  16  20  1   
 33  16  39  1   
 34  16  40  1   
 35  17  21  1   
 36  17  41  1   
 37  17  42  1   
 38  18  22  ar  
 39  18  43  1   
 40  19  23  ar  
 41  19  44  1   
 42  20  24  1   
 43  20  45  1   
 44  20  46  1   
 45  21  25  1   
 46  21  47  1   
 47  21  48  1   
 48  22  26  ar  
 49  22  49  1   
 50  23  26  ar  
 51  23  50  1   
 52  24  25  1   
 53  24  51  1   
 54  24  52  1   
 55  25  53  1   
 56  25  54  1   
 57  26  55  1   
@<TRIPOS>SUBSTRUCTURE
  1 ****  13 GROUP 4 **** **** 0

# MOE 2024.06 (io_trps.svl 2023.06)
