@<TRIPOS>MOLECULE
NONAME
58 60 1 0 0 
SMALL
USER_CHARGES


@<TRIPOS>ATOM
  1 O        0.7490    -0.5840    -1.1370 O.2   1 <1>  -0.5700 
  2 C        1.0070    -0.6300     0.0430 C.2   1 <1>   0.5690 
  3 N        1.5200     0.4390     0.6940 N.am  1 <1>  -0.7300 
  4 C        0.8080    -1.9210     0.8330 C.3   1 <1>  -0.0190 
  5 C        2.0170     1.6480     0.0260 C.3   1 <1>   0.4000 
  6 C        2.1420    -2.6780     0.9750 C.3   1 <1>  -0.1600 
  7 C       -0.2610    -2.8450     0.2130 C.3   1 <1>  -0.1600 
  8 C        3.5420     1.5370    -0.0180 C.2   1 <1>   0.0060 
  9 C        1.5030     2.8750     0.7940 C.3   1 <1>  -0.1600 
 10 C        1.9710    -3.9920     1.7410 C.3   1 <1>   0.1400 
 11 C       -0.3980    -4.1530     0.9940 C.3   1 <1>   0.1400 
 12 N        4.3370     1.9090     0.9410 N.2   1 <1>  -0.5650 
 13 N        4.1940     0.9910    -1.0760 N.pl3 1 <1>   0.0480 
 14 C        1.8800     4.1980     0.1070 C.3   1 <1>  -0.1600 
 15 N        0.9310    -4.8210     1.0700 N.am  1 <1>  -0.6600 
 16 C        5.5630     1.6040     0.4830 C.2   1 <1>   0.0770 
 17 C        5.4950     1.0420    -0.7420 C.2   1 <1>  -0.3020 
 18 C        3.6420     0.4010    -2.3120 C.3   1 <1>   0.0160 
 19 C        1.3140     5.3960     0.8730 C.3   1 <1>  -0.2400 
 20 C        1.2480    -6.0500     0.5340 C.2   1 <1>   0.5690 
 21 O        2.3620    -6.5090     0.6470 O.2   1 <1>  -0.5700 
 22 C        0.2010    -6.8770    -0.2300 C.3   1 <1>  -0.0190 
 23 C        0.5580    -8.3490    -0.4670 C.3   1 <1>  -0.1600 
 24 C       -0.0680    -6.3630    -1.6490 C.3   1 <1>  -0.1600 
 25 C       -0.3810    -8.7990    -1.5860 C.3   1 <1>  -0.1600 
 26 C       -0.6890    -7.5420    -2.4070 C.3   1 <1>  -0.1600 
 27 H        1.8960     0.3390     1.6370 H     1 <1>   0.3700 
 28 H        0.4700    -1.6470     1.8160 H     1 <1>   0.0800 
 29 H        1.6260     1.6950    -0.9750 H     1 <1>   0.0800 
 30 H        2.8610    -2.0630     1.4880 H     1 <1>   0.0800 
 31 H        2.5410    -2.8980     0.0000 H     1 <1>   0.0800 
 32 H        0.0020    -3.0770    -0.8050 H     1 <1>   0.0800 
 33 H       -1.2090    -2.3370     0.1950 H     1 <1>   0.0800 
 34 H        1.9080     2.8660     1.7900 H     1 <1>   0.0800 
 35 H        0.4310     2.8130     0.8600 H     1 <1>   0.0800 
 36 H        1.6640    -3.7960     2.7540 H     1 <1>   0.0800 
 37 H        2.9140    -4.5100     1.7780 H     1 <1>   0.0800 
 38 H       -1.1310    -4.7760     0.5180 H     1 <1>   0.0800 
 39 H       -0.7420    -3.9480     1.9940 H     1 <1>   0.0800 
 40 H        1.4990     4.2080    -0.9000 H     1 <1>   0.0800 
 41 H        2.9530     4.2880     0.0590 H     1 <1>   0.0800 
 42 H        6.4440     1.8050     1.0690 H     1 <1>   0.1500 
 43 H        6.2860     0.6830    -1.3750 H     1 <1>   0.1500 
 44 H        2.9000     1.0560    -2.7290 H     1 <1>   0.0800 
 45 H        3.1940    -0.5480    -2.0820 H     1 <1>   0.0800 
 46 H        4.4310     0.2590    -3.0270 H     1 <1>   0.0800 
 47 H        0.2400     5.3440     0.9180 H     1 <1>   0.0800 
 48 H        1.5920     6.3120     0.3800 H     1 <1>   0.0800 
 49 H        1.7040     5.4170     1.8760 H     1 <1>   0.0800 
 50 H       -0.7170    -6.8700     0.3270 H     1 <1>   0.0800 
 51 H        0.4460    -8.9400     0.4250 H     1 <1>   0.0800 
 52 H        1.5750    -8.4280    -0.8130 H     1 <1>   0.0800 
 53 H        0.8700    -6.1010    -2.1090 H     1 <1>   0.0800 
 54 H       -0.7110    -5.5010    -1.6580 H     1 <1>   0.0800 
 55 H       -1.2930    -9.1800    -1.1580 H     1 <1>   0.0800 
 56 H        0.0700    -9.5690    -2.1880 H     1 <1>   0.0800 
 57 H       -0.2660    -7.6140    -3.3950 H     1 <1>   0.0800 
 58 H       -1.7540    -7.4140    -2.4940 H     1 <1>   0.0800 
@<TRIPOS>BOND
  1   1   2  2   
  2   2   3  am  
  3   2   4  1   
  4   3   5  1   
  5   3  27  1   
  6   4   6  1   
  7   4   7  1   
  8   4  28  1   
  9   5   8  1   
 10   5   9  1   
 11   5  29  1   
 12   6  10  1   
 13   6  30  1   
 14   6  31  1   
 15   7  11  1   
 16   7  32  1   
 17   7  33  1   
 18   8  12  2   
 19   8  13  1   
 20   9  14  1   
 21   9  34  1   
 22   9  35  1   
 23  10  15  1   
 24  10  36  1   
 25  10  37  1   
 26  11  15  1   
 27  11  38  1   
 28  11  39  1   
 29  12  16  1   
 30  13  17  1   
 31  13  18  1   
 32  14  19  1   
 33  14  40  1   
 34  14  41  1   
 35  15  20  am  
 36  16  17  2   
 37  16  42  1   
 38  17  43  1   
 39  18  44  1   
 40  18  45  1   
 41  18  46  1   
 42  19  47  1   
 43  19  48  1   
 44  19  49  1   
 45  20  21  2   
 46  20  22  1   
 47  22  23  1   
 48  22  24  1   
 49  22  50  1   
 50  23  25  1   
 51  23  51  1   
 52  23  52  1   
 53  24  26  1   
 54  24  53  1   
 55  24  54  1   
 56  25  26  1   
 57  25  55  1   
 58  25  56  1   
 59  26  57  1   
 60  26  58  1   
@<TRIPOS>SUBSTRUCTURE
  1 ****   4 GROUP 4 **** **** 0

# MOE 2024.06 (io_trps.svl 2023.06)
