@<TRIPOS>MOLECULE
NONAME
50 52 1 0 0 
SMALL
USER_CHARGES


@<TRIPOS>ATOM
  1 S        1.6440    -0.0340     1.2720 S.3   1 <1>  -0.0800 
  2 C        1.8380     0.4610    -0.3900 C.2   1 <1>   0.2280 
  3 C        1.8890     1.6120     1.7580 C.2   1 <1>  -0.1100 
  4 N        2.0630     1.7050    -0.5460 N.2   1 <1>  -0.5650 
  5 C        2.0900     2.3980     0.6770 C.2   1 <1>   0.1410 
  6 C        2.3270     3.8370     0.7270 C.2   1 <1>   0.7160 
  7 O        2.6460     4.3850     1.7690 O.2   1 <1>  -0.5700 
  8 N        2.3130     4.6390    -0.3910 N.am  1 <1>  -0.6600 
  9 C        3.4090     4.5190    -1.3980 C.3   1 <1>   0.1400 
 10 C        1.5550     5.9200    -0.4150 C.3   1 <1>   0.1400 
 11 C        4.7510     5.0150    -0.8180 C.3   1 <1>   0.3430 
 12 C        2.3240     7.0760     0.2470 C.3   1 <1>  -0.1600 
 13 N        4.5600     6.0360     0.2710 N.4   1 <1>  -0.9590 
 14 C        3.7890     7.2300    -0.1720 C.3   1 <1>   0.3430 
 15 C        5.8120     6.3670     1.0110 C.3   1 <1>   0.3430 
 16 C        6.8590     7.0290     0.1090 C.3   1 <1>  -0.1600 
 17 C        8.0940     7.4750     0.9070 C.3   1 <1>   0.1000 
 18 C        9.0440     8.2770     0.0300 C.2   1 <1>  -0.0400 
 19 C        8.8470     6.2830     1.5170 C.3   1 <1>  -0.2400 
 20 O        9.9720     8.9940     0.6330 O.3   1 <1>  -0.2800 
 21 C        9.1420     8.4220    -1.3110 C.2   1 <1>  -0.1500 
 22 C       10.6780     9.6060    -0.2940 C.2   1 <1>  -0.0400 
 23 C       10.2160     9.2950    -1.5220 C.2   1 <1>  -0.1500 
 24 C       11.8190    10.5000     0.1380 C.3   1 <1>  -0.0600 
 25 H        1.7570    -0.3060    -1.1410 H     1 <1>   0.1500 
 26 H        1.8560     1.8410     2.8080 H     1 <1>   0.1500 
 27 H        3.1600     5.0950    -2.2720 H     1 <1>   0.0800 
 28 H        3.5130     3.4960    -1.7150 H     1 <1>   0.0800 
 29 H        0.6170     5.7800     0.0990 H     1 <1>   0.0800 
 30 H        1.3230     6.1710    -1.4370 H     1 <1>   0.0800 
 31 H        5.3570     5.4180    -1.6120 H     1 <1>   0.0800 
 32 H        5.2720     4.1640    -0.4100 H     1 <1>   0.0800 
 33 H        2.2690     6.9740     1.3170 H     1 <1>   0.0800 
 34 H        1.8100     7.9890     0.0070 H     1 <1>   0.0800 
 35 H        3.9220     5.5650     0.9510 H     1 <1>   0.4500 
 36 H        4.1890     8.1150     0.2960 H     1 <1>   0.0800 
 37 H        3.8630     7.3520    -1.2410 H     1 <1>   0.0800 
 38 H        6.2250     5.4650     1.4340 H     1 <1>   0.0800 
 39 H        5.5760     7.0320     1.8270 H     1 <1>   0.0800 
 40 H        6.4370     7.9020    -0.3560 H     1 <1>   0.0800 
 41 H        7.1750     6.3460    -0.6580 H     1 <1>   0.0800 
 42 H        7.7770     8.1270     1.7040 H     1 <1>   0.0800 
 43 H        9.1730     5.6090     0.7450 H     1 <1>   0.0800 
 44 H        8.2410     5.7490     2.2240 H     1 <1>   0.0800 
 45 H        9.7210     6.6390     2.0350 H     1 <1>   0.0800 
 46 H        8.5530     7.9830    -2.0950 H     1 <1>   0.1500 
 47 H       10.5750     9.6280    -2.4800 H     1 <1>   0.1500 
 48 H       12.5370     9.9260     0.6950 H     1 <1>   0.0800 
 49 H       11.4430    11.2900     0.7620 H     1 <1>   0.0800 
 50 H       12.3020    10.9280    -0.7210 H     1 <1>   0.0800 
@<TRIPOS>BOND
  1   1   2  1   
  2   1   3  1   
  3   2   4  2   
  4   2  25  1   
  5   3   5  2   
  6   3  26  1   
  7   4   5  1   
  8   5   6  1   
  9   6   7  2   
 10   6   8  am  
 11   8   9  1   
 12   8  10  1   
 13   9  11  1   
 14   9  27  1   
 15   9  28  1   
 16  10  12  1   
 17  10  29  1   
 18  10  30  1   
 19  11  13  1   
 20  11  31  1   
 21  11  32  1   
 22  12  14  1   
 23  12  33  1   
 24  12  34  1   
 25  13  14  1   
 26  13  15  1   
 27  13  35  1   
 28  14  36  1   
 29  14  37  1   
 30  15  16  1   
 31  15  38  1   
 32  15  39  1   
 33  16  17  1   
 34  16  40  1   
 35  16  41  1   
 36  17  18  1   
 37  17  19  1   
 38  17  42  1   
 39  18  20  1   
 40  18  21  2   
 41  19  43  1   
 42  19  44  1   
 43  19  45  1   
 44  20  22  1   
 45  21  23  1   
 46  21  46  1   
 47  22  23  2   
 48  22  24  1   
 49  23  47  1   
 50  24  48  1   
 51  24  49  1   
 52  24  50  1   
@<TRIPOS>SUBSTRUCTURE
  1 ****  13 GROUP 4 **** **** 0

# MOE 2024.06 (io_trps.svl 2023.06)
