@<TRIPOS>MOLECULE
NONAME
50 53 1 0 0 
SMALL
USER_CHARGES


@<TRIPOS>ATOM
  1 O       -1.2200     0.1240    -2.7500 O.2   1 <1>  -0.5700 
  2 C       -1.8400     0.7010    -1.8760 C.2   1 <1>   0.5440 
  3 N       -2.8690     0.0470    -1.2300 N.am  1 <1>  -0.6600 
  4 C       -1.4820     2.0660    -1.5430 C.ar  1 <1>   0.0860 
  5 C       -3.0010    -1.4490    -1.2390 C.3   1 <1>   0.1400 
  6 C       -4.0330     0.7540    -0.6360 C.3   1 <1>   0.1400 
  7 C       -1.2820     2.4590    -0.2150 C.ar  1 <1>  -0.1500 
  8 C       -1.3200     3.0290    -2.5470 C.ar  1 <1>  -0.1500 
  9 C       -3.1830    -1.9920     0.1970 C.3   1 <1>  -0.1060 
 10 C       -4.2430     0.2850     0.8020 C.3   1 <1>  -0.1600 
 11 C       -0.9550     3.7680     0.0770 C.ar  1 <1>  -0.1440 
 12 C       -0.9920     4.3420    -2.2500 C.ar  1 <1>  -0.1500 
 13 C       -3.6170    -3.4550     0.1610 C.2   1 <1>   0.9060 
 14 C       -4.3650    -1.2390     0.8470 C.3   1 <1>   0.2000 
 15 C       -1.8630    -1.8360     1.0080 C.3   1 <1>  -0.0170 
 16 C       -0.8170     4.6910    -0.9240 C.ar  1 <1>   0.0820 
 17 C       -0.6940     4.4440     1.3900 C.3   1 <1>  -0.0170 
 18 O       -3.8800    -4.0080    -0.9120 O.co2 1 <1>  -0.9000 
 19 O       -3.8000    -4.0320     1.2460 O.co2 1 <1>  -0.9000 
 20 O       -4.4990    -1.6170     2.1690 O.3   1 <1>  -0.6800 
 21 C       -0.6550    -2.5520     0.4080 C.ar  1 <1>  -0.1430 
 22 O       -0.5010     5.9100    -0.4710 O.3   1 <1>  -0.3630 
 23 C       -0.3950     5.8890     0.9460 C.3   1 <1>   0.1200 
 24 C       -0.4730    -3.9090     0.6210 C.ar  1 <1>  -0.1500 
 25 C        0.2770    -1.8570    -0.3470 C.ar  1 <1>  -0.1500 
 26 C        0.6260    -4.5630     0.0910 C.ar  1 <1>  -0.1500 
 27 C        1.3770    -2.5070    -0.8790 C.ar  1 <1>  -0.1500 
 28 C        1.5540    -3.8620    -0.6590 C.ar  1 <1>  -0.1500 
 29 H       -3.8580    -1.7120    -1.8360 H     1 <1>   0.0800 
 30 H       -2.1440    -1.9090    -1.7010 H     1 <1>   0.0800 
 31 H       -3.8950     1.8200    -0.6600 H     1 <1>   0.0800 
 32 H       -4.9070     0.5210    -1.2200 H     1 <1>   0.0800 
 33 H       -1.3820     1.7320     0.5710 H     1 <1>   0.1500 
 34 H       -1.4550     2.7290    -3.5720 H     1 <1>   0.1500 
 35 H       -5.1470     0.7210     1.1860 H     1 <1>   0.0800 
 36 H       -3.4230     0.6130     1.4120 H     1 <1>   0.0800 
 37 H       -0.8700     5.0820    -3.0190 H     1 <1>   0.1500 
 38 H       -5.2730    -1.5320     0.3450 H     1 <1>   0.0800 
 39 H       -1.6230    -0.7960     1.1120 H     1 <1>   0.0800 
 40 H       -2.0080    -2.2190     2.0030 H     1 <1>   0.0800 
 41 H        0.1550     4.0130     1.8900 H     1 <1>   0.0800 
 42 H       -1.5570     4.4080     2.0300 H     1 <1>   0.0800 
 43 H       -4.3630    -2.6090     2.1780 H     1 <1>   0.4000 
 44 H        0.6030     6.1870     1.2110 H     1 <1>   0.0800 
 45 H       -1.1130     6.5830     1.3450 H     1 <1>   0.0800 
 46 H       -1.1980    -4.4640     1.1950 H     1 <1>   0.1500 
 47 H        0.1450    -0.8070    -0.5320 H     1 <1>   0.1500 
 48 H        0.7470    -5.6180     0.2600 H     1 <1>   0.1500 
 49 H        2.0860    -1.9560    -1.4700 H     1 <1>   0.1500 
 50 H        2.4050    -4.3690    -1.0750 H     1 <1>   0.1500 
@<TRIPOS>BOND
  1   1   2  2   
  2   2   3  am  
  3   2   4  1   
  4   3   5  1   
  5   3   6  1   
  6   4   7  ar  
  7   4   8  ar  
  8   5   9  1   
  9   5  29  1   
 10   5  30  1   
 11   6  10  1   
 12   6  31  1   
 13   6  32  1   
 14   7  11  ar  
 15   7  33  1   
 16   8  12  ar  
 17   8  34  1   
 18   9  13  1   
 19   9  14  1   
 20   9  15  1   
 21  10  14  1   
 22  10  35  1   
 23  10  36  1   
 24  11  16  ar  
 25  11  17  1   
 26  12  16  ar  
 27  12  37  1   
 28  13  18  ar  
 29  13  19  ar  
 30  14  20  1   
 31  14  38  1   
 32  15  21  1   
 33  15  39  1   
 34  15  40  1   
 35  16  22  1   
 36  17  23  1   
 37  17  41  1   
 38  17  42  1   
 39  20  43  1   
 40  21  24  ar  
 41  21  25  ar  
 42  22  23  1   
 43  23  44  1   
 44  23  45  1   
 45  24  26  ar  
 46  24  46  1   
 47  25  27  ar  
 48  25  47  1   
 49  26  28  ar  
 50  26  48  1   
 51  27  28  ar  
 52  27  49  1   
 53  28  50  1   
@<TRIPOS>SUBSTRUCTURE
  1 ****   3 GROUP 4 **** **** 0

# MOE 2024.06 (io_trps.svl 2023.06)
