@<TRIPOS>MOLECULE
NONAME
38 39 1 0 0 
SMALL
USER_CHARGES


@<TRIPOS>ATOM
  1 O       -1.2610    -1.7630     0.7880 O.co2 1 <1>  -0.9000 
  2 C       -1.6700    -0.6330     1.0480 C.2   1 <1>   0.9060 
  3 O       -1.2470     0.0440     1.9970 O.co2 1 <1>  -0.9000 
  4 C       -2.6480     0.0630     0.0700 C.3   1 <1>   0.3170 
  5 N       -2.4530     1.5710     0.0100 N.4   1 <1>  -0.9590 
  6 C       -4.1040    -0.2430     0.4550 C.3   1 <1>  -0.1600 
  7 C       -3.4010     2.2900    -0.8780 C.3   1 <1>   0.3430 
  8 C       -1.0200     1.8940    -0.2740 C.3   1 <1>   0.5240 
  9 C       -5.1140     0.4680    -0.4550 C.3   1 <1>  -0.1600 
 10 C       -4.8410     1.9760    -0.4710 C.3   1 <1>  -0.1600 
 11 C       -0.7110     3.3390     0.0850 C.2   1 <1>   0.0460 
 12 N       -1.1190     4.3880    -0.6670 N.2   1 <1>  -0.5650 
 13 C       -0.0250     3.7930     1.1430 C.2   1 <1>  -0.0100 
 14 C       -0.6560     5.4020    -0.0250 C.2   1 <1>   0.2980 
 15 O        0.0060     5.0940     1.0680 O.3   1 <1>  -0.2800 
 16 C       -0.8110     6.8690    -0.4170 C.3   1 <1>   0.1000 
 17 C        0.5560     7.5260    -0.6570 C.3   1 <1>  -0.2400 
 18 C       -1.5970     7.6440     0.6490 C.3   1 <1>  -0.2400 
 19 H       -2.4570    -0.3560    -0.9010 H     1 <1>   0.0800 
 20 H       -2.5810     1.8670     0.9880 H     1 <1>   0.4500 
 21 H       -4.2630     0.0460     1.4800 H     1 <1>   0.0800 
 22 H       -4.2570    -1.3070     0.3990 H     1 <1>   0.0800 
 23 H       -3.2410     1.9850    -1.8990 H     1 <1>   0.0800 
 24 H       -3.2380     3.3530    -0.8120 H     1 <1>   0.0800 
 25 H       -0.7970     1.7240    -1.3140 H     1 <1>   0.0800 
 26 H       -0.3740     1.2630     0.3140 H     1 <1>   0.0800 
 27 H       -6.1140     0.2800    -0.1030 H     1 <1>   0.0800 
 28 H       -5.0360     0.0740    -1.4550 H     1 <1>   0.0800 
 29 H       -5.5120     2.4540    -1.1640 H     1 <1>   0.0800 
 30 H       -5.0310     2.3940     0.5030 H     1 <1>   0.0800 
 31 H        0.4540     3.2890     1.9670 H     1 <1>   0.1500 
 32 H       -1.3670     6.9040    -1.3380 H     1 <1>   0.0800 
 33 H        1.1390     7.5220     0.2470 H     1 <1>   0.0800 
 34 H        0.4310     8.5420    -0.9840 H     1 <1>   0.0800 
 35 H        1.0950     6.9850    -1.4150 H     1 <1>   0.0800 
 36 H       -1.0650     7.6420     1.5840 H     1 <1>   0.0800 
 37 H       -2.5590     7.1880     0.8010 H     1 <1>   0.0800 
 38 H       -1.7460     8.6630     0.3380 H     1 <1>   0.0800 
@<TRIPOS>BOND
  1   1   2  ar  
  2   2   3  ar  
  3   2   4  1   
  4   4   5  1   
  5   4   6  1   
  6   4  19  1   
  7   5   7  1   
  8   5   8  1   
  9   5  20  1   
 10   6   9  1   
 11   6  21  1   
 12   6  22  1   
 13   7  10  1   
 14   7  23  1   
 15   7  24  1   
 16   8  11  1   
 17   8  25  1   
 18   8  26  1   
 19   9  10  1   
 20   9  27  1   
 21   9  28  1   
 22  10  29  1   
 23  10  30  1   
 24  11  12  1   
 25  11  13  2   
 26  12  14  2   
 27  13  15  1   
 28  13  31  1   
 29  14  15  1   
 30  14  16  1   
 31  16  17  1   
 32  16  18  1   
 33  16  32  1   
 34  17  33  1   
 35  17  34  1   
 36  17  35  1   
 37  18  36  1   
 38  18  37  1   
 39  18  38  1   
@<TRIPOS>SUBSTRUCTURE
  1 ****  11 GROUP 4 **** **** 0

# MOE 2024.06 (io_trps.svl 2023.06)
