@<TRIPOS>MOLECULE
NONAME
46 48 1 0 0 
SMALL
USER_CHARGES


@<TRIPOS>ATOM
  1 O       -1.1850     0.0300     0.5830 O.2   1 <1>  -0.5700 
  2 C       -1.8190     0.8690    -0.0420 C.2   1 <1>   0.7160 
  3 N       -2.9640     0.4170    -0.6760 N.am  1 <1>  -0.6600 
  4 C       -1.3740     2.2590    -0.0650 C.2   1 <1>   0.1410 
  5 C       -3.1210    -1.0250    -0.9820 C.3   1 <1>   0.1400 
  6 C       -4.2480     1.1630    -0.5910 C.3   1 <1>   0.1400 
  7 N       -1.8780     3.2310    -0.8830 N.2   1 <1>  -0.5650 
  8 C       -0.3870     2.8140     0.6970 C.2   1 <1>  -0.3020 
  9 C       -3.9370    -1.6830     0.1510 C.3   1 <1>   0.4230 
 10 C       -5.1000     0.5270     0.5170 C.3   1 <1>  -0.1600 
 11 C       -1.2030     4.2930    -0.5950 C.2   1 <1>   0.0360 
 12 N       -0.2750     4.1040     0.3660 N.pl3 1 <1>   0.0480 
 13 N       -3.9900    -3.2020     0.0710 N.4   1 <1>  -0.9590 
 14 C       -5.3280    -1.0040     0.3400 C.3   1 <1>   0.0000 
 15 C        0.6640     5.0960     0.9150 C.3   1 <1>   0.0160 
 16 C       -5.0870    -3.8190     0.8860 C.3   1 <1>   0.3430 
 17 C       -3.9930    -3.7770    -1.3150 C.3   1 <1>   0.2630 
 18 C       -5.9980    -1.5620     1.6310 C.3   1 <1>  -0.1600 
 19 C       -6.2290    -1.2710    -0.9000 C.3   1 <1>   0.1200 
 20 C       -5.4510    -2.9320     2.0750 C.3   1 <1>  -0.1600 
 21 O       -7.4040    -0.5410    -0.8490 O.3   1 <1>  -0.6800 
 22 H       -3.6070    -1.1230    -1.9350 H     1 <1>   0.0800 
 23 H       -2.1500    -1.4840    -1.0490 H     1 <1>   0.0800 
 24 H       -4.0790     2.1990    -0.3540 H     1 <1>   0.0800 
 25 H       -4.7560     1.1250    -1.5400 H     1 <1>   0.0800 
 26 H        0.2230     2.3320     1.4410 H     1 <1>   0.1500 
 27 H       -3.3890    -1.4510     1.0500 H     1 <1>   0.0800 
 28 H       -4.5940     0.7150     1.4490 H     1 <1>   0.0800 
 29 H       -6.0390     1.0500     0.5710 H     1 <1>   0.0800 
 30 H       -1.3490     5.2490    -1.0660 H     1 <1>   0.1500 
 31 H       -3.1070    -3.5020     0.5130 H     1 <1>   0.4500 
 32 H        1.1640     4.6820     1.7720 H     1 <1>   0.0800 
 33 H        0.1230     5.9770     1.2070 H     1 <1>   0.0800 
 34 H        1.3910     5.3500     0.1650 H     1 <1>   0.0800 
 35 H       -5.9660    -3.9480     0.2750 H     1 <1>   0.0800 
 36 H       -4.7800    -4.7920     1.2350 H     1 <1>   0.0800 
 37 H       -4.8700    -3.4600    -1.8540 H     1 <1>   0.0800 
 38 H       -3.9870    -4.8540    -1.2720 H     1 <1>   0.0800 
 39 H       -3.1190    -3.4580    -1.8590 H     1 <1>   0.0800 
 40 H       -5.8590    -0.8810     2.4550 H     1 <1>   0.0800 
 41 H       -7.0620    -1.6420     1.4920 H     1 <1>   0.0800 
 42 H       -6.5000    -2.3080    -0.9740 H     1 <1>   0.0800 
 43 H       -5.7370    -0.9830    -1.8120 H     1 <1>   0.0800 
 44 H       -6.1930    -3.4300     2.6750 H     1 <1>   0.0800 
 45 H       -4.5810    -2.8010     2.6960 H     1 <1>   0.0800 
 46 H       -7.9350    -0.7470    -0.0550 H     1 <1>   0.4000 
@<TRIPOS>BOND
  1   1   2  2   
  2   2   3  am  
  3   2   4  1   
  4   3   5  1   
  5   3   6  1   
  6   4   7  1   
  7   4   8  2   
  8   5   9  1   
  9   5  22  1   
 10   5  23  1   
 11   6  10  1   
 12   6  24  1   
 13   6  25  1   
 14   7  11  2   
 15   8  12  1   
 16   8  26  1   
 17   9  13  1   
 18   9  14  1   
 19   9  27  1   
 20  10  14  1   
 21  10  28  1   
 22  10  29  1   
 23  11  12  1   
 24  11  30  1   
 25  12  15  1   
 26  13  16  1   
 27  13  17  1   
 28  13  31  1   
 29  14  18  1   
 30  14  19  1   
 31  15  32  1   
 32  15  33  1   
 33  15  34  1   
 34  16  20  1   
 35  16  35  1   
 36  16  36  1   
 37  17  37  1   
 38  17  38  1   
 39  17  39  1   
 40  18  20  1   
 41  18  40  1   
 42  18  41  1   
 43  19  21  1   
 44  19  42  1   
 45  19  43  1   
 46  20  44  1   
 47  20  45  1   
 48  21  46  1   
@<TRIPOS>SUBSTRUCTURE
  1 ****   3 GROUP 4 **** **** 0

# MOE 2024.06 (io_trps.svl 2023.06)
