@<TRIPOS>MOLECULE
NONAME
41 44 1 0 0 
SMALL
USER_CHARGES


@<TRIPOS>ATOM
  1 S        1.8570    -0.5110     0.2960 S.3   1 <1>  -0.0800 
  2 C        0.7340    -1.6530    -0.4040 C.2   1 <1>  -0.1100 
  3 C        2.0200    -1.4960     1.7340 C.2   1 <1>  -0.1100 
  4 C        0.5020    -2.7080     0.4160 C.2   1 <1>  -0.0860 
  5 C        1.2560    -2.5990     1.6400 C.2   1 <1>  -0.1500 
  6 C       -0.3770    -3.8250     0.1480 C.2   1 <1>   0.7160 
  7 O       -0.5030    -4.7560     0.9240 O.2   1 <1>  -0.5700 
  8 N       -1.1770    -3.8460    -0.9660 N.am  1 <1>  -0.6600 
  9 C       -2.5170    -3.1950    -0.8390 C.3   1 <1>   0.1400 
 10 C       -1.2290    -5.1140    -1.7670 C.3   1 <1>   0.1400 
 11 C       -3.5390    -4.1370    -0.1390 C.3   1 <1>   0.4230 
 12 C       -2.4330    -6.0060    -1.3760 C.3   1 <1>   0.3430 
 13 N       -3.0370    -5.5640    -0.0720 N.4   1 <1>  -0.9590 
 14 C       -4.9260    -4.0690    -0.8200 C.3   1 <1>   0.1200 
 15 C       -4.0730    -6.4660     0.5140 C.3   1 <1>   0.5180 
 16 O       -5.8250    -4.9480    -0.2060 O.3   1 <1>  -0.5600 
 17 C       -3.5790    -7.9170     0.4900 C.3   1 <1>  -0.1950 
 18 C       -5.4350    -6.2970    -0.1950 C.3   1 <1>   0.1200 
 19 C       -3.8170    -8.8090     1.6690 C.3   1 <1>  -0.2000 
 20 C       -2.4240    -8.3620     1.3350 C.3   1 <1>  -0.2000 
 21 H        0.3510    -1.4220    -1.3820 H     1 <1>   0.1500 
 22 H        2.6820    -1.1410     2.5050 H     1 <1>   0.1500 
 23 H        1.1870    -3.3640     2.3960 H     1 <1>   0.1500 
 24 H       -2.4310    -2.2830    -0.2720 H     1 <1>   0.0800 
 25 H       -2.8670    -2.9260    -1.8210 H     1 <1>   0.0800 
 26 H       -1.2760    -4.8780    -2.8170 H     1 <1>   0.0800 
 27 H       -0.3200    -5.6700    -1.6080 H     1 <1>   0.0800 
 28 H       -3.6670    -3.7770     0.8680 H     1 <1>   0.0800 
 29 H       -2.0920    -7.0260    -1.3050 H     1 <1>   0.0800 
 30 H       -3.1770    -5.9630    -2.1550 H     1 <1>   0.0800 
 31 H       -2.2310    -5.5430     0.5860 H     1 <1>   0.4500 
 32 H       -4.8640    -4.3180    -1.8650 H     1 <1>   0.0800 
 33 H       -5.3340    -3.0770    -0.7300 H     1 <1>   0.0800 
 34 H       -4.2150    -6.1890     1.5460 H     1 <1>   0.0800 
 35 H       -3.7070    -8.3860    -0.4710 H     1 <1>   0.1000 
 36 H       -6.1920    -6.8510     0.3320 H     1 <1>   0.0800 
 37 H       -5.3950    -6.6540    -1.2080 H     1 <1>   0.0800 
 38 H       -4.2690    -8.4210     2.5670 H     1 <1>   0.1000 
 39 H       -4.0710    -9.8440     1.5040 H     1 <1>   0.1000 
 40 H       -1.7360    -9.0960     0.9490 H     1 <1>   0.1000 
 41 H       -1.9420    -7.6710     2.0080 H     1 <1>   0.1000 
@<TRIPOS>BOND
  1   1   2  1   
  2   1   3  1   
  3   2   4  2   
  4   2  21  1   
  5   3   5  2   
  6   3  22  1   
  7   4   5  1   
  8   4   6  1   
  9   5  23  1   
 10   6   7  2   
 11   6   8  am  
 12   8   9  1   
 13   8  10  1   
 14   9  11  1   
 15   9  24  1   
 16   9  25  1   
 17  10  12  1   
 18  10  26  1   
 19  10  27  1   
 20  11  13  1   
 21  11  14  1   
 22  11  28  1   
 23  12  13  1   
 24  12  29  1   
 25  12  30  1   
 26  13  15  1   
 27  13  31  1   
 28  14  16  1   
 29  14  32  1   
 30  14  33  1   
 31  15  17  1   
 32  15  18  1   
 33  15  34  1   
 34  16  18  1   
 35  17  19  1   
 36  17  20  1   
 37  17  35  1   
 38  18  36  1   
 39  18  37  1   
 40  19  20  1   
 41  19  38  1   
 42  19  39  1   
 43  20  40  1   
 44  20  41  1   
@<TRIPOS>SUBSTRUCTURE
  1 ****  13 GROUP 4 **** **** 0

# MOE 2024.06 (io_trps.svl 2023.06)
