@<TRIPOS>MOLECULE
NONAME
46 48 1 0 0 
SMALL
USER_CHARGES


@<TRIPOS>ATOM
  1 O        1.4590     0.3480     2.1950 O.2   1 <1>  -0.5700 
  2 C        0.9300    -0.5620     1.6040 C.2   1 <1>   0.5690 
  3 N        0.8030    -0.5750     0.2530 N.am  1 <1>  -0.7300 
  4 C        0.3950    -1.7620     2.3940 C.3   1 <1>   0.1710 
  5 C        1.2230     0.5030    -0.6820 C.3   1 <1>   0.1400 
  6 N       -0.6100    -2.5880     1.6560 N.3   1 <1>  -0.8100 
  7 C        2.7490     0.6720    -0.7190 C.3   1 <1>   0.2000 
  8 C       -0.7390    -3.9280     2.2640 C.3   1 <1>   0.2900 
  9 C       -1.9090    -1.8930     1.5880 C.3   1 <1>   0.0300 
 10 O        3.0910     1.5360    -1.7530 O.3   1 <1>  -0.5600 
 11 C        3.5330    -0.5980    -1.0310 C.3   1 <1>  -0.1600 
 12 C       -1.5820    -4.8520     1.4030 C.2   1 <1>  -0.0400 
 13 C        4.4330     1.3700    -2.0800 C.3   1 <1>   0.1200 
 14 C        4.7810    -0.0740    -1.7250 C.3   1 <1>  -0.1600 
 15 O       -2.8720    -4.9260     1.5800 O.3   1 <1>  -0.0190 
 16 C       -1.2600    -5.6920     0.4130 C.2   1 <1>  -0.1500 
 17 N       -3.4320    -5.7640     0.7630 N.2   1 <1>  -0.4100 
 18 C       -2.4810    -6.2600     0.0220 C.2   1 <1>   0.2350 
 19 C       -2.6410    -7.2390    -1.0410 C.ar  1 <1>   0.3640 
 20 N       -1.5470    -7.6420    -1.7040 N.ar  1 <1>  -0.6200 
 21 C       -3.9080    -7.7370    -1.3520 C.ar  1 <1>  -0.1500 
 22 C       -1.7240    -8.5310    -2.6650 C.ar  1 <1>   0.1600 
 23 C       -4.0790    -8.6640    -2.3560 C.ar  1 <1>  -0.1500 
 24 C       -2.9460    -9.0660    -3.0270 C.ar  1 <1>  -0.1500 
 25 H        0.2940    -1.3750    -0.1390 H     1 <1>   0.3700 
 26 H       -0.0290    -1.4050     3.3160 H     1 <1>   0.0800 
 27 H        1.2470    -2.3690     2.6380 H     1 <1>   0.0800 
 28 H        0.7790     1.4310    -0.3680 H     1 <1>   0.0800 
 29 H        0.8700     0.2650    -1.6700 H     1 <1>   0.0800 
 30 H        3.0960     1.1140     0.2000 H     1 <1>   0.0800 
 31 H       -1.1650    -3.8560     3.2500 H     1 <1>   0.0800 
 32 H        0.2400    -4.3650     2.3510 H     1 <1>   0.0800 
 33 H       -1.7850    -0.9000     1.1920 H     1 <1>   0.0800 
 34 H       -2.3550    -1.8230     2.5660 H     1 <1>   0.0800 
 35 H       -2.5820    -2.4240     0.9360 H     1 <1>   0.0800 
 36 H        2.9660    -1.2190    -1.7020 H     1 <1>   0.0800 
 37 H        3.7540    -1.1510    -0.1360 H     1 <1>   0.0800 
 38 H        5.0080     2.0660    -1.4930 H     1 <1>   0.0800 
 39 H        4.5590     1.5760    -3.1280 H     1 <1>   0.0800 
 40 H        5.0080    -0.6450    -2.6090 H     1 <1>   0.0800 
 41 H        5.6310    -0.0920    -1.0670 H     1 <1>   0.0800 
 42 H       -0.3040    -5.9120    -0.0230 H     1 <1>   0.1500 
 43 H       -4.7600    -7.3890    -0.7970 H     1 <1>   0.1500 
 44 H       -0.8440    -8.8530    -3.1960 H     1 <1>   0.1500 
 45 H       -5.0510    -9.0540    -2.6040 H     1 <1>   0.1500 
 46 H       -3.0080    -9.7870    -3.8220 H     1 <1>   0.1500 
@<TRIPOS>BOND
  1   1   2  2   
  2   2   3  am  
  3   2   4  1   
  4   3   5  1   
  5   3  25  1   
  6   4   6  1   
  7   4  26  1   
  8   4  27  1   
  9   5   7  1   
 10   5  28  1   
 11   5  29  1   
 12   6   8  1   
 13   6   9  1   
 14   7  10  1   
 15   7  11  1   
 16   7  30  1   
 17   8  12  1   
 18   8  31  1   
 19   8  32  1   
 20   9  33  1   
 21   9  34  1   
 22   9  35  1   
 23  10  13  1   
 24  11  14  1   
 25  11  36  1   
 26  11  37  1   
 27  12  15  1   
 28  12  16  2   
 29  13  14  1   
 30  13  38  1   
 31  13  39  1   
 32  14  40  1   
 33  14  41  1   
 34  15  17  1   
 35  16  18  1   
 36  16  42  1   
 37  17  18  2   
 38  18  19  1   
 39  19  20  ar  
 40  19  21  ar  
 41  20  22  ar  
 42  21  23  ar  
 43  21  43  1   
 44  22  24  ar  
 45  22  44  1   
 46  23  24  ar  
 47  23  45  1   
 48  24  46  1   
@<TRIPOS>SUBSTRUCTURE
  1 ****   6 GROUP 4 **** **** 0

# MOE 2024.06 (io_trps.svl 2023.06)
