@<TRIPOS>MOLECULE
NONAME
50 52 1 0 0 
SMALL
USER_CHARGES


@<TRIPOS>ATOM
  1 O       -1.1990     0.4700     2.1440 O.2   1 <1>  -0.5700 
  2 C       -1.9510     0.9460     1.3060 C.2   1 <1>   0.7160 
  3 N       -2.9100     0.1120     0.7690 N.am  1 <1>  -0.6600 
  4 C       -1.8290     2.3530     0.9280 C.2   1 <1>   0.2030 
  5 C       -2.5880    -1.3400     0.5740 C.3   1 <1>   0.3640 
  6 C       -4.3450     0.5080     0.8020 C.3   1 <1>   0.1400 
  7 N       -2.5240     3.0060     0.0070 N.2   1 <1>  -0.7070 
  8 C       -0.9010     3.2220     1.5200 C.2   1 <1>  -0.1500 
  9 C       -1.3250    -1.4370    -0.2910 C.ar  1 <1>  -0.1430 
 10 C       -3.7220    -2.1740    -0.1030 C.3   1 <1>   0.2000 
 11 C       -5.1780    -0.3330    -0.1620 C.3   1 <1>   0.1200 
 12 N       -2.0420     4.2570     0.0140 N.pl3 1 <1>   0.3000 
 13 C       -1.0590     4.4170     0.9200 C.2   1 <1>  -0.3320 
 14 C       -1.2510    -0.7920    -1.5190 C.ar  1 <1>  -0.1500 
 15 C       -0.2310    -2.1710     0.1470 C.ar  1 <1>  -0.1500 
 16 O       -5.0110    -1.6790     0.1510 O.3   1 <1>  -0.5600 
 17 C       -3.7420    -3.6470     0.3440 C.3   1 <1>   0.1200 
 18 C       -0.3210     5.7240     1.1680 C.3   1 <1>   0.0200 
 19 C       -0.1140    -0.8930    -2.3010 C.ar  1 <1>  -0.1500 
 20 C        0.9070    -2.2740    -0.6340 C.ar  1 <1>  -0.1500 
 21 O       -2.4950    -4.2530     0.2300 O.3   1 <1>  -0.6800 
 22 C        0.8290     5.9610     0.1710 C.3   1 <1>  -0.0800 
 23 C        0.9660    -1.6370    -1.8600 C.ar  1 <1>  -0.1500 
 24 C        1.6170     7.2160     0.5660 C.3   1 <1>  -0.2400 
 25 C        0.3400     6.1010    -1.2790 C.3   1 <1>  -0.2400 
 26 H       -2.3880    -1.7660     1.5420 H     1 <1>   0.0800 
 27 H       -4.7220     0.3730     1.8010 H     1 <1>   0.0800 
 28 H       -4.4570     1.5450     0.5450 H     1 <1>   0.0800 
 29 H       -0.2130     2.9410     2.2980 H     1 <1>   0.1500 
 30 H       -3.5900    -2.1490    -1.1700 H     1 <1>   0.0800 
 31 H       -4.8820    -0.1610    -1.1830 H     1 <1>   0.0800 
 32 H       -6.2210    -0.0960    -0.0540 H     1 <1>   0.0800 
 33 H       -2.3930     4.9890    -0.6150 H     1 <1>   0.2700 
 34 H       -2.0790    -0.1980    -1.8670 H     1 <1>   0.1500 
 35 H       -0.2640    -2.6670     1.1020 H     1 <1>   0.1500 
 36 H       -4.4370    -4.2030    -0.2600 H     1 <1>   0.0800 
 37 H       -4.0380    -3.7140     1.3770 H     1 <1>   0.0800 
 38 H       -1.0150     6.5450     1.1370 H     1 <1>   0.0800 
 39 H        0.0890     5.6890     2.1630 H     1 <1>   0.0800 
 40 H       -0.0680    -0.3870    -3.2500 H     1 <1>   0.1500 
 41 H        1.7470    -2.8480    -0.2830 H     1 <1>   0.1500 
 42 H       -2.0940    -4.0840    -0.6470 H     1 <1>   0.4000 
 43 H        1.4960     5.1150     0.2220 H     1 <1>   0.0800 
 44 H        1.8510    -1.7150    -2.4660 H     1 <1>   0.1500 
 45 H        0.9900     8.0890     0.5240 H     1 <1>   0.0800 
 46 H        2.4500     7.3600    -0.1000 H     1 <1>   0.0800 
 47 H        2.0030     7.1170     1.5660 H     1 <1>   0.0800 
 48 H       -0.3910     6.8850    -1.3620 H     1 <1>   0.0800 
 49 H       -0.0870     5.1790    -1.6270 H     1 <1>   0.0800 
 50 H        1.1670     6.3370    -1.9260 H     1 <1>   0.0800 
@<TRIPOS>BOND
  1   1   2  2   
  2   2   3  am  
  3   2   4  1   
  4   3   5  1   
  5   3   6  1   
  6   4   7  2   
  7   4   8  1   
  8   5   9  1   
  9   5  10  1   
 10   5  26  1   
 11   6  11  1   
 12   6  27  1   
 13   6  28  1   
 14   7  12  1   
 15   8  13  2   
 16   8  29  1   
 17   9  14  ar  
 18   9  15  ar  
 19  10  16  1   
 20  10  17  1   
 21  10  30  1   
 22  11  16  1   
 23  11  31  1   
 24  11  32  1   
 25  12  13  1   
 26  12  33  1   
 27  13  18  1   
 28  14  19  ar  
 29  14  34  1   
 30  15  20  ar  
 31  15  35  1   
 32  17  21  1   
 33  17  36  1   
 34  17  37  1   
 35  18  22  1   
 36  18  38  1   
 37  18  39  1   
 38  19  23  ar  
 39  19  40  1   
 40  20  23  ar  
 41  20  41  1   
 42  21  42  1   
 43  22  24  1   
 44  22  25  1   
 45  22  43  1   
 46  23  44  1   
 47  24  45  1   
 48  24  46  1   
 49  24  47  1   
 50  25  48  1   
 51  25  49  1   
 52  25  50  1   
@<TRIPOS>SUBSTRUCTURE
  1 ****   2 GROUP 4 **** **** 0

# MOE 2024.06 (io_trps.svl 2023.06)
