@<TRIPOS>MOLECULE
NONAME
51 55 1 0 0 
SMALL
USER_CHARGES


@<TRIPOS>ATOM
  1 O       -0.6470     0.5810     1.5070 O.2   1 <1>  -0.5700 
  2 C       -1.5880     1.1750     1.0180 C.2   1 <1>   0.5440 
  3 N       -2.6760     0.4470     0.5920 N.am  1 <1>  -0.6600 
  4 C       -1.5360     2.6170     0.8760 C.ar  1 <1>   0.0860 
  5 C       -3.6780     0.9240    -0.3970 C.3   1 <1>   0.1400 
  6 C       -2.7400    -1.0330     0.7110 C.3   1 <1>   0.1400 
  7 C       -2.5490     3.4420     1.3600 C.ar  1 <1>  -0.1500 
  8 C       -0.4590     3.2370     0.2480 C.ar  1 <1>  -0.1500 
  9 C       -4.6390    -0.2510    -0.5640 C.3   1 <1>   0.2000 
 10 C       -3.7480    -1.4800    -0.3550 C.3   1 <1>  -0.0800 
 11 C       -2.4990     4.8140     1.2020 C.ar  1 <1>  -0.1500 
 12 C       -0.4080     4.6090     0.0900 C.ar  1 <1>  -0.1500 
 13 O       -5.5790    -0.1820     0.4520 O.3   1 <1>  -0.6800 
 14 C       -4.5010    -2.7760     0.0010 C.3   1 <1>   0.0200 
 15 C       -1.4300     5.4390     0.5570 C.ar  1 <1>   0.0540 
 16 C       -3.5970    -3.9960     0.0620 C.2   1 <1>  -0.0400 
 17 C       -1.3880     6.8800     0.3860 C.2   1 <1>   0.4620 
 18 O       -4.1010    -5.1280     0.4770 O.3   1 <1>  -0.0190 
 19 C       -2.3040    -4.2110    -0.2330 C.2   1 <1>  -0.1500 
 20 N       -2.2740     7.7120     0.8090 N.2   1 <1>  -0.4100 
 21 N       -0.3920     7.5010    -0.2520 N.2   1 <1>  -0.5650 
 22 N       -3.2180    -6.0840     0.4790 N.2   1 <1>  -0.4100 
 23 C       -2.1250    -5.5600     0.0560 C.2   1 <1>   0.1080 
 24 O       -1.8940     8.9030     0.4690 O.3   1 <1>  -0.0190 
 25 C       -0.7640     8.7100    -0.1600 C.2   1 <1>   0.3930 
 26 C       -0.8250    -6.3160    -0.1010 C.3   1 <1>  -0.0590 
 27 C       -0.0280     9.9230    -0.7090 C.3   1 <1>  -0.0150 
 28 C        1.4630     9.9330    -0.8680 C.3   1 <1>  -0.2000 
 29 C        0.8150    10.7710     0.1940 C.3   1 <1>  -0.2000 
 30 H       -4.1940     1.8070    -0.0640 H     1 <1>   0.0800 
 31 H       -3.1800     1.1270    -1.3290 H     1 <1>   0.0800 
 32 H       -1.7710    -1.4730     0.5500 H     1 <1>   0.0800 
 33 H       -3.0820    -1.2890     1.6990 H     1 <1>   0.0800 
 34 H       -3.3840     2.9960     1.8720 H     1 <1>   0.1500 
 35 H        0.3490     2.6250    -0.1160 H     1 <1>   0.1500 
 36 H       -5.1540    -0.2480    -1.5100 H     1 <1>   0.0800 
 37 H       -3.2050    -1.6440    -1.2690 H     1 <1>   0.0800 
 38 H       -3.3040     5.4170     1.5880 H     1 <1>   0.1500 
 39 H        0.4420     5.0480    -0.4040 H     1 <1>   0.1500 
 40 H       -5.1140    -0.0450     1.3020 H     1 <1>   0.4000 
 41 H       -5.2660    -2.9570    -0.7340 H     1 <1>   0.0800 
 42 H       -4.9880    -2.6690     0.9550 H     1 <1>   0.0800 
 43 H       -1.5510    -3.5420    -0.6050 H     1 <1>   0.1500 
 44 H       -0.5020    -6.2770    -1.1250 H     1 <1>   0.0800 
 45 H       -0.9610    -7.3440     0.1820 H     1 <1>   0.0800 
 46 H       -0.0710    -5.8790     0.5270 H     1 <1>   0.0800 
 47 H       -0.6040    10.4250    -1.4660 H     1 <1>   0.1000 
 48 H        2.0180     9.0590    -0.5710 H     1 <1>   0.1000 
 49 H        1.8850    10.4170    -1.7310 H     1 <1>   0.1000 
 50 H        0.7890    11.8400     0.0700 H     1 <1>   0.1000 
 51 H        0.9310    10.4770     1.2230 H     1 <1>   0.1000 
@<TRIPOS>BOND
  1   1   2  2   
  2   2   3  am  
  3   2   4  1   
  4   3   5  1   
  5   3   6  1   
  6   4   7  ar  
  7   4   8  ar  
  8   5   9  1   
  9   5  30  1   
 10   5  31  1   
 11   6  10  1   
 12   6  32  1   
 13   6  33  1   
 14   7  11  ar  
 15   7  34  1   
 16   8  12  ar  
 17   8  35  1   
 18   9  10  1   
 19   9  13  1   
 20   9  36  1   
 21  10  14  1   
 22  10  37  1   
 23  11  15  ar  
 24  11  38  1   
 25  12  15  ar  
 26  12  39  1   
 27  13  40  1   
 28  14  16  1   
 29  14  41  1   
 30  14  42  1   
 31  15  17  1   
 32  16  18  1   
 33  16  19  2   
 34  17  20  2   
 35  17  21  1   
 36  18  22  1   
 37  19  23  1   
 38  19  43  1   
 39  20  24  1   
 40  21  25  2   
 41  22  23  2   
 42  23  26  1   
 43  24  25  1   
 44  25  27  1   
 45  26  44  1   
 46  26  45  1   
 47  26  46  1   
 48  27  28  1   
 49  27  29  1   
 50  27  47  1   
 51  28  29  1   
 52  28  48  1   
 53  28  49  1   
 54  29  50  1   
 55  29  51  1   
@<TRIPOS>SUBSTRUCTURE
  1 ****   4 GROUP 4 **** **** 0

# MOE 2024.06 (io_trps.svl 2023.06)
