@<TRIPOS>MOLECULE
NONAME
49 51 1 0 0 
SMALL
USER_CHARGES


@<TRIPOS>ATOM
  1 F        6.0110     0.6000    -2.3060 F     1 <1>  -0.1900 
  2 C        5.2070    -0.1480    -1.6030 C.ar  1 <1>   0.1900 
  3 C        4.2250     0.4440    -0.8110 C.ar  1 <1>   0.0860 
  4 C        5.3880    -1.5170    -1.6840 C.ar  1 <1>  -0.1500 
  5 C        4.0450     1.8780    -0.7240 C.2   1 <1>   0.5440 
  6 C        3.4000    -0.4270    -0.0940 C.ar  1 <1>  -0.1500 
  7 C        4.5600    -2.3490    -0.9530 C.ar  1 <1>  -0.1500 
  8 O        3.7950     2.5140    -1.7310 O.2   1 <1>  -0.5700 
  9 N        4.1000     2.5390     0.4880 N.am  1 <1>  -0.6600 
 10 C        3.5650    -1.8000    -0.1600 C.ar  1 <1>  -0.1500 
 11 C        4.7400     1.9140     1.6970 C.3   1 <1>   0.1400 
 12 C        3.5700     3.9280     0.6140 C.3   1 <1>   0.1400 
 13 C        5.4260     2.9010     2.6550 C.3   1 <1>   0.1400 
 14 C        4.6730     4.9680     0.3810 C.3   1 <1>  -0.1600 
 15 N        6.2890     3.8650     1.9190 N.am  1 <1>  -0.6600 
 16 C        5.6350     5.1480     1.5600 C.3   1 <1>   0.1400 
 17 C        7.5470     3.4980     1.4860 C.2   1 <1>   0.6160 
 18 O        7.9660     2.3900     1.7770 O.2   1 <1>  -0.5700 
 19 C        8.3350     4.3520     0.6450 C.2   1 <1>   0.0290 
 20 C        9.1010     5.3660     1.2980 C.2   1 <1>   0.6160 
 21 C        8.3870     4.2540    -0.7300 C.2   1 <1>  -0.1380 
 22 O        9.0810     5.5880     2.5000 O.2   1 <1>  -0.5700 
 23 N        9.8890     6.1840     0.5350 N.am  1 <1>  -0.5390 
 24 C        9.2110     5.1390    -1.4610 C.2   1 <1>  -0.1500 
 25 C        7.5920     3.2270    -1.5240 C.3   1 <1>  -0.1020 
 26 C        9.9520     6.0880    -0.8260 C.2   1 <1>  -0.0290 
 27 C       10.8590     7.0620    -1.5480 C.3   1 <1>  -0.1020 
 28 H        6.1650    -1.9200    -2.3090 H     1 <1>   0.1500 
 29 H        2.6170    -0.0140     0.5180 H     1 <1>   0.1500 
 30 H        4.6860    -3.4180    -1.0020 H     1 <1>   0.1500 
 31 H        2.9160    -2.4480     0.4050 H     1 <1>   0.1500 
 32 H        5.4880     1.2090     1.3750 H     1 <1>   0.0800 
 33 H        3.9930     1.3670     2.2440 H     1 <1>   0.0800 
 34 H        3.1150     4.0640     1.5790 H     1 <1>   0.0800 
 35 H        2.8000     4.0730    -0.1260 H     1 <1>   0.0800 
 36 H        6.0290     2.3480     3.3560 H     1 <1>   0.0800 
 37 H        4.6850     3.4330     3.2250 H     1 <1>   0.0800 
 38 H        4.2010     5.9160     0.2010 H     1 <1>   0.0800 
 39 H        5.2210     4.7170    -0.5090 H     1 <1>   0.0800 
 40 H        5.0980     5.5190     2.4160 H     1 <1>   0.0800 
 41 H        6.3750     5.8860     1.3070 H     1 <1>   0.0800 
 42 H       10.4220     6.8730     1.0660 H     1 <1>   0.3700 
 43 H        9.2400     5.0410    -2.5330 H     1 <1>   0.1500 
 44 H        6.9720     3.7180    -2.2530 H     1 <1>   0.0800 
 45 H        6.9510     2.6420    -0.8900 H     1 <1>   0.0800 
 46 H        8.2610     2.5570    -2.0330 H     1 <1>   0.0800 
 47 H       11.8730     6.9390    -1.2110 H     1 <1>   0.0800 
 48 H       10.5440     8.0710    -1.3530 H     1 <1>   0.0800 
 49 H       10.8290     6.8920    -2.6090 H     1 <1>   0.0800 
@<TRIPOS>BOND
  1   1   2  1   
  2   2   3  ar  
  3   2   4  ar  
  4   3   5  1   
  5   3   6  ar  
  6   4   7  ar  
  7   4  28  1   
  8   5   8  2   
  9   5   9  am  
 10   6  10  ar  
 11   6  29  1   
 12   7  10  ar  
 13   7  30  1   
 14   9  11  1   
 15   9  12  1   
 16  10  31  1   
 17  11  13  1   
 18  11  32  1   
 19  11  33  1   
 20  12  14  1   
 21  12  34  1   
 22  12  35  1   
 23  13  15  1   
 24  13  36  1   
 25  13  37  1   
 26  14  16  1   
 27  14  38  1   
 28  14  39  1   
 29  15  16  1   
 30  15  17  am  
 31  16  40  1   
 32  16  41  1   
 33  17  18  2   
 34  17  19  1   
 35  19  20  1   
 36  19  21  2   
 37  20  22  2   
 38  20  23  am  
 39  21  24  1   
 40  21  25  1   
 41  23  26  1   
 42  23  42  1   
 43  24  26  2   
 44  24  43  1   
 45  25  44  1   
 46  25  45  1   
 47  25  46  1   
 48  26  27  1   
 49  27  47  1   
 50  27  48  1   
 51  27  49  1   
@<TRIPOS>SUBSTRUCTURE
  1 ****  17 GROUP 4 **** **** 0

# MOE 2024.06 (io_trps.svl 2023.06)
