@<TRIPOS>MOLECULE
NONAME
47 50 1 0 0 
SMALL
USER_CHARGES


@<TRIPOS>ATOM
  1 S       -0.1600    -1.4920    -0.3790 S.o2  1 <1>   1.3330 
  2 O       -0.0620    -2.8340     0.1540 O.2   1 <1>  -0.6500 
  3 O       -0.4050    -1.3360    -1.7960 O.2   1 <1>  -0.6500 
  4 N       -1.4070    -0.6990     0.4600 N.am  1 <1>  -0.8490 
  5 C        1.3610    -0.6500     0.0970 C.3   1 <1>   0.0890 
  6 C       -1.9400     0.4610    -0.2950 C.3   1 <1>   0.1960 
  7 C       -2.4990    -1.6170     0.8110 C.3   1 <1>   0.1960 
  8 C        1.4230     0.8490    -0.1870 C.ar  1 <1>  -0.1440 
  9 C       -2.9650     1.2700     0.5250 C.3   1 <1>   0.1440 
 10 C       -3.5510    -0.9090     1.6740 C.3   1 <1>  -0.1600 
 11 C        1.3650     1.3230    -1.4890 C.ar  1 <1>  -0.1500 
 12 C        1.5470     1.7510     0.8590 C.ar  1 <1>  -0.1500 
 13 C       -3.4670     2.4260    -0.3200 C.ar  1 <1>   0.1660 
 14 C       -4.1090     0.3390     0.9750 C.3   1 <1>  -0.1600 
 15 C       -2.2940     1.9920     1.7260 C.3   1 <1>  -0.1600 
 16 C        1.4220     2.6830    -1.7410 C.ar  1 <1>  -0.1500 
 17 C        1.6150     3.1100     0.6070 C.ar  1 <1>  -0.1500 
 18 N       -4.2650     2.3220    -1.3570 N.ar  1 <1>  -0.6200 
 19 C       -2.9750     3.6200     0.1170 C.ar  1 <1>  -0.1440 
 20 C       -2.0690     3.4560     1.3090 C.3   1 <1>  -0.0170 
 21 C        1.5480     3.5770    -0.6930 C.ar  1 <1>  -0.1500 
 22 C       -4.5480     3.4780    -1.9380 C.ar  1 <1>   0.7200 
 23 C       -3.3480     4.7560    -0.5600 C.ar  1 <1>   0.1600 
 24 N       -4.1500     4.6960    -1.6000 N.ar  1 <1>  -0.6200 
 25 N       -5.3650     3.4100    -2.9900 N.pl3 1 <1>  -0.9000 
 26 H        2.1810    -1.1180    -0.4120 H     1 <1>   0.0800 
 27 H        1.5160    -0.8080     1.1450 H     1 <1>   0.0800 
 28 H       -2.4130     0.1170    -1.2010 H     1 <1>   0.0800 
 29 H       -1.1400     1.1190    -0.5800 H     1 <1>   0.0800 
 30 H       -2.1100    -2.4510     1.3720 H     1 <1>   0.0800 
 31 H       -2.9530    -2.0010    -0.0880 H     1 <1>   0.0800 
 32 H       -3.1030    -0.6400     2.6150 H     1 <1>   0.0800 
 33 H       -4.3540    -1.5930     1.8810 H     1 <1>   0.0800 
 34 H        1.2710     0.6400    -2.3180 H     1 <1>   0.1500 
 35 H        1.5960     1.4030     1.8770 H     1 <1>   0.1500 
 36 H       -4.6650     0.0280     0.1070 H     1 <1>   0.0800 
 37 H       -4.7890     0.8640     1.6230 H     1 <1>   0.0800 
 38 H       -1.3720     1.5220     2.0200 H     1 <1>   0.0800 
 39 H       -2.9590     1.9830     2.5710 H     1 <1>   0.0800 
 40 H        1.3680     3.0430    -2.7540 H     1 <1>   0.1500 
 41 H        1.7200     3.8050     1.4220 H     1 <1>   0.1500 
 42 H       -1.0500     3.6130     1.0070 H     1 <1>   0.0800 
 43 H       -2.3250     4.1370     2.1020 H     1 <1>   0.0800 
 44 H        1.5960     4.6340    -0.8920 H     1 <1>   0.1500 
 45 H       -2.9850     5.7200    -0.2490 H     1 <1>   0.1500 
 46 H       -5.8330     4.2790    -3.2300 H     1 <1>   0.4000 
 47 H       -5.9080     2.5550    -3.0600 H     1 <1>   0.4000 
@<TRIPOS>BOND
  1   1   2  2   
  2   1   3  2   
  3   1   4  am  
  4   1   5  1   
  5   4   6  1   
  6   4   7  1   
  7   5   8  1   
  8   5  26  1   
  9   5  27  1   
 10   6   9  1   
 11   6  28  1   
 12   6  29  1   
 13   7  10  1   
 14   7  30  1   
 15   7  31  1   
 16   8  11  ar  
 17   8  12  ar  
 18   9  13  1   
 19   9  14  1   
 20   9  15  1   
 21  10  14  1   
 22  10  32  1   
 23  10  33  1   
 24  11  16  ar  
 25  11  34  1   
 26  12  17  ar  
 27  12  35  1   
 28  13  18  ar  
 29  13  19  ar  
 30  14  36  1   
 31  14  37  1   
 32  15  20  1   
 33  15  38  1   
 34  15  39  1   
 35  16  21  ar  
 36  16  40  1   
 37  17  21  ar  
 38  17  41  1   
 39  18  22  ar  
 40  19  20  1   
 41  19  23  ar  
 42  20  42  1   
 43  20  43  1   
 44  21  44  1   
 45  22  24  ar  
 46  22  25  1   
 47  23  24  ar  
 48  23  45  1   
 49  25  46  1   
 50  25  47  1   
@<TRIPOS>SUBSTRUCTURE
  1 ****   6 GROUP 4 **** **** 0

# MOE 2024.06 (io_trps.svl 2023.06)
