@<TRIPOS>MOLECULE
NONAME
45 47 1 0 0 
SMALL
USER_CHARGES


@<TRIPOS>ATOM
  1 S       -1.2030    -0.3540     1.1450 S.3   1 <1>  -0.0800 
  2 C       -1.6160    -1.6840     0.1080 C.2   1 <1>   0.4420 
  3 C       -0.2190     0.2520    -0.1450 C.2   1 <1>   0.1980 
  4 N       -1.0430    -1.6040    -1.0360 N.2   1 <1>  -0.3380 
  5 N       -2.4640    -2.6870     0.5160 N.am  1 <1>  -0.4940 
  6 N       -0.2460    -0.5020    -1.1730 N.2   1 <1>  -0.3380 
  7 C        0.5520     1.5470     0.1030 C.3   1 <1>   0.3800 
  8 C       -3.1480    -2.9240     1.6710 C.2   1 <1>   0.5690 
  9 O       -0.3090     2.5890     0.4680 O.3   1 <1>  -0.5600 
 10 C        1.3240     2.0730    -1.1020 C.3   1 <1>  -0.1600 
 11 O       -3.1220    -2.2040     2.6380 O.2   1 <1>  -0.5700 
 12 C       -3.9850    -4.2040     1.7070 C.3   1 <1>   0.1710 
 13 C        0.0960     3.8150    -0.0590 C.3   1 <1>   0.1200 
 14 C        1.3900     3.5610    -0.8240 C.3   1 <1>  -0.1600 
 15 N       -4.2720    -4.7670     0.3500 N.3   1 <1>  -0.8100 
 16 C       -4.6140    -6.2010     0.4510 C.3   1 <1>   0.1100 
 17 C       -5.3580    -4.0060    -0.2980 C.3   1 <1>   0.0300 
 18 C       -4.5340    -6.8960    -0.9110 C.3   1 <1>  -0.0170 
 19 C       -4.6690    -8.3980    -0.7430 C.ar  1 <1>   0.1670 
 20 N       -5.8450    -8.8350    -0.3190 N.ar  1 <1>  -0.6200 
 21 C       -3.5910    -9.2240    -1.0270 C.ar  1 <1>  -0.1500 
 22 C       -5.9530   -10.1470    -0.1760 C.ar  1 <1>   0.1600 
 23 C       -3.7170   -10.5880    -0.8720 C.ar  1 <1>  -0.1500 
 24 C       -4.9380   -11.0520    -0.4340 C.ar  1 <1>  -0.1500 
 25 H       -2.6590    -3.4000    -0.1910 H     1 <1>   0.3700 
 26 H        1.2280     1.4010     0.9270 H     1 <1>   0.0800 
 27 H        0.7620     1.8910    -2.0020 H     1 <1>   0.0800 
 28 H        2.2940     1.6170    -1.1900 H     1 <1>   0.0800 
 29 H       -4.9040    -4.0100     2.2320 H     1 <1>   0.0800 
 30 H       -3.4240    -4.9180     2.2840 H     1 <1>   0.0800 
 31 H        0.2290     4.5180     0.7460 H     1 <1>   0.0800 
 32 H       -0.6830     4.1570    -0.7200 H     1 <1>   0.0800 
 33 H        1.4490     4.1500    -1.7220 H     1 <1>   0.0800 
 34 H        2.2290     3.7910    -0.1910 H     1 <1>   0.0800 
 35 H       -5.5980    -6.3270     0.8720 H     1 <1>   0.0800 
 36 H       -3.9110    -6.6890     1.1050 H     1 <1>   0.0800 
 37 H       -5.1250    -2.9540    -0.3140 H     1 <1>   0.0800 
 38 H       -6.2860    -4.1450     0.2310 H     1 <1>   0.0800 
 39 H       -5.4870    -4.3290    -1.3160 H     1 <1>   0.0800 
 40 H       -3.5950    -6.6600    -1.3760 H     1 <1>   0.0800 
 41 H       -5.3290    -6.5580    -1.5490 H     1 <1>   0.0800 
 42 H       -2.6600    -8.8080    -1.3670 H     1 <1>   0.1500 
 43 H       -6.9030   -10.5220     0.1640 H     1 <1>   0.1500 
 44 H       -2.9010   -11.2580    -1.0840 H     1 <1>   0.1500 
 45 H       -5.1050   -12.1050    -0.2930 H     1 <1>   0.1500 
@<TRIPOS>BOND
  1   1   2  1   
  2   1   3  1   
  3   2   4  2   
  4   2   5  1   
  5   3   6  2   
  6   3   7  1   
  7   4   6  1   
  8   5   8  am  
  9   5  25  1   
 10   7   9  1   
 11   7  10  1   
 12   7  26  1   
 13   8  11  2   
 14   8  12  1   
 15   9  13  1   
 16  10  14  1   
 17  10  27  1   
 18  10  28  1   
 19  12  15  1   
 20  12  29  1   
 21  12  30  1   
 22  13  14  1   
 23  13  31  1   
 24  13  32  1   
 25  14  33  1   
 26  14  34  1   
 27  15  16  1   
 28  15  17  1   
 29  16  18  1   
 30  16  35  1   
 31  16  36  1   
 32  17  37  1   
 33  17  38  1   
 34  17  39  1   
 35  18  19  1   
 36  18  40  1   
 37  18  41  1   
 38  19  20  ar  
 39  19  21  ar  
 40  20  22  ar  
 41  21  23  ar  
 42  21  42  1   
 43  22  24  ar  
 44  22  43  1   
 45  23  24  ar  
 46  23  44  1   
 47  24  45  1   
@<TRIPOS>SUBSTRUCTURE
  1 ****   5 GROUP 4 **** **** 0

# MOE 2024.06 (io_trps.svl 2023.06)
