@<TRIPOS>MOLECULE
NONAME
43 45 1 0 0 
SMALL
USER_CHARGES


@<TRIPOS>ATOM
  1 O        0.6050    -2.4270    -2.4560 O.2   1 <1>  -0.5700 
  2 C        1.2310    -1.7080    -1.7070 C.2   1 <1>   0.5690 
  3 N        1.1260    -1.7940    -0.3450 N.am  1 <1>  -0.6600 
  4 C        2.2100    -0.7020    -2.3380 C.3   1 <1>   0.1710 
  5 C        1.7520    -0.7580     0.5260 C.3   1 <1>   0.1400 
  6 C        0.8590    -3.1250     0.3300 C.3   1 <1>   0.0340 
  7 N        2.7460     0.3720    -1.4470 N.3   1 <1>  -0.8100 
  8 C        3.0290    -0.1970    -0.1110 C.3   1 <1>   0.1100 
  9 C        2.0380    -3.7630     1.0830 C.2   1 <1>   0.9060 
 10 C        3.9460     0.9810    -2.0370 C.3   1 <1>   0.2530 
 11 O        3.2090    -3.4590     0.8030 O.co2 1 <1>  -0.9000 
 12 O        1.7790    -4.5560     1.9960 O.co2 1 <1>  -0.9000 
 13 C        4.4420     2.1580    -1.1970 C.ar  1 <1>  -0.1440 
 14 C        5.6760     2.1660    -0.5500 C.ar  1 <1>  -0.1440 
 15 C        3.6070     3.2580    -1.0740 C.ar  1 <1>  -0.1500 
 16 C        6.0510     3.2760     0.1910 C.ar  1 <1>  -0.1500 
 17 C        6.6270     0.9780    -0.6210 C.3   1 <1>  -0.0970 
 18 C        3.9890     4.3590    -0.3310 C.ar  1 <1>  -0.1500 
 19 C        5.2210     4.3880     0.3090 C.ar  1 <1>  -0.0230 
 20 N        5.6180     5.5270     1.0680 N.pl3 1 <1>   0.5930 
 21 N        4.7550     6.2970     1.7820 N.2   1 <1>  -0.7070 
 22 C        6.8760     6.0230     1.1950 C.2   1 <1>  -0.3020 
 23 C        5.4760     7.2240     2.3270 C.2   1 <1>   0.1390 
 24 C        6.8200     7.1070     1.9950 C.2   1 <1>  -0.1500 
 25 H        1.7200    -0.2440    -3.1770 H     1 <1>   0.0800 
 26 H        3.0300    -1.2880    -2.7150 H     1 <1>   0.0800 
 27 H        2.0010    -1.1760     1.4850 H     1 <1>   0.0800 
 28 H        1.0510     0.0410     0.6810 H     1 <1>   0.0800 
 29 H        0.5350    -3.8390    -0.4020 H     1 <1>   0.0800 
 30 H        0.0600    -2.9980     1.0350 H     1 <1>   0.0800 
 31 H        3.7580    -0.9880    -0.1820 H     1 <1>   0.0800 
 32 H        3.4210     0.5640     0.5400 H     1 <1>   0.0800 
 33 H        3.7020     1.3490    -3.0190 H     1 <1>   0.0800 
 34 H        4.7090     0.2320    -2.1510 H     1 <1>   0.0800 
 35 H        2.6450     3.2470    -1.5560 H     1 <1>   0.1500 
 36 H        7.0010     3.2780     0.6950 H     1 <1>   0.1500 
 37 H        6.1360     0.0910    -0.2610 H     1 <1>   0.0800 
 38 H        7.5000     1.1420    -0.0160 H     1 <1>   0.0800 
 39 H        6.9440     0.8180    -1.6350 H     1 <1>   0.0800 
 40 H        3.3220     5.2000    -0.2430 H     1 <1>   0.1500 
 41 H        7.7200     5.5790     0.7050 H     1 <1>   0.1500 
 42 H        5.0710     7.9950     2.9620 H     1 <1>   0.1500 
 43 H        7.6130     7.7570     2.3210 H     1 <1>   0.1500 
@<TRIPOS>BOND
  1   1   2  2   
  2   2   3  am  
  3   2   4  1   
  4   3   5  1   
  5   3   6  1   
  6   4   7  1   
  7   4  25  1   
  8   4  26  1   
  9   5   8  1   
 10   5  27  1   
 11   5  28  1   
 12   6   9  1   
 13   6  29  1   
 14   6  30  1   
 15   7   8  1   
 16   7  10  1   
 17   8  31  1   
 18   8  32  1   
 19   9  11  ar  
 20   9  12  ar  
 21  10  13  1   
 22  10  33  1   
 23  10  34  1   
 24  13  14  ar  
 25  13  15  ar  
 26  14  16  ar  
 27  14  17  1   
 28  15  18  ar  
 29  15  35  1   
 30  16  19  ar  
 31  16  36  1   
 32  17  37  1   
 33  17  38  1   
 34  17  39  1   
 35  18  19  ar  
 36  18  40  1   
 37  19  20  1   
 38  20  21  1   
 39  20  22  1   
 40  21  23  2   
 41  22  24  2   
 42  22  41  1   
 43  23  24  1   
 44  23  42  1   
 45  24  43  1   
@<TRIPOS>SUBSTRUCTURE
  1 ****  13 GROUP 4 **** **** 0

# MOE 2024.06 (io_trps.svl 2023.06)
