@<TRIPOS>MOLECULE
NONAME
48 49 1 0 0 
SMALL
USER_CHARGES


@<TRIPOS>ATOM
  1 F       -6.4220    -0.2940    -0.3110 F     1 <1>  -0.1900 
  2 C       -5.4160    -1.0730    -0.0190 C.ar  1 <1>   0.1900 
  3 C       -5.6530    -2.4210     0.1550 C.ar  1 <1>  -0.1500 
  4 C       -4.1560    -0.5200     0.1000 C.ar  1 <1>  -0.1500 
  5 C       -4.5880    -3.2540     0.4560 C.ar  1 <1>   0.0830 
  6 C       -3.0940    -1.3550     0.4090 C.ar  1 <1>  -0.1500 
  7 O       -4.8690    -4.5720     0.5990 O.3   1 <1>  -0.3630 
  8 C       -3.3070    -2.7140     0.5870 C.ar  1 <1>  -0.1500 
  9 C       -3.8450    -5.5210     0.8600 C.3   1 <1>   0.1810 
 10 C       -4.4100    -6.9390     0.8680 C.2   1 <1>   0.5690 
 11 O       -4.4180    -7.5230     1.9250 O.2   1 <1>  -0.5700 
 12 N       -4.9010    -7.5340    -0.2710 N.am  1 <1>  -0.6600 
 13 C       -5.1300    -9.0170    -0.2880 C.3   1 <1>   0.3210 
 14 C       -5.0920    -6.8420    -1.5900 C.3   1 <1>   0.1400 
 15 C       -6.6150    -9.3740    -0.3270 C.2   1 <1>   0.0460 
 16 C       -6.3230    -5.9050    -1.6700 C.3   1 <1>   0.3430 
 17 N       -7.3260    -9.3170    -1.4770 N.2   1 <1>  -0.5650 
 18 C       -7.3920    -9.8110     0.6920 C.2   1 <1>  -0.3320 
 19 N       -7.5580    -6.4580    -1.0300 N.4   1 <1>  -0.9590 
 20 C       -8.4940    -9.7640    -1.1420 C.2   1 <1>   0.0360 
 21 N       -8.6010   -10.0760     0.1650 N.pl3 1 <1>   0.0330 
 22 C       -7.0710   -10.0340     2.1620 C.3   1 <1>  -0.0600 
 23 C       -8.7910    -6.0290    -1.7440 C.3   1 <1>   0.2630 
 24 C       -7.6370    -6.1490     0.4300 C.3   1 <1>   0.2630 
 25 H       -6.6500    -2.8050     0.0620 H     1 <1>   0.1500 
 26 H       -4.0130     0.5370    -0.0430 H     1 <1>   0.1500 
 27 H       -2.1040    -0.9440     0.5120 H     1 <1>   0.1500 
 28 H       -2.4590    -3.3280     0.8310 H     1 <1>   0.1500 
 29 H       -3.4190    -5.2990     1.8220 H     1 <1>   0.0800 
 30 H       -3.0900    -5.4370     0.1000 H     1 <1>   0.0800 
 31 H       -4.6850    -9.4740     0.5780 H     1 <1>   0.0800 
 32 H       -4.6470    -9.4470    -1.1470 H     1 <1>   0.0800 
 33 H       -5.1920    -7.5850    -2.3630 H     1 <1>   0.0800 
 34 H       -4.2100    -6.2730    -1.8250 H     1 <1>   0.0800 
 35 H       -6.5170    -5.7230    -2.7140 H     1 <1>   0.0800 
 36 H       -6.0850    -4.9530    -1.2290 H     1 <1>   0.0800 
 37 H       -7.4790    -7.5000    -1.1100 H     1 <1>   0.4500 
 38 H       -9.3170    -9.8920    -1.8250 H     1 <1>   0.1500 
 39 H       -9.4190   -10.4680     0.6460 H     1 <1>   0.2700 
 40 H       -6.0720    -9.7090     2.3920 H     1 <1>   0.0800 
 41 H       -7.1510   -11.0790     2.4060 H     1 <1>   0.0800 
 42 H       -7.7520    -9.4800     2.7830 H     1 <1>   0.0800 
 43 H       -8.8990    -4.9580    -1.6960 H     1 <1>   0.0800 
 44 H       -9.6570    -6.4860    -1.2940 H     1 <1>   0.0800 
 45 H       -8.7450    -6.3300    -2.7780 H     1 <1>   0.0800 
 46 H       -7.5810    -5.0860     0.5950 H     1 <1>   0.0800 
 47 H       -6.8280    -6.6230     0.9590 H     1 <1>   0.0800 
 48 H       -8.5620    -6.5200     0.8390 H     1 <1>   0.0800 
@<TRIPOS>BOND
  1   1   2  1   
  2   2   3  ar  
  3   2   4  ar  
  4   3   5  ar  
  5   3  25  1   
  6   4   6  ar  
  7   4  26  1   
  8   5   7  1   
  9   5   8  ar  
 10   6   8  ar  
 11   6  27  1   
 12   7   9  1   
 13   8  28  1   
 14   9  10  1   
 15   9  29  1   
 16   9  30  1   
 17  10  11  2   
 18  10  12  am  
 19  12  13  1   
 20  12  14  1   
 21  13  15  1   
 22  13  31  1   
 23  13  32  1   
 24  14  16  1   
 25  14  33  1   
 26  14  34  1   
 27  15  17  1   
 28  15  18  2   
 29  16  19  1   
 30  16  35  1   
 31  16  36  1   
 32  17  20  2   
 33  18  21  1   
 34  18  22  1   
 35  19  23  1   
 36  19  24  1   
 37  19  37  1   
 38  20  21  1   
 39  20  38  1   
 40  21  39  1   
 41  22  40  1   
 42  22  41  1   
 43  22  42  1   
 44  23  43  1   
 45  23  44  1   
 46  23  45  1   
 47  24  46  1   
 48  24  47  1   
 49  24  48  1   
@<TRIPOS>SUBSTRUCTURE
  1 ****  16 GROUP 4 **** **** 0

# MOE 2024.06 (io_trps.svl 2023.06)
