@<TRIPOS>MOLECULE
NONAME
47 48 1 0 0 
SMALL
USER_CHARGES


@<TRIPOS>ATOM
  1 O        2.1300     2.2510     3.2100 O.2   1 <1>  -0.5700 
  2 C        2.4360     2.0740     2.0580 C.2   1 <1>   0.6900 
  3 N        2.5930     0.8290     1.5440 N.am  1 <1>  -0.4900 
  4 N        2.6380     3.1490     1.2360 N.am  1 <1>  -0.5390 
  5 C        2.9270     0.6100     0.2440 C.2   1 <1>   0.6160 
  6 C        3.0060     3.0060    -0.1000 C.2   1 <1>  -0.0290 
  7 O        3.0500    -0.5260    -0.1560 O.2   1 <1>  -0.5700 
  8 C        3.1400     1.7490    -0.5900 C.2   1 <1>  -0.1360 
  9 C        3.2530     4.2630    -0.9300 C.3   1 <1>   0.4810 
 10 N        4.4680     4.9640    -0.3960 N.4   1 <1>  -0.9590 
 11 C        4.5420     6.3790    -0.8860 C.3   1 <1>   0.3430 
 12 C        5.6960     4.1620    -0.7270 C.3   1 <1>   0.2630 
 13 C        5.1850     7.3240     0.1540 C.3   1 <1>  -0.0800 
 14 C        5.1380     8.7970    -0.2820 C.3   1 <1>   0.3430 
 15 C        6.6640     7.0700     0.4660 C.3   1 <1>  -0.1600 
 16 N        6.4510     9.4010     0.1040 N.4   1 <1>  -0.9590 
 17 C        7.1810     8.4170     0.9440 C.3   1 <1>   0.3430 
 18 C        6.3220    10.7210     0.8140 C.3   1 <1>   0.3430 
 19 C        5.8000    11.8430    -0.0920 C.3   1 <1>   0.1200 
 20 O        5.6080    12.9520     0.7160 O.3   1 <1>  -0.5600 
 21 C        5.1730    14.0930     0.0420 C.3   1 <1>   0.0400 
 22 H        2.4300     0.0290     2.1480 H     1 <1>   0.3700 
 23 H        2.3560     4.0240     1.6870 H     1 <1>   0.3700 
 24 H        3.4110     1.5260    -1.6060 H     1 <1>   0.1500 
 25 H        2.3870     4.9010    -0.8600 H     1 <1>   0.0800 
 26 H        3.3970     3.9990    -1.9660 H     1 <1>   0.0800 
 27 H        4.3570     4.9510     0.6290 H     1 <1>   0.4500 
 28 H        3.5430     6.7330    -1.0860 H     1 <1>   0.0800 
 29 H        5.0930     6.4160    -1.8130 H     1 <1>   0.0800 
 30 H        5.8370     4.1070    -1.7940 H     1 <1>   0.0800 
 31 H        5.6040     3.1580    -0.3430 H     1 <1>   0.0800 
 32 H        6.5730     4.6060    -0.2860 H     1 <1>   0.0800 
 33 H        4.6180     7.2590     1.0670 H     1 <1>   0.0800 
 34 H        4.3250     9.3040     0.2150 H     1 <1>   0.0800 
 35 H        5.0000     8.8820    -1.3480 H     1 <1>   0.0800 
 36 H        7.2090     6.7890    -0.4200 H     1 <1>   0.0800 
 37 H        6.8060     6.3170     1.2220 H     1 <1>   0.0800 
 38 H        7.0160     9.5580    -0.7450 H     1 <1>   0.4500 
 39 H        8.2510     8.5060     0.8300 H     1 <1>   0.0800 
 40 H        6.9220     8.5560     1.9830 H     1 <1>   0.0800 
 41 H        7.2850    11.0240     1.1930 H     1 <1>   0.0800 
 42 H        5.6520    10.6180     1.6520 H     1 <1>   0.0800 
 43 H        4.8530    11.5870    -0.5340 H     1 <1>   0.0800 
 44 H        6.5220    12.0930    -0.8500 H     1 <1>   0.0800 
 45 H        5.0550    14.8840     0.7630 H     1 <1>   0.0800 
 46 H        4.2260    13.8940    -0.4300 H     1 <1>   0.0800 
 47 H        5.9090    14.3820    -0.6890 H     1 <1>   0.0800 
@<TRIPOS>BOND
  1   1   2  2   
  2   2   3  am  
  3   2   4  am  
  4   3   5  am  
  5   3  22  1   
  6   4   6  1   
  7   4  23  1   
  8   5   7  2   
  9   5   8  1   
 10   6   8  2   
 11   6   9  1   
 12   8  24  1   
 13   9  10  1   
 14   9  25  1   
 15   9  26  1   
 16  10  11  1   
 17  10  12  1   
 18  10  27  1   
 19  11  13  1   
 20  11  28  1   
 21  11  29  1   
 22  12  30  1   
 23  12  31  1   
 24  12  32  1   
 25  13  14  1   
 26  13  15  1   
 27  13  33  1   
 28  14  16  1   
 29  14  34  1   
 30  14  35  1   
 31  15  17  1   
 32  15  36  1   
 33  15  37  1   
 34  16  17  1   
 35  16  18  1   
 36  16  38  1   
 37  17  39  1   
 38  17  40  1   
 39  18  19  1   
 40  18  41  1   
 41  18  42  1   
 42  19  20  1   
 43  19  43  1   
 44  19  44  1   
 45  20  21  1   
 46  21  45  1   
 47  21  46  1   
 48  21  47  1   
@<TRIPOS>SUBSTRUCTURE
  1 ****  10 GROUP 4 **** **** 0

# MOE 2024.06 (io_trps.svl 2023.06)
