@<TRIPOS>MOLECULE
NONAME
45 48 1 0 0 
SMALL
USER_CHARGES


@<TRIPOS>ATOM
  1 O       -0.6010     0.4140     0.2390 O.2   1 <1>  -0.5700 
  2 C       -1.8170     0.3640     0.1650 C.2   1 <1>   0.7150 
  3 N       -2.4210    -0.8800     0.1510 N.am  1 <1>  -0.6600 
  4 C       -2.5970     1.5840     0.0850 C.2   1 <1>   0.0550 
  5 C       -3.8340    -1.0550     0.6270 C.3   1 <1>   0.1400 
  6 C       -1.6130    -2.0870    -0.1900 C.3   1 <1>   0.1400 
  7 O       -2.2390     2.6750     0.7570 O.3   1 <1>  -0.2800 
  8 C       -3.7370     1.8690    -0.6090 C.2   1 <1>  -0.1500 
  9 C       -4.0810    -2.3220     1.4600 C.3   1 <1>   0.2090 
 10 C       -2.4050    -3.1430    -0.9670 C.3   1 <1>  -0.1600 
 11 C       -3.1070     3.6310     0.5160 C.2   1 <1>  -0.0100 
 12 C       -4.0660     3.1950    -0.3260 C.2   1 <1>  -0.1500 
 13 N       -4.3110    -3.5220     0.6040 N.pl3 1 <1>  -0.8380 
 14 C       -3.1370    -4.1360    -0.0640 C.3   1 <1>   0.2090 
 15 C       -5.5930    -3.8640     0.2290 C.ar  1 <1>   0.4100 
 16 N       -6.3540    -2.8940    -0.1920 N.ar  1 <1>  -0.6200 
 17 C       -6.0560    -5.2050     0.2860 C.ar  1 <1>   0.0000 
 18 C       -7.5600    -3.2320    -0.6530 C.ar  1 <1>   0.4770 
 19 C       -7.3290    -5.4320    -0.2440 C.ar  1 <1>   0.3100 
 20 C       -5.3610    -6.2970     0.8460 C.ar  1 <1>  -0.1500 
 21 N       -8.0750    -4.4160    -0.7200 N.ar  1 <1>  -0.6200 
 22 C       -8.3940    -2.0780    -1.1550 C.3   1 <1>  -0.0970 
 23 C       -7.8460    -6.7350    -0.2630 C.ar  1 <1>  -0.1500 
 24 C       -5.8860    -7.5640     0.8270 C.ar  1 <1>  -0.1500 
 25 C       -7.1410    -7.7890     0.2590 C.ar  1 <1>  -0.1500 
 26 H       -4.4980    -1.0540    -0.2190 H     1 <1>   0.0800 
 27 H       -4.0960    -0.2160     1.2470 H     1 <1>   0.0800 
 28 H       -1.2040    -2.5090     0.7120 H     1 <1>   0.0800 
 29 H       -0.7830    -1.7800    -0.8040 H     1 <1>   0.0800 
 30 H       -4.2880     1.2160    -1.2610 H     1 <1>   0.1500 
 31 H       -4.9650    -2.1640     2.0530 H     1 <1>   0.0800 
 32 H       -3.2620    -2.4930     2.1370 H     1 <1>   0.0800 
 33 H       -1.6980    -3.7110    -1.5430 H     1 <1>   0.0800 
 34 H       -3.0860    -2.6850    -1.6630 H     1 <1>   0.0800 
 35 H       -2.9680     4.5910     0.9830 H     1 <1>   0.1500 
 36 H       -4.9120     3.7330    -0.7160 H     1 <1>   0.1500 
 37 H       -2.4660    -4.5260     0.6820 H     1 <1>   0.0800 
 38 H       -3.4700    -4.9600    -0.6720 H     1 <1>   0.0800 
 39 H       -4.4040    -6.1220     1.3020 H     1 <1>   0.1500 
 40 H       -8.5460    -1.3740    -0.3590 H     1 <1>   0.0800 
 41 H       -9.3490    -2.4270    -1.5030 H     1 <1>   0.0800 
 42 H       -7.8810    -1.5930    -1.9640 H     1 <1>   0.0800 
 43 H       -8.8180    -6.8810    -0.6960 H     1 <1>   0.1500 
 44 H       -5.3440    -8.3920     1.2510 H     1 <1>   0.1500 
 45 H       -7.5450    -8.7870     0.2420 H     1 <1>   0.1500 
@<TRIPOS>BOND
  1   1   2  2   
  2   2   3  am  
  3   2   4  1   
  4   3   5  1   
  5   3   6  1   
  6   4   7  1   
  7   4   8  2   
  8   5   9  1   
  9   5  26  1   
 10   5  27  1   
 11   6  10  1   
 12   6  28  1   
 13   6  29  1   
 14   7  11  1   
 15   8  12  1   
 16   8  30  1   
 17   9  13  1   
 18   9  31  1   
 19   9  32  1   
 20  10  14  1   
 21  10  33  1   
 22  10  34  1   
 23  11  12  2   
 24  11  35  1   
 25  12  36  1   
 26  13  14  1   
 27  13  15  1   
 28  14  37  1   
 29  14  38  1   
 30  15  16  ar  
 31  15  17  ar  
 32  16  18  ar  
 33  17  19  ar  
 34  17  20  ar  
 35  18  21  ar  
 36  18  22  1   
 37  19  21  ar  
 38  19  23  ar  
 39  20  24  ar  
 40  20  39  1   
 41  22  40  1   
 42  22  41  1   
 43  22  42  1   
 44  23  25  ar  
 45  23  43  1   
 46  24  25  ar  
 47  24  44  1   
 48  25  45  1   
@<TRIPOS>SUBSTRUCTURE
  1 ****  13 GROUP 4 **** **** 0

# MOE 2024.06 (io_trps.svl 2023.06)
