@<TRIPOS>MOLECULE
C22H23N5O2
52 56 1 0 0 
SMALL
USER_CHARGES


@<TRIPOS>ATOM
  1 O       -0.4460     2.1830     2.1350 O.2   1 <1>  -0.5700 
  2 C       -0.2380     2.8070     1.1080 C.2   1 <1>   0.6160 
  3 N       -1.1740     3.7250     0.7120 N.am  1 <1>  -0.6600 
  4 C        0.9680     2.5960     0.3160 C.2   1 <1>   0.1230 
  5 C       -2.5970     3.4520     0.8190 C.3   1 <1>   0.5890 
  6 C       -0.9110     4.7190    -0.3590 C.3   1 <1>   0.2810 
  7 N        1.1050     3.3560    -0.8670 N.am  1 <1>  -0.5390 
  8 C        1.9360     1.7040     0.6620 C.2   1 <1>  -0.1040 
  9 N       -2.8200     2.1310     0.2240 N.pl3 1 <1>  -0.8690 
 10 C       -3.3620     4.4660    -0.0800 C.3   1 <1>   0.1430 
 11 C        0.2600     4.3370    -1.2840 C.2   1 <1>   0.5690 
 12 C       -2.2550     4.9230    -1.0630 C.3   1 <1>  -0.1600 
 13 C        3.1620     1.3760    -0.0090 C.2   1 <1>   0.1810 
 14 C       -3.9370     2.2150    -0.5700 C.ar  1 <1>   0.1000 
 15 C       -4.3390     3.5170    -0.7900 C.ar  1 <1>  -0.1440 
 16 C       -4.0400     5.6180     0.7630 C.3   1 <1>   0.1380 
 17 O        0.4440     4.9290    -2.3200 O.2   1 <1>  -0.5700 
 18 N        3.5660     1.9430    -1.1760 N.2   1 <1>  -0.5650 
 19 C        4.0960     0.4730     0.3920 C.2   1 <1>  -0.3020 
 20 C       -4.6350     1.1460    -1.1050 C.ar  1 <1>  -0.1500 
 21 C       -5.4760     3.7580    -1.5440 C.ar  1 <1>  -0.1500 
 22 C       -4.6810     6.7580    -0.0470 C.2   1 <1>  -0.2880 
 23 C       -5.1650     5.0530     1.6570 C.3   1 <1>  -0.2400 
 24 C       -3.0300     6.3240     1.6930 C.3   1 <1>  -0.2400 
 25 C        4.6980     1.3840    -1.4410 C.2   1 <1>   0.0360 
 26 N        5.0790     0.4760    -0.5200 N.pl3 1 <1>   0.0330 
 27 C       -5.7640     1.3900    -1.8650 C.ar  1 <1>  -0.1500 
 28 C       -6.1840     2.6940    -2.0820 C.ar  1 <1>  -0.1500 
 29 C       -4.7360     6.9980    -1.3640 C.2   1 <1>  -0.3000 
 30 H       -2.9150     3.4580     1.8470 H     1 <1>   0.0800 
 31 H       -0.6350     5.6400     0.1200 H     1 <1>   0.0800 
 32 H        1.9250     3.1430    -1.4530 H     1 <1>   0.3700 
 33 H        1.7940     1.1410     1.5660 H     1 <1>   0.1500 
 34 H       -2.7890     1.3830     0.9220 H     1 <1>   0.4000 
 35 H       -2.3350     5.9460    -1.3710 H     1 <1>   0.0800 
 36 H       -2.2750     4.3060    -1.9460 H     1 <1>   0.0800 
 37 H        4.0990    -0.1530     1.2660 H     1 <1>   0.1500 
 38 H       -4.2920     0.1440    -0.9260 H     1 <1>   0.1500 
 39 H       -5.8340     4.7530    -1.7180 H     1 <1>   0.1500 
 40 H       -5.1520     7.4650     0.6170 H     1 <1>   0.1500 
 41 H       -5.5960     5.8300     2.2630 H     1 <1>   0.0800 
 42 H       -4.8070     4.2860     2.3180 H     1 <1>   0.0800 
 43 H       -5.9550     4.6390     1.0570 H     1 <1>   0.0800 
 44 H       -3.5260     7.0650     2.2940 H     1 <1>   0.0800 
 45 H       -2.2800     6.8330     1.1160 H     1 <1>   0.0800 
 46 H       -2.5470     5.6380     2.3650 H     1 <1>   0.0800 
 47 H        5.2980     1.6060    -2.3070 H     1 <1>   0.1500 
 48 H        5.9350    -0.0860    -0.5270 H     1 <1>   0.2700 
 49 H       -6.3160     0.5690    -2.2880 H     1 <1>   0.1500 
 50 H       -7.0650     2.8810    -2.6700 H     1 <1>   0.1500 
 51 H       -5.2260     7.8600    -1.7830 H     1 <1>   0.1500 
 52 H       -4.3190     6.3810    -2.1400 H     1 <1>   0.1500 
@<TRIPOS>BOND
  1   1   2  2   
  2   2   3  am  
  3   2   4  1   
  4   3   5  1   
  5   3   6  1   
  6   4   7  1   
  7   4   8  2   
  8   5   9  1   
  9   5  10  1   
 10   5  30  1   
 11   6  11  1   
 12   6  12  1   
 13   6  31  1   
 14   7  11  am  
 15   7  32  1   
 16   8  13  1   
 17   8  33  1   
 18   9  14  1   
 19   9  34  1   
 20  10  12  1   
 21  10  15  1   
 22  10  16  1   
 23  11  17  2   
 24  12  35  1   
 25  12  36  1   
 26  13  18  1   
 27  13  19  2   
 28  14  15  ar  
 29  14  20  ar  
 30  15  21  ar  
 31  16  22  1   
 32  16  23  1   
 33  16  24  1   
 34  18  25  2   
 35  19  26  1   
 36  19  37  1   
 37  20  27  ar  
 38  20  38  1   
 39  21  28  ar  
 40  21  39  1   
 41  22  29  2   
 42  22  40  1   
 43  23  41  1   
 44  23  42  1   
 45  23  43  1   
 46  24  44  1   
 47  24  45  1   
 48  24  46  1   
 49  25  26  1   
 50  25  47  1   
 51  26  48  1   
 52  27  28  ar  
 53  27  49  1   
 54  28  50  1   
 55  29  51  1   
 56  29  52  1   
@<TRIPOS>SUBSTRUCTURE
  1 ****   3 GROUP 4 **** **** 0

# MOE 2024.06 (io_trps.svl 2023.06)
