@<TRIPOS>MOLECULE
NONAME
41 42 1 0 0 
SMALL
USER_CHARGES


@<TRIPOS>ATOM
  1 CL      -1.4000    -2.1560    -0.3270 Cl    1 <1>  -0.1770 
  2 C       -2.0310    -0.5410    -0.5700 C.ar  1 <1>   0.1770 
  3 C       -3.0730    -0.0610     0.2030 C.ar  1 <1>  -0.1440 
  4 C       -1.4580     0.2490    -1.5560 C.ar  1 <1>   0.1600 
  5 C       -3.4620     1.2320    -0.0920 C.ar  1 <1>   0.1770 
  6 C       -3.7330    -0.9050     1.2800 C.3   1 <1>   0.2540 
  7 N       -1.8340     1.4900    -1.8420 N.ar  1 <1>  -0.6200 
  8 CL      -4.7630     1.9990     0.7910 Cl    1 <1>  -0.1770 
  9 C       -2.8310     1.9520    -1.0970 C.ar  1 <1>   0.1600 
 10 N       -4.5620    -1.9320     0.6470 N.3   1 <1>  -0.8100 
 11 C       -5.7430    -1.4380    -0.0840 C.3   1 <1>   0.1100 
 12 C       -5.0170    -2.9770     1.5590 C.3   1 <1>   0.1100 
 13 C       -6.8460    -2.4850     0.1260 C.3   1 <1>   0.2000 
 14 C       -6.1360    -3.6690     0.7820 C.3   1 <1>  -0.0800 
 15 O       -7.7760    -1.9840     1.0240 O.3   1 <1>  -0.6800 
 16 C       -5.5580    -4.6120    -0.2940 C.3   1 <1>  -0.0550 
 17 S       -4.9650    -6.1780     0.3490 S.o2  1 <1>   1.3330 
 18 O       -6.1220    -6.9520     0.7380 O.2   1 <1>  -0.6500 
 19 O       -3.8980    -5.9780     1.3040 O.2   1 <1>  -0.6500 
 20 N       -4.2830    -6.9070    -1.0250 N.am  1 <1>  -0.8490 
 21 C       -2.9280    -6.4250    -1.3190 C.3   1 <1>   0.1160 
 22 C       -4.2800    -8.3690    -0.9280 C.3   1 <1>   0.1160 
 23 H       -0.6500    -0.1670    -2.1340 H     1 <1>   0.1500 
 24 H       -4.3310    -0.3070     1.9460 H     1 <1>   0.0800 
 25 H       -2.9660    -1.3830     1.8670 H     1 <1>   0.0800 
 26 H       -3.1680     2.9550    -1.2930 H     1 <1>   0.1500 
 27 H       -6.0620    -0.4730     0.2720 H     1 <1>   0.0800 
 28 H       -5.4960    -1.3640    -1.1290 H     1 <1>   0.0800 
 29 H       -4.2060    -3.6340     1.8210 H     1 <1>   0.0800 
 30 H       -5.4130    -2.5360     2.4590 H     1 <1>   0.0800 
 31 H       -7.3640    -2.7360    -0.7840 H     1 <1>   0.0800 
 32 H       -6.7990    -4.2230     1.4260 H     1 <1>   0.0800 
 33 H       -7.3240    -1.6970     1.8390 H     1 <1>   0.4000 
 34 H       -4.7610    -4.1130    -0.8110 H     1 <1>   0.0800 
 35 H       -6.3240    -4.8250    -1.0140 H     1 <1>   0.0800 
 36 H       -2.5790    -6.8470    -2.2460 H     1 <1>   0.0800 
 37 H       -2.2490    -6.7020    -0.5290 H     1 <1>   0.0800 
 38 H       -2.9240    -5.3520    -1.4140 H     1 <1>   0.0800 
 39 H       -3.8550    -8.8010    -1.8170 H     1 <1>   0.0800 
 40 H       -5.2890    -8.7330    -0.8260 H     1 <1>   0.0800 
 41 H       -3.7100    -8.6850    -0.0700 H     1 <1>   0.0800 
@<TRIPOS>BOND
  1   1   2  1   
  2   2   3  ar  
  3   2   4  ar  
  4   3   5  ar  
  5   3   6  1   
  6   4   7  ar  
  7   4  23  1   
  8   5   8  1   
  9   5   9  ar  
 10   6  10  1   
 11   6  24  1   
 12   6  25  1   
 13   7   9  ar  
 14   9  26  1   
 15  10  11  1   
 16  10  12  1   
 17  11  13  1   
 18  11  27  1   
 19  11  28  1   
 20  12  14  1   
 21  12  29  1   
 22  12  30  1   
 23  13  14  1   
 24  13  15  1   
 25  13  31  1   
 26  14  16  1   
 27  14  32  1   
 28  15  33  1   
 29  16  17  1   
 30  16  34  1   
 31  16  35  1   
 32  17  18  2   
 33  17  19  2   
 34  17  20  am  
 35  20  21  1   
 36  20  22  1   
 37  21  36  1   
 38  21  37  1   
 39  21  38  1   
 40  22  39  1   
 41  22  40  1   
 42  22  41  1   
@<TRIPOS>SUBSTRUCTURE
  1 ****  10 GROUP 4 **** **** 0

# MOE 2024.06 (io_trps.svl 2023.06)
