@<TRIPOS>MOLECULE
NONAME
53 55 1 0 0 
SMALL
USER_CHARGES


@<TRIPOS>ATOM
  1 O        0.8420     0.5410     0.2340 O.2   1 <1>  -0.5700 
  2 C        1.5950    -0.1930     0.8340 C.2   1 <1>   0.5690 
  3 N        2.5870     0.3680     1.6210 N.am  1 <1>  -0.6600 
  4 C        1.4440    -1.7320     0.6780 C.3   1 <1>   0.4050 
  5 C        3.7240    -0.3890     2.2250 C.3   1 <1>   0.1400 
  6 C        2.7030     1.8460     1.7420 C.3   1 <1>   0.1400 
  7 O        2.6790    -2.3210     0.2900 O.3   1 <1>  -0.5600 
  8 C        0.3430    -2.1610    -0.3030 C.ar  1 <1>  -0.1440 
  9 C        4.9310    -0.4660     1.2640 C.3   1 <1>   0.3430 
 10 C        3.4300     2.4240     0.5210 C.3   1 <1>  -0.1600 
 11 C        2.6860    -3.7210     0.2700 C.3   1 <1>   0.0400 
 12 C        0.4880    -1.9610    -1.6690 C.ar  1 <1>  -0.1500 
 13 C       -0.8130    -2.7680     0.1690 C.ar  1 <1>  -0.1500 
 14 N        5.3740     0.8710     0.7250 N.4   1 <1>  -0.9590 
 15 C        4.3580     1.4510    -0.2090 C.3   1 <1>   0.3430 
 16 C       -0.5010    -2.3640    -2.5490 C.ar  1 <1>  -0.1500 
 17 C       -1.8030    -3.1720    -0.7100 C.ar  1 <1>  -0.1500 
 18 C        6.7020     0.7620     0.0640 C.3   1 <1>   0.4860 
 19 C       -1.6470    -2.9720    -2.0700 C.ar  1 <1>  -0.1500 
 20 C        7.2430     2.1620    -0.1710 C.ar  1 <1>  -0.1440 
 21 C        7.7190     2.9200     0.8890 C.ar  1 <1>  -0.1500 
 22 C        7.2670     2.7000    -1.4490 C.ar  1 <1>  -0.1500 
 23 C        8.1980     4.2000     0.6720 C.ar  1 <1>  -0.1500 
 24 C        7.7460     3.9810    -1.6590 C.ar  1 <1>  -0.1500 
 25 C        8.2160     4.7530    -0.6030 C.ar  1 <1>   0.0730 
 26 C        8.7070     6.0840    -0.8230 C.1   1 <1>   0.4840 
 27 N        9.0890     7.1440    -0.9960 N.1   1 <1>  -0.5570 
 28 H        1.2040    -2.1170     1.6520 H     1 <1>   0.0800 
 29 H        4.0240     0.0820     3.1450 H     1 <1>   0.0800 
 30 H        3.4110    -1.3860     2.4800 H     1 <1>   0.0800 
 31 H        1.7190     2.2830     1.8190 H     1 <1>   0.0800 
 32 H        3.2330     2.0960     2.6440 H     1 <1>   0.0800 
 33 H        4.6710    -1.1140     0.4420 H     1 <1>   0.0800 
 34 H        5.7470    -0.9300     1.7920 H     1 <1>   0.0800 
 35 H        3.9660     3.3120     0.8030 H     1 <1>   0.0800 
 36 H        2.6770     2.7350    -0.1830 H     1 <1>   0.0800 
 37 H        3.6910    -4.0530     0.0770 H     1 <1>   0.0800 
 38 H        2.0420    -4.0760    -0.5170 H     1 <1>   0.0800 
 39 H        2.3550    -4.1000     1.2210 H     1 <1>   0.0800 
 40 H        1.3750    -1.4860    -2.0510 H     1 <1>   0.1500 
 41 H       -0.9570    -2.9310     1.2220 H     1 <1>   0.1500 
 42 H        5.4790     1.5360     1.4970 H     1 <1>   0.4500 
 43 H        4.8440     1.9850    -1.0090 H     1 <1>   0.0800 
 44 H        3.7710     0.6600    -0.6500 H     1 <1>   0.0800 
 45 H       -0.3800    -2.2030    -3.6060 H     1 <1>   0.1500 
 46 H       -2.6970    -3.6410    -0.3370 H     1 <1>   0.1500 
 47 H        7.3890     0.2230     0.6970 H     1 <1>   0.0800 
 48 H        6.6130     0.2330    -0.8710 H     1 <1>   0.0800 
 49 H       -2.4170    -3.2840    -2.7530 H     1 <1>   0.1500 
 50 H        7.7320     2.5270     1.8930 H     1 <1>   0.1500 
 51 H        6.9180     2.1320    -2.2970 H     1 <1>   0.1500 
 52 H        8.5670     4.7810     1.5030 H     1 <1>   0.1500 
 53 H        7.7590     4.3890    -2.6570 H     1 <1>   0.1500 
@<TRIPOS>BOND
  1   1   2  2   
  2   2   3  am  
  3   2   4  1   
  4   3   5  1   
  5   3   6  1   
  6   4   7  1   
  7   4   8  1   
  8   4  28  1   
  9   5   9  1   
 10   5  29  1   
 11   5  30  1   
 12   6  10  1   
 13   6  31  1   
 14   6  32  1   
 15   7  11  1   
 16   8  12  ar  
 17   8  13  ar  
 18   9  14  1   
 19   9  33  1   
 20   9  34  1   
 21  10  15  1   
 22  10  35  1   
 23  10  36  1   
 24  11  37  1   
 25  11  38  1   
 26  11  39  1   
 27  12  16  ar  
 28  12  40  1   
 29  13  17  ar  
 30  13  41  1   
 31  14  15  1   
 32  14  18  1   
 33  14  42  1   
 34  15  43  1   
 35  15  44  1   
 36  16  19  ar  
 37  16  45  1   
 38  17  19  ar  
 39  17  46  1   
 40  18  20  1   
 41  18  47  1   
 42  18  48  1   
 43  19  49  1   
 44  20  21  ar  
 45  20  22  ar  
 46  21  23  ar  
 47  21  50  1   
 48  22  24  ar  
 49  22  51  1   
 50  23  25  ar  
 51  23  52  1   
 52  24  25  ar  
 53  24  53  1   
 54  25  26  1   
 55  26  27  3   
@<TRIPOS>SUBSTRUCTURE
  1 ****  15 GROUP 4 **** **** 0

# MOE 2024.06 (io_trps.svl 2023.06)
