@<TRIPOS>MOLECULE
NONAME
27 27 1 0 0 
SMALL
USER_CHARGES


@<TRIPOS>ATOM
  1 CL      -0.2140     0.6560    -1.0710 Cl    1 <1>  -0.1240 
  2 C       -1.8880     0.5900    -0.5960 C.2   1 <1>   0.1640 
  3 S       -2.7330    -0.9090    -0.8880 S.3   1 <1>  -0.0800 
  4 C       -2.6830     1.5100    -0.0250 C.2   1 <1>  -0.1500 
  5 C       -4.2320    -0.2540    -0.2030 C.2   1 <1>  -0.0450 
  6 C       -4.0080     1.0290     0.1960 C.2   1 <1>  -0.1500 
  7 C       -5.4010    -1.0960    -0.1580 C.2   1 <1>   0.7150 
  8 O       -5.3890    -2.2400    -0.5700 O.2   1 <1>  -0.5700 
  9 N       -6.5670    -0.6060     0.3510 N.am  1 <1>  -0.7300 
 10 C       -7.8810    -1.2980     0.3780 C.3   1 <1>   0.1400 
 11 C       -8.9950    -0.3190    -0.0370 C.3   1 <1>   0.2510 
 12 N       -8.8150     0.9860     0.6720 N.3   1 <1>  -0.9900 
 13 C      -10.3900    -0.9550     0.1380 C.2   1 <1>   0.6590 
 14 O      -10.5670    -1.9910     0.7290 O.2   1 <1>  -0.5700 
 15 O      -11.4000    -0.2750    -0.3970 O.3   1 <1>  -0.4300 
 16 C      -12.7350    -0.7310    -0.3080 C.3   1 <1>   0.0400 
 17 H       -2.3810     2.5060     0.2460 H     1 <1>   0.1500 
 18 H       -4.7470     1.6670     0.6490 H     1 <1>   0.1500 
 19 H       -6.6500     0.3910     0.5730 H     1 <1>   0.3700 
 20 H       -7.8730    -2.1470    -0.2850 H     1 <1>   0.0800 
 21 H       -8.0650    -1.6590     1.3750 H     1 <1>   0.0800 
 22 H       -8.8760    -0.1380    -1.0910 H     1 <1>   0.0800 
 23 H       -8.9960     0.8360     1.6730 H     1 <1>   0.3600 
 24 H       -9.5500     1.6280     0.3440 H     1 <1>   0.3600 
 25 H      -13.3720    -0.0250    -0.8100 H     1 <1>   0.0800 
 26 H      -13.0100    -0.8060     0.7300 H     1 <1>   0.0800 
 27 H      -12.8060    -1.6960    -0.7800 H     1 <1>   0.0800 
@<TRIPOS>BOND
  1   1   2  1   
  2   2   3  1   
  3   2   4  2   
  4   3   5  1   
  5   4   6  1   
  6   4  17  1   
  7   5   6  2   
  8   5   7  1   
  9   6  18  1   
 10   7   8  2   
 11   7   9  am  
 12   9  10  1   
 13   9  19  1   
 14  10  11  1   
 15  10  20  1   
 16  10  21  1   
 17  11  12  1   
 18  11  13  1   
 19  11  22  1   
 20  12  23  1   
 21  12  24  1   
 22  13  14  2   
 23  13  15  1   
 24  15  16  1   
 25  16  25  1   
 26  16  26  1   
 27  16  27  1   
@<TRIPOS>SUBSTRUCTURE
  1 ****   9 GROUP 4 **** **** 0

# MOE 2024.06 (io_trps.svl 2023.06)
