@<TRIPOS>MOLECULE
NONAME
47 49 1 0 0 
SMALL
USER_CHARGES


@<TRIPOS>ATOM
  1 N        1.2700    -4.1990     0.9350 N.2   1 <1>  -0.7070 
  2 N        0.8430    -2.9170     0.9650 N.pl3 1 <1>   0.3140 
  3 C        2.2750    -4.1960     0.1120 C.2   1 <1>   0.1390 
  4 C        1.5840    -2.1410     0.1490 C.2   1 <1>  -0.3020 
  5 C       -0.2910    -2.4820     1.8140 C.3   1 <1>   0.2390 
  6 C        2.5180    -2.9340    -0.4150 C.2   1 <1>  -0.1500 
  7 C       -1.6320    -2.5780     1.0840 C.ar  1 <1>  -0.1440 
  8 C       -1.9190    -3.6550     0.2590 C.ar  1 <1>  -0.1500 
  9 C       -2.5870    -1.5860     1.2490 C.ar  1 <1>  -0.1500 
 10 C       -3.1390    -3.7510    -0.3930 C.ar  1 <1>  -0.1430 
 11 C       -3.8050    -1.6720     0.5980 C.ar  1 <1>  -0.1500 
 12 C       -4.0830    -2.7500    -0.2220 C.ar  1 <1>  -0.1500 
 13 C       -3.4230    -4.9480    -1.2790 C.3   1 <1>   0.4860 
 14 N       -3.4160    -6.1720    -0.4310 N.4   1 <1>  -0.9590 
 15 C       -3.3800    -7.4110    -1.2570 C.3   1 <1>   0.3430 
 16 C       -4.5520    -6.1590     0.5440 C.3   1 <1>   0.2630 
 17 C       -2.4330    -8.4490    -0.6370 C.3   1 <1>  -0.0800 
 18 C       -2.3540    -9.7250    -1.4740 C.3   1 <1>  -0.1600 
 19 C       -2.8330    -8.9650     0.7470 C.3   1 <1>  -0.1600 
 20 C       -1.8010   -10.7880    -0.5240 C.3   1 <1>  -0.1600 
 21 C       -2.0960   -10.2960     0.8970 C.3   1 <1>  -0.1600 
 22 H        2.8510    -5.0750    -0.1270 H     1 <1>   0.1500 
 23 H        1.4120    -1.0880     0.0180 H     1 <1>   0.1500 
 24 H       -0.1070    -1.4710     2.1250 H     1 <1>   0.0800 
 25 H       -0.3120    -3.1060     2.6870 H     1 <1>   0.0800 
 26 H        3.2920    -2.6770    -1.1170 H     1 <1>   0.1500 
 27 H       -1.1780    -4.4250     0.1220 H     1 <1>   0.1500 
 28 H       -2.3910    -0.7380     1.8840 H     1 <1>   0.1500 
 29 H       -4.5370    -0.8920     0.7310 H     1 <1>   0.1500 
 30 H       -5.0360    -2.7930    -0.7210 H     1 <1>   0.1500 
 31 H       -2.6540    -5.0140    -2.0330 H     1 <1>   0.0800 
 32 H       -4.3760    -4.8330    -1.7680 H     1 <1>   0.0800 
 33 H       -2.5400    -6.1290     0.1090 H     1 <1>   0.4500 
 34 H       -3.0210    -7.1810    -2.2470 H     1 <1>   0.0800 
 35 H       -4.3710    -7.8270    -1.3500 H     1 <1>   0.0800 
 36 H       -5.4950    -6.1780     0.0220 H     1 <1>   0.0800 
 37 H       -4.5120    -5.2690     1.1510 H     1 <1>   0.0800 
 38 H       -4.5000    -7.0160     1.1950 H     1 <1>   0.0800 
 39 H       -1.4400    -8.0350    -0.5800 H     1 <1>   0.0800 
 40 H       -1.7250    -9.6060    -2.3410 H     1 <1>   0.0800 
 41 H       -3.3390   -10.0230    -1.7920 H     1 <1>   0.0800 
 42 H       -3.8930    -9.1550     0.7790 H     1 <1>   0.0800 
 43 H       -2.5670    -8.2830     1.5360 H     1 <1>   0.0800 
 44 H       -0.7360   -10.8850    -0.6570 H     1 <1>   0.0800 
 45 H       -2.2580   -11.7460    -0.7110 H     1 <1>   0.0800 
 46 H       -2.6890   -11.0090     1.4450 H     1 <1>   0.0800 
 47 H       -1.1680   -10.1450     1.4230 H     1 <1>   0.0800 
@<TRIPOS>BOND
  1   1   2  1   
  2   1   3  2   
  3   2   4  1   
  4   2   5  1   
  5   3   6  1   
  6   3  22  1   
  7   4   6  2   
  8   4  23  1   
  9   5   7  1   
 10   5  24  1   
 11   5  25  1   
 12   6  26  1   
 13   7   8  ar  
 14   7   9  ar  
 15   8  10  ar  
 16   8  27  1   
 17   9  11  ar  
 18   9  28  1   
 19  10  12  ar  
 20  10  13  1   
 21  11  12  ar  
 22  11  29  1   
 23  12  30  1   
 24  13  14  1   
 25  13  31  1   
 26  13  32  1   
 27  14  15  1   
 28  14  16  1   
 29  14  33  1   
 30  15  17  1   
 31  15  34  1   
 32  15  35  1   
 33  16  36  1   
 34  16  37  1   
 35  16  38  1   
 36  17  18  1   
 37  17  19  1   
 38  17  39  1   
 39  18  20  1   
 40  18  40  1   
 41  18  41  1   
 42  19  21  1   
 43  19  42  1   
 44  19  43  1   
 45  20  21  1   
 46  20  44  1   
 47  20  45  1   
 48  21  46  1   
 49  21  47  1   
@<TRIPOS>SUBSTRUCTURE
  1 ****   8 GROUP 4 **** **** 0

# MOE 2024.06 (io_trps.svl 2023.06)
