@<TRIPOS>MOLECULE
NONAME
48 50 1 0 0 
SMALL
USER_CHARGES


@<TRIPOS>ATOM
  1 F        0.8950     0.5600     0.1350 F     1 <1>  -0.1900 
  2 C        1.5970    -0.5420     0.1810 C.ar  1 <1>   0.1900 
  3 C        2.5720    -0.6870     1.1560 C.ar  1 <1>  -0.1440 
  4 C        1.3250    -1.5230    -0.7540 C.ar  1 <1>  -0.1500 
  5 C        3.2940    -1.8700     1.1730 C.ar  1 <1>  -0.1500 
  6 C        2.8520     0.4120     2.1700 C.3   1 <1>  -0.0960 
  7 C        2.0470    -2.7070    -0.7220 C.ar  1 <1>  -0.1430 
  8 C        3.0350    -2.8670     0.2440 C.ar  1 <1>  -0.1500 
  9 C        1.7350    -3.8140    -1.7310 C.3   1 <1>   0.4600 
 10 N        0.9890    -4.9370    -1.0280 N.4   1 <1>  -0.9590 
 11 C        3.0060    -4.3820    -2.4050 C.2   1 <1>   0.9060 
 12 C        0.4700    -5.8860    -2.0500 C.3   1 <1>   0.3430 
 13 C       -0.0090    -4.5000    -0.0160 C.3   1 <1>   0.3430 
 14 O        3.5470    -5.3390    -1.8240 O.co2 1 <1>  -0.9000 
 15 O        3.3310    -4.0060    -3.5320 O.co2 1 <1>  -0.9000 
 16 C       -0.0880    -7.1230    -1.3540 C.3   1 <1>  -0.1600 
 17 C       -0.5750    -5.7260     0.6960 C.3   1 <1>  -0.1600 
 18 C       -1.1490    -6.7220    -0.3210 C.3   1 <1>   0.3610 
 19 N       -1.6850    -7.9220     0.3680 N.am  1 <1>  -0.6600 
 20 C       -2.4280    -6.1870    -0.9890 C.2   1 <1>   0.5690 
 21 C       -3.0200    -8.0300     0.1090 C.2   1 <1>   0.6900 
 22 C       -0.8790    -8.8780     1.1770 C.3   1 <1>   0.0600 
 23 O       -2.4810    -5.1870    -1.6680 O.2   1 <1>  -0.5700 
 24 N       -3.4650    -7.0120    -0.6870 N.am  1 <1>  -0.4200 
 25 O       -3.7290    -8.9190     0.5280 O.2   1 <1>  -0.5700 
 26 C       -4.8700    -6.8560    -1.1300 C.3   1 <1>   0.0600 
 27 H        0.5600    -1.3470    -1.4900 H     1 <1>   0.1500 
 28 H        4.0690    -2.0230     1.9050 H     1 <1>   0.1500 
 29 H        1.9620     0.6280     2.7340 H     1 <1>   0.0800 
 30 H        3.1630     1.3070     1.6600 H     1 <1>   0.0800 
 31 H        3.6290     0.1210     2.8530 H     1 <1>   0.0800 
 32 H        3.6230    -3.7720     0.2770 H     1 <1>   0.1500 
 33 H        1.1220    -3.4060    -2.5130 H     1 <1>   0.0800 
 34 H        1.7940    -5.4210    -0.5840 H     1 <1>   0.4500 
 35 H        1.2680    -6.1820    -2.7170 H     1 <1>   0.0800 
 36 H       -0.3010    -5.4090    -2.6340 H     1 <1>   0.0800 
 37 H       -0.8020    -3.9530    -0.5030 H     1 <1>   0.0800 
 38 H        0.4560    -3.8480     0.7070 H     1 <1>   0.0800 
 39 H        0.7260    -7.6430    -0.8810 H     1 <1>   0.0800 
 40 H       -0.5220    -7.7730    -2.0920 H     1 <1>   0.0800 
 41 H       -1.3490    -5.4100     1.3740 H     1 <1>   0.0800 
 42 H        0.2100    -6.1830     1.2690 H     1 <1>   0.0800 
 43 H       -0.4170    -8.3690     2.0040 H     1 <1>   0.0800 
 44 H       -0.1210    -9.3360     0.5660 H     1 <1>   0.0800 
 45 H       -1.5160    -9.6540     1.5670 H     1 <1>   0.0800 
 46 H       -4.9580    -6.0230    -1.8060 H     1 <1>   0.0800 
 47 H       -5.5000    -6.6880    -0.2740 H     1 <1>   0.0800 
 48 H       -5.1920    -7.7540    -1.6290 H     1 <1>   0.0800 
@<TRIPOS>BOND
  1   1   2  1   
  2   2   3  ar  
  3   2   4  ar  
  4   3   5  ar  
  5   3   6  1   
  6   4   7  ar  
  7   4  27  1   
  8   5   8  ar  
  9   5  28  1   
 10   6  29  1   
 11   6  30  1   
 12   6  31  1   
 13   7   8  ar  
 14   7   9  1   
 15   8  32  1   
 16   9  10  1   
 17   9  11  1   
 18   9  33  1   
 19  10  12  1   
 20  10  13  1   
 21  10  34  1   
 22  11  14  ar  
 23  11  15  ar  
 24  12  16  1   
 25  12  35  1   
 26  12  36  1   
 27  13  17  1   
 28  13  37  1   
 29  13  38  1   
 30  16  18  1   
 31  16  39  1   
 32  16  40  1   
 33  17  18  1   
 34  17  41  1   
 35  17  42  1   
 36  18  19  1   
 37  18  20  1   
 38  19  21  am  
 39  19  22  1   
 40  20  23  2   
 41  20  24  am  
 42  21  24  am  
 43  21  25  2   
 44  22  43  1   
 45  22  44  1   
 46  22  45  1   
 47  24  26  1   
 48  26  46  1   
 49  26  47  1   
 50  26  48  1   
@<TRIPOS>SUBSTRUCTURE
  1 ****  13 GROUP 4 **** **** 0

# MOE 2024.06 (io_trps.svl 2023.06)
