@<TRIPOS>MOLECULE
NONAME
43 45 1 0 0 
SMALL
USER_CHARGES


@<TRIPOS>ATOM
  1 O       -0.5580    -1.4280     0.0820 O.2   1 <1>  -0.5700 
  2 C        0.2910    -2.2740    -0.0340 C.2   1 <1>   0.5690 
  3 N        0.0390    -3.4480    -0.6490 N.am  1 <1>  -0.7300 
  4 C        1.6830    -2.0600     0.5200 C.3   1 <1>  -0.0990 
  5 C        1.0410    -4.5260    -0.7720 C.3   1 <1>   0.1400 
  6 C        2.7470    -2.5600    -0.4780 C.3   1 <1>  -0.0800 
  7 C        2.4190    -3.9250    -1.1230 C.3   1 <1>  -0.0800 
  8 C        4.1410    -2.7010     0.1480 C.3   1 <1>  -0.1600 
  9 C        3.5810    -4.8470    -0.7400 C.3   1 <1>  -0.1600 
 10 C        4.7800    -3.9190    -0.5270 C.3   1 <1>   0.2200 
 11 N        5.8620    -4.5440     0.3010 N.am  1 <1>  -0.6600 
 12 C        6.8320    -3.8230     0.9770 C.2   1 <1>   0.6160 
 13 C        6.0510    -6.0210     0.1640 C.3   1 <1>   0.0600 
 14 O        7.3700    -4.3530     1.9340 O.2   1 <1>  -0.5700 
 15 C        7.2130    -2.4770     0.6480 C.2   1 <1>   0.0290 
 16 C        7.5890    -2.1580    -0.6950 C.2   1 <1>   0.6160 
 17 C        7.2530    -1.4790     1.5930 C.2   1 <1>  -0.1500 
 18 O        7.6200    -2.9510    -1.6240 O.2   1 <1>  -0.5700 
 19 N        7.9400    -0.8650    -0.9850 N.am  1 <1>  -0.5390 
 20 C        7.6280    -0.1650     1.2420 C.2   1 <1>  -0.1500 
 21 C        7.9660     0.1270    -0.0450 C.2   1 <1>  -0.0290 
 22 C        8.3820     1.5090    -0.5060 C.3   1 <1>  -0.1020 
 23 H       -0.9110    -3.6100    -0.9890 H     1 <1>   0.3700 
 24 H        1.8310    -1.0160     0.7280 H     1 <1>   0.0800 
 25 H        1.7500    -2.6020     1.4450 H     1 <1>   0.0800 
 26 H        1.0900    -5.0480     0.1680 H     1 <1>   0.0800 
 27 H        0.7390    -5.2230    -1.5350 H     1 <1>   0.0800 
 28 H        2.8040    -1.8390    -1.2770 H     1 <1>   0.0800 
 29 H        2.4480    -3.7890    -2.1910 H     1 <1>   0.0800 
 30 H        4.0550    -2.8910     1.2040 H     1 <1>   0.0800 
 31 H        4.7100    -1.8030    -0.0140 H     1 <1>   0.0800 
 32 H        3.7700    -5.5740    -1.5090 H     1 <1>   0.0800 
 33 H        3.3520    -5.3420     0.1880 H     1 <1>   0.0800 
 34 H        5.1760    -3.6370    -1.4890 H     1 <1>   0.0800 
 35 H        5.9870    -6.3060    -0.8710 H     1 <1>   0.0800 
 36 H        5.3010    -6.5400     0.7330 H     1 <1>   0.0800 
 37 H        7.0190    -6.3160     0.5310 H     1 <1>   0.0800 
 38 H        7.0010    -1.6900     2.6190 H     1 <1>   0.1500 
 39 H        8.2050    -0.7060    -1.9570 H     1 <1>   0.3700 
 40 H        7.6410     0.5870     2.0120 H     1 <1>   0.1500 
 41 H        7.7080     1.8620    -1.2660 H     1 <1>   0.0800 
 42 H        9.3780     1.4770    -0.9090 H     1 <1>   0.0800 
 43 H        8.3670     2.2030     0.3140 H     1 <1>   0.0800 
@<TRIPOS>BOND
  1   1   2  2   
  2   2   3  am  
  3   2   4  1   
  4   3   5  1   
  5   3  23  1   
  6   4   6  1   
  7   4  24  1   
  8   4  25  1   
  9   5   7  1   
 10   5  26  1   
 11   5  27  1   
 12   6   7  1   
 13   6   8  1   
 14   6  28  1   
 15   7   9  1   
 16   7  29  1   
 17   8  10  1   
 18   8  30  1   
 19   8  31  1   
 20   9  10  1   
 21   9  32  1   
 22   9  33  1   
 23  10  11  1   
 24  10  34  1   
 25  11  12  am  
 26  11  13  1   
 27  12  14  2   
 28  12  15  1   
 29  13  35  1   
 30  13  36  1   
 31  13  37  1   
 32  15  16  1   
 33  15  17  2   
 34  16  18  2   
 35  16  19  am  
 36  17  20  1   
 37  17  38  1   
 38  19  21  1   
 39  19  39  1   
 40  20  21  2   
 41  20  40  1   
 42  21  22  1   
 43  22  41  1   
 44  22  42  1   
 45  22  43  1   
@<TRIPOS>SUBSTRUCTURE
  1 ****   8 GROUP 4 **** **** 0

# MOE 2024.06 (io_trps.svl 2023.06)
