@<TRIPOS>MOLECULE
NONAME
48 49 1 0 0 
SMALL
USER_CHARGES


@<TRIPOS>ATOM
  1 CL       1.8510     0.3290     2.9970 Cl    1 <1>  -0.1770 
  2 C        2.2410     0.6750     1.3290 C.ar  1 <1>   0.1770 
  3 C        2.4730    -0.3540     0.4270 C.ar  1 <1>  -0.1440 
  4 C        2.2980     2.0040     0.9460 C.ar  1 <1>  -0.1500 
  5 C        2.7630     0.0140    -0.8800 C.ar  1 <1>   0.1900 
  6 C        2.4220    -1.8230     0.8290 C.3   1 <1>   0.2540 
  7 C        2.5890     2.3360    -0.3670 C.ar  1 <1>  -0.1500 
  8 F        2.9850    -0.9260    -1.7640 F     1 <1>  -0.1900 
  9 C        2.8270     1.3380    -1.2990 C.ar  1 <1>  -0.1440 
 10 N        1.2170    -2.4580     0.2670 N.3   1 <1>  -0.8100 
 11 C        3.1570     1.6960    -2.7420 C.3   1 <1>  -0.0970 
 12 C        1.2760    -3.9240     0.3290 C.3   1 <1>   0.2900 
 13 C       -0.0510    -1.9110     0.7930 C.3   1 <1>   0.1100 
 14 C        0.1870    -4.4470    -0.5830 C.2   1 <1>  -0.3320 
 15 C       -0.7580    -1.1410    -0.3360 C.3   1 <1>   0.3430 
 16 N        0.2160    -4.2340    -1.9110 N.pl3 1 <1>   0.0330 
 17 C       -0.9430    -5.1470    -0.3330 C.2   1 <1>   0.0460 
 18 N       -2.2600    -1.1230    -0.2340 N.4   1 <1>  -0.9590 
 19 C       -0.9180    -4.7910    -2.3820 C.2   1 <1>   0.0360 
 20 N       -1.6510    -5.3290    -1.4610 N.2   1 <1>  -0.5650 
 21 C       -1.4600    -5.7060     0.9750 C.3   1 <1>  -0.0590 
 22 C       -2.7450    -0.5760     1.0710 C.3   1 <1>   0.2630 
 23 C       -2.8290    -2.4840    -0.5070 C.3   1 <1>   0.2630 
 24 H        2.1180     2.7750     1.6740 H     1 <1>   0.1500 
 25 H        2.4390    -1.9440     1.8990 H     1 <1>   0.0800 
 26 H        3.2990    -2.3090     0.4360 H     1 <1>   0.0800 
 27 H        2.6360     3.3730    -0.6540 H     1 <1>   0.1500 
 28 H        2.4290     1.2670    -3.4060 H     1 <1>   0.0800 
 29 H        4.1280     1.3120    -3.0010 H     1 <1>   0.0800 
 30 H        3.1650     2.7620    -2.8860 H     1 <1>   0.0800 
 31 H        1.1360    -4.2640     1.3420 H     1 <1>   0.0800 
 32 H        2.2320    -4.2750    -0.0220 H     1 <1>   0.0800 
 33 H        0.1290    -1.2550     1.6250 H     1 <1>   0.0800 
 34 H       -0.6790    -2.7120     1.1410 H     1 <1>   0.0800 
 35 H       -0.4830    -1.6050    -1.2680 H     1 <1>   0.0800 
 36 H       -0.3790    -0.1320    -0.3480 H     1 <1>   0.0800 
 37 H        0.9510    -3.7520    -2.4400 H     1 <1>   0.2700 
 38 H       -2.5980    -0.5010    -0.9840 H     1 <1>   0.4500 
 39 H       -1.1690    -4.7800    -3.4290 H     1 <1>   0.1500 
 40 H       -0.8070    -5.4540     1.7880 H     1 <1>   0.0800 
 41 H       -1.5210    -6.7770     0.9000 H     1 <1>   0.0800 
 42 H       -2.4420    -5.3230     1.1770 H     1 <1>   0.0800 
 43 H       -2.4390    -1.2150     1.8830 H     1 <1>   0.0800 
 44 H       -3.8210    -0.5130     1.0720 H     1 <1>   0.0800 
 45 H       -2.3420     0.4100     1.2360 H     1 <1>   0.0800 
 46 H       -2.5260    -3.1820     0.2540 H     1 <1>   0.0800 
 47 H       -2.4800    -2.8550    -1.4570 H     1 <1>   0.0800 
 48 H       -3.9060    -2.4470    -0.5300 H     1 <1>   0.0800 
@<TRIPOS>BOND
  1   1   2  1   
  2   2   3  ar  
  3   2   4  ar  
  4   3   5  ar  
  5   3   6  1   
  6   4   7  ar  
  7   4  24  1   
  8   5   8  1   
  9   5   9  ar  
 10   6  10  1   
 11   6  25  1   
 12   6  26  1   
 13   7   9  ar  
 14   7  27  1   
 15   9  11  1   
 16  10  12  1   
 17  10  13  1   
 18  11  28  1   
 19  11  29  1   
 20  11  30  1   
 21  12  14  1   
 22  12  31  1   
 23  12  32  1   
 24  13  15  1   
 25  13  33  1   
 26  13  34  1   
 27  14  16  1   
 28  14  17  2   
 29  15  18  1   
 30  15  35  1   
 31  15  36  1   
 32  16  19  1   
 33  16  37  1   
 34  17  20  1   
 35  17  21  1   
 36  18  22  1   
 37  18  23  1   
 38  18  38  1   
 39  19  20  2   
 40  19  39  1   
 41  21  40  1   
 42  21  41  1   
 43  21  42  1   
 44  22  43  1   
 45  22  44  1   
 46  22  45  1   
 47  23  46  1   
 48  23  47  1   
 49  23  48  1   
@<TRIPOS>SUBSTRUCTURE
  1 ****  10 GROUP 4 **** **** 0

# MOE 2024.06 (io_trps.svl 2023.06)
