@<TRIPOS>MOLECULE
NONAME
51 53 1 0 0 
SMALL
USER_CHARGES


@<TRIPOS>ATOM
  1 O       -3.7560     2.2340     2.1060 O.2   1 <1>  -0.5700 
  2 C       -3.0020     2.3180     1.1500 C.2   1 <1>   0.7670 
  3 N       -2.4580     3.5550     0.8940 N.2   1 <1>  -0.6610 
  4 C       -2.6960     1.1970     0.3230 C.2   1 <1>   0.0290 
  5 C       -1.6350     3.6650    -0.0800 C.2   1 <1>   0.4400 
  6 C       -3.3060    -0.0680     0.5890 C.2   1 <1>   0.6160 
  7 C       -1.8030     1.3800    -0.6920 C.2   1 <1>  -0.0500 
  8 N       -1.2780     2.6220    -0.8880 N.pl3 1 <1>  -0.5500 
  9 O       -2.5860    -0.9840     0.9410 O.2   1 <1>  -0.5700 
 10 N       -4.6520    -0.3180     0.3760 N.am  1 <1>  -0.6600 
 11 C       -5.2430    -1.6550     0.7130 C.3   1 <1>   0.1400 
 12 C       -5.5640     0.6490    -0.3060 C.3   1 <1>   0.1400 
 13 C       -6.5150    -1.5570     1.5690 C.3   1 <1>   0.1400 
 14 C       -6.5650     1.2420     0.6920 C.3   1 <1>  -0.1600 
 15 N       -7.6670    -1.0360     0.7710 N.am  1 <1>  -0.6600 
 16 C       -7.8680     0.4430     0.8230 C.3   1 <1>   0.1400 
 17 C       -8.5540    -1.8270     0.0730 C.2   1 <1>   0.5690 
 18 O       -9.5220    -1.3460    -0.4710 O.2   1 <1>  -0.5700 
 19 C       -8.3610    -3.3490    -0.0340 C.3   1 <1>  -0.0190 
 20 C       -8.7530    -3.8980    -1.4220 C.3   1 <1>  -0.1600 
 21 C       -9.1570    -4.0790     1.0650 C.3   1 <1>  -0.1600 
 22 C       -8.5550    -5.4180    -1.5040 C.3   1 <1>  -0.1600 
 23 C       -8.9650    -5.6010     0.9860 C.3   1 <1>  -0.1600 
 24 C       -9.3430    -6.1430    -0.4010 C.3   1 <1>  -0.0800 
 25 C       -9.0990    -7.6540    -0.4720 C.3   1 <1>  -0.2400 
 26 H       -1.1880     4.6210    -0.2950 H     1 <1>   0.0600 
 27 H       -1.5010     0.5710    -1.3400 H     1 <1>   0.1500 
 28 H       -0.5950     2.7980    -1.6330 H     1 <1>   0.4000 
 29 H       -4.5300    -2.2420     1.2650 H     1 <1>   0.0800 
 30 H       -5.4560    -2.1840    -0.1980 H     1 <1>   0.0800 
 31 H       -6.0860     0.1530    -1.1080 H     1 <1>   0.0800 
 32 H       -4.9930     1.4480    -0.7430 H     1 <1>   0.0800 
 33 H       -6.3300    -0.9220     2.4180 H     1 <1>   0.0800 
 34 H       -6.7550    -2.5300     1.9560 H     1 <1>   0.0800 
 35 H       -6.8280     2.2320     0.3670 H     1 <1>   0.0800 
 36 H       -6.1070     1.3490     1.6580 H     1 <1>   0.0800 
 37 H       -8.5230     0.7420     0.0220 H     1 <1>   0.0800 
 38 H       -8.3560     0.6980     1.7480 H     1 <1>   0.0800 
 39 H       -7.3230    -3.5790     0.0950 H     1 <1>   0.0800 
 40 H       -8.1600    -3.4150    -2.1800 H     1 <1>   0.0800 
 41 H       -9.7860    -3.6670    -1.6210 H     1 <1>   0.0800 
 42 H      -10.2030    -3.8460     0.9530 H     1 <1>   0.0800 
 43 H       -8.8480    -3.7290     2.0340 H     1 <1>   0.0800 
 44 H       -7.5070    -5.6460    -1.4090 H     1 <1>   0.0800 
 45 H       -8.8820    -5.7660    -2.4690 H     1 <1>   0.0800 
 46 H       -9.5750    -6.0740     1.7360 H     1 <1>   0.0800 
 47 H       -7.9370    -5.8400     1.1980 H     1 <1>   0.0800 
 48 H      -10.3940    -5.9630    -0.5610 H     1 <1>   0.0800 
 49 H       -8.0580    -7.8780    -0.3170 H     1 <1>   0.0800 
 50 H       -9.3930    -8.0340    -1.4340 H     1 <1>   0.0800 
 51 H       -9.6760    -8.1600     0.2820 H     1 <1>   0.0800 
@<TRIPOS>BOND
  1   1   2  2   
  2   2   3  1   
  3   2   4  1   
  4   3   5  2   
  5   4   6  1   
  6   4   7  2   
  7   5   8  1   
  8   5  26  1   
  9   6   9  2   
 10   6  10  am  
 11   7   8  1   
 12   7  27  1   
 13   8  28  1   
 14  10  11  1   
 15  10  12  1   
 16  11  13  1   
 17  11  29  1   
 18  11  30  1   
 19  12  14  1   
 20  12  31  1   
 21  12  32  1   
 22  13  15  1   
 23  13  33  1   
 24  13  34  1   
 25  14  16  1   
 26  14  35  1   
 27  14  36  1   
 28  15  16  1   
 29  15  17  am  
 30  16  37  1   
 31  16  38  1   
 32  17  18  2   
 33  17  19  1   
 34  19  20  1   
 35  19  21  1   
 36  19  39  1   
 37  20  22  1   
 38  20  40  1   
 39  20  41  1   
 40  21  23  1   
 41  21  42  1   
 42  21  43  1   
 43  22  24  1   
 44  22  44  1   
 45  22  45  1   
 46  23  24  1   
 47  23  46  1   
 48  23  47  1   
 49  24  25  1   
 50  24  48  1   
 51  25  49  1   
 52  25  50  1   
 53  25  51  1   
@<TRIPOS>SUBSTRUCTURE
  1 ****  11 GROUP 4 **** **** 0

# MOE 2024.06 (io_trps.svl 2023.06)
