@<TRIPOS>MOLECULE
NONAME
22 22 1 0 0 
SMALL
USER_CHARGES


@<TRIPOS>ATOM
  1 O       -0.0810     0.4310     0.8620 O.2   1 <1>  -0.5700 
  2 C       -0.0500     1.5900     0.5440 C.2   1 <1>   0.5690 
  3 N       -1.1970     2.2570     0.2510 N.am  1 <1>  -0.7300 
  4 C        1.3050     2.3390     0.4920 C.3   1 <1>   0.4840 
  5 C       -1.2910     3.7110    -0.0700 C.3   1 <1>   0.1400 
  6 N        1.1570     3.8370     0.5510 N.4   1 <1>  -0.9060 
  7 C        2.0970     1.9890    -0.7700 C.3   1 <1>  -0.2400 
  8 C        0.0960     4.3500    -0.3630 C.3   1 <1>   0.4230 
  9 C        0.0560     5.8660    -0.2200 C.3   1 <1>  -0.2400 
 10 H       -2.0720     1.7190     0.3150 H     1 <1>   0.3700 
 11 H        1.8780     2.0100     1.3440 H     1 <1>   0.0800 
 12 H       -1.9280     3.8440    -0.9290 H     1 <1>   0.0800 
 13 H       -1.7570     4.2160     0.7590 H     1 <1>   0.0800 
 14 H        0.9020     4.0910     1.5110 H     1 <1>   0.4500 
 15 H        2.0560     4.2800     0.3380 H     1 <1>   0.4500 
 16 H        1.5480     2.2380    -1.6610 H     1 <1>   0.0800 
 17 H        2.2750     0.9270    -0.7860 H     1 <1>   0.0800 
 18 H        3.0520     2.4810    -0.7780 H     1 <1>   0.0800 
 19 H        0.3630     4.1100    -1.3810 H     1 <1>   0.0800 
 20 H       -0.2060     6.1590     0.7820 H     1 <1>   0.0800 
 21 H       -0.6830     6.2730    -0.8890 H     1 <1>   0.0800 
 22 H        1.0050     6.3000    -0.4840 H     1 <1>   0.0800 
@<TRIPOS>BOND
  1   1   2  2   
  2   2   3  am  
  3   2   4  1   
  4   3   5  1   
  5   3  10  1   
  6   4   6  1   
  7   4   7  1   
  8   4  11  1   
  9   5   8  1   
 10   5  12  1   
 11   5  13  1   
 12   6   8  1   
 13   6  14  1   
 14   6  15  1   
 15   7  16  1   
 16   7  17  1   
 17   7  18  1   
 18   8   9  1   
 19   8  19  1   
 20   9  20  1   
 21   9  21  1   
 22   9  22  1   
@<TRIPOS>SUBSTRUCTURE
  1 ****   4 GROUP 4 **** **** 0

# MOE 2024.06 (io_trps.svl 2023.06)
