@<TRIPOS>MOLECULE
NONAME
51 54 1 0 0 
SMALL
USER_CHARGES


@<TRIPOS>ATOM
  1 O       -2.0810    -0.2050    -1.5880 O.2   1 <1>  -0.5700 
  2 C       -1.8170    -0.8440    -0.5820 C.2   1 <1>   0.5440 
  3 N       -1.6370    -0.1930     0.6180 N.am  1 <1>  -0.4200 
  4 C       -1.6680    -2.2720    -0.6050 C.ar  1 <1>   0.0860 
  5 C       -1.3150    -0.9180     1.7400 C.2   1 <1>   0.4500 
  6 C       -1.8000     1.2810     0.7200 C.3   1 <1>   0.1400 
  7 C       -1.3370    -2.9050     0.6000 C.ar  1 <1>   0.1790 
  8 C       -1.8320    -3.0520    -1.7540 C.ar  1 <1>  -0.1500 
  9 N       -1.1640    -2.1870     1.7680 N.2   1 <1>  -0.6290 
 10 C       -0.5400     1.9910     0.2100 C.3   1 <1>  -0.0990 
 11 C       -1.1790    -4.2860     0.6270 C.ar  1 <1>  -0.1500 
 12 C       -1.6710    -4.4210    -1.7120 C.ar  1 <1>  -0.1500 
 13 C       -0.6190     3.4990     0.3690 C.2   1 <1>   0.5690 
 14 C       -1.3430    -5.0420    -0.5160 C.ar  1 <1>  -0.1500 
 15 O       -1.4470     3.9450     1.1300 O.2   1 <1>  -0.5700 
 16 N        0.2440     4.3370    -0.3040 N.am  1 <1>  -0.6600 
 17 C        0.1170     5.8160    -0.0820 C.3   1 <1>   0.1400 
 18 C        1.4590     3.8520    -1.0360 C.3   1 <1>   0.1400 
 19 C        1.1700     6.3960     0.9000 C.3   1 <1>   0.4230 
 20 C        2.7930     4.4590    -0.5450 C.3   1 <1>  -0.0800 
 21 N        2.4370     6.8480     0.2160 N.4   1 <1>  -0.9590 
 22 C        1.5140     5.4730     2.1010 C.3   1 <1>   0.1200 
 23 C        3.1750     4.1340     0.9160 C.3   1 <1>   0.1200 
 24 C        2.8980     5.9490    -0.8840 C.3   1 <1>   0.3430 
 25 C        2.3270     8.2580    -0.2710 C.3   1 <1>   0.2630 
 26 O        2.0910     4.2280     1.7860 O.3   1 <1>  -0.5600 
 27 H       -1.1840    -0.3560     2.6490 H     1 <1>   0.0600 
 28 H       -2.6530     1.5890     0.1380 H     1 <1>   0.0800 
 29 H       -1.9870     1.5520     1.7450 H     1 <1>   0.0800 
 30 H       -2.0870    -2.5660    -2.6800 H     1 <1>   0.1500 
 31 H       -0.4190     1.7580    -0.8310 H     1 <1>   0.0800 
 32 H        0.3140     1.6410     0.7600 H     1 <1>   0.0800 
 33 H       -0.9250    -4.7560     1.5600 H     1 <1>   0.1500 
 34 H       -1.8000    -5.0120    -2.6040 H     1 <1>   0.1500 
 35 H       -1.2170    -6.1110    -0.4820 H     1 <1>   0.1500 
 36 H        0.1600     6.3260    -1.0270 H     1 <1>   0.0800 
 37 H       -0.8560     6.0320     0.3240 H     1 <1>   0.0800 
 38 H        1.5430     2.7840    -0.9510 H     1 <1>   0.0800 
 39 H        1.3280     4.0690    -2.0830 H     1 <1>   0.0800 
 40 H        0.7170     7.2740     1.3300 H     1 <1>   0.0800 
 41 H        3.5480     3.9910    -1.1520 H     1 <1>   0.0800 
 42 H        3.1620     6.8170     0.9460 H     1 <1>   0.4500 
 43 H        0.6050     5.2540     2.6350 H     1 <1>   0.0800 
 44 H        2.1740     5.9790     2.7830 H     1 <1>   0.0800 
 45 H        3.9740     4.7560     1.2810 H     1 <1>   0.0800 
 46 H        3.5070     3.1100     0.9690 H     1 <1>   0.0800 
 47 H        2.3240     6.1400    -1.7760 H     1 <1>   0.0800 
 48 H        3.9270     6.1790    -1.1080 H     1 <1>   0.0800 
 49 H        1.5680     8.3350    -1.0330 H     1 <1>   0.0800 
 50 H        3.2660     8.5860    -0.6860 H     1 <1>   0.0800 
 51 H        2.0660     8.9170     0.5420 H     1 <1>   0.0800 
@<TRIPOS>BOND
  1   1   2  2   
  2   2   3  am  
  3   2   4  1   
  4   3   5  1   
  5   3   6  1   
  6   4   7  ar  
  7   4   8  ar  
  8   5   9  2   
  9   5  27  1   
 10   6  10  1   
 11   6  28  1   
 12   6  29  1   
 13   7   9  1   
 14   7  11  ar  
 15   8  12  ar  
 16   8  30  1   
 17  10  13  1   
 18  10  31  1   
 19  10  32  1   
 20  11  14  ar  
 21  11  33  1   
 22  12  14  ar  
 23  12  34  1   
 24  13  15  2   
 25  13  16  am  
 26  14  35  1   
 27  16  17  1   
 28  16  18  1   
 29  17  19  1   
 30  17  36  1   
 31  17  37  1   
 32  18  20  1   
 33  18  38  1   
 34  18  39  1   
 35  19  21  1   
 36  19  22  1   
 37  19  40  1   
 38  20  23  1   
 39  20  24  1   
 40  20  41  1   
 41  21  24  1   
 42  21  25  1   
 43  21  42  1   
 44  22  26  1   
 45  22  43  1   
 46  22  44  1   
 47  23  26  1   
 48  23  45  1   
 49  23  46  1   
 50  24  47  1   
 51  24  48  1   
 52  25  49  1   
 53  25  50  1   
 54  25  51  1   
@<TRIPOS>SUBSTRUCTURE
  1 ****  10 GROUP 4 **** **** 0

# MOE 2024.06 (io_trps.svl 2023.06)
