@<TRIPOS>MOLECULE
NONAME
47 49 1 0 0 
SMALL
USER_CHARGES


@<TRIPOS>ATOM
  1 CL       1.5530     5.4120     1.6650 Cl    1 <1>  -0.1770 
  2 C        1.6250     4.5610     0.1420 C.ar  1 <1>   0.1770 
  3 C        2.0990     3.2560     0.0650 C.ar  1 <1>  -0.1440 
  4 C        1.1880     5.2410    -0.9800 C.ar  1 <1>  -0.1500 
  5 C        2.1090     2.6400    -1.1830 C.ar  1 <1>  -0.1500 
  6 C        2.6180     2.5090     1.2950 C.3   1 <1>   0.3640 
  7 C        1.2130     4.6160    -2.2130 C.ar  1 <1>  -0.1500 
  8 C        1.6710     3.3140    -2.3110 C.ar  1 <1>  -0.1500 
  9 N        1.9940     1.1620     1.3230 N.am  1 <1>  -0.7300 
 10 C        4.1650     2.4170     1.2420 C.3   1 <1>   0.2610 
 11 C        2.6790     0.0250     1.5730 C.2   1 <1>   0.5690 
 12 O        4.6630     1.3880     2.0810 O.3   1 <1>  -0.5600 
 13 C        4.7830     3.7790     1.6010 C.2   1 <1>   0.5690 
 14 O        2.1110    -1.0370     1.6010 O.2   1 <1>  -0.5700 
 15 C        4.1950     0.0900     1.7800 C.3   1 <1>   0.1810 
 16 O        4.4050     4.3240     2.6150 O.2   1 <1>  -0.5700 
 17 N        5.7000     4.4030     0.7830 N.am  1 <1>  -0.6600 
 18 C        6.1450     5.8000     1.0880 C.3   1 <1>   0.1400 
 19 C        6.4070     3.7540    -0.3520 C.3   1 <1>   0.1400 
 20 C        5.0210     6.7980     0.8000 C.3   1 <1>   0.0960 
 21 C        5.7250     4.1370    -1.6630 C.3   1 <1>  -0.2400 
 22 N        5.5280     8.1690     0.9560 N.pl3 1 <1>   0.3140 
 23 N        6.3580     8.7270     0.0530 N.2   1 <1>  -0.7070 
 24 C        5.2630     9.0210     1.9660 C.2   1 <1>  -0.3020 
 25 C        6.5950     9.9190     0.5110 C.2   1 <1>   0.1390 
 26 C        5.9360    10.1620     1.7090 C.2   1 <1>  -0.1500 
 27 H        0.8300     6.2510    -0.8860 H     1 <1>   0.1500 
 28 H        2.4560     1.6260    -1.2880 H     1 <1>   0.1500 
 29 H        2.3290     3.0180     2.1980 H     1 <1>   0.0800 
 30 H        0.8740     5.1380    -3.0920 H     1 <1>   0.1500 
 31 H        1.6850     2.8230    -3.2700 H     1 <1>   0.1500 
 32 H        0.9790     1.1090     1.2220 H     1 <1>   0.3700 
 33 H        4.4400     2.1590     0.2390 H     1 <1>   0.0800 
 34 H        4.6920    -0.2500     0.8900 H     1 <1>   0.0800 
 35 H        4.4700    -0.5530     2.5960 H     1 <1>   0.0800 
 36 H        6.4220     5.8630     2.1270 H     1 <1>   0.0800 
 37 H        7.0050     6.0520     0.4920 H     1 <1>   0.0800 
 38 H        7.4360     4.0750    -0.3690 H     1 <1>   0.0800 
 39 H        6.4150     2.6850    -0.2300 H     1 <1>   0.0800 
 40 H        4.2050     6.6510     1.4810 H     1 <1>   0.0800 
 41 H        4.6740     6.6830    -0.2090 H     1 <1>   0.0800 
 42 H        5.8030     5.1960    -1.8300 H     1 <1>   0.0800 
 43 H        4.6880     3.8550    -1.6500 H     1 <1>   0.0800 
 44 H        6.2060     3.6330    -2.4810 H     1 <1>   0.0800 
 45 H        4.6230     8.7710     2.7930 H     1 <1>   0.1500 
 46 H        7.2310    10.6300     0.0110 H     1 <1>   0.1500 
 47 H        5.9740    11.0710     2.2830 H     1 <1>   0.1500 
@<TRIPOS>BOND
  1   1   2  1   
  2   2   3  ar  
  3   2   4  ar  
  4   3   5  ar  
  5   3   6  1   
  6   4   7  ar  
  7   4  27  1   
  8   5   8  ar  
  9   5  28  1   
 10   6   9  1   
 11   6  10  1   
 12   6  29  1   
 13   7   8  ar  
 14   7  30  1   
 15   8  31  1   
 16   9  11  am  
 17   9  32  1   
 18  10  12  1   
 19  10  13  1   
 20  10  33  1   
 21  11  14  2   
 22  11  15  1   
 23  12  15  1   
 24  13  16  2   
 25  13  17  am  
 26  15  34  1   
 27  15  35  1   
 28  17  18  1   
 29  17  19  1   
 30  18  20  1   
 31  18  36  1   
 32  18  37  1   
 33  19  21  1   
 34  19  38  1   
 35  19  39  1   
 36  20  22  1   
 37  20  40  1   
 38  20  41  1   
 39  21  42  1   
 40  21  43  1   
 41  21  44  1   
 42  22  23  1   
 43  22  24  1   
 44  23  25  2   
 45  24  26  2   
 46  24  45  1   
 47  25  26  1   
 48  25  46  1   
 49  26  47  1   
@<TRIPOS>SUBSTRUCTURE
  1 ****  13 GROUP 4 **** **** 0

# MOE 2024.06 (io_trps.svl 2023.06)
