@<TRIPOS>MOLECULE
NONAME
47 49 1 0 0 
SMALL
USER_CHARGES


@<TRIPOS>ATOM
  1 F        2.1880     0.2620     1.3360 F     1 <1>  -0.1900 
  2 C        2.6540     1.0970     0.4450 C.ar  1 <1>   0.1900 
  3 C        2.4960     2.4630     0.6310 C.ar  1 <1>  -0.1440 
  4 C        3.2930     0.5560    -0.6540 C.ar  1 <1>  -0.1500 
  5 C        3.0240     3.3300    -0.3340 C.ar  1 <1>   0.0860 
  6 C        1.7640     3.0300     1.8480 C.3   1 <1>  -0.0970 
  7 C        3.7980     1.4120    -1.6140 C.ar  1 <1>  -0.1500 
  8 C        2.9390     4.7720    -0.2060 C.2   1 <1>   0.5440 
  9 C        3.6580     2.7790    -1.4500 C.ar  1 <1>  -0.1500 
 10 O        1.9980     5.3520    -0.7110 O.2   1 <1>  -0.5700 
 11 N        3.9050     5.4950     0.4680 N.am  1 <1>  -0.6600 
 12 C        5.0700     4.8400     1.1420 C.3   1 <1>   0.1400 
 13 C        3.8190     6.9820     0.5780 C.3   1 <1>   0.1400 
 14 C        6.2690     4.7060     0.1930 C.3   1 <1>   0.1400 
 15 C        5.1570     7.6980     0.3480 C.3   1 <1>  -0.1600 
 16 N        6.9210     6.0220    -0.0970 N.am  1 <1>  -0.6600 
 17 C        6.0430     7.0520    -0.7220 C.3   1 <1>   0.1400 
 18 C        8.2700     6.2360     0.1650 C.2   1 <1>   0.5440 
 19 O        8.9480     5.2690     0.4750 O.2   1 <1>  -0.5700 
 20 C        8.9270     7.5430     0.0550 C.ar  1 <1>   0.3960 
 21 N        8.3580     8.6400     0.5890 N.ar  1 <1>  -0.6200 
 22 C       10.1530     7.6060    -0.6090 C.ar  1 <1>  -0.1500 
 23 C        9.0060     9.7730     0.4410 C.ar  1 <1>   0.4100 
 24 C       10.8230     8.8020    -0.7570 C.ar  1 <1>  -0.1500 
 25 N        8.3920    10.8420     1.0050 N.pl3 1 <1>  -0.9000 
 26 C       10.2220     9.9100    -0.2150 C.ar  1 <1>  -0.1500 
 27 H        3.3880    -0.5110    -0.7520 H     1 <1>   0.1500 
 28 H        1.2700     2.2600     2.4130 H     1 <1>   0.0800 
 29 H        1.0160     3.7350     1.5310 H     1 <1>   0.0800 
 30 H        2.4580     3.5330     2.4960 H     1 <1>   0.0800 
 31 H        4.2930     1.0160    -2.4850 H     1 <1>   0.1500 
 32 H        4.0450     3.4450    -2.2030 H     1 <1>   0.1500 
 33 H        4.7870     3.8600     1.4790 H     1 <1>   0.0800 
 34 H        5.3600     5.4030     2.0120 H     1 <1>   0.0800 
 35 H        3.4340     7.2410     1.5490 H     1 <1>   0.0800 
 36 H        3.1190     7.3520    -0.1520 H     1 <1>   0.0800 
 37 H        5.9570     4.2530    -0.7300 H     1 <1>   0.0800 
 38 H        6.9750     4.0370     0.6530 H     1 <1>   0.0800 
 39 H        5.7000     7.7720     1.2740 H     1 <1>   0.0800 
 40 H        4.9360     8.7040     0.0420 H     1 <1>   0.0800 
 41 H        6.6460     7.8100    -1.1910 H     1 <1>   0.0800 
 42 H        5.4380     6.6030    -1.4910 H     1 <1>   0.0800 
 43 H       10.5760     6.7010    -1.0070 H     1 <1>   0.1500 
 44 H       11.7670     8.8600    -1.2710 H     1 <1>   0.1500 
 45 H        8.9900    11.5480     1.4330 H     1 <1>   0.4000 
 46 H        7.6080    10.5710     1.6010 H     1 <1>   0.4000 
 47 H       10.6760    10.8800    -0.2930 H     1 <1>   0.1500 
@<TRIPOS>BOND
  1   1   2  1   
  2   2   3  ar  
  3   2   4  ar  
  4   3   5  ar  
  5   3   6  1   
  6   4   7  ar  
  7   4  27  1   
  8   5   8  1   
  9   5   9  ar  
 10   6  28  1   
 11   6  29  1   
 12   6  30  1   
 13   7   9  ar  
 14   7  31  1   
 15   8  10  2   
 16   8  11  am  
 17   9  32  1   
 18  11  12  1   
 19  11  13  1   
 20  12  14  1   
 21  12  33  1   
 22  12  34  1   
 23  13  15  1   
 24  13  35  1   
 25  13  36  1   
 26  14  16  1   
 27  14  37  1   
 28  14  38  1   
 29  15  17  1   
 30  15  39  1   
 31  15  40  1   
 32  16  17  1   
 33  16  18  am  
 34  17  41  1   
 35  17  42  1   
 36  18  19  2   
 37  18  20  1   
 38  20  21  ar  
 39  20  22  ar  
 40  21  23  ar  
 41  22  24  ar  
 42  22  43  1   
 43  23  25  1   
 44  23  26  ar  
 45  24  26  ar  
 46  24  44  1   
 47  25  45  1   
 48  25  46  1   
 49  26  47  1   
@<TRIPOS>SUBSTRUCTURE
  1 ****  14 GROUP 4 **** **** 0

# MOE 2024.06 (io_trps.svl 2023.06)
