@<TRIPOS>MOLECULE
NONAME
49 51 1 0 0 
SMALL
USER_CHARGES


@<TRIPOS>ATOM
  1 F        3.4060     0.3500     2.7370 F     1 <1>  -0.1900 
  2 C        3.6890     1.2090     1.7950 C.ar  1 <1>   0.1900 
  3 C        2.7710     1.4150     0.7840 C.ar  1 <1>  -0.1500 
  4 C        4.8940     1.8810     1.8470 C.ar  1 <1>  -0.1500 
  5 C        3.0750     2.3270    -0.2130 C.ar  1 <1>  -0.1500 
  6 C        5.1860     2.7920     0.8450 C.ar  1 <1>  -0.1500 
  7 C        4.2820     3.0180    -0.1870 C.ar  1 <1>  -0.1430 
  8 C        4.6180     4.0190    -1.2860 C.3   1 <1>   0.2540 
  9 N        4.9420     5.3410    -0.7240 N.3   1 <1>  -0.8100 
 10 C        5.4760     6.2440    -1.7870 C.3   1 <1>   0.1710 
 11 C        3.7730     5.9460    -0.0630 C.3   1 <1>   0.0300 
 12 C        5.9040     7.6510    -1.3300 C.2   1 <1>   0.5690 
 13 O        5.3100     8.5850    -1.8210 O.2   1 <1>  -0.5700 
 14 N        6.9200     7.8450    -0.4200 N.am  1 <1>  -0.6600 
 15 C        7.6450     6.7440     0.2750 C.3   1 <1>   0.1400 
 16 C        7.3070     9.2130     0.0250 C.3   1 <1>   0.1400 
 17 C        9.1540     6.9230     0.0900 C.3   1 <1>  -0.1600 
 18 C        8.8120     9.4110    -0.1650 C.3   1 <1>  -0.1600 
 19 C        9.6140     8.3140     0.5500 C.3   1 <1>   0.0630 
 20 C       11.1130     8.4920     0.3310 C.ar  1 <1>  -0.1430 
 21 C       11.6930     8.4640    -0.9240 C.ar  1 <1>  -0.1500 
 22 C       11.9790     8.6910     1.3890 C.ar  1 <1>  -0.1500 
 23 C       13.0610     8.6310    -1.0540 C.ar  1 <1>   0.1600 
 24 C       13.3340     8.8470     1.1500 C.ar  1 <1>   0.1600 
 25 N       13.8970     8.8210    -0.0460 N.ar  1 <1>  -0.6200 
 26 H        1.8430     0.8720     0.7800 H     1 <1>   0.1500 
 27 H        5.5820     1.6970     2.6510 H     1 <1>   0.1500 
 28 H        2.3690     2.4980    -1.0060 H     1 <1>   0.1500 
 29 H        6.1150     3.3350     0.8650 H     1 <1>   0.1500 
 30 H        3.7940     4.1090    -1.9740 H     1 <1>   0.0800 
 31 H        5.4680     3.6450    -1.8300 H     1 <1>   0.0800 
 32 H        4.7310     6.3630    -2.5530 H     1 <1>   0.0800 
 33 H        6.3340     5.7830    -2.2400 H     1 <1>   0.0800 
 34 H        3.4120     5.3020     0.7210 H     1 <1>   0.0800 
 35 H        2.9800     6.1140    -0.7720 H     1 <1>   0.0800 
 36 H        4.0440     6.8870     0.3850 H     1 <1>   0.0800 
 37 H        7.3590     5.7810    -0.1070 H     1 <1>   0.0800 
 38 H        7.3950     6.7690     1.3210 H     1 <1>   0.0800 
 39 H        7.0460     9.3290     1.0630 H     1 <1>   0.0800 
 40 H        6.7740     9.9620    -0.5360 H     1 <1>   0.0800 
 41 H        9.3920     6.7770    -0.9480 H     1 <1>   0.0800 
 42 H        9.6720     6.1690     0.6540 H     1 <1>   0.0800 
 43 H        9.0960    10.3730     0.2210 H     1 <1>   0.0800 
 44 H        9.0250     9.4050    -1.2190 H     1 <1>   0.0800 
 45 H        9.4110     8.3950     1.6050 H     1 <1>   0.0800 
 46 H       11.0950     8.3150    -1.8030 H     1 <1>   0.1500 
 47 H       11.6150     8.7270     2.3990 H     1 <1>   0.1500 
 48 H       13.4910     8.6060    -2.0410 H     1 <1>   0.1500 
 49 H       13.9910     9.0010     1.9890 H     1 <1>   0.1500 
@<TRIPOS>BOND
  1   1   2  1   
  2   2   3  ar  
  3   2   4  ar  
  4   3   5  ar  
  5   3  26  1   
  6   4   6  ar  
  7   4  27  1   
  8   5   7  ar  
  9   5  28  1   
 10   6   7  ar  
 11   6  29  1   
 12   7   8  1   
 13   8   9  1   
 14   8  30  1   
 15   8  31  1   
 16   9  10  1   
 17   9  11  1   
 18  10  12  1   
 19  10  32  1   
 20  10  33  1   
 21  11  34  1   
 22  11  35  1   
 23  11  36  1   
 24  12  13  2   
 25  12  14  am  
 26  14  15  1   
 27  14  16  1   
 28  15  17  1   
 29  15  37  1   
 30  15  38  1   
 31  16  18  1   
 32  16  39  1   
 33  16  40  1   
 34  17  19  1   
 35  17  41  1   
 36  17  42  1   
 37  18  19  1   
 38  18  43  1   
 39  18  44  1   
 40  19  20  1   
 41  19  45  1   
 42  20  21  ar  
 43  20  22  ar  
 44  21  23  ar  
 45  21  46  1   
 46  22  24  ar  
 47  22  47  1   
 48  23  25  ar  
 49  23  48  1   
 50  24  25  ar  
 51  24  49  1   
@<TRIPOS>SUBSTRUCTURE
  1 ****  15 GROUP 4 **** **** 0

# MOE 2024.06 (io_trps.svl 2023.06)
