@<TRIPOS>MOLECULE
NONAME
51 54 1 0 0 
SMALL
USER_CHARGES


@<TRIPOS>ATOM
  1 S       -0.4240     1.4780    -1.0340 S.3   1 <1>  -0.0800 
  2 C        0.8520     1.7670     0.1050 C.2   1 <1>  -0.1400 
  3 C       -0.0100    -0.2280    -0.9980 C.2   1 <1>   0.1980 
  4 C        1.4560     0.6120     0.3950 C.2   1 <1>   0.0460 
  5 C        1.1710     3.1490     0.6280 C.3   1 <1>   0.0200 
  6 N        0.9590    -0.5270    -0.2170 N.2   1 <1>  -0.5650 
  7 C       -0.8350    -1.1660    -1.8750 C.3   1 <1>   0.2900 
  8 C        2.6380     0.5390     1.3430 C.3   1 <1>   0.0210 
  9 C        2.1250     3.0140     1.8310 C.3   1 <1>  -0.1600 
 10 N       -2.1620    -1.5590    -1.3150 N.3   1 <1>  -0.8100 
 11 C        3.2200     1.9480     1.5980 C.3   1 <1>  -0.1600 
 12 C       -2.1490    -1.7890     0.1580 C.3   1 <1>   0.1100 
 13 C       -2.7250    -2.7050    -2.0880 C.3   1 <1>   0.1100 
 14 C       -1.5920    -3.1960     0.4150 C.3   1 <1>   0.4230 
 15 C       -3.4560    -3.7470    -1.2180 C.3   1 <1>  -0.1600 
 16 N       -1.0340    -3.4710     1.7720 N.4   1 <1>  -0.9590 
 17 C       -2.6510    -4.2370     0.0270 C.3   1 <1>  -0.1060 
 18 C       -0.7390    -4.9260     1.9920 C.3   1 <1>   0.3430 
 19 C        0.0760    -2.5560     2.1500 C.3   1 <1>   0.2630 
 20 C       -3.6460    -4.4280     1.1900 C.2   1 <1>   0.9060 
 21 C       -1.8570    -5.5430    -0.2610 C.3   1 <1>  -0.1600 
 22 C       -0.6260    -5.7080     0.6680 C.3   1 <1>  -0.1600 
 23 O       -3.6320    -3.6380     2.1500 O.co2 1 <1>  -0.9000 
 24 O       -4.3880    -5.4080     1.1820 O.co2 1 <1>  -0.9000 
 25 H        1.6390     3.7180    -0.1570 H     1 <1>   0.0800 
 26 H        0.2690     3.6530     0.9270 H     1 <1>   0.0800 
 27 H       -0.2380    -2.0470    -2.0310 H     1 <1>   0.0800 
 28 H       -0.9860    -0.7010    -2.8330 H     1 <1>   0.0800 
 29 H        2.3090     0.1050     2.2690 H     1 <1>   0.0800 
 30 H        3.3990    -0.0930     0.9210 H     1 <1>   0.0800 
 31 H        2.5800     3.9680     2.0340 H     1 <1>   0.0800 
 32 H        1.5520     2.7340     2.6980 H     1 <1>   0.0800 
 33 H        3.8820     1.9130     2.4450 H     1 <1>   0.0800 
 34 H        3.8040     2.2390     0.7400 H     1 <1>   0.0800 
 35 H       -1.5850    -1.0330     0.6660 H     1 <1>   0.0800 
 36 H       -3.1580    -1.7240     0.5300 H     1 <1>   0.0800 
 37 H       -3.4080    -2.3170    -2.8260 H     1 <1>   0.0800 
 38 H       -1.9400    -3.2190    -2.6180 H     1 <1>   0.0800 
 39 H       -0.7760    -3.3040    -0.2770 H     1 <1>   0.0800 
 40 H       -4.3730    -3.2880    -0.8850 H     1 <1>   0.0800 
 41 H       -3.7510    -4.5900    -1.8190 H     1 <1>   0.0800 
 42 H       -1.8920    -3.2960     2.3590 H     1 <1>   0.4500 
 43 H        0.1640    -5.0410     2.5680 H     1 <1>   0.0800 
 44 H       -1.5510    -5.3530     2.5620 H     1 <1>   0.0800 
 45 H        0.9090    -2.6850     1.4790 H     1 <1>   0.0800 
 46 H        0.3980    -2.7590     3.1580 H     1 <1>   0.0800 
 47 H       -0.2490    -1.5300     2.0930 H     1 <1>   0.0800 
 48 H       -2.5130    -6.3900    -0.1470 H     1 <1>   0.0800 
 49 H       -1.5150    -5.5480    -1.2810 H     1 <1>   0.0800 
 50 H        0.2590    -5.3760     0.1560 H     1 <1>   0.0800 
 51 H       -0.4910    -6.7520     0.8890 H     1 <1>   0.0800 
@<TRIPOS>BOND
  1   1   2  1   
  2   1   3  1   
  3   2   4  2   
  4   2   5  1   
  5   3   6  2   
  6   3   7  1   
  7   4   6  1   
  8   4   8  1   
  9   5   9  1   
 10   5  25  1   
 11   5  26  1   
 12   7  10  1   
 13   7  27  1   
 14   7  28  1   
 15   8  11  1   
 16   8  29  1   
 17   8  30  1   
 18   9  11  1   
 19   9  31  1   
 20   9  32  1   
 21  10  12  1   
 22  10  13  1   
 23  11  33  1   
 24  11  34  1   
 25  12  14  1   
 26  12  35  1   
 27  12  36  1   
 28  13  15  1   
 29  13  37  1   
 30  13  38  1   
 31  14  16  1   
 32  14  17  1   
 33  14  39  1   
 34  15  17  1   
 35  15  40  1   
 36  15  41  1   
 37  16  18  1   
 38  16  19  1   
 39  16  42  1   
 40  17  20  1   
 41  17  21  1   
 42  18  22  1   
 43  18  43  1   
 44  18  44  1   
 45  19  45  1   
 46  19  46  1   
 47  19  47  1   
 48  20  23  ar  
 49  20  24  ar  
 50  21  22  1   
 51  21  48  1   
 52  21  49  1   
 53  22  50  1   
 54  22  51  1   
@<TRIPOS>SUBSTRUCTURE
  1 ****  12 GROUP 4 **** **** 0

# MOE 2024.06 (io_trps.svl 2023.06)
