@<TRIPOS>MOLECULE
NONAME
47 49 1 0 0 
SMALL
USER_CHARGES


@<TRIPOS>ATOM
  1 S        1.5830    -0.7030    -0.7130 S.o2  1 <1>   1.2040 
  2 O        1.4530    -0.6160    -2.1510 O.2   1 <1>  -0.6500 
  3 O        2.5610    -1.5990    -0.1360 O.2   1 <1>  -0.6500 
  4 C        1.7980     0.9550    -0.0220 C.ar  1 <1>  -0.0090 
  5 C       -0.0150    -1.1580    -0.0660 C.3   1 <1>  -0.0550 
  6 C        2.3760     1.1410     1.2290 C.ar  1 <1>  -0.1500 
  7 C        1.3620     2.0810    -0.7110 C.ar  1 <1>  -0.1500 
  8 C       -0.3730    -2.5850    -0.4620 C.3   1 <1>   0.1100 
  9 C        2.5120     2.4050     1.7770 C.ar  1 <1>  -0.1500 
 10 C        1.4930     3.3490    -0.1700 C.ar  1 <1>  -0.1500 
 11 N       -1.6980    -2.9280     0.0650 N.3   1 <1>  -0.8100 
 12 C        2.0680     3.5110     1.0770 C.ar  1 <1>  -0.1500 
 13 C       -2.8140    -2.3450    -0.6980 C.3   1 <1>   0.1100 
 14 C       -1.9310    -4.3870     0.0810 C.3   1 <1>   0.1100 
 15 C       -4.0100    -3.2110    -0.3260 C.3   1 <1>   0.2000 
 16 C       -3.3990    -4.6110    -0.3190 C.3   1 <1>  -0.0800 
 17 O       -4.3830    -2.8640     0.9600 O.3   1 <1>  -0.6800 
 18 C       -4.1270    -5.6480     0.5550 C.3   1 <1>   0.0210 
 19 C       -3.5600    -7.0390     0.3410 C.2   1 <1>   0.1080 
 20 N       -2.4410    -7.4380     0.8620 N.2   1 <1>  -0.7070 
 21 C       -4.1620    -8.0290    -0.4280 C.2   1 <1>  -0.1500 
 22 N       -2.3000    -8.7070     0.4370 N.pl3 1 <1>   0.3000 
 23 C       -3.3290    -9.0880    -0.3490 C.2   1 <1>  -0.3320 
 24 C       -3.4560   -10.4620    -0.9820 C.3   1 <1>  -0.0600 
 25 H       -0.0050    -1.0950     1.0050 H     1 <1>   0.0800 
 26 H       -0.7570    -0.4840    -0.4450 H     1 <1>   0.0800 
 27 H        2.7300     0.2860     1.7810 H     1 <1>   0.1500 
 28 H        0.9170     1.9680    -1.6860 H     1 <1>   0.1500 
 29 H        0.3620    -3.2520    -0.0390 H     1 <1>   0.0800 
 30 H       -0.3530    -2.7000    -1.5340 H     1 <1>   0.0800 
 31 H        2.9640     2.5270     2.7460 H     1 <1>   0.1500 
 32 H        1.1510     4.2090    -0.7200 H     1 <1>   0.1500 
 33 H        2.1720     4.4960     1.5000 H     1 <1>   0.1500 
 34 H       -2.9780    -1.3120    -0.4450 H     1 <1>   0.0800 
 35 H       -2.6260    -2.4330    -1.7550 H     1 <1>   0.0800 
 36 H       -1.2850    -4.9000    -0.6130 H     1 <1>   0.0800 
 37 H       -1.7360    -4.7640     1.0710 H     1 <1>   0.0800 
 38 H       -4.8550    -3.1020    -0.9830 H     1 <1>   0.0800 
 39 H       -3.4010    -4.9720    -1.3330 H     1 <1>   0.0800 
 40 H       -3.5500    -2.8130     1.4770 H     1 <1>   0.4000 
 41 H       -5.1740    -5.6530     0.3100 H     1 <1>   0.0800 
 42 H       -4.0340    -5.3940     1.5960 H     1 <1>   0.0800 
 43 H       -5.0920    -7.9410    -0.9600 H     1 <1>   0.1500 
 44 H       -1.4920    -9.2840     0.7010 H     1 <1>   0.2700 
 45 H       -4.3610   -10.5200    -1.5590 H     1 <1>   0.0800 
 46 H       -3.4860   -11.2210    -0.2200 H     1 <1>   0.0800 
 47 H       -2.6210   -10.6500    -1.6340 H     1 <1>   0.0800 
@<TRIPOS>BOND
  1   1   2  2   
  2   1   3  2   
  3   1   4  1   
  4   1   5  1   
  5   4   6  ar  
  6   4   7  ar  
  7   5   8  1   
  8   5  25  1   
  9   5  26  1   
 10   6   9  ar  
 11   6  27  1   
 12   7  10  ar  
 13   7  28  1   
 14   8  11  1   
 15   8  29  1   
 16   8  30  1   
 17   9  12  ar  
 18   9  31  1   
 19  10  12  ar  
 20  10  32  1   
 21  11  13  1   
 22  11  14  1   
 23  12  33  1   
 24  13  15  1   
 25  13  34  1   
 26  13  35  1   
 27  14  16  1   
 28  14  36  1   
 29  14  37  1   
 30  15  16  1   
 31  15  17  1   
 32  15  38  1   
 33  16  18  1   
 34  16  39  1   
 35  17  40  1   
 36  18  19  1   
 37  18  41  1   
 38  18  42  1   
 39  19  20  2   
 40  19  21  1   
 41  20  22  1   
 42  21  23  2   
 43  21  43  1   
 44  22  23  1   
 45  22  44  1   
 46  23  24  1   
 47  24  45  1   
 48  24  46  1   
 49  24  47  1   
@<TRIPOS>SUBSTRUCTURE
  1 ****  11 GROUP 4 **** **** 0

# MOE 2024.06 (io_trps.svl 2023.06)
