@<TRIPOS>MOLECULE
NONAME
50 54 1 0 0 
SMALL
USER_CHARGES


@<TRIPOS>ATOM
  1 O       -2.5070     1.9980     1.7540 O.2   1 <1>  -0.5700 
  2 C       -1.9520     2.5750     0.8340 C.2   1 <1>   0.7670 
  3 N       -1.1120     3.6090     1.1670 N.2   1 <1>  -0.6610 
  4 C       -2.1720     2.2170    -0.5310 C.2   1 <1>   0.0290 
  5 C       -0.4970     4.2230     0.2280 C.2   1 <1>   0.5000 
  6 C       -3.0680     1.1520    -0.8650 C.2   1 <1>   0.6160 
  7 C       -1.4770     2.9030    -1.4820 C.2   1 <1>  -0.0500 
  8 N       -0.6440     3.9060    -1.0910 N.pl3 1 <1>  -0.5500 
  9 C        0.4550     5.3660     0.5380 C.3   1 <1>  -0.1000 
 10 O       -2.6230     0.2220    -1.5150 O.2   1 <1>  -0.5700 
 11 N       -4.4190     1.1610    -0.5750 N.am  1 <1>  -0.6600 
 12 C        0.1070     6.4170     1.5510 C.3   1 <1>  -0.2000 
 13 C        0.1450     6.7660     0.0950 C.3   1 <1>  -0.2000 
 14 C       -5.1420     2.2830     0.1050 C.3   1 <1>   0.1400 
 15 C       -5.2750    -0.0200    -0.9110 C.3   1 <1>   0.1400 
 16 C       -6.2720     2.8390    -0.7920 C.3   1 <1>   0.1440 
 17 C       -6.7710     0.3370    -0.9530 C.3   1 <1>  -0.1600 
 18 C       -7.2210     3.6220     0.1010 C.ar  1 <1>   0.1670 
 19 C       -6.9910     1.7180    -1.5890 C.3   1 <1>  -0.1600 
 20 C       -5.7370     3.9450    -1.7390 C.3   1 <1>  -0.1600 
 21 N       -8.1080     3.1010     0.9190 N.ar  1 <1>  -0.6200 
 22 C       -7.0390     4.9670    -0.0310 C.ar  1 <1>  -0.1430 
 23 C       -5.9520     5.2910    -1.0240 C.3   1 <1>  -0.0170 
 24 C       -8.8170     3.9900     1.5990 C.ar  1 <1>   0.4770 
 25 C       -7.8300     5.7980     0.7230 C.ar  1 <1>   0.1600 
 26 N       -8.7340     5.3130     1.5490 N.ar  1 <1>  -0.6200 
 27 C       -9.8470     3.4200     2.5440 C.3   1 <1>  -0.0970 
 28 H       -1.5640     2.6690    -2.5330 H     1 <1>   0.1500 
 29 H       -0.0940     4.4460    -1.7650 H     1 <1>   0.4000 
 30 H        1.4810     5.0440     0.5160 H     1 <1>   0.1000 
 31 H        0.8860     6.7800     2.1990 H     1 <1>   0.1000 
 32 H       -0.8440     6.3460     2.0520 H     1 <1>   0.1000 
 33 H       -0.7910     6.9750    -0.3940 H     1 <1>   0.1000 
 34 H        0.9460     7.3910    -0.2610 H     1 <1>   0.1000 
 35 H       -4.4780     3.0810     0.3780 H     1 <1>   0.0800 
 36 H       -5.5660     1.9000     1.0180 H     1 <1>   0.0800 
 37 H       -5.1030    -0.8000    -0.1880 H     1 <1>   0.0800 
 38 H       -4.9830    -0.3950    -1.8780 H     1 <1>   0.0800 
 39 H       -7.1710     0.3310     0.0470 H     1 <1>   0.0800 
 40 H       -7.2980    -0.4160    -1.5120 H     1 <1>   0.0800 
 41 H       -6.6010     1.6770    -2.5910 H     1 <1>   0.0800 
 42 H       -8.0440     1.9300    -1.6570 H     1 <1>   0.0800 
 43 H       -6.3270     3.9590    -2.6400 H     1 <1>   0.0800 
 44 H       -4.7080     3.7890    -2.0110 H     1 <1>   0.0800 
 45 H       -6.2540     6.0620    -1.7110 H     1 <1>   0.0800 
 46 H       -5.0610     5.5920    -0.4990 H     1 <1>   0.0800 
 47 H       -7.7250     6.8670     0.6520 H     1 <1>   0.1500 
 48 H       -9.4090     2.6260     3.1190 H     1 <1>   0.0800 
 49 H      -10.6720     3.0330     1.9770 H     1 <1>   0.0800 
 50 H      -10.2050     4.1800     3.2130 H     1 <1>   0.0800 
@<TRIPOS>BOND
  1   1   2  2   
  2   2   3  1   
  3   2   4  1   
  4   3   5  2   
  5   4   6  1   
  6   4   7  2   
  7   5   8  1   
  8   5   9  1   
  9   6  10  2   
 10   6  11  am  
 11   7   8  1   
 12   7  28  1   
 13   8  29  1   
 14   9  12  1   
 15   9  13  1   
 16   9  30  1   
 17  11  14  1   
 18  11  15  1   
 19  12  13  1   
 20  12  31  1   
 21  12  32  1   
 22  13  33  1   
 23  13  34  1   
 24  14  16  1   
 25  14  35  1   
 26  14  36  1   
 27  15  17  1   
 28  15  37  1   
 29  15  38  1   
 30  16  18  1   
 31  16  19  1   
 32  16  20  1   
 33  17  19  1   
 34  17  39  1   
 35  17  40  1   
 36  18  21  ar  
 37  18  22  ar  
 38  19  41  1   
 39  19  42  1   
 40  20  23  1   
 41  20  43  1   
 42  20  44  1   
 43  21  24  ar  
 44  22  23  1   
 45  22  25  ar  
 46  23  45  1   
 47  23  46  1   
 48  24  26  ar  
 49  24  27  1   
 50  25  26  ar  
 51  25  47  1   
 52  27  48  1   
 53  27  49  1   
 54  27  50  1   
@<TRIPOS>SUBSTRUCTURE
  1 ****  14 GROUP 4 **** **** 0

# MOE 2024.06 (io_trps.svl 2023.06)
