@<TRIPOS>MOLECULE
NONAME
44 46 1 0 0 
SMALL
USER_CHARGES


@<TRIPOS>ATOM
  1 F        2.4570     0.6790     1.3330 F     1 <1>  -0.1900 
  2 C        2.7430    -0.3630     0.6000 C.ar  1 <1>   0.1900 
  3 C        4.0100    -0.4800     0.0230 C.ar  1 <1>   0.0860 
  4 C        1.7500    -1.3090     0.4490 C.ar  1 <1>  -0.1500 
  5 C        5.0490     0.5210     0.1640 C.2   1 <1>   0.5440 
  6 C        4.2380    -1.6450    -0.7150 C.ar  1 <1>  -0.1500 
  7 C        2.0020    -2.4450    -0.3000 C.ar  1 <1>   0.0830 
  8 O        6.2270     0.2120     0.1430 O.2   1 <1>  -0.5700 
  9 N        4.7880     1.8660     0.2270 N.am  1 <1>  -0.6600 
 10 C        3.2580    -2.6090    -0.8800 C.ar  1 <1>  -0.1500 
 11 O        0.9940    -3.3360    -0.4190 O.3   1 <1>  -0.3620 
 12 C        5.5790     2.7220     1.1870 C.3   1 <1>   0.2200 
 13 C        4.0390     2.5150    -0.8840 C.3   1 <1>   0.1400 
 14 C        1.1440    -4.5420    -1.1350 C.3   1 <1>   0.0400 
 15 C        4.8190     3.9840     1.6260 C.3   1 <1>   0.1200 
 16 C        6.9600     3.1010     0.6000 C.3   1 <1>   0.3430 
 17 C        4.6610     3.8430    -1.3540 C.3   1 <1>  -0.0800 
 18 O        5.0430     5.0280     0.7240 O.3   1 <1>  -0.5600 
 19 N        7.0200     2.8740    -0.8830 N.4   1 <1>  -0.9590 
 20 C        4.2740     5.0110    -0.4310 C.3   1 <1>   0.1200 
 21 C        6.1740     3.8200    -1.6860 C.3   1 <1>   0.3430 
 22 C        8.4270     2.8240    -1.3650 C.3   1 <1>   0.2630 
 23 H        0.7880    -1.1750     0.9100 H     1 <1>   0.1500 
 24 H        5.2050    -1.7970    -1.1660 H     1 <1>   0.1500 
 25 H        3.4870    -3.4850    -1.4600 H     1 <1>   0.1500 
 26 H        5.7470     2.1390     2.0770 H     1 <1>   0.0800 
 27 H        4.0020     1.8350    -1.7190 H     1 <1>   0.0800 
 28 H        3.0230     2.6810    -0.5650 H     1 <1>   0.0800 
 29 H        0.2140    -5.0800    -1.0800 H     1 <1>   0.0800 
 30 H        1.9290    -5.1220    -0.6830 H     1 <1>   0.0800 
 31 H        1.3730    -4.3130    -2.1610 H     1 <1>   0.0800 
 32 H        5.2030     4.3140     2.5750 H     1 <1>   0.0800 
 33 H        3.7630     3.8010     1.7360 H     1 <1>   0.0800 
 34 H        7.6970     2.4780     1.0790 H     1 <1>   0.0800 
 35 H        7.1940     4.1260     0.8360 H     1 <1>   0.0800 
 36 H        4.1670     4.0730    -2.2810 H     1 <1>   0.0800 
 37 H        6.6060     1.9220    -0.9650 H     1 <1>   0.4500 
 38 H        3.2330     4.9740    -0.1550 H     1 <1>   0.0800 
 39 H        4.4500     5.9470    -0.9330 H     1 <1>   0.0800 
 40 H        6.5610     4.8200    -1.5770 H     1 <1>   0.0800 
 41 H        6.2740     3.5510    -2.7240 H     1 <1>   0.0800 
 42 H        8.9030     3.7810    -1.2320 H     1 <1>   0.0800 
 43 H        8.4540     2.5630    -2.4110 H     1 <1>   0.0800 
 44 H        8.9810     2.0800    -0.8140 H     1 <1>   0.0800 
@<TRIPOS>BOND
  1   1   2  1   
  2   2   3  ar  
  3   2   4  ar  
  4   3   5  1   
  5   3   6  ar  
  6   4   7  ar  
  7   4  23  1   
  8   5   8  2   
  9   5   9  am  
 10   6  10  ar  
 11   6  24  1   
 12   7  10  ar  
 13   7  11  1   
 14   9  12  1   
 15   9  13  1   
 16  10  25  1   
 17  11  14  1   
 18  12  15  1   
 19  12  16  1   
 20  12  26  1   
 21  13  17  1   
 22  13  27  1   
 23  13  28  1   
 24  14  29  1   
 25  14  30  1   
 26  14  31  1   
 27  15  18  1   
 28  15  32  1   
 29  15  33  1   
 30  16  19  1   
 31  16  34  1   
 32  16  35  1   
 33  17  20  1   
 34  17  21  1   
 35  17  36  1   
 36  18  20  1   
 37  19  21  1   
 38  19  22  1   
 39  19  37  1   
 40  20  38  1   
 41  20  39  1   
 42  21  40  1   
 43  21  41  1   
 44  22  42  1   
 45  22  43  1   
 46  22  44  1   
@<TRIPOS>SUBSTRUCTURE
  1 ****   5 GROUP 4 **** **** 0

# MOE 2024.06 (io_trps.svl 2023.06)
