@<TRIPOS>MOLECULE
NONAME
41 42 1 0 0 
SMALL
USER_CHARGES


@<TRIPOS>ATOM
  1 O        0.6570    -5.5850    -1.8730 O.3   1 <1>  -0.5600 
  2 C        1.6270    -5.4770    -0.8630 C.3   1 <1>   0.1200 
  3 C       -0.1670    -4.4590    -2.0100 C.3   1 <1>   0.1200 
  4 C        1.0410    -4.9650     0.4750 C.3   1 <1>   0.3430 
  5 C       -0.9990    -4.2170    -0.7310 C.3   1 <1>   0.3430 
  6 N       -0.4520    -4.9640     0.4520 N.4   1 <1>  -0.9590 
  7 C       -1.0930    -4.6110     1.7440 C.3   1 <1>   0.3430 
  8 C       -2.2400    -5.6010     2.0150 C.3   1 <1>   0.1100 
  9 N       -1.8050    -7.0000     1.7330 N.3   1 <1>  -0.8100 
 10 C       -2.8180    -7.7300     0.9160 C.3   1 <1>   0.2900 
 11 C       -1.5090    -7.7600     2.9590 C.3   1 <1>   0.1100 
 12 C       -2.7840    -7.2870    -0.5410 C.2   1 <1>   0.2980 
 13 C       -0.2520    -7.2260     3.6420 C.3   1 <1>  -0.2400 
 14 O       -1.9680    -7.8540    -1.3680 O.3   1 <1>  -0.2800 
 15 N       -3.4680    -6.3580    -1.0930 N.2   1 <1>  -0.3380 
 16 C       -2.1830    -7.2370    -2.4820 C.2   1 <1>   0.2980 
 17 N       -3.0690    -6.3220    -2.3660 N.2   1 <1>  -0.3380 
 18 C       -1.4130    -7.6300    -3.7220 C.3   1 <1>  -0.0600 
 19 H        2.4070    -4.8200    -1.2070 H     1 <1>   0.0800 
 20 H        2.0540    -6.4560    -0.7240 H     1 <1>   0.0800 
 21 H       -0.8220    -4.6210    -2.8490 H     1 <1>   0.0800 
 22 H        0.4520    -3.6070    -2.2280 H     1 <1>   0.0800 
 23 H        1.4000    -3.9650     0.6520 H     1 <1>   0.0800 
 24 H        1.3980    -5.5890     1.2780 H     1 <1>   0.0800 
 25 H       -2.0160    -4.5160    -0.9130 H     1 <1>   0.0800 
 26 H       -1.0110    -3.1600    -0.5270 H     1 <1>   0.0800 
 27 H       -0.7230    -5.9610     0.3150 H     1 <1>   0.4500 
 28 H       -1.4620    -3.5990     1.7290 H     1 <1>   0.0800 
 29 H       -0.3760    -4.6970     2.5420 H     1 <1>   0.0800 
 30 H       -3.0680    -5.3270     1.3830 H     1 <1>   0.0800 
 31 H       -2.5770    -5.5010     3.0330 H     1 <1>   0.0800 
 32 H       -3.8030    -7.5720     1.3190 H     1 <1>   0.0800 
 33 H       -2.6170    -8.7870     0.9350 H     1 <1>   0.0800 
 34 H       -1.3300    -8.7920     2.7050 H     1 <1>   0.0800 
 35 H       -2.3480    -7.7270     3.6370 H     1 <1>   0.0800 
 36 H        0.5680    -7.1990     2.9470 H     1 <1>   0.0800 
 37 H        0.0160    -7.8860     4.4480 H     1 <1>   0.0800 
 38 H       -0.4170    -6.2530     4.0620 H     1 <1>   0.0800 
 39 H       -1.6210    -8.6550    -3.9660 H     1 <1>   0.0800 
 40 H       -0.3600    -7.5160    -3.5470 H     1 <1>   0.0800 
 41 H       -1.7030    -7.0070    -4.5470 H     1 <1>   0.0800 
@<TRIPOS>BOND
  1   1   2  1   
  2   1   3  1   
  3   2   4  1   
  4   2  19  1   
  5   2  20  1   
  6   3   5  1   
  7   3  21  1   
  8   3  22  1   
  9   4   6  1   
 10   4  23  1   
 11   4  24  1   
 12   5   6  1   
 13   5  25  1   
 14   5  26  1   
 15   6   7  1   
 16   6  27  1   
 17   7   8  1   
 18   7  28  1   
 19   7  29  1   
 20   8   9  1   
 21   8  30  1   
 22   8  31  1   
 23   9  10  1   
 24   9  11  1   
 25  10  12  1   
 26  10  32  1   
 27  10  33  1   
 28  11  13  1   
 29  11  34  1   
 30  11  35  1   
 31  12  14  1   
 32  12  15  2   
 33  13  36  1   
 34  13  37  1   
 35  13  38  1   
 36  14  16  1   
 37  15  17  1   
 38  16  17  2   
 39  16  18  1   
 40  18  39  1   
 41  18  40  1   
 42  18  41  1   
@<TRIPOS>SUBSTRUCTURE
  1 ****   6 GROUP 4 **** **** 0

# MOE 2024.06 (io_trps.svl 2023.06)
