@<TRIPOS>MOLECULE
NONAME
22 22 1 0 0 
SMALL
USER_CHARGES


@<TRIPOS>ATOM
  1 F        0.1480    -0.3570    -0.1780 F     1 <1>  -0.3400 
  2 C        1.2690    -0.8100     0.3630 C.3   1 <1>   0.2600 
  3 C        2.4440     0.0540    -0.1450 C.3   1 <1>   0.2000 
  4 C        1.3670    -2.2830    -0.0500 C.3   1 <1>  -0.1600 
  5 O        2.5090     1.2790     0.5240 O.3   1 <1>  -0.5600 
  6 C        3.7860    -0.6390     0.1380 C.3   1 <1>   0.3430 
  7 C        2.7180    -2.8790     0.3320 C.3   1 <1>   0.3430 
  8 C        1.6150     2.2670     0.0980 C.3   1 <1>   0.0400 
  9 N        3.8060    -2.0780    -0.2910 N.4   1 <1>  -0.9060 
 10 H        1.1580    -0.7110     1.4300 H     1 <1>   0.0800 
 11 H        2.3560     0.2340    -1.2030 H     1 <1>   0.0800 
 12 H        0.5900    -2.8370     0.4460 H     1 <1>   0.0800 
 13 H        1.2230    -2.3800    -1.1120 H     1 <1>   0.0800 
 14 H        3.9700    -0.5840     1.1980 H     1 <1>   0.0800 
 15 H        4.5680    -0.0950    -0.3670 H     1 <1>   0.0800 
 16 H        2.7700    -3.9030    -0.0050 H     1 <1>   0.0800 
 17 H        2.8260    -2.8720     1.4060 H     1 <1>   0.0800 
 18 H        1.8660     3.1840     0.6030 H     1 <1>   0.0800 
 19 H        0.6100     1.9870     0.3590 H     1 <1>   0.0800 
 20 H        1.7060     2.4080    -0.9650 H     1 <1>   0.0800 
 21 H        3.7290    -2.1340    -1.3160 H     1 <1>   0.4500 
 22 H        4.7180    -2.4890    -0.0470 H     1 <1>   0.4500 
@<TRIPOS>BOND
  1   1   2  1   
  2   2   3  1   
  3   2   4  1   
  4   2  10  1   
  5   3   5  1   
  6   3   6  1   
  7   3  11  1   
  8   4   7  1   
  9   4  12  1   
 10   4  13  1   
 11   5   8  1   
 12   6   9  1   
 13   6  14  1   
 14   6  15  1   
 15   7   9  1   
 16   7  16  1   
 17   7  17  1   
 18   8  18  1   
 19   8  19  1   
 20   8  20  1   
 21   9  21  1   
 22   9  22  1   
@<TRIPOS>SUBSTRUCTURE
  1 ****   3 GROUP 4 **** **** 0

# MOE 2024.06 (io_trps.svl 2023.06)
