@<TRIPOS>MOLECULE
NONAME
54 56 1 0 0 
SMALL
USER_CHARGES


@<TRIPOS>ATOM
  1 CL      -1.8200    -1.9750     1.6790 Cl    1 <1>  -0.1770 
  2 C       -3.0950    -0.9200     1.1330 C.ar  1 <1>   0.1770 
  3 C       -3.9600    -1.3500     0.1460 C.ar  1 <1>  -0.1500 
  4 C       -3.2260     0.3360     1.6940 C.ar  1 <1>  -0.1500 
  5 C       -4.9720    -0.5090    -0.2820 C.ar  1 <1>  -0.1500 
  6 C       -4.2440     1.1670     1.2610 C.ar  1 <1>  -0.1500 
  7 C       -5.1440     0.7620     0.2720 C.ar  1 <1>   0.0530 
  8 C       -6.2160     1.6300    -0.1440 C.2   1 <1>   0.0870 
  9 O       -6.0760     2.9320    -0.1280 O.3   1 <1>  -0.0190 
 10 C       -7.4810     1.3780    -0.5680 C.2   1 <1>  -0.0860 
 11 N       -7.1520     3.5650    -0.5200 N.2   1 <1>  -0.4100 
 12 C       -8.0090     2.6510    -0.7950 C.2   1 <1>   0.3720 
 13 C       -8.1590     0.1340    -0.7200 C.2   1 <1>   0.7160 
 14 N       -9.2720     2.9870    -1.2650 N.pl3 1 <1>  -0.8520 
 15 O       -8.1050    -0.4750    -1.7740 O.2   1 <1>  -0.5700 
 16 N       -8.8480    -0.4350     0.3240 N.am  1 <1>  -0.6600 
 17 C      -10.4620     2.3970    -0.5950 C.3   1 <1>   0.2090 
 18 C       -9.8020    -1.5670     0.1010 C.3   1 <1>   0.1400 
 19 C       -8.4140    -0.3060     1.7390 C.3   1 <1>   0.1400 
 20 C      -11.1880     1.4540    -1.5570 C.3   1 <1>   0.1200 
 21 C       -9.1310    -2.9120     0.4540 C.3   1 <1>   0.2800 
 22 C       -7.7110    -1.6040     2.1590 C.3   1 <1>  -0.1600 
 23 O      -12.1490     0.7320    -0.8470 O.3   1 <1>  -0.5600 
 24 O       -8.0540    -3.0840    -0.3980 O.3   1 <1>  -0.6800 
 25 C       -8.5790    -2.8530     1.8920 C.3   1 <1>  -0.1600 
 26 C      -10.0740    -4.1190     0.2760 C.3   1 <1>  -0.1600 
 27 C      -12.8900    -0.1370    -1.6420 C.3   1 <1>   0.0400 
 28 C      -10.6430    -4.3050    -1.1420 C.3   1 <1>  -0.2400 
 29 H       -3.8410    -2.3300    -0.2820 H     1 <1>   0.1500 
 30 H       -2.5380     0.6520     2.4570 H     1 <1>   0.1500 
 31 H       -5.6310    -0.8500    -1.0610 H     1 <1>   0.1500 
 32 H       -4.3470     2.1460     1.6980 H     1 <1>   0.1500 
 33 H       -9.3400     4.0100    -1.3090 H     1 <1>   0.4000 
 34 H      -11.1330     3.1850    -0.3010 H     1 <1>   0.0800 
 35 H      -10.1640     1.8580     0.2870 H     1 <1>   0.0800 
 36 H      -10.1360    -1.5750    -0.9210 H     1 <1>   0.0800 
 37 H      -10.6680    -1.4200     0.7210 H     1 <1>   0.0800 
 38 H       -9.2800    -0.1390     2.3580 H     1 <1>   0.0800 
 39 H       -7.7480     0.5290     1.8680 H     1 <1>   0.0800 
 40 H      -10.4950     0.7590    -1.9960 H     1 <1>   0.0800 
 41 H      -11.6770     2.0210    -2.3300 H     1 <1>   0.0800 
 42 H       -7.4650    -1.5540     3.2040 H     1 <1>   0.0800 
 43 H       -6.7870    -1.6920     1.6160 H     1 <1>   0.0800 
 44 H       -7.9480    -2.2590    -0.9240 H     1 <1>   0.4000 
 45 H       -8.0090    -3.7430     2.0950 H     1 <1>   0.0800 
 46 H       -9.4090    -2.8390     2.5760 H     1 <1>   0.0800 
 47 H      -10.8960    -4.0210     0.9620 H     1 <1>   0.0800 
 48 H       -9.5370    -5.0100     0.5510 H     1 <1>   0.0800 
 49 H      -13.5850    -0.6600    -1.0100 H     1 <1>   0.0800 
 50 H      -12.2270    -0.8410    -2.1160 H     1 <1>   0.0800 
 51 H      -13.4290     0.4310    -2.3810 H     1 <1>   0.0800 
 52 H      -11.2720    -3.4790    -1.4210 H     1 <1>   0.0800 
 53 H      -11.2310    -5.2050    -1.1830 H     1 <1>   0.0800 
 54 H       -9.8450    -4.3930    -1.8590 H     1 <1>   0.0800 
@<TRIPOS>BOND
  1   1   2  1   
  2   2   3  ar  
  3   2   4  ar  
  4   3   5  ar  
  5   3  29  1   
  6   4   6  ar  
  7   4  30  1   
  8   5   7  ar  
  9   5  31  1   
 10   6   7  ar  
 11   6  32  1   
 12   7   8  1   
 13   8   9  1   
 14   8  10  2   
 15   9  11  1   
 16  10  12  1   
 17  10  13  1   
 18  11  12  2   
 19  12  14  1   
 20  13  15  2   
 21  13  16  am  
 22  14  17  1   
 23  14  33  1   
 24  16  18  1   
 25  16  19  1   
 26  17  20  1   
 27  17  34  1   
 28  17  35  1   
 29  18  21  1   
 30  18  36  1   
 31  18  37  1   
 32  19  22  1   
 33  19  38  1   
 34  19  39  1   
 35  20  23  1   
 36  20  40  1   
 37  20  41  1   
 38  21  24  1   
 39  21  25  1   
 40  21  26  1   
 41  22  25  1   
 42  22  42  1   
 43  22  43  1   
 44  23  27  1   
 45  24  44  1   
 46  25  45  1   
 47  25  46  1   
 48  26  28  1   
 49  26  47  1   
 50  26  48  1   
 51  27  49  1   
 52  27  50  1   
 53  27  51  1   
 54  28  52  1   
 55  28  53  1   
 56  28  54  1   
@<TRIPOS>SUBSTRUCTURE
  1 ****  13 GROUP 4 **** **** 0

# MOE 2024.06 (io_trps.svl 2023.06)
