@<TRIPOS>MOLECULE
NONAME
53 56 1 0 0 
SMALL
USER_CHARGES


@<TRIPOS>ATOM
  1 O       -2.3890     0.8710    -2.7780 O.2   1 <1>  -0.5700 
  2 C       -2.0550     1.2210    -1.6750 C.2   1 <1>   0.5690 
  3 N       -1.7830     0.3350    -0.6900 N.am  1 <1>  -0.7300 
  4 C       -1.9290     2.6960    -1.3810 C.3   1 <1>  -0.0990 
  5 C       -1.8290    -1.1390    -0.8370 C.3   1 <1>   0.2200 
  6 C       -0.6380     3.2550    -1.9880 C.3   1 <1>   0.0200 
  7 C       -3.0530    -1.7240    -0.1430 C.3   1 <1>  -0.0800 
  8 C       -0.7170    -1.7450     0.0060 C.3   1 <1>   0.1200 
  9 C       -0.4540     4.7110    -1.6140 C.2   1 <1>   0.2980 
 10 C       -2.5910    -1.8680     1.3130 C.3   1 <1>   0.1200 
 11 C       -4.3670    -0.9400    -0.3190 C.3   1 <1>  -0.0170 
 12 O       -1.2020    -1.7060     1.3130 O.3   1 <1>  -0.5600 
 13 O       -1.1990     5.6130    -2.1950 O.3   1 <1>  -0.0190 
 14 N        0.3690     5.1500    -0.7570 N.2   1 <1>  -0.5650 
 15 C       -5.5260    -1.6690     0.3410 C.ar  1 <1>  -0.1440 
 16 N       -0.8160     6.7280    -1.6600 N.2   1 <1>  -0.4100 
 17 C        0.1130     6.4620    -0.8100 C.2   1 <1>   0.4620 
 18 C       -6.1710    -2.7180    -0.2810 C.ar  1 <1>  -0.1500 
 19 C       -5.9930    -1.3230     1.5940 C.ar  1 <1>  -0.1500 
 20 C        0.8170     7.4350     0.0110 C.ar  1 <1>   0.0540 
 21 C       -7.2180    -3.3570     0.3620 C.ar  1 <1>   0.1600 
 22 C       -7.0490    -2.0280     2.1490 C.ar  1 <1>   0.1600 
 23 C        1.8140     7.0530     0.9110 C.ar  1 <1>  -0.1500 
 24 C        0.5200     8.7970    -0.0680 C.ar  1 <1>  -0.1500 
 25 N       -7.6710    -3.0380     1.5640 N.ar  1 <1>  -0.6200 
 26 C        2.4860     7.9760     1.6950 C.ar  1 <1>  -0.1440 
 27 C        1.1820     9.7280     0.7100 C.ar  1 <1>  -0.1500 
 28 C        2.1650     9.3180     1.5920 C.ar  1 <1>  -0.1500 
 29 C        3.5650     7.5290     2.6650 C.3   1 <1>  -0.0970 
 30 H       -1.5130     0.6420     0.2480 H     1 <1>   0.3700 
 31 H       -2.7790     3.2050    -1.8010 H     1 <1>   0.0800 
 32 H       -1.9320     2.8570    -0.3190 H     1 <1>   0.0800 
 33 H       -1.7620    -1.4230    -1.8740 H     1 <1>   0.0800 
 34 H       -0.6620     3.1630    -3.0600 H     1 <1>   0.0800 
 35 H        0.2050     2.6950    -1.6230 H     1 <1>   0.0800 
 36 H       -3.2030    -2.7170    -0.5290 H     1 <1>   0.0800 
 37 H        0.2060    -1.1960    -0.0590 H     1 <1>   0.0800 
 38 H       -0.5530    -2.7760    -0.2570 H     1 <1>   0.0800 
 39 H       -2.8300    -2.8390     1.7120 H     1 <1>   0.0800 
 40 H       -3.0080    -1.1030     1.9440 H     1 <1>   0.0800 
 41 H       -4.5720    -0.8200    -1.3690 H     1 <1>   0.0800 
 42 H       -4.2790     0.0440     0.1060 H     1 <1>   0.0800 
 43 H       -5.8710    -3.0440    -1.2600 H     1 <1>   0.1500 
 44 H       -5.5490    -0.5140     2.1440 H     1 <1>   0.1500 
 45 H       -7.7100    -4.1730    -0.1390 H     1 <1>   0.1500 
 46 H       -7.4000    -1.7450     3.1260 H     1 <1>   0.1500 
 47 H        2.0650     6.0110     0.9960 H     1 <1>   0.1500 
 48 H       -0.2420     9.1320    -0.7500 H     1 <1>   0.1500 
 49 H        0.9340    10.7720     0.6300 H     1 <1>   0.1500 
 50 H        2.6770    10.0470     2.1970 H     1 <1>   0.1500 
 51 H        4.4050     8.1980     2.6190 H     1 <1>   0.0800 
 52 H        3.9080     6.5380     2.4260 H     1 <1>   0.0800 
 53 H        3.1750     7.5280     3.6670 H     1 <1>   0.0800 
@<TRIPOS>BOND
  1   1   2  2   
  2   2   3  am  
  3   2   4  1   
  4   3   5  1   
  5   3  30  1   
  6   4   6  1   
  7   4  31  1   
  8   4  32  1   
  9   5   7  1   
 10   5   8  1   
 11   5  33  1   
 12   6   9  1   
 13   6  34  1   
 14   6  35  1   
 15   7  10  1   
 16   7  11  1   
 17   7  36  1   
 18   8  12  1   
 19   8  37  1   
 20   8  38  1   
 21   9  13  1   
 22   9  14  2   
 23  10  12  1   
 24  10  39  1   
 25  10  40  1   
 26  11  15  1   
 27  11  41  1   
 28  11  42  1   
 29  13  16  1   
 30  14  17  1   
 31  15  18  ar  
 32  15  19  ar  
 33  16  17  2   
 34  17  20  1   
 35  18  21  ar  
 36  18  43  1   
 37  19  22  ar  
 38  19  44  1   
 39  20  23  ar  
 40  20  24  ar  
 41  21  25  ar  
 42  21  45  1   
 43  22  25  ar  
 44  22  46  1   
 45  23  26  ar  
 46  23  47  1   
 47  24  27  ar  
 48  24  48  1   
 49  26  28  ar  
 50  26  29  1   
 51  27  28  ar  
 52  27  49  1   
 53  28  50  1   
 54  29  51  1   
 55  29  52  1   
 56  29  53  1   
@<TRIPOS>SUBSTRUCTURE
  1 ****   4 GROUP 4 **** **** 0

# MOE 2024.06 (io_trps.svl 2023.06)
