@<TRIPOS>MOLECULE
NONAME
43 44 1 0 0 
SMALL
USER_CHARGES


@<TRIPOS>ATOM
  1 F        0.6160    -2.1490     1.9760 F     1 <1>  -0.3400 
  2 C        1.1480    -1.2340     1.1700 C.3   1 <1>   1.1640 
  3 F        0.2920    -1.0800     0.1640 F     1 <1>  -0.3400 
  4 F        1.1070    -0.0920     1.8540 F     1 <1>  -0.3400 
  5 C        2.5790    -1.6070     0.6980 C.ar  1 <1>   0.1660 
  6 N        2.7750    -2.7300     0.0180 N.ar  1 <1>  -0.6200 
  7 C        3.6430    -0.7850     0.9800 C.ar  1 <1>  -0.1500 
  8 C        4.0180    -2.9970    -0.3680 C.ar  1 <1>   0.7200 
  9 C        4.8980    -1.1530     0.5450 C.ar  1 <1>   0.4100 
 10 N        5.0900    -2.2550    -0.1360 N.ar  1 <1>  -0.6200 
 11 N        4.2060    -4.1670    -1.0810 N.pl3 1 <1>  -0.8380 
 12 N        5.9940    -0.3650     0.8220 N.pl3 1 <1>  -0.8380 
 13 C        3.1690    -5.2350    -1.1410 C.3   1 <1>   0.1290 
 14 C        5.4510    -4.4330    -1.8520 C.3   1 <1>   0.1290 
 15 C        7.1490    -0.3940    -0.1450 C.3   1 <1>   0.3890 
 16 C        6.3290    -0.0550     2.2400 C.3   1 <1>   0.1290 
 17 C        8.0290     0.8540    -0.1130 C.2   1 <1>   0.2980 
 18 O        8.8550     1.0070     0.8930 O.3   1 <1>  -0.0190 
 19 N        8.0670     1.7790    -0.9910 N.2   1 <1>  -0.5650 
 20 N        9.4590     2.1260     0.6410 N.2   1 <1>  -0.4100 
 21 C        8.9910     2.5700    -0.4590 C.2   1 <1>   0.3350 
 22 C        9.4080     3.8650    -1.1590 C.3   1 <1>   0.1010 
 23 C       10.4770     3.5850    -2.2240 C.3   1 <1>  -0.2400 
 24 C        9.9150     4.9300    -0.1720 C.3   1 <1>  -0.2400 
 25 H        3.5360     0.1370     1.5180 H     1 <1>   0.1500 
 26 H        2.5760    -5.2380    -0.2410 H     1 <1>   0.0800 
 27 H        3.6350    -6.1990    -1.2400 H     1 <1>   0.0800 
 28 H        2.5230    -5.0630    -1.9840 H     1 <1>   0.0800 
 29 H        5.9020    -3.5100    -2.1740 H     1 <1>   0.0800 
 30 H        5.2280    -5.0210    -2.7250 H     1 <1>   0.0800 
 31 H        6.1500    -4.9670    -1.2330 H     1 <1>   0.0800 
 32 H        6.7620    -0.4980    -1.1440 H     1 <1>   0.0800 
 33 H        7.7570    -1.2570     0.0610 H     1 <1>   0.0800 
 34 H        5.5360    -0.3710     2.8960 H     1 <1>   0.0800 
 35 H        6.4730     1.0060     2.3560 H     1 <1>   0.0800 
 36 H        7.2310    -0.5670     2.5280 H     1 <1>   0.0800 
 37 H        8.5360     4.2600    -1.6500 H     1 <1>   0.0800 
 38 H       11.3600     3.1760    -1.7650 H     1 <1>   0.0800 
 39 H       10.7390     4.4890    -2.7430 H     1 <1>   0.0800 
 40 H       10.1030     2.8740    -2.9390 H     1 <1>   0.0800 
 41 H       10.8040     4.5870     0.3270 H     1 <1>   0.0800 
 42 H        9.1620     5.1290     0.5690 H     1 <1>   0.0800 
 43 H       10.1400     5.8460    -0.6890 H     1 <1>   0.0800 
@<TRIPOS>BOND
  1   1   2  1   
  2   2   3  1   
  3   2   4  1   
  4   2   5  1   
  5   5   6  ar  
  6   5   7  ar  
  7   6   8  ar  
  8   7   9  ar  
  9   7  25  1   
 10   8  10  ar  
 11   8  11  1   
 12   9  10  ar  
 13   9  12  1   
 14  11  13  1   
 15  11  14  1   
 16  12  15  1   
 17  12  16  1   
 18  13  26  1   
 19  13  27  1   
 20  13  28  1   
 21  14  29  1   
 22  14  30  1   
 23  14  31  1   
 24  15  17  1   
 25  15  32  1   
 26  15  33  1   
 27  16  34  1   
 28  16  35  1   
 29  16  36  1   
 30  17  18  1   
 31  17  19  2   
 32  18  20  1   
 33  19  21  1   
 34  20  21  2   
 35  21  22  1   
 36  22  23  1   
 37  22  24  1   
 38  22  37  1   
 39  23  38  1   
 40  23  39  1   
 41  23  40  1   
 42  24  41  1   
 43  24  42  1   
 44  24  43  1   
@<TRIPOS>SUBSTRUCTURE
  1 ****  12 GROUP 4 **** **** 0

# MOE 2024.06 (io_trps.svl 2023.06)
