@<TRIPOS>MOLECULE
NONAME
45 48 1 0 0 
SMALL
USER_CHARGES


@<TRIPOS>ATOM
  1 N       -0.8730     2.1280    -2.1240 N.2   1 <1>  -0.7070 
  2 N       -1.4400     2.1280    -0.8880 N.pl3 1 <1>   0.5930 
  3 C       -1.4940     1.2060    -2.7920 C.2   1 <1>   0.1390 
  4 C       -1.0210     3.0220     0.1400 C.ar  1 <1>  -0.0230 
  5 C       -2.4100     1.1830    -0.8300 C.2   1 <1>  -0.3020 
  6 C       -2.4710     0.5760    -2.0320 C.2   1 <1>  -0.1500 
  7 C        0.2950     3.4690     0.1740 C.ar  1 <1>  -0.1500 
  8 C       -1.9020     3.4860     1.1130 C.ar  1 <1>  -0.1500 
  9 C        0.7260     4.3820     1.1240 C.ar  1 <1>  -0.1430 
 10 C       -1.4740     4.3710     2.0850 C.ar  1 <1>  -0.1500 
 11 C       -0.1650     4.8200     2.0930 C.ar  1 <1>  -0.1500 
 12 C        2.1560     4.9000     1.0930 C.3   1 <1>   0.4860 
 13 N        2.3090     5.9830     0.0690 N.4   1 <1>  -0.9590 
 14 C        1.2770     7.0390     0.2310 C.3   1 <1>   0.5230 
 15 C        2.2950     5.4440    -1.3310 C.3   1 <1>   0.2630 
 16 C        1.6390     8.1890    -0.6710 C.2   1 <1>  -0.3320 
 17 N        2.6530     9.0520    -0.4520 N.pl3 1 <1>   0.2940 
 18 C        1.0350     8.5790    -1.8160 C.2   1 <1>   0.0770 
 19 C        2.5950     9.9090    -1.4960 C.2   1 <1>   0.0360 
 20 C        3.6030     9.0580     0.6870 C.3   1 <1>  -0.0910 
 21 N        1.6470     9.6530    -2.3370 N.2   1 <1>  -0.5650 
 22 C        4.9980     9.5770     0.5040 C.3   1 <1>  -0.2000 
 23 C        4.7690     8.1100     0.6880 C.3   1 <1>  -0.2000 
 24 H       -1.2730     0.9600    -3.8180 H     1 <1>   0.1500 
 25 H       -2.9870     0.9990     0.0560 H     1 <1>   0.1500 
 26 H       -3.1160    -0.2200    -2.3620 H     1 <1>   0.1500 
 27 H        0.9780     3.0880    -0.5670 H     1 <1>   0.1500 
 28 H       -2.9290     3.1590     1.1140 H     1 <1>   0.1500 
 29 H       -2.1670     4.7120     2.8380 H     1 <1>   0.1500 
 30 H        0.1400     5.5080     2.8630 H     1 <1>   0.1500 
 31 H        2.8280     4.0860     0.8730 H     1 <1>   0.0800 
 32 H        2.4090     5.2830     2.0690 H     1 <1>   0.0800 
 33 H        3.2150     6.4420     0.2190 H     1 <1>   0.4500 
 34 H        1.2360     7.3760     1.2540 H     1 <1>   0.0800 
 35 H        0.3070     6.6500    -0.0400 H     1 <1>   0.0800 
 36 H        1.3240     5.0410    -1.5720 H     1 <1>   0.0800 
 37 H        3.0300     4.6630    -1.4440 H     1 <1>   0.0800 
 38 H        2.5200     6.2280    -2.0380 H     1 <1>   0.0800 
 39 H        0.1790     8.1460    -2.3110 H     1 <1>   0.1500 
 40 H        3.2880    10.7270    -1.5970 H     1 <1>   0.1500 
 41 H        3.1130     9.3050     1.6130 H     1 <1>   0.1000 
 42 H        5.4650    10.1190     1.3090 H     1 <1>   0.1000 
 43 H        5.3240     9.9250    -0.4620 H     1 <1>   0.1000 
 44 H        5.0020     7.4960    -0.1650 H     1 <1>   0.1000 
 45 H        5.1240     7.6860     1.6130 H     1 <1>   0.1000 
@<TRIPOS>BOND
  1   1   2  1   
  2   1   3  2   
  3   2   4  1   
  4   2   5  1   
  5   3   6  1   
  6   3  24  1   
  7   4   7  ar  
  8   4   8  ar  
  9   5   6  2   
 10   5  25  1   
 11   6  26  1   
 12   7   9  ar  
 13   7  27  1   
 14   8  10  ar  
 15   8  28  1   
 16   9  11  ar  
 17   9  12  1   
 18  10  11  ar  
 19  10  29  1   
 20  11  30  1   
 21  12  13  1   
 22  12  31  1   
 23  12  32  1   
 24  13  14  1   
 25  13  15  1   
 26  13  33  1   
 27  14  16  1   
 28  14  34  1   
 29  14  35  1   
 30  15  36  1   
 31  15  37  1   
 32  15  38  1   
 33  16  17  1   
 34  16  18  2   
 35  17  19  1   
 36  17  20  1   
 37  18  21  1   
 38  18  39  1   
 39  19  21  2   
 40  19  40  1   
 41  20  22  1   
 42  20  23  1   
 43  20  41  1   
 44  22  23  1   
 45  22  42  1   
 46  22  43  1   
 47  23  44  1   
 48  23  45  1   
@<TRIPOS>SUBSTRUCTURE
  1 ****  13 GROUP 4 **** **** 0

# MOE 2024.06 (io_trps.svl 2023.06)
