@<TRIPOS>MOLECULE
NONAME
44 45 1 0 0 
SMALL
USER_CHARGES


@<TRIPOS>ATOM
  1 S       -0.3030     0.1590    -0.1830 S.o2  1 <1>   1.3330 
  2 O       -0.9460     1.3300    -0.7340 O.2   1 <1>  -0.6500 
  3 O       -0.5320    -0.1950     1.2000 O.2   1 <1>  -0.6500 
  4 N       -0.7240    -1.1800    -1.1370 N.am  1 <1>  -0.8490 
  5 C        1.4580     0.3180    -0.4890 C.3   1 <1>  -0.0550 
  6 C       -0.4960    -2.4660    -0.4680 C.3   1 <1>   0.1160 
  7 C       -2.1080    -1.1070    -1.6170 C.3   1 <1>   0.1160 
  8 C        2.1120     1.5180     0.2300 C.3   1 <1>  -0.0800 
  9 C        3.5370     1.7360    -0.2510 C.3   1 <1>   0.2200 
 10 C        2.3240     1.2390     1.7220 C.3   1 <1>   0.1200 
 11 N        3.9480     3.1280     0.0410 N.am  1 <1>  -0.7300 
 12 C        4.3160     0.7820     0.6480 C.3   1 <1>   0.1200 
 13 O        3.6160     0.7240     1.8560 O.3   1 <1>  -0.5600 
 14 C        4.4930     4.0020    -0.8460 C.2   1 <1>   0.7150 
 15 O        4.5890     3.6650    -2.0090 O.2   1 <1>  -0.5700 
 16 C        4.9470     5.2810    -0.3760 C.2   1 <1>  -0.2370 
 17 N        5.5890     6.2150    -1.1290 N.pl3 1 <1>   0.3140 
 18 C        4.8520     5.8330     0.8670 C.2   1 <1>  -0.1500 
 19 N        5.9000     7.3120    -0.4190 N.2   1 <1>  -0.7070 
 20 C        5.9550     6.1400    -2.5550 C.3   1 <1>   0.0160 
 21 C        5.4520     7.0780     0.7850 C.2   1 <1>   0.1080 
 22 C        5.5780     8.0600     1.9580 C.3   1 <1>   0.7810 
 23 F        6.2240     7.4890     2.9720 F     1 <1>  -0.3400 
 24 F        4.3760     8.3490     2.4510 F     1 <1>  -0.3400 
 25 H        1.9530    -0.5880    -0.1990 H     1 <1>   0.0800 
 26 H        1.5950     0.4390    -1.5460 H     1 <1>   0.0800 
 27 H       -0.6900    -3.2770    -1.1500 H     1 <1>   0.0800 
 28 H       -1.1430    -2.5660     0.3880 H     1 <1>   0.0800 
 29 H        0.5260    -2.5380    -0.1380 H     1 <1>   0.0800 
 30 H       -2.3360    -1.9620    -2.2300 H     1 <1>   0.0800 
 31 H       -2.2450    -0.2210    -2.2140 H     1 <1>   0.0800 
 32 H       -2.7920    -1.0730    -0.7850 H     1 <1>   0.0800 
 33 H        1.5070     2.3950     0.0700 H     1 <1>   0.0800 
 34 H        3.6730     1.5100    -1.2950 H     1 <1>   0.0800 
 35 H        1.6250     0.5340     2.1380 H     1 <1>   0.0800 
 36 H        2.2800     2.1530     2.2890 H     1 <1>   0.0800 
 37 H        3.9740     3.3670     1.0320 H     1 <1>   0.3700 
 38 H        5.3240     1.1120     0.8290 H     1 <1>   0.0800 
 39 H        4.3290    -0.2100     0.2310 H     1 <1>   0.0800 
 40 H        4.4080     5.4190     1.7550 H     1 <1>   0.1500 
 41 H        6.5900     5.2890    -2.7130 H     1 <1>   0.0800 
 42 H        6.4760     7.0360    -2.8370 H     1 <1>   0.0800 
 43 H        5.0630     6.0420    -3.1440 H     1 <1>   0.0800 
 44 H        6.0760     8.9770     1.7040 H     1 <1>   0.0800 
@<TRIPOS>BOND
  1   1   2  2   
  2   1   3  2   
  3   1   4  am  
  4   1   5  1   
  5   4   6  1   
  6   4   7  1   
  7   5   8  1   
  8   5  25  1   
  9   5  26  1   
 10   6  27  1   
 11   6  28  1   
 12   6  29  1   
 13   7  30  1   
 14   7  31  1   
 15   7  32  1   
 16   8   9  1   
 17   8  10  1   
 18   8  33  1   
 19   9  11  1   
 20   9  12  1   
 21   9  34  1   
 22  10  13  1   
 23  10  35  1   
 24  10  36  1   
 25  11  14  am  
 26  11  37  1   
 27  12  13  1   
 28  12  38  1   
 29  12  39  1   
 30  14  15  2   
 31  14  16  1   
 32  16  17  1   
 33  16  18  2   
 34  17  19  1   
 35  17  20  1   
 36  18  21  1   
 37  18  40  1   
 38  19  21  2   
 39  20  41  1   
 40  20  42  1   
 41  20  43  1   
 42  21  22  1   
 43  22  23  1   
 44  22  24  1   
 45  22  44  1   
@<TRIPOS>SUBSTRUCTURE
  1 ****  11 GROUP 4 **** **** 0

# MOE 2024.06 (io_trps.svl 2023.06)
