@<TRIPOS>MOLECULE
NONAME
47 49 1 0 0 
SMALL
USER_CHARGES


@<TRIPOS>ATOM
  1 O       -0.5630    -0.0870     1.9680 O.2   1 <1>  -0.5700 
  2 C       -1.5170     0.5980     1.6760 C.2   1 <1>   0.5690 
  3 N       -2.7630     0.0420     1.4990 N.am  1 <1>  -0.6600 
  4 C       -1.2750     2.1030     1.5210 C.3   1 <1>   0.1810 
  5 C       -2.9420    -1.4360     1.3610 C.3   1 <1>   0.1400 
  6 C       -3.9730     0.7820     1.0310 C.3   1 <1>   0.1400 
  7 O       -1.6580     2.5700     0.2470 O.3   1 <1>  -0.5600 
  8 C       -3.3720    -1.7890    -0.0770 C.3   1 <1>   0.3440 
  9 C       -4.3240     0.3530    -0.4100 C.3   1 <1>   0.2950 
 10 C       -1.3920     3.9080    -0.0020 C.3   1 <1>   0.2000 
 11 O       -4.5010    -1.0370    -0.4530 O.3   1 <1>  -0.5600 
 12 C       -3.6880    -3.2780    -0.1910 C.ar  1 <1>  -0.1440 
 13 C       -5.6100     0.9820    -0.9770 C.3   1 <1>  -0.1950 
 14 C       -2.4370     4.3770    -1.0080 C.3   1 <1>  -0.2400 
 15 C        0.0200     4.0230    -0.5730 C.3   1 <1>  -0.2400 
 16 C       -4.9630    -3.7710     0.0530 C.ar  1 <1>  -0.1500 
 17 C       -2.6780    -4.1670    -0.5320 C.ar  1 <1>  -0.1500 
 18 C       -6.0850     2.3610    -0.6310 C.3   1 <1>  -0.2000 
 19 C       -6.8710     1.1580    -0.1890 C.3   1 <1>  -0.2000 
 20 C       -5.2240    -5.1270    -0.0410 C.ar  1 <1>  -0.1500 
 21 C       -2.9370    -5.5240    -0.6260 C.ar  1 <1>  -0.1500 
 22 C       -4.2100    -6.0050    -0.3800 C.ar  1 <1>  -0.1500 
 23 H       -0.2280     2.3010     1.6610 H     1 <1>   0.0800 
 24 H       -1.8410     2.6310     2.2660 H     1 <1>   0.0800 
 25 H       -2.0300    -1.9560     1.5940 H     1 <1>   0.0800 
 26 H       -3.6960    -1.7720     2.0500 H     1 <1>   0.0800 
 27 H       -4.7960     0.5510     1.6830 H     1 <1>   0.0800 
 28 H       -3.8190     1.8430     1.0670 H     1 <1>   0.0800 
 29 H       -2.5750    -1.5440    -0.7570 H     1 <1>   0.0800 
 30 H       -3.5040     0.6100    -1.0580 H     1 <1>   0.0800 
 31 H       -1.4880     4.4730     0.9120 H     1 <1>   0.0800 
 32 H       -5.7310     0.6940    -2.0070 H     1 <1>   0.1000 
 33 H       -2.3730     3.7970    -1.9110 H     1 <1>   0.0800 
 34 H       -2.2760     5.4120    -1.2510 H     1 <1>   0.0800 
 35 H       -3.4210     4.2760    -0.5890 H     1 <1>   0.0800 
 36 H        0.1150     3.4140    -1.4550 H     1 <1>   0.0800 
 37 H        0.7510     3.7140     0.1510 H     1 <1>   0.0800 
 38 H        0.2250     5.0440    -0.8390 H     1 <1>   0.0800 
 39 H       -5.7590    -3.0950     0.3150 H     1 <1>   0.1500 
 40 H       -1.6820    -3.8080    -0.7250 H     1 <1>   0.1500 
 41 H       -5.5880     2.9430     0.1250 H     1 <1>   0.1000 
 42 H       -6.4850     2.9770    -1.4180 H     1 <1>   0.1000 
 43 H       -7.8050     0.9360    -0.6760 H     1 <1>   0.1000 
 44 H       -6.8880     0.8960     0.8540 H     1 <1>   0.1000 
 45 H       -6.2160    -5.4960     0.1490 H     1 <1>   0.1500 
 46 H       -2.1470    -6.2050    -0.8920 H     1 <1>   0.1500 
 47 H       -4.4130    -7.0590    -0.4540 H     1 <1>   0.1500 
@<TRIPOS>BOND
  1   1   2  2   
  2   2   3  am  
  3   2   4  1   
  4   3   5  1   
  5   3   6  1   
  6   4   7  1   
  7   4  23  1   
  8   4  24  1   
  9   5   8  1   
 10   5  25  1   
 11   5  26  1   
 12   6   9  1   
 13   6  27  1   
 14   6  28  1   
 15   7  10  1   
 16   8  11  1   
 17   8  12  1   
 18   8  29  1   
 19   9  11  1   
 20   9  13  1   
 21   9  30  1   
 22  10  14  1   
 23  10  15  1   
 24  10  31  1   
 25  12  16  ar  
 26  12  17  ar  
 27  13  18  1   
 28  13  19  1   
 29  13  32  1   
 30  14  33  1   
 31  14  34  1   
 32  14  35  1   
 33  15  36  1   
 34  15  37  1   
 35  15  38  1   
 36  16  20  ar  
 37  16  39  1   
 38  17  21  ar  
 39  17  40  1   
 40  18  19  1   
 41  18  41  1   
 42  18  42  1   
 43  19  43  1   
 44  19  44  1   
 45  20  22  ar  
 46  20  45  1   
 47  21  22  ar  
 48  21  46  1   
 49  22  47  1   
@<TRIPOS>SUBSTRUCTURE
  1 ****   9 GROUP 4 **** **** 0

# MOE 2024.06 (io_trps.svl 2023.06)
