@<TRIPOS>MOLECULE
NONAME
57 60 1 0 0 
SMALL
USER_CHARGES


@<TRIPOS>ATOM
  1 CL      -2.7680    -2.6350     2.0620 Cl    1 <1>  -0.1770 
  2 C       -3.7730    -1.3750     1.4020 C.ar  1 <1>   0.1770 
  3 C       -3.9670    -0.2100     2.1190 C.ar  1 <1>  -0.1500 
  4 C       -4.3680    -1.5600     0.1690 C.ar  1 <1>  -0.1500 
  5 C       -4.7860     0.7770     1.5990 C.ar  1 <1>  -0.1500 
  6 C       -5.1860    -0.5680    -0.3420 C.ar  1 <1>  -0.1500 
  7 C       -5.4250     0.6100     0.3690 C.ar  1 <1>   0.0530 
  8 C       -6.3270     1.6090    -0.1370 C.2   1 <1>   0.0870 
  9 O       -6.0600     2.8870    -0.0670 O.3   1 <1>  -0.0190 
 10 C       -7.5480     1.4870    -0.7110 C.2   1 <1>  -0.0860 
 11 N       -7.0140     3.6280    -0.5730 N.2   1 <1>  -0.4100 
 12 C       -7.9150     2.8080    -0.9760 C.2   1 <1>   0.3720 
 13 C       -8.3050     0.3020    -0.9350 C.2   1 <1>   0.7160 
 14 N       -9.0700     3.2660    -1.5940 N.pl3 1 <1>  -0.8520 
 15 O       -8.1510    -0.3570    -1.9470 O.2   1 <1>  -0.5700 
 16 N       -9.1580    -0.1970     0.0270 N.am  1 <1>  -0.6600 
 17 C      -10.3870     2.8090    -1.0750 C.3   1 <1>   0.2090 
 18 C      -10.1070    -1.2980    -0.3110 C.3   1 <1>   0.1400 
 19 C       -9.1340     0.1990     1.4550 C.3   1 <1>   0.1400 
 20 C      -11.0800     1.9210    -2.1110 C.3   1 <1>   0.1200 
 21 C       -9.3740    -2.6550    -0.3040 C.3   1 <1>   0.4230 
 22 C       -8.3340    -0.8210     2.2770 C.3   1 <1>  -0.1600 
 23 O      -12.0560     1.1520    -1.4720 O.3   1 <1>  -0.5600 
 24 N       -8.3510    -2.8160     0.7760 N.4   1 <1>  -0.9590 
 25 C      -10.2850    -3.8670    -0.1440 C.3   1 <1>  -0.1600 
 26 C       -8.7630    -2.2850     2.1110 C.3   1 <1>   0.3430 
 27 C      -12.9100     0.4970    -2.3550 C.3   1 <1>   0.0400 
 28 C       -8.0750    -4.2730     0.8280 C.3   1 <1>   0.3430 
 29 C       -9.4000    -4.9510     0.4810 C.3   1 <1>  -0.1600 
 30 H       -3.4780    -0.0800     3.0700 H     1 <1>   0.1500 
 31 H       -4.1780    -2.4640    -0.3830 H     1 <1>   0.1500 
 32 H       -4.9360     1.6900     2.1510 H     1 <1>   0.1500 
 33 H       -5.6340    -0.7010    -1.3130 H     1 <1>   0.1500 
 34 H       -9.0260     4.2900    -1.6500 H     1 <1>   0.4000 
 35 H      -10.2520     2.2630    -0.1590 H     1 <1>   0.0800 
 36 H      -11.0070     3.6650    -0.8690 H     1 <1>   0.0800 
 37 H      -10.9270    -1.3030     0.3850 H     1 <1>   0.0800 
 38 H      -10.5240    -1.1290    -1.2890 H     1 <1>   0.0800 
 39 H       -8.6950     1.1760     1.5700 H     1 <1>   0.0800 
 40 H      -10.1450     0.2600     1.8230 H     1 <1>   0.0800 
 41 H      -10.3730     1.2520    -2.5690 H     1 <1>   0.0800 
 42 H      -11.5430     2.5350    -2.8630 H     1 <1>   0.0800 
 43 H       -8.8680    -2.7480    -1.2520 H     1 <1>   0.0800 
 44 H       -8.4560    -0.5600     3.3130 H     1 <1>   0.0800 
 45 H       -7.2860    -0.7250     2.0610 H     1 <1>   0.0800 
 46 H       -7.5140    -2.2980     0.4770 H     1 <1>   0.4500 
 47 H      -11.1070    -3.6390     0.5130 H     1 <1>   0.0800 
 48 H      -10.6820    -4.1730    -1.0970 H     1 <1>   0.0800 
 49 H       -9.8280    -2.3840     2.2430 H     1 <1>   0.0800 
 50 H       -8.2790    -2.8620     2.8820 H     1 <1>   0.0800 
 51 H      -13.6030    -0.0910    -1.7800 H     1 <1>   0.0800 
 52 H      -12.3340    -0.1430    -3.0010 H     1 <1>   0.0800 
 53 H      -13.4510     1.2260    -2.9330 H     1 <1>   0.0800 
 54 H       -7.3410    -4.5270     0.0790 H     1 <1>   0.0800 
 55 H       -7.7100    -4.5790     1.7950 H     1 <1>   0.0800 
 56 H       -9.2260    -5.7620    -0.2050 H     1 <1>   0.0800 
 57 H       -9.8570    -5.3510     1.3690 H     1 <1>   0.0800 
@<TRIPOS>BOND
  1   1   2  1   
  2   2   3  ar  
  3   2   4  ar  
  4   3   5  ar  
  5   3  30  1   
  6   4   6  ar  
  7   4  31  1   
  8   5   7  ar  
  9   5  32  1   
 10   6   7  ar  
 11   6  33  1   
 12   7   8  1   
 13   8   9  1   
 14   8  10  2   
 15   9  11  1   
 16  10  12  1   
 17  10  13  1   
 18  11  12  2   
 19  12  14  1   
 20  13  15  2   
 21  13  16  am  
 22  14  17  1   
 23  14  34  1   
 24  16  18  1   
 25  16  19  1   
 26  17  20  1   
 27  17  35  1   
 28  17  36  1   
 29  18  21  1   
 30  18  37  1   
 31  18  38  1   
 32  19  22  1   
 33  19  39  1   
 34  19  40  1   
 35  20  23  1   
 36  20  41  1   
 37  20  42  1   
 38  21  24  1   
 39  21  25  1   
 40  21  43  1   
 41  22  26  1   
 42  22  44  1   
 43  22  45  1   
 44  23  27  1   
 45  24  26  1   
 46  24  28  1   
 47  24  46  1   
 48  25  29  1   
 49  25  47  1   
 50  25  48  1   
 51  26  49  1   
 52  26  50  1   
 53  27  51  1   
 54  27  52  1   
 55  27  53  1   
 56  28  29  1   
 57  28  54  1   
 58  28  55  1   
 59  29  56  1   
 60  29  57  1   
@<TRIPOS>SUBSTRUCTURE
  1 ****  13 GROUP 4 **** **** 0

# MOE 2024.06 (io_trps.svl 2023.06)
