@<TRIPOS>MOLECULE
NONAME
42 44 1 0 0 
SMALL
USER_CHARGES


@<TRIPOS>ATOM
  1 S       -0.2830    -0.1020     0.4190 S.3   1 <1>  -0.3320 
  2 C       -0.1960    -1.8570     0.1300 C.ar  1 <1>   0.7720 
  3 C        1.4320     0.6010     0.4200 C.3   1 <1>  -0.0100 
  4 N       -1.3060    -2.5100     0.0980 N.ar  1 <1>  -0.6200 
  5 N        1.0270    -2.3970    -0.0370 N.ar  1 <1>  -0.1790 
  6 C       -1.2300    -3.8370    -0.1200 C.ar  1 <1>   0.4100 
  7 C        1.1570    -3.7120    -0.2590 C.ar  1 <1>   0.4610 
  8 N       -2.4080    -4.5110    -0.1500 N.pl3 1 <1>  -0.8380 
  9 C       -0.0050    -4.4530    -0.3030 C.ar  1 <1>  -0.1500 
 10 N        2.3850    -4.2490    -0.4290 N.pl3 1 <1>  -0.9000 
 11 C       -3.7480    -3.8590    -0.0490 C.3   1 <1>   0.2090 
 12 C       -2.5750    -5.9810    -0.3110 C.3   1 <1>   0.2090 
 13 C       -4.7650    -4.9840    -0.2570 C.3   1 <1>   0.2000 
 14 C       -4.0220    -6.2740     0.0810 C.3   1 <1>  -0.0800 
 15 O       -5.8730    -4.8450     0.5680 O.3   1 <1>  -0.6800 
 16 C       -4.6180    -7.5060    -0.6210 C.3   1 <1>  -0.0170 
 17 C       -3.8880    -8.7870    -0.2420 C.ar  1 <1>   0.1670 
 18 N       -2.7090    -8.9900    -0.8130 N.ar  1 <1>  -0.6200 
 19 C       -4.4750    -9.6650     0.6580 C.ar  1 <1>  -0.1500 
 20 C       -2.1000   -10.1190    -0.4830 C.ar  1 <1>   0.1600 
 21 C       -3.8250   -10.8320     0.9970 C.ar  1 <1>  -0.1500 
 22 C       -2.6040   -11.0570     0.4010 C.ar  1 <1>  -0.1500 
 23 H        1.3390     1.6590     0.5960 H     1 <1>   0.0800 
 24 H        1.8780     0.4290    -0.5440 H     1 <1>   0.0800 
 25 H        1.9930     0.1450     1.2170 H     1 <1>   0.0800 
 26 H        1.8380    -1.7990     0.0070 H     1 <1>   0.4570 
 27 H        0.0460    -5.5090    -0.4820 H     1 <1>   0.1500 
 28 H        3.2900    -3.7640    -0.4110 H     1 <1>   0.4000 
 29 H        2.5060    -5.2570    -0.6020 H     1 <1>   0.4000 
 30 H       -3.8550    -3.4170     0.9270 H     1 <1>   0.0800 
 31 H       -3.8560    -3.1030    -0.8080 H     1 <1>   0.0800 
 32 H       -2.4040    -6.2470    -1.3420 H     1 <1>   0.0800 
 33 H       -1.8940    -6.5290     0.3180 H     1 <1>   0.0800 
 34 H       -5.1010    -4.9820    -1.2800 H     1 <1>   0.0800 
 35 H       -4.0380    -6.4280     1.1460 H     1 <1>   0.0800 
 36 H       -5.6000    -4.8290     1.5050 H     1 <1>   0.4000 
 37 H       -4.5690    -7.3830    -1.6880 H     1 <1>   0.0800 
 38 H       -5.6560    -7.5930    -0.3560 H     1 <1>   0.0800 
 39 H       -5.4330    -9.4430     1.0900 H     1 <1>   0.1500 
 40 H       -1.1460   -10.3100    -0.9440 H     1 <1>   0.1500 
 41 H       -4.2530   -11.5360     1.6910 H     1 <1>   0.1500 
 42 H       -2.0460   -11.9500     0.6180 H     1 <1>   0.1500 
@<TRIPOS>BOND
  1   1   2  1   
  2   1   3  1   
  3   2   4  ar  
  4   2   5  ar  
  5   3  23  1   
  6   3  24  1   
  7   3  25  1   
  8   4   6  ar  
  9   5   7  ar  
 10   5  26  1   
 11   6   8  1   
 12   6   9  ar  
 13   7   9  ar  
 14   7  10  1   
 15   8  11  1   
 16   8  12  1   
 17   9  27  1   
 18  10  28  1   
 19  10  29  1   
 20  11  13  1   
 21  11  30  1   
 22  11  31  1   
 23  12  14  1   
 24  12  32  1   
 25  12  33  1   
 26  13  14  1   
 27  13  15  1   
 28  13  34  1   
 29  14  16  1   
 30  14  35  1   
 31  15  36  1   
 32  16  17  1   
 33  16  37  1   
 34  16  38  1   
 35  17  18  ar  
 36  17  19  ar  
 37  18  20  ar  
 38  19  21  ar  
 39  19  39  1   
 40  20  22  ar  
 41  20  40  1   
 42  21  22  ar  
 43  21  41  1   
 44  22  42  1   
@<TRIPOS>SUBSTRUCTURE
  1 ****  12 GROUP 4 **** **** 0

# MOE 2024.06 (io_trps.svl 2023.06)
