@<TRIPOS>MOLECULE
NONAME
50 52 1 0 0 
SMALL
USER_CHARGES


@<TRIPOS>ATOM
  1 CL      -0.7750     0.5500     1.9400 Cl    1 <1>  -0.1770 
  2 C       -1.8650    -0.2300     0.8120 C.ar  1 <1>   0.1770 
  3 C       -1.4080    -1.2250    -0.0450 C.ar  1 <1>   0.0830 
  4 C       -3.1870     0.1710     0.7960 C.ar  1 <1>  -0.1500 
  5 O       -0.1170    -1.6320    -0.0480 O.3   1 <1>  -0.3630 
  6 C       -2.2950    -1.8040    -0.9370 C.ar  1 <1>  -0.1500 
  7 C       -4.0860    -0.4160    -0.0860 C.ar  1 <1>   0.1170 
  8 C        0.2330    -2.5640     0.9500 C.3   1 <1>   0.0400 
  9 C       -3.6200    -1.4030    -0.9540 C.ar  1 <1>  -0.1500 
 10 N       -5.4190     0.0220    -0.0800 N.am  1 <1>  -0.5470 
 11 C       -6.5810    -0.6130    -0.4180 C.2   1 <1>   0.6900 
 12 O       -6.5750    -1.7670    -0.8060 O.2   1 <1>  -0.5700 
 13 N       -7.7680     0.0700    -0.3110 N.am  1 <1>  -0.6600 
 14 C       -9.0050    -0.5090    -0.9150 C.3   1 <1>   0.1400 
 15 C       -7.9250     1.3440     0.4550 C.3   1 <1>   0.1400 
 16 C       -9.9710     0.6100    -1.3090 C.3   1 <1>  -0.1600 
 17 C       -9.3430     1.4370     1.0180 C.3   1 <1>  -0.1600 
 18 C      -10.3990     1.4850    -0.1020 C.3   1 <1>   0.2800 
 19 O      -10.4260     2.8230    -0.5240 O.3   1 <1>  -0.5600 
 20 C      -11.7860     1.0890     0.4770 C.3   1 <1>  -0.1600 
 21 C      -11.3470     3.1940    -1.5190 C.3   1 <1>   0.1200 
 22 C      -12.8970     2.0980     0.1730 C.3   1 <1>   0.2800 
 23 C      -12.7460     2.6140    -1.2560 C.3   1 <1>  -0.1600 
 24 O      -12.7210     3.1670     1.0130 O.3   1 <1>  -0.6800 
 25 C      -14.2890     1.5390     0.4530 C.3   1 <1>  -0.2400 
 26 H       -3.5100     0.9370     1.4740 H     1 <1>   0.1500 
 27 H       -1.9460    -2.5650    -1.6130 H     1 <1>   0.1500 
 28 H        1.2690    -2.8200     0.8220 H     1 <1>   0.0800 
 29 H       -0.3810    -3.4410     0.8380 H     1 <1>   0.0800 
 30 H        0.0820    -2.1200     1.9170 H     1 <1>   0.0800 
 31 H       -4.2950    -1.8610    -1.6540 H     1 <1>   0.1500 
 32 H       -5.5690     0.9720     0.2360 H     1 <1>   0.3700 
 33 H       -9.4680    -1.1720    -0.2040 H     1 <1>   0.0800 
 34 H       -8.7460    -1.0840    -1.7890 H     1 <1>   0.0800 
 35 H       -7.7390     2.1800    -0.1980 H     1 <1>   0.0800 
 36 H       -7.2240     1.3730     1.2710 H     1 <1>   0.0800 
 37 H      -10.8280     0.1810    -1.7940 H     1 <1>   0.0800 
 38 H       -9.4580     1.2140    -2.0370 H     1 <1>   0.0800 
 39 H       -9.4380     2.3080     1.6410 H     1 <1>   0.0800 
 40 H       -9.4980     0.5760     1.6450 H     1 <1>   0.0800 
 41 H      -11.7380     0.9530     1.5430 H     1 <1>   0.0800 
 42 H      -12.0670     0.1320     0.0800 H     1 <1>   0.0800 
 43 H      -10.9740     2.8790    -2.4780 H     1 <1>   0.0800 
 44 H      -11.3930     4.2690    -1.5130 H     1 <1>   0.0800 
 45 H      -12.9130     1.8010    -1.9390 H     1 <1>   0.0800 
 46 H      -13.4950     3.3560    -1.4660 H     1 <1>   0.0800 
 47 H      -11.8210     3.5140     0.8340 H     1 <1>   0.4000 
 48 H      -14.4910     0.7010    -0.1880 H     1 <1>   0.0800 
 49 H      -15.0350     2.2930     0.2750 H     1 <1>   0.0800 
 50 H      -14.3590     1.2130     1.4750 H     1 <1>   0.0800 
@<TRIPOS>BOND
  1   1   2  1   
  2   2   3  ar  
  3   2   4  ar  
  4   3   5  1   
  5   3   6  ar  
  6   4   7  ar  
  7   4  26  1   
  8   5   8  1   
  9   6   9  ar  
 10   6  27  1   
 11   7   9  ar  
 12   7  10  1   
 13   8  28  1   
 14   8  29  1   
 15   8  30  1   
 16   9  31  1   
 17  10  11  am  
 18  10  32  1   
 19  11  12  2   
 20  11  13  am  
 21  13  14  1   
 22  13  15  1   
 23  14  16  1   
 24  14  33  1   
 25  14  34  1   
 26  15  17  1   
 27  15  35  1   
 28  15  36  1   
 29  16  18  1   
 30  16  37  1   
 31  16  38  1   
 32  17  18  1   
 33  17  39  1   
 34  17  40  1   
 35  18  19  1   
 36  18  20  1   
 37  19  21  1   
 38  20  22  1   
 39  20  41  1   
 40  20  42  1   
 41  21  23  1   
 42  21  43  1   
 43  21  44  1   
 44  22  23  1   
 45  22  24  1   
 46  22  25  1   
 47  23  45  1   
 48  23  46  1   
 49  24  47  1   
 50  25  48  1   
 51  25  49  1   
 52  25  50  1   
@<TRIPOS>SUBSTRUCTURE
  1 ****  13 GROUP 4 **** **** 0

# MOE 2024.06 (io_trps.svl 2023.06)
