@<TRIPOS>MOLECULE
NONAME
32 32 1 0 0 
SMALL
USER_CHARGES


@<TRIPOS>ATOM
  1 O       -1.4680    -0.2420    -1.2430 O.2   1 <1>  -0.5700 
  2 C       -1.4490    -0.3100    -0.0320 C.2   1 <1>   0.7800 
  3 O       -1.8370     0.7000     0.7400 O.3   1 <1>  -0.4300 
  4 N       -1.0350    -1.4020     0.6370 N.am  1 <1>  -0.7300 
  5 C       -2.3110     1.9610     0.3160 C.3   1 <1>   0.2800 
  6 C       -0.3490    -2.5660     0.0540 C.3   1 <1>   0.5000 
  7 C       -1.2210     2.6990    -0.4700 C.3   1 <1>  -0.2400 
  8 C       -2.6100     2.7290     1.6040 C.3   1 <1>  -0.2400 
  9 C       -3.6060     1.7990    -0.4880 C.3   1 <1>  -0.2400 
 10 C        1.0060    -2.1510    -0.4220 C.1   1 <1>  -0.2000 
 11 C       -1.2000    -3.2890    -1.0050 C.3   1 <1>   0.1200 
 12 C       -0.2510    -3.6360     1.1240 C.3   1 <1>  -0.1600 
 13 C        2.0810    -1.8140    -0.8030 C.1   1 <1>  -0.1770 
 14 O       -1.8920    -4.3300    -0.3630 O.3   1 <1>  -0.5600 
 15 C       -1.5770    -4.3690     0.9900 C.3   1 <1>   0.1200 
 16 H       -0.9290    -1.2920     1.6390 H     1 <1>   0.3700 
 17 H       -0.3080     2.7320     0.0950 H     1 <1>   0.0800 
 18 H       -1.5330     3.7080    -0.6710 H     1 <1>   0.0800 
 19 H       -1.0350     2.2240    -1.4160 H     1 <1>   0.0800 
 20 H       -1.7170     2.8320     2.1940 H     1 <1>   0.0800 
 21 H       -3.3560     2.2130     2.1820 H     1 <1>   0.0800 
 22 H       -2.9810     3.7120     1.3750 H     1 <1>   0.0800 
 23 H       -3.4190     1.3250    -1.4340 H     1 <1>   0.0800 
 24 H       -4.0360     2.7630    -0.6890 H     1 <1>   0.0800 
 25 H       -4.3190     1.2160     0.0650 H     1 <1>   0.0800 
 26 H       -0.5670    -3.7400    -1.7490 H     1 <1>   0.0800 
 27 H       -1.9090    -2.6420    -1.4870 H     1 <1>   0.0800 
 28 H       -0.0870    -3.2440     2.1100 H     1 <1>   0.0800 
 29 H        0.5400    -4.3260     0.8880 H     1 <1>   0.0800 
 30 H        3.0480    -1.4990    -1.1550 H     1 <1>   0.1770 
 31 H       -2.3610    -3.8570     1.5220 H     1 <1>   0.0800 
 32 H       -1.5210    -5.3950     1.3110 H     1 <1>   0.0800 
@<TRIPOS>BOND
  1   1   2  2   
  2   2   3  1   
  3   2   4  am  
  4   3   5  1   
  5   4   6  1   
  6   4  16  1   
  7   5   7  1   
  8   5   8  1   
  9   5   9  1   
 10   6  10  1   
 11   6  11  1   
 12   6  12  1   
 13   7  17  1   
 14   7  18  1   
 15   7  19  1   
 16   8  20  1   
 17   8  21  1   
 18   8  22  1   
 19   9  23  1   
 20   9  24  1   
 21   9  25  1   
 22  10  13  3   
 23  11  14  1   
 24  11  26  1   
 25  11  27  1   
 26  12  15  1   
 27  12  28  1   
 28  12  29  1   
 29  13  30  1   
 30  14  15  1   
 31  15  31  1   
 32  15  32  1   
@<TRIPOS>SUBSTRUCTURE
  1 ****   2 GROUP 4 **** **** 0

# MOE 2024.06 (io_trps.svl 2023.06)
