@<TRIPOS>MOLECULE
NONAME
43 45 1 0 0 
SMALL
USER_CHARGES


@<TRIPOS>ATOM
  1 F       -0.2070     0.8120    -0.5270 F     1 <1>  -0.1900 
  2 C        0.0180     2.0340    -0.1320 C.ar  1 <1>   0.1900 
  3 C       -0.9370     3.0020    -0.3740 C.ar  1 <1>  -0.1500 
  4 C        1.2040     2.3180     0.5150 C.ar  1 <1>  -0.1500 
  5 C       -0.7010     4.3040     0.0390 C.ar  1 <1>  -0.1440 
  6 C        1.4330     3.6190     0.9230 C.ar  1 <1>  -0.1500 
  7 C        0.4990     4.6320     0.6890 C.ar  1 <1>   0.0860 
  8 C       -1.7610     5.3690    -0.2100 C.3   1 <1>  -0.0960 
  9 C        0.8060     5.9850     1.1060 C.2   1 <1>   0.5440 
 10 O        0.6070     6.3110     2.2620 O.2   1 <1>  -0.5700 
 11 N        1.3500     6.9190     0.2370 N.am  1 <1>  -0.6600 
 12 C        1.7200     8.2730     0.7640 C.3   1 <1>   0.1400 
 13 C        1.8660     6.5280    -1.1130 C.3   1 <1>   0.1400 
 14 C        3.2300     8.4240     1.0890 C.3   1 <1>   0.4230 
 15 C        3.3690     6.8130    -1.3340 C.3   1 <1>  -0.0800 
 16 N        4.0460     8.9100    -0.0850 N.4   1 <1>  -0.9590 
 17 C        3.8920     7.1640     1.7120 C.3   1 <1>   0.1200 
 18 C        4.3410     6.0430    -0.4130 C.3   1 <1>   0.1200 
 19 C        3.6530     8.3160    -1.3970 C.3   1 <1>   0.3430 
 20 C        4.0530    10.4030    -0.1660 C.3   1 <1>   0.2630 
 21 O        3.9140     6.0060     0.9120 O.3   1 <1>  -0.5600 
 22 H       -1.8470     2.7260    -0.8750 H     1 <1>   0.1500 
 23 H        1.9220     1.5390     0.6950 H     1 <1>   0.1500 
 24 H        2.3490     3.8670     1.4330 H     1 <1>   0.1500 
 25 H       -2.6460     4.9400    -0.6450 H     1 <1>   0.0800 
 26 H       -1.3830     6.1220    -0.8780 H     1 <1>   0.0800 
 27 H       -2.0360     5.8370     0.7190 H     1 <1>   0.0800 
 28 H        1.4070     9.0270     0.0660 H     1 <1>   0.0800 
 29 H        1.1730     8.4650     1.6710 H     1 <1>   0.0800 
 30 H        1.7030     5.4780    -1.2830 H     1 <1>   0.0800 
 31 H        1.2880     7.0520    -1.8560 H     1 <1>   0.0800 
 32 H        3.2900     9.1860     1.8480 H     1 <1>   0.0800 
 33 H        3.5720     6.4580    -2.3280 H     1 <1>   0.0800 
 34 H        5.0070     8.5940     0.1070 H     1 <1>   0.4500 
 35 H        3.3490     6.9010     2.6050 H     1 <1>   0.0800 
 36 H        4.9040     7.3820     2.0030 H     1 <1>   0.0800 
 37 H        5.3410     6.4410    -0.4480 H     1 <1>   0.0800 
 38 H        4.3850     5.0170    -0.7360 H     1 <1>   0.0800 
 39 H        2.7750     8.8150    -1.7750 H     1 <1>   0.0800 
 40 H        4.4500     8.4860    -2.1030 H     1 <1>   0.0800 
 41 H        3.0590    10.7740    -0.3580 H     1 <1>   0.0800 
 42 H        4.7030    10.7330    -0.9620 H     1 <1>   0.0800 
 43 H        4.4070    10.8290     0.7600 H     1 <1>   0.0800 
@<TRIPOS>BOND
  1   1   2  1   
  2   2   3  ar  
  3   2   4  ar  
  4   3   5  ar  
  5   3  22  1   
  6   4   6  ar  
  7   4  23  1   
  8   5   7  ar  
  9   5   8  1   
 10   6   7  ar  
 11   6  24  1   
 12   7   9  1   
 13   8  25  1   
 14   8  26  1   
 15   8  27  1   
 16   9  10  2   
 17   9  11  am  
 18  11  12  1   
 19  11  13  1   
 20  12  14  1   
 21  12  28  1   
 22  12  29  1   
 23  13  15  1   
 24  13  30  1   
 25  13  31  1   
 26  14  16  1   
 27  14  17  1   
 28  14  32  1   
 29  15  18  1   
 30  15  19  1   
 31  15  33  1   
 32  16  19  1   
 33  16  20  1   
 34  16  34  1   
 35  17  21  1   
 36  17  35  1   
 37  17  36  1   
 38  18  21  1   
 39  18  37  1   
 40  18  38  1   
 41  19  39  1   
 42  19  40  1   
 43  20  41  1   
 44  20  42  1   
 45  20  43  1   
@<TRIPOS>SUBSTRUCTURE
  1 ****  11 GROUP 4 **** **** 0

# MOE 2024.06 (io_trps.svl 2023.06)
