@<TRIPOS>MOLECULE
NONAME
51 53 1 0 0 
SMALL
USER_CHARGES


@<TRIPOS>ATOM
  1 O       -0.4070     0.7300     0.7470 O.2   1 <1>  -0.5700 
  2 C       -0.3510     1.9340     0.6610 C.2   1 <1>   0.5690 
  3 N       -1.3610     2.7480     1.1000 N.am  1 <1>  -0.6600 
  4 C        0.8870     2.5500     0.0040 C.3   1 <1>   0.1810 
  5 C       -1.2740     4.2380     0.9550 C.3   1 <1>   0.3640 
  6 C       -2.5240     2.2310     1.8790 C.3   1 <1>   0.0600 
  7 O        1.0830     3.9020     0.3410 O.3   1 <1>  -0.5600 
  8 C       -2.5680     4.8230     0.3620 C.ar  1 <1>  -0.1430 
  9 C       -0.0520     4.7230     0.1320 C.3   1 <1>   0.2610 
 10 C       -3.2100     4.3490    -0.7890 C.ar  1 <1>  -0.1430 
 11 C       -3.1150     5.9130     1.0300 C.ar  1 <1>  -0.1500 
 12 C        0.2810     6.1980     0.4260 C.2   1 <1>   0.5690 
 13 C       -4.3700     4.9730    -1.2270 C.ar  1 <1>  -0.1500 
 14 C       -2.7210     3.1590    -1.6090 C.3   1 <1>  -0.0960 
 15 C       -4.2690     6.5260     0.5830 C.ar  1 <1>  -0.1500 
 16 O       -0.0200     6.6670     1.5030 O.2   1 <1>  -0.5700 
 17 N        0.9050     6.9800    -0.5230 N.am  1 <1>  -0.6600 
 18 C       -4.8990     6.0540    -0.5500 C.ar  1 <1>  -0.1500 
 19 C        1.0660     8.4470    -0.3070 C.3   1 <1>   0.1400 
 20 C        1.4910     6.4620    -1.7910 C.3   1 <1>   0.0600 
 21 C        2.3360     8.7350     0.4950 C.3   1 <1>   0.0210 
 22 C        2.5780    10.2260     0.5720 C.2   1 <1>   0.3350 
 23 N        2.5270    10.9260     1.6340 N.2   1 <1>  -0.4100 
 24 N        2.8730    10.9290    -0.5130 N.2   1 <1>  -0.5650 
 25 O        2.7920    12.1510     1.2960 O.3   1 <1>  -0.0190 
 26 C        2.9900    12.0850     0.0040 C.2   1 <1>   0.2980 
 27 C        3.3300    13.3520    -0.7460 C.3   1 <1>  -0.0600 
 28 H        0.8010     2.4730    -1.0640 H     1 <1>   0.0800 
 29 H        1.7580     2.0070     0.3210 H     1 <1>   0.0800 
 30 H       -1.1610     4.6190     1.9550 H     1 <1>   0.0800 
 31 H       -3.4400     2.4410     1.3560 H     1 <1>   0.0800 
 32 H       -2.5540     2.7040     2.8450 H     1 <1>   0.0800 
 33 H       -2.4460     1.1670     2.0190 H     1 <1>   0.0800 
 34 H       -0.3020     4.6600    -0.9080 H     1 <1>   0.0800 
 35 H       -2.6380     6.3040     1.9140 H     1 <1>   0.1500 
 36 H       -4.8790     4.6170    -2.1060 H     1 <1>   0.1500 
 37 H       -3.1900     3.1390    -2.5760 H     1 <1>   0.0800 
 38 H       -2.9660     2.2420    -1.1030 H     1 <1>   0.0800 
 39 H       -1.6620     3.1950    -1.7650 H     1 <1>   0.0800 
 40 H       -4.6720     7.3700     1.1150 H     1 <1>   0.1500 
 41 H       -5.8000     6.5260    -0.9030 H     1 <1>   0.1500 
 42 H        1.1100     8.9490    -1.2580 H     1 <1>   0.0800 
 43 H        0.2140     8.8320     0.2290 H     1 <1>   0.0800 
 44 H        2.3850     7.0100    -2.0340 H     1 <1>   0.0800 
 45 H        0.7820     6.5810    -2.5930 H     1 <1>   0.0800 
 46 H        1.7530     5.4240    -1.6970 H     1 <1>   0.0800 
 47 H        3.1840     8.2750     0.0240 H     1 <1>   0.0800 
 48 H        2.2320     8.3390     1.4890 H     1 <1>   0.0800 
 49 H        3.4620    13.1360    -1.7900 H     1 <1>   0.0800 
 50 H        4.2390    13.7700    -0.3550 H     1 <1>   0.0800 
 51 H        2.5340    14.0650    -0.6320 H     1 <1>   0.0800 
@<TRIPOS>BOND
  1   1   2  2   
  2   2   3  am  
  3   2   4  1   
  4   3   5  1   
  5   3   6  1   
  6   4   7  1   
  7   4  28  1   
  8   4  29  1   
  9   5   8  1   
 10   5   9  1   
 11   5  30  1   
 12   6  31  1   
 13   6  32  1   
 14   6  33  1   
 15   7   9  1   
 16   8  10  ar  
 17   8  11  ar  
 18   9  12  1   
 19   9  34  1   
 20  10  13  ar  
 21  10  14  1   
 22  11  15  ar  
 23  11  35  1   
 24  12  16  2   
 25  12  17  am  
 26  13  18  ar  
 27  13  36  1   
 28  14  37  1   
 29  14  38  1   
 30  14  39  1   
 31  15  18  ar  
 32  15  40  1   
 33  17  19  1   
 34  17  20  1   
 35  18  41  1   
 36  19  21  1   
 37  19  42  1   
 38  19  43  1   
 39  20  44  1   
 40  20  45  1   
 41  20  46  1   
 42  21  22  1   
 43  21  47  1   
 44  21  48  1   
 45  22  23  2   
 46  22  24  1   
 47  23  25  1   
 48  24  26  2   
 49  25  26  1   
 50  26  27  1   
 51  27  49  1   
 52  27  50  1   
 53  27  51  1   
@<TRIPOS>SUBSTRUCTURE
  1 ****  12 GROUP 4 **** **** 0

# MOE 2024.06 (io_trps.svl 2023.06)
