@<TRIPOS>MOLECULE
NONAME
50 54 1 0 0 
SMALL
USER_CHARGES


@<TRIPOS>ATOM
  1 F       -1.1070     0.2290    -1.5170 F     1 <1>  -0.1370 
  2 C       -1.9270     0.5700    -0.5540 C.2   1 <1>  -0.0150 
  3 N       -2.0570     1.8460    -0.1870 N.pl3 1 <1>   0.3340 
  4 C       -2.7410    -0.2380     0.1810 C.2   1 <1>   0.1410 
  5 C       -3.0020     1.7790     0.8120 C.2   1 <1>   0.1410 
  6 C       -1.4970     3.0550    -0.5830 C.2   1 <1>  -0.1810 
  7 N       -3.4300     0.5580     1.0520 N.2   1 <1>  -0.5650 
  8 C       -2.8550    -1.6880     0.0860 C.2   1 <1>   0.7160 
  9 C       -3.3950     2.9870     1.4430 C.2   1 <1>  -0.1050 
 10 C       -1.8760     4.2130     0.0200 C.2   1 <1>  -0.1380 
 11 O       -1.9010    -2.3420    -0.3000 O.2   1 <1>  -0.5700 
 12 N       -4.0110    -2.3800     0.4070 N.am  1 <1>  -0.6600 
 13 C       -2.8480     4.1740     1.0590 C.2   1 <1>  -0.1500 
 14 C       -1.2950     5.5580    -0.3750 C.3   1 <1>  -0.1020 
 15 C       -4.0290    -3.8650     0.6100 C.3   1 <1>   0.1400 
 16 C       -5.3710    -1.7620     0.4860 C.3   1 <1>   0.1400 
 17 C       -5.1230    -4.5350    -0.2400 C.3   1 <1>   0.3430 
 18 C       -6.3990    -2.5620    -0.3390 C.3   1 <1>   0.2950 
 19 O       -6.3610    -3.9180    -0.0040 O.3   1 <1>  -0.5600 
 20 C       -5.2220    -6.0230     0.0850 C.ar  1 <1>  -0.1440 
 21 C       -7.8270    -2.0670    -0.0880 C.3   1 <1>  -0.1950 
 22 C       -6.0420    -6.4900     1.1040 C.ar  1 <1>  -0.1500 
 23 C       -4.4680    -6.9350    -0.6410 C.ar  1 <1>  -0.1500 
 24 C       -8.9180    -2.3110    -1.0820 C.3   1 <1>  -0.2000 
 25 C       -8.3940    -0.9190    -0.8640 C.3   1 <1>  -0.2000 
 26 C       -6.1070    -7.8420     1.3920 C.ar  1 <1>  -0.1500 
 27 C       -4.5310    -8.2880    -0.3540 C.ar  1 <1>  -0.1500 
 28 C       -5.3510    -8.7420     0.6630 C.ar  1 <1>  -0.1500 
 29 H       -0.7700     3.0030    -1.3720 H     1 <1>   0.1500 
 30 H       -4.1300     2.9210     2.2250 H     1 <1>   0.1500 
 31 H       -3.1360     5.0990     1.5290 H     1 <1>   0.1500 
 32 H       -0.8050     6.0090     0.4700 H     1 <1>   0.0800 
 33 H       -2.0790     6.2120    -0.7130 H     1 <1>   0.0800 
 34 H       -0.5760     5.4460    -1.1670 H     1 <1>   0.0800 
 35 H       -3.0770    -4.3010     0.3600 H     1 <1>   0.0800 
 36 H       -4.2170    -4.0760     1.6480 H     1 <1>   0.0800 
 37 H       -5.6830    -1.7270     1.5150 H     1 <1>   0.0800 
 38 H       -5.3560    -0.7550     0.1110 H     1 <1>   0.0800 
 39 H       -4.8890    -4.4190    -1.2840 H     1 <1>   0.0800 
 40 H       -6.1700    -2.4710    -1.3870 H     1 <1>   0.0800 
 41 H       -8.0940    -2.1300     0.9530 H     1 <1>   0.1000 
 42 H       -6.6370    -5.7970     1.6750 H     1 <1>   0.1500 
 43 H       -3.8250    -6.5970    -1.4350 H     1 <1>   0.1500 
 44 H       -8.6770    -2.8280    -1.9940 H     1 <1>   0.1000 
 45 H       -9.8960    -2.5680    -0.7110 H     1 <1>   0.1000 
 46 H       -9.0200    -0.2070    -0.3530 H     1 <1>   0.1000 
 47 H       -7.8130    -0.4660    -1.6490 H     1 <1>   0.1000 
 48 H       -6.7470    -8.1920     2.1830 H     1 <1>   0.1500 
 49 H       -3.9440    -8.9870    -0.9230 H     1 <1>   0.1500 
 50 H       -5.4010    -9.7930     0.8870 H     1 <1>   0.1500 
@<TRIPOS>BOND
  1   1   2  1   
  2   2   3  1   
  3   2   4  2   
  4   3   5  1   
  5   3   6  1   
  6   4   7  1   
  7   4   8  1   
  8   5   7  2   
  9   5   9  1   
 10   6  10  2   
 11   6  29  1   
 12   8  11  2   
 13   8  12  am  
 14   9  13  2   
 15   9  30  1   
 16  10  13  1   
 17  10  14  1   
 18  12  15  1   
 19  12  16  1   
 20  13  31  1   
 21  14  32  1   
 22  14  33  1   
 23  14  34  1   
 24  15  17  1   
 25  15  35  1   
 26  15  36  1   
 27  16  18  1   
 28  16  37  1   
 29  16  38  1   
 30  17  19  1   
 31  17  20  1   
 32  17  39  1   
 33  18  19  1   
 34  18  21  1   
 35  18  40  1   
 36  20  22  ar  
 37  20  23  ar  
 38  21  24  1   
 39  21  25  1   
 40  21  41  1   
 41  22  26  ar  
 42  22  42  1   
 43  23  27  ar  
 44  23  43  1   
 45  24  25  1   
 46  24  44  1   
 47  24  45  1   
 48  25  46  1   
 49  25  47  1   
 50  26  28  ar  
 51  26  48  1   
 52  27  28  ar  
 53  27  49  1   
 54  28  50  1   
@<TRIPOS>SUBSTRUCTURE
  1 ****  12 GROUP 4 **** **** 0

# MOE 2024.06 (io_trps.svl 2023.06)
