@<TRIPOS>MOLECULE
NONAME
53 55 1 0 0 
SMALL
USER_CHARGES


@<TRIPOS>ATOM
  1 O       -1.8080    -0.1750     1.8140 O.2   1 <1>  -0.5700 
  2 C       -1.9170     0.4670     0.7850 C.2   1 <1>   0.5440 
  3 N       -2.5050    -0.1070    -0.3180 N.am  1 <1>  -0.6600 
  4 C       -1.4090     1.8220     0.7250 C.ar  1 <1>   0.0860 
  5 C       -2.6260    -1.5960    -0.4060 C.3   1 <1>   0.3640 
  6 C       -2.9940     0.7240    -1.4590 C.3   1 <1>   0.1400 
  7 C       -0.1700     2.1250     0.1430 C.ar  1 <1>  -0.1440 
  8 C       -2.1830     2.8630     1.2370 C.ar  1 <1>  -0.1500 
  9 C       -1.2410    -2.1470    -0.7690 C.ar  1 <1>  -0.1440 
 10 C       -3.7500    -2.1120    -1.3580 C.3   1 <1>   0.2000 
 11 C       -3.7520    -0.0740    -2.5300 C.3   1 <1>   0.1200 
 12 C        0.2270     3.4560     0.0560 C.ar  1 <1>   0.0830 
 13 C        0.7210     0.9940    -0.3820 C.3   1 <1>  -0.0970 
 14 C       -1.7690     4.1790     1.1570 C.ar  1 <1>  -0.1500 
 15 C       -0.4510    -2.6690     0.2450 C.ar  1 <1>  -0.1500 
 16 C       -0.7310    -2.1130    -2.0590 C.ar  1 <1>  -0.1500 
 17 O       -4.5100    -1.0830    -1.9420 O.3   1 <1>  -0.5600 
 18 C       -4.7380    -3.0320    -0.6280 C.3   1 <1>   0.1200 
 19 O        1.3880     3.7970    -0.5250 O.3   1 <1>  -0.5320 
 20 C       -0.5610     4.4760     0.5580 C.ar  1 <1>  -0.1500 
 21 C        0.8330    -3.1480    -0.0010 C.ar  1 <1>   0.0830 
 22 C        0.5330    -2.6040    -2.3250 C.ar  1 <1>  -0.1500 
 23 O       -4.0840    -4.1520    -0.1210 O.3   1 <1>  -0.6800 
 24 O        1.6190    -3.6000     1.0200 O.3   1 <1>  -0.3630 
 25 C        1.3220    -3.1320    -1.3170 C.ar  1 <1>   0.0830 
 26 C        1.3400    -3.2620     2.3630 C.3   1 <1>   0.0400 
 27 O        2.5410    -3.5880    -1.7220 O.3   1 <1>  -0.3630 
 28 C        3.1670    -4.6700    -1.0690 C.3   1 <1>   0.0400 
 29 H       -2.8670    -1.9600     0.5780 H     1 <1>   0.0800 
 30 H       -3.6560     1.4770    -1.0700 H     1 <1>   0.0800 
 31 H       -2.1620     1.2280    -1.9190 H     1 <1>   0.0800 
 32 H       -3.1240     2.6270     1.7040 H     1 <1>   0.1500 
 33 H       -3.3170    -2.6730    -2.1650 H     1 <1>   0.0800 
 34 H       -3.0790    -0.5120    -3.2430 H     1 <1>   0.0800 
 35 H       -4.4250     0.5770    -3.0610 H     1 <1>   0.0800 
 36 H        0.6070     0.1060     0.2140 H     1 <1>   0.0800 
 37 H        1.7620     1.2550    -0.3450 H     1 <1>   0.0800 
 38 H        0.4550     0.7550    -1.3970 H     1 <1>   0.0800 
 39 H       -2.3810     4.9680     1.5580 H     1 <1>   0.1500 
 40 H       -0.8570    -2.6790     1.2400 H     1 <1>   0.1500 
 41 H       -1.3040    -1.7030    -2.8680 H     1 <1>   0.1500 
 42 H       -5.5090    -3.3670    -1.2990 H     1 <1>   0.0800 
 43 H       -5.1850    -2.5090     0.2010 H     1 <1>   0.0800 
 44 H        1.8890     3.0270    -0.8420 H     1 <1>   0.4500 
 45 H       -0.2230     5.4940     0.4790 H     1 <1>   0.1500 
 46 H        0.9220    -2.5820    -3.3270 H     1 <1>   0.1500 
 47 H       -3.7760    -4.7390    -0.8400 H     1 <1>   0.4000 
 48 H        2.1770    -3.5640     2.9650 H     1 <1>   0.0800 
 49 H        0.4560    -3.7860     2.6790 H     1 <1>   0.0800 
 50 H        1.2010    -2.1970     2.4350 H     1 <1>   0.0800 
 51 H        3.8990    -5.0870    -1.7360 H     1 <1>   0.0800 
 52 H        2.4260    -5.4110    -0.8230 H     1 <1>   0.0800 
 53 H        3.6510    -4.3060    -0.1800 H     1 <1>   0.0800 
@<TRIPOS>BOND
  1   1   2  2   
  2   2   3  am  
  3   2   4  1   
  4   3   5  1   
  5   3   6  1   
  6   4   7  ar  
  7   4   8  ar  
  8   5   9  1   
  9   5  10  1   
 10   5  29  1   
 11   6  11  1   
 12   6  30  1   
 13   6  31  1   
 14   7  12  ar  
 15   7  13  1   
 16   8  14  ar  
 17   8  32  1   
 18   9  15  ar  
 19   9  16  ar  
 20  10  17  1   
 21  10  18  1   
 22  10  33  1   
 23  11  17  1   
 24  11  34  1   
 25  11  35  1   
 26  12  19  1   
 27  12  20  ar  
 28  13  36  1   
 29  13  37  1   
 30  13  38  1   
 31  14  20  ar  
 32  14  39  1   
 33  15  21  ar  
 34  15  40  1   
 35  16  22  ar  
 36  16  41  1   
 37  18  23  1   
 38  18  42  1   
 39  18  43  1   
 40  19  44  1   
 41  20  45  1   
 42  21  24  1   
 43  21  25  ar  
 44  22  25  ar  
 45  22  46  1   
 46  23  47  1   
 47  24  26  1   
 48  25  27  1   
 49  26  48  1   
 50  26  49  1   
 51  26  50  1   
 52  27  28  1   
 53  28  51  1   
 54  28  52  1   
 55  28  53  1   
@<TRIPOS>SUBSTRUCTURE
  1 ****   9 GROUP 4 **** **** 0

# MOE 2024.06 (io_trps.svl 2023.06)
