@<TRIPOS>MOLECULE
NONAME
47 49 1 0 0 
SMALL
USER_CHARGES


@<TRIPOS>ATOM
  1 CL      -0.5360    -1.4340    -2.6120 Cl    1 <1>  -0.1770 
  2 C       -0.4430    -2.7220    -1.4410 C.ar  1 <1>   0.1770 
  3 C       -1.5510    -3.0130    -0.6680 C.ar  1 <1>  -0.1500 
  4 C        0.7330    -3.4320    -1.3050 C.ar  1 <1>  -0.1500 
  5 C       -1.5070    -4.0420     0.2660 C.ar  1 <1>  -0.0090 
  6 C        0.7960    -4.4520    -0.3730 C.ar  1 <1>  -0.1500 
  7 S       -2.9560    -4.4400     1.2800 S.o2  1 <1>   1.4470 
  8 C       -0.3140    -4.7480     0.4020 C.ar  1 <1>  -0.1500 
  9 O       -2.9130    -5.8240     1.7130 O.2   1 <1>  -0.6500 
 10 O       -3.1950    -3.3950     2.2460 O.2   1 <1>  -0.6500 
 11 N       -4.2380    -4.3940     0.1640 N.am  1 <1>  -0.8490 
 12 C       -4.3230    -5.6250    -0.6510 C.3   1 <1>   0.1960 
 13 C       -5.5080    -3.9990     0.8250 C.3   1 <1>   0.1960 
 14 C       -5.2950    -6.6110     0.0280 C.3   1 <1>   0.4230 
 15 C       -6.7450    -4.5410     0.0880 C.3   1 <1>  -0.1600 
 16 N       -5.1220    -8.0860    -0.2560 N.4   1 <1>  -0.9590 
 17 C       -6.7510    -6.0940    -0.0840 C.3   1 <1>   0.0000 
 18 C       -6.2790    -8.9070     0.2450 C.3   1 <1>   0.3430 
 19 C       -4.7800    -8.4360    -1.6730 C.3   1 <1>   0.2630 
 20 C       -7.5440    -6.7930     1.0540 C.3   1 <1>  -0.1600 
 21 C       -7.3750    -6.4240    -1.4690 C.3   1 <1>   0.1200 
 22 C       -7.0150    -8.2080     1.4000 C.3   1 <1>  -0.1600 
 23 O       -8.6030    -5.8040    -1.6270 O.3   1 <1>  -0.6800 
 24 H       -2.4480    -2.4320    -0.7970 H     1 <1>   0.1500 
 25 H        1.5820    -3.1860    -1.9180 H     1 <1>   0.1500 
 26 H        1.7090    -5.0120    -0.2500 H     1 <1>   0.1500 
 27 H       -0.2490    -5.5410     1.1290 H     1 <1>   0.1500 
 28 H       -4.6850    -5.3660    -1.6310 H     1 <1>   0.0800 
 29 H       -3.3460    -6.0640    -0.7620 H     1 <1>   0.0800 
 30 H       -5.5290    -4.3720     1.8370 H     1 <1>   0.0800 
 31 H       -5.5530    -2.9230     0.8810 H     1 <1>   0.0800 
 32 H       -5.0570    -6.5140     1.0750 H     1 <1>   0.0800 
 33 H       -7.6350    -4.2200     0.6010 H     1 <1>   0.0800 
 34 H       -6.7650    -4.0540    -0.8740 H     1 <1>   0.0800 
 35 H       -4.3130    -8.3560     0.3270 H     1 <1>   0.4500 
 36 H       -6.9820    -9.0720    -0.5550 H     1 <1>   0.0800 
 37 H       -5.9270    -9.8740     0.5710 H     1 <1>   0.0800 
 38 H       -5.5800    -8.1590    -2.3380 H     1 <1>   0.0800 
 39 H       -4.6130    -9.4980    -1.7640 H     1 <1>   0.0800 
 40 H       -3.8810    -7.9270    -1.9820 H     1 <1>   0.0800 
 41 H       -7.4890    -6.2000     1.9520 H     1 <1>   0.0800 
 42 H       -8.5870    -6.8530     0.7960 H     1 <1>   0.0800 
 43 H       -7.5330    -7.4770    -1.6090 H     1 <1>   0.0800 
 44 H       -6.7470    -6.0630    -2.2650 H     1 <1>   0.0800 
 45 H       -7.8400    -8.8250     1.7150 H     1 <1>   0.0800 
 46 H       -6.3430    -8.1450     2.2390 H     1 <1>   0.0800 
 47 H       -9.2680    -6.1220    -0.9840 H     1 <1>   0.4000 
@<TRIPOS>BOND
  1   1   2  1   
  2   2   3  ar  
  3   2   4  ar  
  4   3   5  ar  
  5   3  24  1   
  6   4   6  ar  
  7   4  25  1   
  8   5   7  1   
  9   5   8  ar  
 10   6   8  ar  
 11   6  26  1   
 12   7   9  2   
 13   7  10  2   
 14   7  11  am  
 15   8  27  1   
 16  11  12  1   
 17  11  13  1   
 18  12  14  1   
 19  12  28  1   
 20  12  29  1   
 21  13  15  1   
 22  13  30  1   
 23  13  31  1   
 24  14  16  1   
 25  14  17  1   
 26  14  32  1   
 27  15  17  1   
 28  15  33  1   
 29  15  34  1   
 30  16  18  1   
 31  16  19  1   
 32  16  35  1   
 33  17  20  1   
 34  17  21  1   
 35  18  22  1   
 36  18  36  1   
 37  18  37  1   
 38  19  38  1   
 39  19  39  1   
 40  19  40  1   
 41  20  22  1   
 42  20  41  1   
 43  20  42  1   
 44  21  23  1   
 45  21  43  1   
 46  21  44  1   
 47  22  45  1   
 48  22  46  1   
 49  23  47  1   
@<TRIPOS>SUBSTRUCTURE
  1 ****  12 GROUP 4 **** **** 0

# MOE 2024.06 (io_trps.svl 2023.06)
