@<TRIPOS>MOLECULE
NONAME
52 54 1 0 0 
SMALL
USER_CHARGES


@<TRIPOS>ATOM
  1 CL      -1.3290    -0.8290    -1.7690 Cl    1 <1>  -0.1770 
  2 C       -1.9530     0.2060    -0.4990 C.ar  1 <1>   0.1770 
  3 C       -1.7590     1.5780    -0.5900 C.ar  1 <1>   0.0830 
  4 C       -2.6460    -0.3520     0.5650 C.ar  1 <1>  -0.1440 
  5 O       -1.0870     2.1260    -1.6190 O.3   1 <1>  -0.5320 
  6 C       -2.2660     2.4060     0.3960 C.ar  1 <1>  -0.1500 
  7 C       -3.1450     0.4890     1.5520 C.ar  1 <1>  -0.1500 
  8 C       -2.8570    -1.8510     0.6530 C.3   1 <1>   0.4860 
  9 C       -2.9560     1.8600     1.4640 C.ar  1 <1>  -0.1500 
 10 N       -3.8080    -2.2830    -0.4080 N.4   1 <1>  -0.9590 
 11 C       -3.9820    -3.7730    -0.3920 C.3   1 <1>   0.5660 
 12 C       -5.1320    -1.5790    -0.3300 C.3   1 <1>   0.3430 
 13 C       -2.6380    -4.4040    -0.7270 C.ar  1 <1>  -0.1430 
 14 C       -5.1030    -4.2760    -1.3430 C.3   1 <1>   0.2000 
 15 C       -6.1240    -2.1320    -1.3670 C.3   1 <1>   0.1200 
 16 C       -2.0140    -5.1940     0.2290 C.ar  1 <1>  -0.1500 
 17 C       -2.0150    -4.2050    -1.9540 C.ar  1 <1>  -0.1500 
 18 O       -6.2750    -3.5100    -1.1960 O.3   1 <1>  -0.5600 
 19 C       -5.4410    -5.7450    -1.0400 C.3   1 <1>   0.1200 
 20 C       -0.7800    -5.7680    -0.0220 C.ar  1 <1>   0.0830 
 21 C       -0.7760    -4.7690    -2.2080 C.ar  1 <1>  -0.1500 
 22 O       -5.5920    -5.9280     0.3330 O.3   1 <1>  -0.6800 
 23 O       -0.2520    -6.5380     0.9590 O.3   1 <1>  -0.3630 
 24 C       -0.1430    -5.5350    -1.2450 C.ar  1 <1>   0.0830 
 25 C       -0.0530    -7.9040     0.6600 C.3   1 <1>   0.0400 
 26 O        1.0820    -6.0250    -1.5480 O.3   1 <1>  -0.3630 
 27 C        2.1680    -5.5310    -0.7940 C.3   1 <1>   0.0400 
 28 H       -0.7010     1.4710    -2.2330 H     1 <1>   0.4500 
 29 H       -2.1150     3.4700     0.3240 H     1 <1>   0.1500 
 30 H       -3.6800     0.0940     2.4010 H     1 <1>   0.1500 
 31 H       -3.2440    -2.1080     1.6250 H     1 <1>   0.0800 
 32 H       -1.9080    -2.3490     0.5250 H     1 <1>   0.0800 
 33 H       -3.3440     2.5100     2.2330 H     1 <1>   0.1500 
 34 H       -3.3610    -2.0540    -1.3020 H     1 <1>   0.4500 
 35 H       -4.2580    -4.0740     0.6060 H     1 <1>   0.0800 
 36 H       -5.5600    -1.7090     0.6510 H     1 <1>   0.0800 
 37 H       -4.9980    -0.5220    -0.4950 H     1 <1>   0.0800 
 38 H       -4.7930    -4.1960    -2.3690 H     1 <1>   0.0800 
 39 H       -5.7920    -1.9370    -2.3730 H     1 <1>   0.0800 
 40 H       -7.0910    -1.6800    -1.2310 H     1 <1>   0.0800 
 41 H       -2.4760    -5.3870     1.1820 H     1 <1>   0.1500 
 42 H       -2.4700    -3.6130    -2.7300 H     1 <1>   0.1500 
 43 H       -4.6480    -6.3940    -1.3730 H     1 <1>   0.0800 
 44 H       -6.3570    -6.0250    -1.5330 H     1 <1>   0.0800 
 45 H       -0.2860    -4.6150    -3.1540 H     1 <1>   0.1500 
 46 H       -6.0290    -6.7870     0.5200 H     1 <1>   0.4000 
 47 H        0.2420    -8.4060     1.5640 H     1 <1>   0.0800 
 48 H        0.7220    -8.0020    -0.0780 H     1 <1>   0.0800 
 49 H       -0.9740    -8.3190     0.2920 H     1 <1>   0.0800 
 50 H        3.0730    -5.9500    -1.1960 H     1 <1>   0.0800 
 51 H        2.0550    -5.8260     0.2340 H     1 <1>   0.0800 
 52 H        2.1900    -4.4590    -0.8760 H     1 <1>   0.0800 
@<TRIPOS>BOND
  1   1   2  1   
  2   2   3  ar  
  3   2   4  ar  
  4   3   5  1   
  5   3   6  ar  
  6   4   7  ar  
  7   4   8  1   
  8   5  28  1   
  9   6   9  ar  
 10   6  29  1   
 11   7   9  ar  
 12   7  30  1   
 13   8  10  1   
 14   8  31  1   
 15   8  32  1   
 16   9  33  1   
 17  10  11  1   
 18  10  12  1   
 19  10  34  1   
 20  11  13  1   
 21  11  14  1   
 22  11  35  1   
 23  12  15  1   
 24  12  36  1   
 25  12  37  1   
 26  13  16  ar  
 27  13  17  ar  
 28  14  18  1   
 29  14  19  1   
 30  14  38  1   
 31  15  18  1   
 32  15  39  1   
 33  15  40  1   
 34  16  20  ar  
 35  16  41  1   
 36  17  21  ar  
 37  17  42  1   
 38  19  22  1   
 39  19  43  1   
 40  19  44  1   
 41  20  23  1   
 42  20  24  ar  
 43  21  24  ar  
 44  21  45  1   
 45  22  46  1   
 46  23  25  1   
 47  24  26  1   
 48  25  47  1   
 49  25  48  1   
 50  25  49  1   
 51  26  27  1   
 52  27  50  1   
 53  27  51  1   
 54  27  52  1   
@<TRIPOS>SUBSTRUCTURE
  1 ****  10 GROUP 4 **** **** 0

# MOE 2024.06 (io_trps.svl 2023.06)
