@<TRIPOS>MOLECULE
NONAME
43 45 1 0 0 
SMALL
USER_CHARGES


@<TRIPOS>ATOM
  1 O       -2.6550    -2.2700    -1.3900 O.co2 1 <1>  -0.9000 
  2 C       -3.4370    -1.2980    -1.4950 C.2   1 <1>   1.0330 
  3 O       -4.1460    -1.2750    -2.5170 O.co2 1 <1>  -0.9000 
  4 C       -3.8030    -0.5380    -0.2930 C.2   1 <1>   0.0560 
  5 N       -3.8590     0.7730    -0.1160 N.2   1 <1>  -0.7070 
  6 C       -4.2220    -1.1940     0.8810 C.2   1 <1>  -0.1810 
  7 N       -4.2980     0.9550     1.1330 N.pl3 1 <1>   0.3000 
  8 C       -4.5310    -0.2150     1.7570 C.2   1 <1>  -0.3020 
  9 C       -4.2920    -2.7030     1.1040 C.3   1 <1>   0.5240 
 10 N       -4.7260    -3.4400    -0.1090 N.4   1 <1>  -0.9590 
 11 C       -5.9690    -2.9070    -0.7470 C.3   1 <1>   0.3430 
 12 C       -4.9000    -4.8980     0.0950 C.3   1 <1>   0.3430 
 13 C       -7.0210    -4.0050    -0.5910 C.3   1 <1>   0.2000 
 14 C       -6.1760    -5.2760    -0.6560 C.3   1 <1>  -0.0800 
 15 O       -7.5950    -3.9210     0.6850 O.3   1 <1>  -0.5600 
 16 C       -6.8560    -6.5450    -0.1090 C.3   1 <1>   0.0200 
 17 C       -8.6490    -3.0130     0.7950 C.3   1 <1>   0.0400 
 18 C       -5.8710    -7.6950    -0.0270 C.2   1 <1>  -0.0400 
 19 O       -5.1540    -8.0180    -1.0700 O.3   1 <1>  -0.0190 
 20 C       -5.5370    -8.5190     0.9760 C.2   1 <1>  -0.1500 
 21 N       -4.3500    -9.0080    -0.8150 N.2   1 <1>  -0.4100 
 22 C       -4.5620    -9.3360     0.4090 C.2   1 <1>   0.1080 
 23 C       -3.8450   -10.4600     1.1250 C.3   1 <1>  -0.0590 
 24 H       -4.4270     1.8940     1.5290 H     1 <1>   0.2700 
 25 H       -4.8890    -0.2690     2.7690 H     1 <1>   0.1500 
 26 H       -4.9750    -2.9050     1.9110 H     1 <1>   0.0800 
 27 H       -3.3120    -3.0500     1.3900 H     1 <1>   0.0800 
 28 H       -3.9450    -3.2710    -0.7970 H     1 <1>   0.4500 
 29 H       -6.2900    -1.9780    -0.3070 H     1 <1>   0.0800 
 30 H       -5.7780    -2.7420    -1.7960 H     1 <1>   0.0800 
 31 H       -4.0490    -5.4510    -0.2740 H     1 <1>   0.0800 
 32 H       -5.0350    -5.1050     1.1430 H     1 <1>   0.0800 
 33 H       -7.7880    -3.9720    -1.3460 H     1 <1>   0.0800 
 34 H       -5.9020    -5.4500    -1.6830 H     1 <1>   0.0800 
 35 H       -7.6690    -6.8230    -0.7560 H     1 <1>   0.0800 
 36 H       -7.2590    -6.3740     0.8730 H     1 <1>   0.0800 
 37 H       -9.0090    -3.0380     1.8090 H     1 <1>   0.0800 
 38 H       -9.4420    -3.3030     0.1270 H     1 <1>   0.0800 
 39 H       -8.3010    -2.0210     0.5620 H     1 <1>   0.0800 
 40 H       -5.9060    -8.5720     1.9840 H     1 <1>   0.1500 
 41 H       -3.3360   -10.0770     1.9900 H     1 <1>   0.0800 
 42 H       -3.1230   -10.9110     0.4680 H     1 <1>   0.0800 
 43 H       -4.5520   -11.2080     1.4300 H     1 <1>   0.0800 
@<TRIPOS>BOND
  1   1   2  ar  
  2   2   3  ar  
  3   2   4  1   
  4   4   5  2   
  5   4   6  1   
  6   5   7  1   
  7   6   8  2   
  8   6   9  1   
  9   7   8  1   
 10   7  24  1   
 11   8  25  1   
 12   9  10  1   
 13   9  26  1   
 14   9  27  1   
 15  10  11  1   
 16  10  12  1   
 17  10  28  1   
 18  11  13  1   
 19  11  29  1   
 20  11  30  1   
 21  12  14  1   
 22  12  31  1   
 23  12  32  1   
 24  13  14  1   
 25  13  15  1   
 26  13  33  1   
 27  14  16  1   
 28  14  34  1   
 29  15  17  1   
 30  16  18  1   
 31  16  35  1   
 32  16  36  1   
 33  17  37  1   
 34  17  38  1   
 35  17  39  1   
 36  18  19  1   
 37  18  20  2   
 38  19  21  1   
 39  20  22  1   
 40  20  40  1   
 41  21  22  2   
 42  22  23  1   
 43  23  41  1   
 44  23  42  1   
 45  23  43  1   
@<TRIPOS>SUBSTRUCTURE
  1 ****  10 GROUP 4 **** **** 0

# MOE 2024.06 (io_trps.svl 2023.06)
