@<TRIPOS>MOLECULE
NONAME
56 59 1 0 0 
SMALL
USER_CHARGES


@<TRIPOS>ATOM
  1 O        2.7670     2.9840    -2.7250 O.3   1 <1>  -0.6800 
  2 C        2.4010     3.4340    -1.4730 C.3   1 <1>   0.2000 
  3 C        0.8910     3.6720    -1.4600 C.3   1 <1>  -0.1600 
  4 C        3.1670     4.7230    -1.1860 C.3   1 <1>  -0.1600 
  5 C        0.4570     4.2750    -0.1230 C.3   1 <1>   0.2090 
  6 C        2.7290     5.3150     0.1540 C.3   1 <1>   0.2090 
  7 N        1.2520     5.5020     0.1580 N.pl3 1 <1>  -0.8380 
  8 C        0.6900     6.5390     0.8790 C.ar  1 <1>   0.4100 
  9 N       -0.2940     6.2500     1.7140 N.ar  1 <1>  -0.6200 
 10 C        1.1340     7.8330     0.7400 C.ar  1 <1>  -0.1500 
 11 C       -0.7920     7.2710     2.3830 C.ar  1 <1>   0.4700 
 12 C        0.5330     8.8120     1.4950 C.ar  1 <1>   0.4100 
 13 N       -0.4420     8.5410     2.3300 N.ar  1 <1>  -0.6200 
 14 N        0.8820    10.1280     1.4590 N.pl3 1 <1>  -0.8690 
 15 C        1.3040    10.7760     0.1920 C.3   1 <1>   0.4690 
 16 C        2.8200    10.6750     0.0480 C.2   1 <1>   0.0070 
 17 C        0.8130    12.2450     0.1580 C.3   1 <1>  -0.0800 
 18 N        3.4750    10.7520    -1.0620 N.2   1 <1>  -0.5650 
 19 N        3.6090    10.4680     1.1320 N.pl3 1 <1>   0.0330 
 20 C        1.3780    13.1190     1.2940 C.3   1 <1>  -0.2400 
 21 C       -0.7240    12.3360     0.1530 C.3   1 <1>  -0.2400 
 22 C        4.7790    10.5910    -0.6960 C.ar  1 <1>   0.2270 
 23 C        4.8810    10.4120     0.6700 C.ar  1 <1>  -0.1520 
 24 C        5.9280    10.5830    -1.4840 C.ar  1 <1>  -0.1500 
 25 C        6.1190    10.2220     1.2860 C.ar  1 <1>  -0.1500 
 26 C        7.1590    10.3980    -0.8910 C.ar  1 <1>  -0.1440 
 27 C        7.2480    10.2170     0.4970 C.ar  1 <1>  -0.1500 
 28 C        8.4300    10.3850    -1.7200 C.3   1 <1>  -0.0970 
 29 H        2.2470     2.1950    -2.9660 H     1 <1>   0.4000 
 30 H        2.6670     2.6770    -0.7550 H     1 <1>   0.0800 
 31 H        0.3680     2.7470    -1.6120 H     1 <1>   0.0800 
 32 H        0.6220     4.3580    -2.2440 H     1 <1>   0.0800 
 33 H        2.9780     5.4450    -1.9610 H     1 <1>   0.0800 
 34 H        4.2220     4.5190    -1.1560 H     1 <1>   0.0800 
 35 H        0.6060     3.5680     0.6750 H     1 <1>   0.0800 
 36 H       -0.5920     4.5190    -0.1660 H     1 <1>   0.0800 
 37 H        3.2330     6.2510     0.3170 H     1 <1>   0.0800 
 38 H        2.9980     4.6470     0.9540 H     1 <1>   0.0800 
 39 H        1.9220     8.0600     0.0530 H     1 <1>   0.1500 
 40 H       -1.5920     7.0340     3.0640 H     1 <1>   0.1500 
 41 H        0.2020    10.7000     1.9620 H     1 <1>   0.4000 
 42 H        0.8590    10.2530    -0.6390 H     1 <1>   0.0800 
 43 H        1.1620    12.6610    -0.7720 H     1 <1>   0.0800 
 44 H        3.2630    10.3270     2.0860 H     1 <1>   0.2700 
 45 H        1.0770    12.7480     2.2580 H     1 <1>   0.0800 
 46 H        1.0260    14.1300     1.1940 H     1 <1>   0.0800 
 47 H        2.4530    13.1410     1.2530 H     1 <1>   0.0800 
 48 H       -1.1400    11.9760     1.0770 H     1 <1>   0.0800 
 49 H       -1.1300    11.7510    -0.6540 H     1 <1>   0.0800 
 50 H       -1.0360    13.3570     0.0160 H     1 <1>   0.0800 
 51 H        5.8150    10.7240    -2.5420 H     1 <1>   0.1500 
 52 H        6.1810    10.0840     2.3510 H     1 <1>   0.1500 
 53 H        8.2150    10.0740     0.9460 H     1 <1>   0.1500 
 54 H        8.2100    10.5480    -2.7600 H     1 <1>   0.0800 
 55 H        8.9230     9.4350    -1.6190 H     1 <1>   0.0800 
 56 H        9.0940    11.1610    -1.3850 H     1 <1>   0.0800 
@<TRIPOS>BOND
  1   1   2  1   
  2   1  29  1   
  3   2   3  1   
  4   2   4  1   
  5   2  30  1   
  6   3   5  1   
  7   3  31  1   
  8   3  32  1   
  9   4   6  1   
 10   4  33  1   
 11   4  34  1   
 12   5   7  1   
 13   5  35  1   
 14   5  36  1   
 15   6   7  1   
 16   6  37  1   
 17   6  38  1   
 18   7   8  1   
 19   8   9  ar  
 20   8  10  ar  
 21   9  11  ar  
 22  10  12  ar  
 23  10  39  1   
 24  11  13  ar  
 25  11  40  1   
 26  12  13  ar  
 27  12  14  1   
 28  14  15  1   
 29  14  41  1   
 30  15  16  1   
 31  15  17  1   
 32  15  42  1   
 33  16  18  2   
 34  16  19  1   
 35  17  20  1   
 36  17  21  1   
 37  17  43  1   
 38  18  22  1   
 39  19  23  1   
 40  19  44  1   
 41  20  45  1   
 42  20  46  1   
 43  20  47  1   
 44  21  48  1   
 45  21  49  1   
 46  21  50  1   
 47  22  23  ar  
 48  22  24  ar  
 49  23  25  ar  
 50  24  26  ar  
 51  24  51  1   
 52  25  27  ar  
 53  25  52  1   
 54  26  27  ar  
 55  26  28  1   
 56  27  53  1   
 57  28  54  1   
 58  28  55  1   
 59  28  56  1   
@<TRIPOS>SUBSTRUCTURE
  1 ****  10 GROUP 4 **** **** 0

# MOE 2024.06 (io_trps.svl 2023.06)
