@<TRIPOS>MOLECULE
NONAME
47 48 1 0 0 
SMALL
USER_CHARGES


@<TRIPOS>ATOM
  1 S       -0.8930     0.1140     0.3630 S.o2  1 <1>   1.0900 
  2 O       -0.5490     0.6850     1.6400 O.2   1 <1>  -0.6500 
  3 O       -1.6580     0.8110    -0.6400 O.2   1 <1>  -0.6500 
  4 C       -1.7060    -1.4310     0.6820 C.3   1 <1>  -0.0550 
  5 C        0.5630    -0.5810    -0.4000 C.3   1 <1>  -0.0550 
  6 C       -1.0240    -2.4770    -0.2010 C.3   1 <1>   0.5030 
  7 C        0.4770    -2.1060    -0.2440 C.3   1 <1>  -0.1600 
  8 N       -1.2360    -3.8760     0.3170 N.4   1 <1>  -0.9590 
  9 C       -1.5820    -2.4310    -1.6360 C.3   1 <1>  -0.2400 
 10 C       -2.6840    -4.2580     0.4480 C.3   1 <1>   0.3430 
 11 C       -0.5170    -4.2090     1.6000 C.3   1 <1>   0.2630 
 12 C       -2.8370    -5.7740     0.3710 C.3   1 <1>  -0.1600 
 13 C       -4.3080    -6.1810     0.3810 C.3   1 <1>   0.1200 
 14 O       -4.3200    -7.5590     0.3140 O.3   1 <1>  -0.5600 
 15 C       -5.5880    -8.1400     0.2990 C.3   1 <1>   0.2630 
 16 C       -5.4250    -9.6480     0.2140 C.ar  1 <1>  -0.1440 
 17 C       -5.2150   -10.3940     1.3640 C.ar  1 <1>  -0.1500 
 18 C       -5.4860   -10.2940    -1.0120 C.ar  1 <1>  -0.1500 
 19 C       -5.0750   -11.7700     1.2910 C.ar  1 <1>  -0.1500 
 20 C       -5.3470   -11.6690    -1.0870 C.ar  1 <1>  -0.1500 
 21 C       -5.1420   -12.4080     0.0650 C.ar  1 <1>  -0.1500 
 22 H       -2.7560    -1.3520     0.4740 H     1 <1>   0.0800 
 23 H       -1.5690    -1.6770     1.7160 H     1 <1>   0.0800 
 24 H        1.4580    -0.1950     0.0520 H     1 <1>   0.0800 
 25 H        0.5770    -0.3200    -1.4430 H     1 <1>   0.0800 
 26 H        0.9690    -2.3360     0.6820 H     1 <1>   0.0800 
 27 H        0.9970    -2.5990    -1.0470 H     1 <1>   0.0800 
 28 H       -0.8500    -4.4970    -0.4090 H     1 <1>   0.4500 
 29 H       -1.3460    -1.4990    -2.1190 H     1 <1>   0.0800 
 30 H       -2.6530    -2.5110    -1.6600 H     1 <1>   0.0800 
 31 H       -1.1580    -3.2150    -2.2380 H     1 <1>   0.0800 
 32 H       -3.2620    -3.8250    -0.3500 H     1 <1>   0.0800 
 33 H       -3.0820    -3.8940     1.3820 H     1 <1>   0.0800 
 34 H       -0.8300    -3.5500     2.3940 H     1 <1>   0.0800 
 35 H        0.5500    -4.1210     1.4750 H     1 <1>   0.0800 
 36 H       -0.7250    -5.2230     1.8990 H     1 <1>   0.0800 
 37 H       -2.3610    -6.2470     1.2110 H     1 <1>   0.0800 
 38 H       -2.3970    -6.1380    -0.5400 H     1 <1>   0.0800 
 39 H       -4.8320    -5.7880    -0.4750 H     1 <1>   0.0800 
 40 H       -4.7970    -5.8760     1.2930 H     1 <1>   0.0800 
 41 H       -6.1310    -7.7720    -0.5540 H     1 <1>   0.0800 
 42 H       -6.1060    -7.8710     1.2030 H     1 <1>   0.0800 
 43 H       -5.1560    -9.9060     2.3200 H     1 <1>   0.1500 
 44 H       -5.6400    -9.7290    -1.9140 H     1 <1>   0.1500 
 45 H       -4.9130   -12.3420     2.1870 H     1 <1>   0.1500 
 46 H       -5.3960   -12.1640    -2.0400 H     1 <1>   0.1500 
 47 H       -5.0330   -13.4770     0.0080 H     1 <1>   0.1500 
@<TRIPOS>BOND
  1   1   2  2   
  2   1   3  2   
  3   1   4  1   
  4   1   5  1   
  5   4   6  1   
  6   4  22  1   
  7   4  23  1   
  8   5   7  1   
  9   5  24  1   
 10   5  25  1   
 11   6   7  1   
 12   6   8  1   
 13   6   9  1   
 14   7  26  1   
 15   7  27  1   
 16   8  10  1   
 17   8  11  1   
 18   8  28  1   
 19   9  29  1   
 20   9  30  1   
 21   9  31  1   
 22  10  12  1   
 23  10  32  1   
 24  10  33  1   
 25  11  34  1   
 26  11  35  1   
 27  11  36  1   
 28  12  13  1   
 29  12  37  1   
 30  12  38  1   
 31  13  14  1   
 32  13  39  1   
 33  13  40  1   
 34  14  15  1   
 35  15  16  1   
 36  15  41  1   
 37  15  42  1   
 38  16  17  ar  
 39  16  18  ar  
 40  17  19  ar  
 41  17  43  1   
 42  18  20  ar  
 43  18  44  1   
 44  19  21  ar  
 45  19  45  1   
 46  20  21  ar  
 47  20  46  1   
 48  21  47  1   
@<TRIPOS>SUBSTRUCTURE
  1 ****  12 GROUP 4 **** **** 0

# MOE 2024.06 (io_trps.svl 2023.06)
