@<TRIPOS>MOLECULE
NONAME
40 42 1 0 0 
SMALL
USER_CHARGES


@<TRIPOS>ATOM
  1 O       -0.2670    -0.4080     0.6140 O.2   1 <1>  -0.5700 
  2 C       -0.3680    -1.5790     0.3480 C.2   1 <1>   0.4230 
  3 C       -1.6190    -2.2930     0.4130 C.ar  1 <1>   0.0860 
  4 C        0.9090    -2.2850    -0.0700 C.3   1 <1>  -0.1790 
  5 C       -1.7490    -3.6420     0.0740 C.ar  1 <1>   0.1600 
  6 C       -2.7860    -1.6570     0.8290 C.ar  1 <1>  -0.1500 
  7 N       -2.8580    -4.3530     0.1070 N.ar  1 <1>  -0.6200 
  8 C       -3.9510    -2.3820     0.8720 C.ar  1 <1>  -0.1500 
  9 C       -3.9630    -3.7260     0.5000 C.ar  1 <1>   0.4100 
 10 N       -5.1270    -4.4640     0.5300 N.pl3 1 <1>  -0.8380 
 11 C       -6.4680    -3.8730     0.2940 C.3   1 <1>   0.2090 
 12 C       -5.1410    -5.9110     0.1840 C.3   1 <1>   0.2090 
 13 C       -7.3280    -5.0180    -0.2480 C.3   1 <1>   0.2000 
 14 C       -6.6180    -6.3030     0.1710 C.3   1 <1>  -0.0800 
 15 O       -8.6120    -4.9970     0.2790 O.3   1 <1>  -0.6800 
 16 C       -6.9470    -7.4910    -0.7490 C.3   1 <1>  -0.0170 
 17 C       -6.2550    -8.7660    -0.2940 C.ar  1 <1>   0.1670 
 18 N       -4.9940    -8.9200    -0.6660 N.ar  1 <1>  -0.6200 
 19 C       -6.9490    -9.6980     0.4760 C.ar  1 <1>   0.1600 
 20 C       -4.4790   -10.0530    -0.2190 C.ar  1 <1>   0.1600 
 21 N       -6.4350   -10.8320     0.9240 N.ar  1 <1>  -0.6200 
 22 C       -5.1750   -10.9770     0.5500 C.ar  1 <1>   0.1600 
 23 H        1.1180    -3.0990     0.5990 H     1 <1>   0.0800 
 24 H        1.7340    -1.5960    -0.0350 H     1 <1>   0.0800 
 25 H        0.8160    -2.6530    -1.0750 H     1 <1>   0.0800 
 26 H       -0.8750    -4.1770    -0.2490 H     1 <1>   0.1500 
 27 H       -2.7650    -0.6180     1.1120 H     1 <1>   0.1500 
 28 H       -4.8600    -1.9180     1.2000 H     1 <1>   0.1500 
 29 H       -6.8600    -3.5060     1.2260 H     1 <1>   0.0800 
 30 H       -6.4070    -3.0750    -0.4260 H     1 <1>   0.0800 
 31 H       -4.7000    -6.0500    -0.7900 H     1 <1>   0.0800 
 32 H       -4.5840    -6.4830     0.9070 H     1 <1>   0.0800 
 33 H       -7.3970    -4.9410    -1.3200 H     1 <1>   0.0800 
 34 H       -6.8850    -6.5470     1.1840 H     1 <1>   0.0800 
 35 H       -8.5790    -5.0780     1.2520 H     1 <1>   0.4000 
 36 H       -6.6430    -7.2690    -1.7580 H     1 <1>   0.0800 
 37 H       -8.0110    -7.6440    -0.7600 H     1 <1>   0.0800 
 38 H       -7.9730    -9.4970     0.7340 H     1 <1>   0.1500 
 39 H       -3.4540   -10.2600    -0.4730 H     1 <1>   0.1500 
 40 H       -4.6690   -11.8710     0.8670 H     1 <1>   0.1500 
@<TRIPOS>BOND
  1   1   2  2   
  2   2   3  1   
  3   2   4  1   
  4   3   5  ar  
  5   3   6  ar  
  6   4  23  1   
  7   4  24  1   
  8   4  25  1   
  9   5   7  ar  
 10   5  26  1   
 11   6   8  ar  
 12   6  27  1   
 13   7   9  ar  
 14   8   9  ar  
 15   8  28  1   
 16   9  10  1   
 17  10  11  1   
 18  10  12  1   
 19  11  13  1   
 20  11  29  1   
 21  11  30  1   
 22  12  14  1   
 23  12  31  1   
 24  12  32  1   
 25  13  14  1   
 26  13  15  1   
 27  13  33  1   
 28  14  16  1   
 29  14  34  1   
 30  15  35  1   
 31  16  17  1   
 32  16  36  1   
 33  16  37  1   
 34  17  18  ar  
 35  17  19  ar  
 36  18  20  ar  
 37  19  21  ar  
 38  19  38  1   
 39  20  22  ar  
 40  20  39  1   
 41  21  22  ar  
 42  22  40  1   
@<TRIPOS>SUBSTRUCTURE
  1 ****  12 GROUP 4 **** **** 0

# MOE 2024.06 (io_trps.svl 2023.06)
