@<TRIPOS>MOLECULE
NONAME
43 44 1 0 0 
SMALL
USER_CHARGES


@<TRIPOS>ATOM
  1 S        0.2070    -0.6270     0.2020 S.o2  1 <1>   1.3330 
  2 O        0.3600     0.6990     0.7420 O.2   1 <1>  -0.6500 
  3 O        1.0880    -1.1210    -0.8230 O.2   1 <1>  -0.6500 
  4 N        0.5330    -1.6050     1.4940 N.am  1 <1>  -0.9780 
  5 C       -1.5150    -0.9610    -0.1890 C.3   1 <1>  -0.0550 
  6 C       -1.7980    -2.4190    -0.5970 C.3   1 <1>  -0.1600 
  7 C       -3.2910    -2.6450    -0.8840 C.3   1 <1>  -0.0990 
  8 C       -3.5740    -4.0630    -1.3390 C.2   1 <1>   0.5690 
  9 O       -3.8590    -4.2660    -2.4920 O.2   1 <1>  -0.5700 
 10 N       -3.4970    -5.0640    -0.4310 N.am  1 <1>  -0.7300 
 11 C       -3.6970    -6.4980    -0.7340 C.3   1 <1>   0.2200 
 12 C       -4.9850    -6.9710    -0.0820 C.3   1 <1>  -0.0800 
 13 C       -2.6540    -7.3220     0.0100 C.3   1 <1>   0.1200 
 14 C       -4.5290    -7.3050     1.3450 C.3   1 <1>   0.1200 
 15 C       -5.5680    -8.1960    -0.8120 C.3   1 <1>  -0.0170 
 16 O       -3.1390    -7.4600     1.3110 O.3   1 <1>  -0.5600 
 17 C       -6.8700    -8.6570    -0.1740 C.ar  1 <1>  -0.1430 
 18 C       -8.0490    -7.9610    -0.3470 C.ar  1 <1>  -0.1500 
 19 C       -6.9430    -9.7930     0.6080 C.ar  1 <1>  -0.1500 
 20 C       -9.2090    -8.4170     0.2560 C.ar  1 <1>   0.1600 
 21 C       -8.1550   -10.1630     1.1670 C.ar  1 <1>   0.1600 
 22 N       -9.2900    -9.5000     1.0110 N.ar  1 <1>  -0.6200 
 23 H        0.8850    -0.9570     2.1970 H     1 <1>   0.4200 
 24 H        1.3420    -2.1410     1.1840 H     1 <1>   0.4200 
 25 H       -2.1140    -0.7150     0.6660 H     1 <1>   0.0800 
 26 H       -1.8150    -0.3140    -0.9910 H     1 <1>   0.0800 
 27 H       -1.2260    -2.6570    -1.4790 H     1 <1>   0.0800 
 28 H       -1.4780    -3.0800     0.1910 H     1 <1>   0.0800 
 29 H       -3.6170    -1.9730    -1.6590 H     1 <1>   0.0800 
 30 H       -3.8750    -2.4440    -0.0050 H     1 <1>   0.0800 
 31 H       -3.2440    -4.8750     0.5410 H     1 <1>   0.3700 
 32 H       -3.6680    -6.6660    -1.7980 H     1 <1>   0.0800 
 33 H       -5.7250    -6.1900    -0.0770 H     1 <1>   0.0800 
 34 H       -1.6870    -6.8510     0.0300 H     1 <1>   0.0800 
 35 H       -2.5700    -8.3070    -0.4150 H     1 <1>   0.0800 
 36 H       -4.9700    -8.2090     1.7270 H     1 <1>   0.0800 
 37 H       -4.7480    -6.4920     2.0150 H     1 <1>   0.0800 
 38 H       -4.8590    -9.0050    -0.8110 H     1 <1>   0.0800 
 39 H       -5.7630    -7.9380    -1.8390 H     1 <1>   0.0800 
 40 H       -8.0760    -7.0690    -0.9460 H     1 <1>   0.1500 
 41 H       -6.0710   -10.3950     0.7890 H     1 <1>   0.1500 
 42 H      -10.1190    -7.8600     0.1100 H     1 <1>   0.1500 
 43 H       -8.1930   -11.0510     1.7740 H     1 <1>   0.1500 
@<TRIPOS>BOND
  1   1   2  2   
  2   1   3  2   
  3   1   4  am  
  4   1   5  1   
  5   4  23  1   
  6   4  24  1   
  7   5   6  1   
  8   5  25  1   
  9   5  26  1   
 10   6   7  1   
 11   6  27  1   
 12   6  28  1   
 13   7   8  1   
 14   7  29  1   
 15   7  30  1   
 16   8   9  2   
 17   8  10  am  
 18  10  11  1   
 19  10  31  1   
 20  11  12  1   
 21  11  13  1   
 22  11  32  1   
 23  12  14  1   
 24  12  15  1   
 25  12  33  1   
 26  13  16  1   
 27  13  34  1   
 28  13  35  1   
 29  14  16  1   
 30  14  36  1   
 31  14  37  1   
 32  15  17  1   
 33  15  38  1   
 34  15  39  1   
 35  17  18  ar  
 36  17  19  ar  
 37  18  20  ar  
 38  18  40  1   
 39  19  21  ar  
 40  19  41  1   
 41  20  22  ar  
 42  20  42  1   
 43  21  22  ar  
 44  21  43  1   
@<TRIPOS>SUBSTRUCTURE
  1 ****  10 GROUP 4 **** **** 0

# MOE 2024.06 (io_trps.svl 2023.06)
