@<TRIPOS>MOLECULE
NONAME
37 39 1 0 0 
SMALL
USER_CHARGES


@<TRIPOS>ATOM
  1 S        0.0180    -0.1520    -0.4410 S.3   1 <1>  -0.0800 
  2 C        0.0150    -1.6830     0.4250 C.ar  1 <1>   0.2970 
  3 C       -1.6630    -0.3620    -0.9300 C.2   1 <1>  -0.1400 
  4 N        1.0760    -2.1230     1.0690 N.ar  1 <1>  -0.5670 
  5 C       -1.2100    -2.3000     0.3270 C.ar  1 <1>   0.0000 
  6 C       -2.1570    -1.5220    -0.4520 C.2   1 <1>  -0.1810 
  7 C       -2.2330     0.7630    -1.7740 C.3   1 <1>  -0.0600 
  8 C        0.8550    -3.2810     1.6570 C.ar  1 <1>   0.4700 
  9 C       -1.2860    -3.5270     1.0010 C.ar  1 <1>   0.4100 
 10 C       -3.5740    -2.0240    -0.6770 C.3   1 <1>  -0.0590 
 11 N       -0.2510    -4.0070     1.6720 N.ar  1 <1>  -0.6200 
 12 N       -2.4190    -4.3080     1.0120 N.pl3 1 <1>  -0.8380 
 13 C       -2.5170    -5.3830    -0.0200 C.3   1 <1>   0.2090 
 14 C       -3.0070    -4.6730     2.3350 C.3   1 <1>   0.2090 
 15 C       -3.9800    -5.7270    -0.3280 C.3   1 <1>  -0.1860 
 16 C       -4.1790    -5.6530     2.1970 C.3   1 <1>  -0.1600 
 17 C       -3.9790    -7.1520    -0.8370 C.2   1 <1>   0.9060 
 18 C       -4.9020    -5.4290     0.8730 C.3   1 <1>   0.2000 
 19 O       -3.4110    -7.3740    -1.9090 O.co2 1 <1>  -0.9000 
 20 O       -4.5160    -8.0550    -0.1790 O.co2 1 <1>  -0.9000 
 21 O       -6.0200    -6.2300     0.8460 O.3   1 <1>  -0.6800 
 22 H       -3.2500     0.5640    -2.0520 H     1 <1>   0.0800 
 23 H       -1.6480     0.8750    -2.6690 H     1 <1>   0.0800 
 24 H       -2.2000     1.6840    -1.2200 H     1 <1>   0.0800 
 25 H        1.6870    -3.6940     2.2010 H     1 <1>   0.1500 
 26 H       -4.0360    -2.2530     0.2650 H     1 <1>   0.0800 
 27 H       -3.5470    -2.9130    -1.2780 H     1 <1>   0.0800 
 28 H       -4.1780    -1.2940    -1.1800 H     1 <1>   0.0800 
 29 H       -2.0150    -5.0860    -0.9260 H     1 <1>   0.0800 
 30 H       -2.0110    -6.2580     0.3570 H     1 <1>   0.0800 
 31 H       -2.2510    -5.1050     2.9670 H     1 <1>   0.0800 
 32 H       -3.3560    -3.7690     2.8020 H     1 <1>   0.0800 
 33 H       -4.3040    -5.1190    -1.1480 H     1 <1>   0.0800 
 34 H       -4.8570    -5.5150     3.0200 H     1 <1>   0.0800 
 35 H       -3.8040    -6.6610     2.2310 H     1 <1>   0.0800 
 36 H       -5.2390    -4.4080     0.8270 H     1 <1>   0.0800 
 37 H       -5.6910    -7.1320     0.5450 H     1 <1>   0.4000 
@<TRIPOS>BOND
  1   1   2  1   
  2   1   3  1   
  3   2   4  ar  
  4   2   5  ar  
  5   3   6  2   
  6   3   7  1   
  7   4   8  ar  
  8   5   6  1   
  9   5   9  ar  
 10   6  10  1   
 11   7  22  1   
 12   7  23  1   
 13   7  24  1   
 14   8  11  ar  
 15   8  25  1   
 16   9  11  ar  
 17   9  12  1   
 18  10  26  1   
 19  10  27  1   
 20  10  28  1   
 21  12  13  1   
 22  12  14  1   
 23  13  15  1   
 24  13  29  1   
 25  13  30  1   
 26  14  16  1   
 27  14  31  1   
 28  14  32  1   
 29  15  17  1   
 30  15  18  1   
 31  15  33  1   
 32  16  18  1   
 33  16  34  1   
 34  16  35  1   
 35  17  19  ar  
 36  17  20  ar  
 37  18  21  1   
 38  18  36  1   
 39  21  37  1   
@<TRIPOS>SUBSTRUCTURE
  1 ****  12 GROUP 4 **** **** 0

# MOE 2024.06 (io_trps.svl 2023.06)
