@<TRIPOS>MOLECULE
NONAME
47 49 1 0 0 
SMALL
USER_CHARGES


@<TRIPOS>ATOM
  1 S        0.1990     0.1050     1.8310 S.o2  1 <1>   1.4470 
  2 O        0.7890    -1.0700     2.4330 O.2   1 <1>  -0.6500 
  3 O       -0.2970     1.1740     2.6690 O.2   1 <1>  -0.6500 
  4 N        1.4220     0.8060     0.8810 N.am  1 <1>  -0.8490 
  5 C       -1.0760    -0.3490     0.6230 C.ar  1 <1>  -0.0090 
  6 C        2.4430     1.4520     1.7620 C.3   1 <1>   0.1960 
  7 C        2.0400    -0.1790    -0.0390 C.3   1 <1>   0.1960 
  8 C       -1.1740    -1.6450     0.1340 C.ar  1 <1>  -0.1500 
  9 C       -1.9660     0.5990     0.1310 C.ar  1 <1>  -0.1500 
 10 C        3.3850     2.4170     0.9950 C.3   1 <1>   0.4230 
 11 C        3.1030     0.3660    -1.0310 C.3   1 <1>  -0.0800 
 12 C       -2.1150    -1.9930    -0.8200 C.ar  1 <1>   0.0830 
 13 C       -2.9180     0.2670    -0.8180 C.ar  1 <1>  -0.1500 
 14 N        2.6990     2.7650    -0.3060 N.4   1 <1>  -0.9590 
 15 C        4.8190     1.8370     0.8800 C.3   1 <1>   0.1200 
 16 C        4.5430     0.0290    -0.6120 C.3   1 <1>   0.1200 
 17 C        3.0060     1.8460    -1.4360 C.3   1 <1>   0.3430 
 18 O       -2.1120    -3.2820    -1.2340 O.3   1 <1>  -0.3630 
 19 C       -2.9940    -1.0270    -1.2980 C.ar  1 <1>  -0.1500 
 20 C        2.9830     4.2070    -0.7040 C.3   1 <1>   0.2370 
 21 O        4.8070     0.4500     0.6810 O.3   1 <1>  -0.5600 
 22 C       -3.0900    -3.7710    -2.1260 C.3   1 <1>   0.0400 
 23 C        4.4700     4.5230    -0.8730 C.2   1 <1>   0.9060 
 24 O        5.0080     4.2120    -1.9390 O.co2 1 <1>  -0.9000 
 25 O        5.0890     4.8920     0.1270 O.co2 1 <1>  -0.9000 
 26 H        1.9450     2.0500     2.5060 H     1 <1>   0.0800 
 27 H        3.0020     0.7050     2.3020 H     1 <1>   0.0800 
 28 H        2.4760    -0.9830     0.5350 H     1 <1>   0.0800 
 29 H        1.2560    -0.6160    -0.6340 H     1 <1>   0.0800 
 30 H       -0.5100    -2.4110     0.5000 H     1 <1>   0.1500 
 31 H       -1.9180     1.6110     0.5000 H     1 <1>   0.1500 
 32 H        3.4750     3.3210     1.5740 H     1 <1>   0.0800 
 33 H        2.9670    -0.1840    -1.9440 H     1 <1>   0.0800 
 34 H       -3.6020     1.0150    -1.1820 H     1 <1>   0.1500 
 35 H        1.7030     2.6140    -0.0890 H     1 <1>   0.4500 
 36 H        5.3260     2.0040     1.8130 H     1 <1>   0.0800 
 37 H        5.4000     2.3120     0.1090 H     1 <1>   0.0800 
 38 H        5.2670     0.4740    -1.2760 H     1 <1>   0.0800 
 39 H        4.6880    -1.0380    -0.6260 H     1 <1>   0.0800 
 40 H        2.2370     1.9550    -2.1820 H     1 <1>   0.0800 
 41 H        3.9390     2.1410    -1.8940 H     1 <1>   0.0800 
 42 H       -3.7380    -1.2640    -2.0360 H     1 <1>   0.1500 
 43 H        2.4980     4.4350    -1.6350 H     1 <1>   0.0800 
 44 H        2.6060     4.8740     0.0490 H     1 <1>   0.0800 
 45 H       -2.9090    -4.8200    -2.2770 H     1 <1>   0.0800 
 46 H       -3.0040    -3.2470    -3.0610 H     1 <1>   0.0800 
 47 H       -4.0630    -3.6270    -1.6900 H     1 <1>   0.0800 
@<TRIPOS>BOND
  1   1   2  2   
  2   1   3  2   
  3   1   4  am  
  4   1   5  1   
  5   4   6  1   
  6   4   7  1   
  7   5   8  ar  
  8   5   9  ar  
  9   6  10  1   
 10   6  26  1   
 11   6  27  1   
 12   7  11  1   
 13   7  28  1   
 14   7  29  1   
 15   8  12  ar  
 16   8  30  1   
 17   9  13  ar  
 18   9  31  1   
 19  10  14  1   
 20  10  15  1   
 21  10  32  1   
 22  11  16  1   
 23  11  17  1   
 24  11  33  1   
 25  12  18  1   
 26  12  19  ar  
 27  13  19  ar  
 28  13  34  1   
 29  14  17  1   
 30  14  20  1   
 31  14  35  1   
 32  15  21  1   
 33  15  36  1   
 34  15  37  1   
 35  16  21  1   
 36  16  38  1   
 37  16  39  1   
 38  17  40  1   
 39  17  41  1   
 40  18  22  1   
 41  19  42  1   
 42  20  23  1   
 43  20  43  1   
 44  20  44  1   
 45  22  45  1   
 46  22  46  1   
 47  22  47  1   
 48  23  24  ar  
 49  23  25  ar  
@<TRIPOS>SUBSTRUCTURE
  1 ****   4 GROUP 4 **** **** 0

# MOE 2024.06 (io_trps.svl 2023.06)
