@<TRIPOS>MOLECULE
NONAME
51 54 1 0 0 
SMALL
USER_CHARGES


@<TRIPOS>ATOM
  1 F       -2.2810     0.2950    -0.5870 F     1 <1>  -0.1900 
  2 C       -1.6030     1.4120    -0.4880 C.ar  1 <1>   0.1900 
  3 C       -2.2100     2.4990     0.1460 C.ar  1 <1>   0.1000 
  4 C       -0.3330     1.4610    -1.0140 C.ar  1 <1>  -0.1500 
  5 N       -3.5010     2.4190     0.6750 N.pl3 1 <1>  -0.6000 
  6 C       -1.4840     3.6960     0.2480 C.ar  1 <1>   0.0860 
  7 C        0.3810     2.6480    -0.9100 C.ar  1 <1>  -0.1500 
  8 C       -4.1040     3.4920     1.2990 C.2   1 <1>  -0.0380 
  9 C       -2.1070     4.8180     0.9000 C.2   1 <1>   0.4690 
 10 C       -0.1890     3.7420    -0.2890 C.ar  1 <1>  -0.1500 
 11 C       -3.4200     4.6580     1.4150 C.2   1 <1>  -0.1360 
 12 C       -5.5280     3.3370     1.8220 C.3   1 <1>   0.4810 
 13 O       -1.5490     5.8990     1.0080 O.2   1 <1>  -0.5700 
 14 N       -6.4510     3.1990     0.6630 N.4   1 <1>  -0.9590 
 15 C       -7.8140     2.7540     1.0920 C.3   1 <1>   0.3430 
 16 C       -6.5200     4.4590    -0.1360 C.3   1 <1>   0.3430 
 17 C       -8.7100     2.4530    -0.1180 C.3   1 <1>   0.0000 
 18 C       -7.3590     4.2270    -1.3920 C.3   1 <1>  -0.1600 
 19 C      -10.0970     2.0280     0.3850 C.3   1 <1>   0.2000 
 20 C       -8.7610     3.6970    -1.0500 C.3   1 <1>  -0.1600 
 21 C       -8.2850     1.2030    -0.9110 C.3   1 <1>  -0.1600 
 22 O      -10.8140     3.1360     0.8270 O.3   1 <1>  -0.5600 
 23 C      -10.7440     1.3120    -0.8000 C.3   1 <1>  -0.1600 
 24 C       -9.5720     0.6850    -1.5730 C.3   1 <1>  -0.1600 
 25 C      -12.0480     2.8550     1.4140 C.3   1 <1>   0.0400 
 26 H        0.0960     0.5990    -1.4940 H     1 <1>   0.1500 
 27 H       -3.9190     1.4770     0.6420 H     1 <1>   0.4000 
 28 H        1.3780     2.7100    -1.3140 H     1 <1>   0.1500 
 29 H        0.3690     4.6610    -0.2090 H     1 <1>   0.1500 
 30 H       -3.8290     5.5280     1.8950 H     1 <1>   0.1500 
 31 H       -5.8010     4.1970     2.4120 H     1 <1>   0.0800 
 32 H       -5.5810     2.4630     2.4500 H     1 <1>   0.0800 
 33 H       -6.0580     2.4840     0.0400 H     1 <1>   0.4500 
 34 H       -7.7400     1.8690     1.7030 H     1 <1>   0.0800 
 35 H       -8.2830     3.5290     1.6790 H     1 <1>   0.0800 
 36 H       -6.9680     5.2420     0.4540 H     1 <1>   0.0800 
 37 H       -5.5290     4.7730    -0.4240 H     1 <1>   0.0800 
 38 H       -7.4570     5.1600    -1.9200 H     1 <1>   0.0800 
 39 H       -6.8450     3.5480    -2.0490 H     1 <1>   0.0800 
 40 H       -9.9950     1.3360     1.2070 H     1 <1>   0.0800 
 41 H       -9.2920     3.4750    -1.9590 H     1 <1>   0.0800 
 42 H       -9.3010     4.4910    -0.5620 H     1 <1>   0.0800 
 43 H       -7.5230     1.3940    -1.6450 H     1 <1>   0.0800 
 44 H       -7.9250     0.4460    -0.2350 H     1 <1>   0.0800 
 45 H      -11.4370     0.5590    -0.4700 H     1 <1>   0.0800 
 46 H      -11.2530     2.0230    -1.4280 H     1 <1>   0.0800 
 47 H       -9.6130    -0.3900    -1.5350 H     1 <1>   0.0800 
 48 H       -9.6150     0.9920    -2.6050 H     1 <1>   0.0800 
 49 H      -12.4670     3.7800     1.7710 H     1 <1>   0.0800 
 50 H      -11.9110     2.1780     2.2390 H     1 <1>   0.0800 
 51 H      -12.7080     2.4270     0.6790 H     1 <1>   0.0800 
@<TRIPOS>BOND
  1   1   2  1   
  2   2   3  ar  
  3   2   4  ar  
  4   3   5  1   
  5   3   6  ar  
  6   4   7  ar  
  7   4  26  1   
  8   5   8  1   
  9   5  27  1   
 10   6   9  1   
 11   6  10  ar  
 12   7  10  ar  
 13   7  28  1   
 14   8  11  2   
 15   8  12  1   
 16   9  11  1   
 17   9  13  2   
 18  10  29  1   
 19  11  30  1   
 20  12  14  1   
 21  12  31  1   
 22  12  32  1   
 23  14  15  1   
 24  14  16  1   
 25  14  33  1   
 26  15  17  1   
 27  15  34  1   
 28  15  35  1   
 29  16  18  1   
 30  16  36  1   
 31  16  37  1   
 32  17  19  1   
 33  17  20  1   
 34  17  21  1   
 35  18  20  1   
 36  18  38  1   
 37  18  39  1   
 38  19  22  1   
 39  19  23  1   
 40  19  40  1   
 41  20  41  1   
 42  20  42  1   
 43  21  24  1   
 44  21  43  1   
 45  21  44  1   
 46  22  25  1   
 47  23  24  1   
 48  23  45  1   
 49  23  46  1   
 50  24  47  1   
 51  24  48  1   
 52  25  49  1   
 53  25  50  1   
 54  25  51  1   
@<TRIPOS>SUBSTRUCTURE
  1 ****  14 GROUP 4 **** **** 0

# MOE 2024.06 (io_trps.svl 2023.06)
