@<TRIPOS>MOLECULE
NONAME
46 48 1 0 0 
SMALL
USER_CHARGES


@<TRIPOS>ATOM
  1 O       -0.5280     0.1140    -0.1820 O.2   1 <1>  -0.5700 
  2 C       -1.5570     0.7520    -0.3390 C.2   1 <1>   0.5440 
  3 N       -2.7490     0.0630    -0.3940 N.am  1 <1>  -0.6600 
  4 C       -1.5130     2.1940    -0.4630 C.ar  1 <1>   0.0860 
  5 C       -4.0740     0.6700    -0.1390 C.3   1 <1>   0.1400 
  6 C       -2.8230    -1.4110    -0.2990 C.3   1 <1>   0.1400 
  7 C       -0.8170     2.9880     0.4660 C.ar  1 <1>   0.1000 
  8 C       -2.1680     2.8330    -1.5190 C.ar  1 <1>  -0.1500 
  9 C       -4.9090    -0.4400     0.5130 C.3   1 <1>  -0.0800 
 10 C       -4.2930    -1.7460    -0.0250 C.3   1 <1>  -0.0800 
 11 N       -0.1230     2.4200     1.5210 N.pl3 1 <1>  -0.9000 
 12 C       -0.8130     4.3720     0.3320 C.ar  1 <1>  -0.1500 
 13 C       -2.1490     4.2080    -1.6370 C.ar  1 <1>   0.0830 
 14 C       -6.4560    -0.3230     0.3490 C.3   1 <1>   0.2800 
 15 C       -5.0330    -2.2270    -1.2820 C.3   1 <1>  -0.1600 
 16 C       -1.4750     4.9850    -0.7120 C.ar  1 <1>  -0.1500 
 17 O       -2.7880     4.8130    -2.6550 O.3   1 <1>  -0.5320 
 18 O       -6.7670     0.3690    -0.8070 O.3   1 <1>  -0.6800 
 19 C       -7.0810    -1.7230     0.2010 C.3   1 <1>  -0.1600 
 20 C       -7.1250     0.4320     1.5190 C.3   1 <1>  -0.1600 
 21 C       -6.5140    -2.5310    -0.9870 C.3   1 <1>  -0.1600 
 22 C       -6.6550     1.8820     1.7330 C.3   1 <1>  -0.2400 
 23 H       -3.9920     1.5290     0.5040 H     1 <1>   0.0800 
 24 H       -4.4870     0.9710    -1.0850 H     1 <1>   0.0800 
 25 H       -2.4690    -1.8610    -1.2110 H     1 <1>   0.0800 
 26 H       -2.2070    -1.7410     0.5200 H     1 <1>   0.0800 
 27 H       -2.6870     2.2330    -2.2430 H     1 <1>   0.1500 
 28 H       -4.6850    -0.4210     1.5650 H     1 <1>   0.0800 
 29 H       -4.3440    -2.5230     0.7180 H     1 <1>   0.0800 
 30 H        0.0810     1.4140     1.3890 H     1 <1>   0.4000 
 31 H        0.6970     2.9230     1.8680 H     1 <1>   0.4000 
 32 H       -0.2880     4.9690     1.0550 H     1 <1>   0.1500 
 33 H       -4.9780    -1.4540    -2.0310 H     1 <1>   0.0800 
 34 H       -4.5580    -3.1040    -1.6850 H     1 <1>   0.0800 
 35 H       -1.4740     6.0550    -0.8180 H     1 <1>   0.1500 
 36 H       -3.2290     4.1810    -3.2510 H     1 <1>   0.4500 
 37 H       -7.7330     0.3780    -0.9230 H     1 <1>   0.4000 
 38 H       -6.8780    -2.2710     1.1050 H     1 <1>   0.0800 
 39 H       -8.1500    -1.6540     0.1150 H     1 <1>   0.0800 
 40 H       -8.1900     0.4380     1.3660 H     1 <1>   0.0800 
 41 H       -6.9470    -0.1150     2.4280 H     1 <1>   0.0800 
 42 H       -6.6320    -3.5800    -0.7770 H     1 <1>   0.0800 
 43 H       -7.0870    -2.3140    -1.8730 H     1 <1>   0.0800 
 44 H       -6.7600     2.4560     0.8290 H     1 <1>   0.0800 
 45 H       -5.6270     1.9110     2.0460 H     1 <1>   0.0800 
 46 H       -7.2480     2.3480     2.4990 H     1 <1>   0.0800 
@<TRIPOS>BOND
  1   1   2  2   
  2   2   3  am  
  3   2   4  1   
  4   3   5  1   
  5   3   6  1   
  6   4   7  ar  
  7   4   8  ar  
  8   5   9  1   
  9   5  23  1   
 10   5  24  1   
 11   6  10  1   
 12   6  25  1   
 13   6  26  1   
 14   7  11  1   
 15   7  12  ar  
 16   8  13  ar  
 17   8  27  1   
 18   9  10  1   
 19   9  14  1   
 20   9  28  1   
 21  10  15  1   
 22  10  29  1   
 23  11  30  1   
 24  11  31  1   
 25  12  16  ar  
 26  12  32  1   
 27  13  16  ar  
 28  13  17  1   
 29  14  18  1   
 30  14  19  1   
 31  14  20  1   
 32  15  21  1   
 33  15  33  1   
 34  15  34  1   
 35  16  35  1   
 36  17  36  1   
 37  18  37  1   
 38  19  21  1   
 39  19  38  1   
 40  19  39  1   
 41  20  22  1   
 42  20  40  1   
 43  20  41  1   
 44  21  42  1   
 45  21  43  1   
 46  22  44  1   
 47  22  45  1   
 48  22  46  1   
@<TRIPOS>SUBSTRUCTURE
  1 ****   5 GROUP 4 **** **** 0

# MOE 2024.06 (io_trps.svl 2023.06)
