@<TRIPOS>MOLECULE
NONAME
47 49 1 0 0 
SMALL
USER_CHARGES


@<TRIPOS>ATOM
  1 O        3.1880    -0.1930     2.6820 O.3   1 <1>  -0.6800 
  2 C        2.2690    -0.0750     1.6410 C.3   1 <1>   0.2000 
  3 C        2.4140    -1.2610     0.6830 C.3   1 <1>  -0.0800 
  4 C        2.6860     1.1050     0.7590 C.3   1 <1>   0.3430 
  5 C        3.6270    -0.9030    -0.1850 C.3   1 <1>   0.3430 
  6 C        2.5270    -2.6540     1.3320 C.3   1 <1>  -0.0160 
  7 N        3.7830     0.5760    -0.1020 N.4   1 <1>  -0.9590 
  8 C        2.7730    -3.7100     0.2670 C.ar  1 <1>  -0.1430 
  9 C        5.1020     0.9820     0.4480 C.3   1 <1>   0.5240 
 10 C        4.0060    -4.3120     0.1060 C.ar  1 <1>  -0.1500 
 11 C        1.7780    -4.1180    -0.5990 C.ar  1 <1>  -0.1500 
 12 C        5.2850     2.4510     0.1000 C.2   1 <1>   0.0460 
 13 C        4.1830    -5.2520    -0.8960 C.ar  1 <1>   0.1600 
 14 C        2.0590    -5.0670    -1.5680 C.ar  1 <1>   0.1600 
 15 N        4.9450     2.8860    -1.1330 N.2   1 <1>  -0.5650 
 16 C        5.7360     3.4710     0.8660 C.2   1 <1>  -0.3320 
 17 N        3.2400    -5.6350    -1.7410 N.ar  1 <1>  -0.6200 
 18 C        5.2050     4.1520    -1.1000 C.2   1 <1>   0.0060 
 19 N        5.6910     4.5700     0.0880 N.pl3 1 <1>   0.0330 
 20 C        6.2230     3.5090     2.3060 C.3   1 <1>  -0.0600 
 21 C        4.9970     5.0930    -2.2740 C.3   1 <1>   0.0200 
 22 C        3.8540     6.0780    -2.0060 C.3   1 <1>  -0.2400 
 23 H        2.8290    -0.7460     3.4080 H     1 <1>   0.4000 
 24 H        1.2800     0.0430     2.0520 H     1 <1>   0.0800 
 25 H        1.5550    -1.2650     0.0340 H     1 <1>   0.0800 
 26 H        2.9990     1.9510     1.3490 H     1 <1>   0.0800 
 27 H        1.8550     1.3960     0.1380 H     1 <1>   0.0800 
 28 H        3.4740    -1.2250    -1.2030 H     1 <1>   0.0800 
 29 H        4.5050    -1.3890     0.2070 H     1 <1>   0.0800 
 30 H        1.6190    -2.8870     1.8600 H     1 <1>   0.0800 
 31 H        3.3350    -2.6800     2.0430 H     1 <1>   0.0800 
 32 H        3.7640     1.0600    -1.0180 H     1 <1>   0.4500 
 33 H        5.1420     0.8310     1.5130 H     1 <1>   0.0800 
 34 H        5.8880     0.4180    -0.0240 H     1 <1>   0.0800 
 35 H        4.8340    -4.0690     0.7470 H     1 <1>   0.1500 
 36 H        0.7840    -3.7140    -0.5330 H     1 <1>   0.1500 
 37 H        5.1490    -5.7160    -1.0090 H     1 <1>   0.1500 
 38 H        1.2720    -5.3760    -2.2350 H     1 <1>   0.1500 
 39 H        5.9650     5.5260     0.3330 H     1 <1>   0.2700 
 40 H        6.1740     2.5340     2.7550 H     1 <1>   0.0800 
 41 H        5.6160     4.1820     2.8860 H     1 <1>   0.0800 
 42 H        7.2440     3.8480     2.3420 H     1 <1>   0.0800 
 43 H        5.9080     5.6310    -2.4670 H     1 <1>   0.0800 
 44 H        4.7660     4.5130    -3.1510 H     1 <1>   0.0800 
 45 H        4.0770     6.6990    -1.1570 H     1 <1>   0.0800 
 46 H        2.9430     5.5400    -1.8120 H     1 <1>   0.0800 
 47 H        3.7040     6.7090    -2.8640 H     1 <1>   0.0800 
@<TRIPOS>BOND
  1   1   2  1   
  2   1  23  1   
  3   2   3  1   
  4   2   4  1   
  5   2  24  1   
  6   3   5  1   
  7   3   6  1   
  8   3  25  1   
  9   4   7  1   
 10   4  26  1   
 11   4  27  1   
 12   5   7  1   
 13   5  28  1   
 14   5  29  1   
 15   6   8  1   
 16   6  30  1   
 17   6  31  1   
 18   7   9  1   
 19   7  32  1   
 20   8  10  ar  
 21   8  11  ar  
 22   9  12  1   
 23   9  33  1   
 24   9  34  1   
 25  10  13  ar  
 26  10  35  1   
 27  11  14  ar  
 28  11  36  1   
 29  12  15  1   
 30  12  16  2   
 31  13  17  ar  
 32  13  37  1   
 33  14  17  ar  
 34  14  38  1   
 35  15  18  2   
 36  16  19  1   
 37  16  20  1   
 38  18  19  1   
 39  18  21  1   
 40  19  39  1   
 41  20  40  1   
 42  20  41  1   
 43  20  42  1   
 44  21  22  1   
 45  21  43  1   
 46  21  44  1   
 47  22  45  1   
 48  22  46  1   
 49  22  47  1   
@<TRIPOS>SUBSTRUCTURE
  1 ****   7 GROUP 4 **** **** 0

# MOE 2024.06 (io_trps.svl 2023.06)
