@<TRIPOS>MOLECULE
NONAME
39 41 1 0 0 
SMALL
USER_CHARGES


@<TRIPOS>ATOM
  1 CL       1.5800     2.1410     0.1370 Cl    1 <1>  -0.1770 
  2 C        2.0180     0.4550    -0.0280 C.ar  1 <1>   0.1770 
  3 C        3.2660     0.0490    -0.4980 C.ar  1 <1>   0.0860 
  4 C        1.0570    -0.4760     0.3230 C.ar  1 <1>   0.1600 
  5 C        4.3600     0.9260    -0.8820 C.2   1 <1>   0.5440 
  6 C        3.4120    -1.3330    -0.5840 C.ar  1 <1>  -0.1500 
  7 N        1.2160    -1.7870     0.2500 N.ar  1 <1>  -0.6200 
  8 O        5.2700     0.5230    -1.5830 O.2   1 <1>  -0.5700 
  9 N        4.4960     2.2100    -0.4330 N.am  1 <1>  -0.6600 
 10 C        2.3900    -2.1850    -0.2090 C.ar  1 <1>   0.1600 
 11 C        5.1270     2.4200     0.9160 C.3   1 <1>   0.2200 
 12 C        4.5510     3.3090    -1.4470 C.3   1 <1>   0.1400 
 13 C        4.7490     3.7700     1.5480 C.3   1 <1>   0.1200 
 14 C        6.6690     2.2590     0.8410 C.3   1 <1>   0.3430 
 15 C        5.6870     4.3280    -1.2410 C.3   1 <1>  -0.0800 
 16 O        5.6330     4.7690     1.1360 O.3   1 <1>  -0.5600 
 17 N        7.1980     2.3640    -0.5640 N.4   1 <1>  -0.9590 
 18 C        5.3770     5.3230    -0.1110 C.3   1 <1>   0.1200 
 19 C        7.1120     3.7420    -1.1410 C.3   1 <1>   0.3430 
 20 C        8.5710     1.7990    -0.6820 C.3   1 <1>   0.2630 
 21 H        0.1070    -0.1190     0.6830 H     1 <1>   0.1500 
 22 H        4.3320    -1.7530    -0.9510 H     1 <1>   0.1500 
 23 H        2.5430    -3.2500    -0.2910 H     1 <1>   0.1500 
 24 H        4.7470     1.6600     1.5760 H     1 <1>   0.0800 
 25 H        4.6540     2.8730    -2.4280 H     1 <1>   0.0800 
 26 H        3.6060     3.8250    -1.4360 H     1 <1>   0.0800 
 27 H        4.8490     3.6990     2.6170 H     1 <1>   0.0800 
 28 H        3.7340     4.0500     1.3240 H     1 <1>   0.0800 
 29 H        6.9160     1.2880     1.2340 H     1 <1>   0.0800 
 30 H        7.1420     2.9930     1.4730 H     1 <1>   0.0800 
 31 H        5.6860     4.9350    -2.1300 H     1 <1>   0.0800 
 32 H        6.5460     1.7650    -1.1230 H     1 <1>   0.4500 
 33 H        4.3540     5.6600    -0.1430 H     1 <1>   0.0800 
 34 H        6.0130     6.1870    -0.2010 H     1 <1>   0.0800 
 35 H        7.7240     4.4140    -0.5610 H     1 <1>   0.0800 
 36 H        7.5230     3.7120    -2.1370 H     1 <1>   0.0800 
 37 H        9.2670     2.3790    -0.0980 H     1 <1>   0.0800 
 38 H        8.8890     1.8080    -1.7120 H     1 <1>   0.0800 
 39 H        8.5850     0.7800    -0.3310 H     1 <1>   0.0800 
@<TRIPOS>BOND
  1   1   2  1   
  2   2   3  ar  
  3   2   4  ar  
  4   3   5  1   
  5   3   6  ar  
  6   4   7  ar  
  7   4  21  1   
  8   5   8  2   
  9   5   9  am  
 10   6  10  ar  
 11   6  22  1   
 12   7  10  ar  
 13   9  11  1   
 14   9  12  1   
 15  10  23  1   
 16  11  13  1   
 17  11  14  1   
 18  11  24  1   
 19  12  15  1   
 20  12  25  1   
 21  12  26  1   
 22  13  16  1   
 23  13  27  1   
 24  13  28  1   
 25  14  17  1   
 26  14  29  1   
 27  14  30  1   
 28  15  18  1   
 29  15  19  1   
 30  15  31  1   
 31  16  18  1   
 32  17  19  1   
 33  17  20  1   
 34  17  32  1   
 35  18  33  1   
 36  18  34  1   
 37  19  35  1   
 38  19  36  1   
 39  20  37  1   
 40  20  38  1   
 41  20  39  1   
@<TRIPOS>SUBSTRUCTURE
  1 ****   9 GROUP 4 **** **** 0

# MOE 2024.06 (io_trps.svl 2023.06)
