@<TRIPOS>MOLECULE
NONAME
53 56 1 0 0 
SMALL
USER_CHARGES


@<TRIPOS>ATOM
  1 O       -0.5460     0.7290    -1.9330 O.2   1 <1>  -0.5700 
  2 C       -0.6320     1.5570    -1.0440 C.2   1 <1>   0.5440 
  3 N       -1.8080     1.6280    -0.3250 N.am  1 <1>  -0.6600 
  4 C        0.4900     2.4420    -0.7870 C.ar  1 <1>   0.0860 
  5 C       -2.2050     2.8370     0.4750 C.3   1 <1>   0.1400 
  6 C       -2.8450     0.5660    -0.5010 C.3   1 <1>   0.1400 
  7 C        1.1460     3.0840    -1.8370 C.ar  1 <1>  -0.1500 
  8 C        0.9620     2.6820     0.5050 C.ar  1 <1>  -0.1500 
  9 C       -3.6840     3.1990     0.2450 C.3   1 <1>   0.1440 
 10 C       -3.9210     0.6470     0.5880 C.3   1 <1>  -0.1600 
 11 C        2.2060     3.9410    -1.6090 C.ar  1 <1>  -0.1500 
 12 C        2.0200     3.5400     0.7440 C.ar  1 <1>  -0.1500 
 13 C       -4.0590     4.4570     1.0090 C.ar  1 <1>   0.1670 
 14 C       -4.6070     2.0270     0.6660 C.3   1 <1>  -0.1600 
 15 C       -3.9400     3.6250    -1.2280 C.3   1 <1>  -0.1600 
 16 C        2.6490     4.1820    -0.3190 C.ar  1 <1>   0.0820 
 17 N       -3.7940     4.6850     2.2740 N.ar  1 <1>  -0.6200 
 18 C       -4.7230     5.3480     0.2180 C.ar  1 <1>  -0.1430 
 19 C       -4.8920     4.8340    -1.1890 C.3   1 <1>  -0.0170 
 20 O        3.6850     5.0390    -0.1760 O.3   1 <1>  -0.3620 
 21 C       -4.2240     5.8590     2.7110 C.ar  1 <1>   0.7200 
 22 C       -5.1270     6.5320     0.7860 C.ar  1 <1>   0.1600 
 23 C        4.1980     5.3780     1.0910 C.3   1 <1>   0.1200 
 24 N       -4.8840     6.8000     2.0490 N.ar  1 <1>  -0.6200 
 25 N       -3.9870     6.1200     3.9980 N.pl3 1 <1>  -0.9000 
 26 C        5.3370     6.3780     0.8940 C.3   1 <1>  -0.1600 
 27 C        5.9480     6.8010     2.2340 C.3   1 <1>  -0.2400 
 28 H       -1.5940     3.6810     0.2110 H     1 <1>   0.0800 
 29 H       -2.0520     2.6300     1.5200 H     1 <1>   0.0800 
 30 H       -2.3680    -0.4000    -0.4680 H     1 <1>   0.0800 
 31 H       -3.2950     0.6770    -1.4720 H     1 <1>   0.0800 
 32 H        0.8130     2.9000    -2.8440 H     1 <1>   0.1500 
 33 H        0.4880     2.1810     1.3310 H     1 <1>   0.1500 
 34 H       -3.4510     0.4310     1.5320 H     1 <1>   0.0800 
 35 H       -4.6610    -0.1150     0.4200 H     1 <1>   0.0800 
 36 H        2.7000     4.4290    -2.4300 H     1 <1>   0.1500 
 37 H        2.3410     3.6940     1.7560 H     1 <1>   0.1500 
 38 H       -5.4940     2.0270     0.0570 H     1 <1>   0.0800 
 39 H       -4.9300     2.1730     1.6820 H     1 <1>   0.0800 
 40 H       -4.3350     2.8260    -1.8290 H     1 <1>   0.0800 
 41 H       -3.0130     3.9450    -1.6720 H     1 <1>   0.0800 
 42 H       -5.9110     4.5210    -1.3410 H     1 <1>   0.0800 
 43 H       -4.6210     5.5740    -1.9220 H     1 <1>   0.0800 
 44 H       -5.6550     7.2660     0.2000 H     1 <1>   0.1500 
 45 H        4.5570     4.4810     1.5640 H     1 <1>   0.0800 
 46 H        3.4050     5.8160     1.6730 H     1 <1>   0.0800 
 47 H       -4.5690     6.8480     4.4020 H     1 <1>   0.4000 
 48 H       -3.8010     5.3060     4.5750 H     1 <1>   0.4000 
 49 H        4.9590     7.2490     0.3860 H     1 <1>   0.0800 
 50 H        6.1000     5.9280     0.2820 H     1 <1>   0.0800 
 51 H        5.2060     7.2700     2.8570 H     1 <1>   0.0800 
 52 H        6.7460     7.5030     2.0680 H     1 <1>   0.0800 
 53 H        6.3490     5.9470     2.7530 H     1 <1>   0.0800 
@<TRIPOS>BOND
  1   1   2  2   
  2   2   3  am  
  3   2   4  1   
  4   3   5  1   
  5   3   6  1   
  6   4   7  ar  
  7   4   8  ar  
  8   5   9  1   
  9   5  28  1   
 10   5  29  1   
 11   6  10  1   
 12   6  30  1   
 13   6  31  1   
 14   7  11  ar  
 15   7  32  1   
 16   8  12  ar  
 17   8  33  1   
 18   9  13  1   
 19   9  14  1   
 20   9  15  1   
 21  10  14  1   
 22  10  34  1   
 23  10  35  1   
 24  11  16  ar  
 25  11  36  1   
 26  12  16  ar  
 27  12  37  1   
 28  13  17  ar  
 29  13  18  ar  
 30  14  38  1   
 31  14  39  1   
 32  15  19  1   
 33  15  40  1   
 34  15  41  1   
 35  16  20  1   
 36  17  21  ar  
 37  18  19  1   
 38  18  22  ar  
 39  19  42  1   
 40  19  43  1   
 41  20  23  1   
 42  21  24  ar  
 43  21  25  1   
 44  22  24  ar  
 45  22  44  1   
 46  23  26  1   
 47  23  45  1   
 48  23  46  1   
 49  25  47  1   
 50  25  48  1   
 51  26  27  1   
 52  26  49  1   
 53  26  50  1   
 54  27  51  1   
 55  27  52  1   
 56  27  53  1   
@<TRIPOS>SUBSTRUCTURE
  1 ****   5 GROUP 4 **** **** 0

# MOE 2024.06 (io_trps.svl 2023.06)
