@<TRIPOS>MOLECULE
NONAME
49 51 1 0 0 
SMALL
USER_CHARGES


@<TRIPOS>ATOM
  1 CL      -5.3480     0.0250    -1.3780 Cl    1 <1>  -0.1770 
  2 C       -4.2300    -1.0710    -0.5920 C.ar  1 <1>   0.1770 
  3 C       -2.9450    -0.6500    -0.2670 C.ar  1 <1>   0.0820 
  4 C       -4.6660    -2.3500    -0.3100 C.ar  1 <1>  -0.1500 
  5 O       -2.5820     0.6270    -0.5770 O.3   1 <1>  -0.3630 
  6 C       -2.0940    -1.5580     0.3580 C.ar  1 <1>  -0.1500 
  7 C       -3.8190    -3.2580     0.3100 C.ar  1 <1>   0.1170 
  8 C       -1.2890     1.1110    -0.2890 C.3   1 <1>   0.0400 
  9 C       -2.5320    -2.8410     0.6410 C.ar  1 <1>  -0.1500 
 10 N       -4.3020    -4.5490     0.5790 N.am  1 <1>  -0.5470 
 11 C       -3.6920    -5.7120     0.9550 C.2   1 <1>   0.5690 
 12 O       -2.5040    -5.8370     1.1280 O.2   1 <1>  -0.5700 
 13 C       -4.6010    -6.9260     1.1490 C.3   1 <1>   0.1710 
 14 N       -5.8340    -6.8940     0.3040 N.3   1 <1>  -0.8100 
 15 C       -6.8060    -7.9570     0.6720 C.3   1 <1>   0.1100 
 16 C       -5.5430    -7.0490    -1.1300 C.3   1 <1>   0.1100 
 17 C       -6.9610    -8.9110    -0.5240 C.3   1 <1>   0.4240 
 18 C       -6.6320    -7.9650    -1.6750 C.3   1 <1>  -0.1600 
 19 O       -5.9310    -9.8360    -0.4800 O.3   1 <1>  -0.6800 
 20 C       -8.3120    -9.6630    -0.6000 C.ar  1 <1>  -0.1440 
 21 C       -8.8300   -10.4090     0.4690 C.ar  1 <1>  -0.1430 
 22 C       -9.0600    -9.6130    -1.7770 C.ar  1 <1>  -0.1500 
 23 C      -10.0640   -11.0320     0.3470 C.ar  1 <1>  -0.1500 
 24 C       -8.1060   -10.6070     1.7960 C.3   1 <1>  -0.0970 
 25 C      -10.2860   -10.2420    -1.8890 C.ar  1 <1>  -0.1500 
 26 C      -10.7940   -10.9490    -0.8210 C.ar  1 <1>  -0.1500 
 27 H       -5.6670    -2.6320    -0.5780 H     1 <1>   0.1500 
 28 H       -1.0920    -1.2880     0.6330 H     1 <1>   0.1500 
 29 H       -1.2330     2.1310    -0.6250 H     1 <1>   0.0800 
 30 H       -0.5660     0.5130    -0.8150 H     1 <1>   0.0800 
 31 H       -1.1280     1.0690     0.7740 H     1 <1>   0.0800 
 32 H       -1.8560    -3.5200     1.1280 H     1 <1>   0.1500 
 33 H       -5.3010    -4.7020     0.4060 H     1 <1>   0.3700 
 34 H       -4.8860    -6.9440     2.1850 H     1 <1>   0.0800 
 35 H       -4.0360    -7.8190     0.9470 H     1 <1>   0.0800 
 36 H       -7.7580    -7.4910     0.8580 H     1 <1>   0.0800 
 37 H       -6.5050    -8.4840     1.5590 H     1 <1>   0.0800 
 38 H       -4.5790    -7.5090    -1.2770 H     1 <1>   0.0800 
 39 H       -5.5500    -6.0930    -1.6270 H     1 <1>   0.0800 
 40 H       -6.3300    -8.4850    -2.5660 H     1 <1>   0.0800 
 41 H       -7.4870    -7.3530    -1.8980 H     1 <1>   0.0800 
 42 H       -5.0940    -9.3470    -0.4120 H     1 <1>   0.4000 
 43 H       -8.7070    -9.0880    -2.6440 H     1 <1>   0.1500 
 44 H      -10.4700   -11.5960     1.1680 H     1 <1>   0.1500 
 45 H       -7.0590   -10.7860     1.6390 H     1 <1>   0.0800 
 46 H       -8.4980   -11.4600     2.3190 H     1 <1>   0.0800 
 47 H       -8.2380    -9.7440     2.4220 H     1 <1>   0.0800 
 48 H      -10.8420   -10.1820    -2.8080 H     1 <1>   0.1500 
 49 H      -11.7490   -11.4380    -0.8990 H     1 <1>   0.1500 
@<TRIPOS>BOND
  1   1   2  1   
  2   2   3  ar  
  3   2   4  ar  
  4   3   5  1   
  5   3   6  ar  
  6   4   7  ar  
  7   4  27  1   
  8   5   8  1   
  9   6   9  ar  
 10   6  28  1   
 11   7   9  ar  
 12   7  10  1   
 13   8  29  1   
 14   8  30  1   
 15   8  31  1   
 16   9  32  1   
 17  10  11  am  
 18  10  33  1   
 19  11  12  2   
 20  11  13  1   
 21  13  14  1   
 22  13  34  1   
 23  13  35  1   
 24  14  15  1   
 25  14  16  1   
 26  15  17  1   
 27  15  36  1   
 28  15  37  1   
 29  16  18  1   
 30  16  38  1   
 31  16  39  1   
 32  17  18  1   
 33  17  19  1   
 34  17  20  1   
 35  18  40  1   
 36  18  41  1   
 37  19  42  1   
 38  20  21  ar  
 39  20  22  ar  
 40  21  23  ar  
 41  21  24  1   
 42  22  25  ar  
 43  22  43  1   
 44  23  26  ar  
 45  23  44  1   
 46  24  45  1   
 47  24  46  1   
 48  24  47  1   
 49  25  26  ar  
 50  25  48  1   
 51  26  49  1   
@<TRIPOS>SUBSTRUCTURE
  1 ****  14 GROUP 4 **** **** 0

# MOE 2024.06 (io_trps.svl 2023.06)
