@<TRIPOS>MOLECULE
NONAME
40 41 1 0 0 
SMALL
USER_CHARGES


@<TRIPOS>ATOM
  1 O       -1.1790     0.4630     2.8960 O.2   1 <1>  -0.5700 
  2 C       -1.6080     1.0000     1.9010 C.2   1 <1>   0.5690 
  3 N       -2.5740     0.4040     1.1340 N.am  1 <1>  -0.6600 
  4 C       -1.0610     2.3860     1.5470 C.3   1 <1>   0.1810 
  5 C       -3.2270     0.9820    -0.0640 C.3   1 <1>   0.1400 
  6 C       -3.0490    -0.9840     1.3650 C.3   1 <1>   0.1400 
  7 O       -0.6060     2.4580     0.2170 O.3   1 <1>  -0.5600 
  8 C       -4.4540     0.0990    -0.2840 C.3   1 <1>   0.2000 
  9 C       -4.0250    -1.2840     0.2140 C.3   1 <1>  -0.0800 
 10 C       -0.0610     3.7050    -0.1400 C.3   1 <1>   0.1810 
 11 O       -5.4710     0.5530     0.5390 O.3   1 <1>  -0.6800 
 12 C       -3.3580    -2.0870    -0.9210 C.3   1 <1>  -0.0170 
 13 C        0.4680     3.6980    -1.5750 C.2   1 <1>   0.5690 
 14 C       -3.0230    -3.5080    -0.4960 C.ar  1 <1>   0.1660 
 15 O        0.6910     4.7430    -2.1320 O.2   1 <1>  -0.5700 
 16 N        0.6870     2.5290    -2.2080 N.am  1 <1>  -0.8000 
 17 N       -1.7720    -3.7350    -0.1290 N.ar  1 <1>  -0.6200 
 18 C       -4.0150    -4.4780    -0.5120 C.ar  1 <1>  -0.1500 
 19 C       -1.4980    -4.9750     0.2410 C.ar  1 <1>   0.1600 
 20 C       -3.7150    -5.7670    -0.1250 C.ar  1 <1>  -0.1500 
 21 C       -2.4160    -6.0110     0.2620 C.ar  1 <1>  -0.1500 
 22 H       -0.2370     2.6100     2.2010 H     1 <1>   0.0800 
 23 H       -1.8370     3.1170     1.6870 H     1 <1>   0.0800 
 24 H       -3.4970     2.0130     0.0790 H     1 <1>   0.0800 
 25 H       -2.5550     0.8980    -0.9010 H     1 <1>   0.0800 
 26 H       -2.2150    -1.6640     1.3920 H     1 <1>   0.0800 
 27 H       -3.5590    -1.0260     2.3120 H     1 <1>   0.0800 
 28 H       -4.8110     0.1120    -1.3000 H     1 <1>   0.0800 
 29 H       -4.8740    -1.8420     0.5700 H     1 <1>   0.0800 
 30 H       -0.8260     4.4550    -0.0510 H     1 <1>   0.0800 
 31 H        0.7500     3.9340     0.5270 H     1 <1>   0.0800 
 32 H       -5.1230     0.6310     1.4510 H     1 <1>   0.4000 
 33 H       -2.4570    -1.5950    -1.2460 H     1 <1>   0.0800 
 34 H       -4.0220    -2.1350    -1.7650 H     1 <1>   0.0800 
 35 H        1.0440     2.5090    -3.1620 H     1 <1>   0.3700 
 36 H        0.4820     1.6370    -1.7510 H     1 <1>   0.3700 
 37 H       -5.0130    -4.2290    -0.8230 H     1 <1>   0.1500 
 38 H       -0.4850    -5.1760     0.5450 H     1 <1>   0.1500 
 39 H       -4.4600    -6.5440    -0.1250 H     1 <1>   0.1500 
 40 H       -2.1130    -6.9930     0.5760 H     1 <1>   0.1500 
@<TRIPOS>BOND
  1   1   2  2   
  2   2   3  am  
  3   2   4  1   
  4   3   5  1   
  5   3   6  1   
  6   4   7  1   
  7   4  22  1   
  8   4  23  1   
  9   5   8  1   
 10   5  24  1   
 11   5  25  1   
 12   6   9  1   
 13   6  26  1   
 14   6  27  1   
 15   7  10  1   
 16   8   9  1   
 17   8  11  1   
 18   8  28  1   
 19   9  12  1   
 20   9  29  1   
 21  10  13  1   
 22  10  30  1   
 23  10  31  1   
 24  11  32  1   
 25  12  14  1   
 26  12  33  1   
 27  12  34  1   
 28  13  15  2   
 29  13  16  am  
 30  14  17  ar  
 31  14  18  ar  
 32  16  35  1   
 33  16  36  1   
 34  17  19  ar  
 35  18  20  ar  
 36  18  37  1   
 37  19  21  ar  
 38  19  38  1   
 39  20  21  ar  
 40  20  39  1   
 41  21  40  1   
@<TRIPOS>SUBSTRUCTURE
  1 ****   3 GROUP 4 **** **** 0

# MOE 2024.06 (io_trps.svl 2023.06)
