@<TRIPOS>MOLECULE
NONAME
49 52 1 0 0 
SMALL
USER_CHARGES


@<TRIPOS>ATOM
  1 O       -0.8380     0.7940     1.4010 O.2   1 <1>  -0.5700 
  2 C       -1.8380     1.3480     0.9860 C.2   1 <1>   0.5440 
  3 N       -3.0680     0.7620     1.2070 N.am  1 <1>  -0.6600 
  4 C       -1.6980     2.5990     0.2630 C.ar  1 <1>   0.0860 
  5 C       -4.2690     1.0070     0.3630 C.3   1 <1>   0.1400 
  6 C       -3.2470    -0.3350     2.2000 C.3   1 <1>   0.1400 
  7 C       -2.4650     3.7210     0.5770 C.ar  1 <1>  -0.1500 
  8 C       -0.7700     2.7300    -0.7690 C.ar  1 <1>  -0.1500 
  9 C       -4.6220    -0.2790    -0.3900 C.3   1 <1>  -0.1600 
 10 C       -3.5980    -1.6310     1.4680 C.3   1 <1>  -0.1600 
 11 C       -2.3220     4.9090    -0.1160 C.ar  1 <1>  -0.1500 
 12 C       -0.6250     3.9170    -1.4630 C.ar  1 <1>  -0.1500 
 13 C       -4.8300    -1.4670     0.5660 C.3   1 <1>   0.4240 
 14 C       -1.4000     5.0280    -1.1500 C.ar  1 <1>   0.0730 
 15 O       -5.8880    -1.1420     1.4380 O.3   1 <1>  -0.5600 
 16 C       -5.1060    -2.7710    -0.2130 C.ar  1 <1>  -0.1430 
 17 C       -1.2490     6.2610    -1.8690 C.1   1 <1>   0.4840 
 18 C       -7.1870    -1.3760     0.9890 C.3   1 <1>   0.1200 
 19 C       -6.3190    -3.4410    -0.0900 C.ar  1 <1>  -0.1430 
 20 C       -4.1410    -3.3000    -1.0650 C.ar  1 <1>  -0.1500 
 21 N       -1.1350     7.2410    -2.4420 N.1   1 <1>  -0.5570 
 22 C       -7.3890    -2.8780     0.8230 C.3   1 <1>  -0.0170 
 23 C       -6.5560    -4.6130    -0.7920 C.ar  1 <1>  -0.1500 
 24 C       -4.3770    -4.4670    -1.7680 C.ar  1 <1>  -0.1500 
 25 C       -5.5820    -5.1330    -1.6370 C.ar  1 <1>   0.0830 
 26 O       -5.7340    -6.2720    -2.3590 O.3   1 <1>  -0.3620 
 27 C       -6.9160    -7.0370    -2.2820 C.3   1 <1>   0.0400 
 28 H       -4.0890     1.7920    -0.3480 H     1 <1>   0.0800 
 29 H       -5.0900     1.3020     0.9940 H     1 <1>   0.0800 
 30 H       -4.0400    -0.0700     2.8780 H     1 <1>   0.0800 
 31 H       -2.3500    -0.4750     2.7790 H     1 <1>   0.0800 
 32 H       -3.1780     3.6520     1.3810 H     1 <1>   0.1500 
 33 H       -0.1550     1.8810    -1.0180 H     1 <1>   0.1500 
 34 H       -3.8170    -0.5010    -1.0660 H     1 <1>   0.0800 
 35 H       -5.5000    -0.1290    -0.9870 H     1 <1>   0.0800 
 36 H       -3.7850    -2.4130     2.1810 H     1 <1>   0.0800 
 37 H       -2.7440    -1.9230     0.8870 H     1 <1>   0.0800 
 38 H       -2.9310     5.7570     0.1510 H     1 <1>   0.1500 
 39 H        0.1020     3.9820    -2.2560 H     1 <1>   0.1500 
 40 H       -7.3410    -0.8590     0.0580 H     1 <1>   0.0800 
 41 H       -7.8660    -0.9840     1.7260 H     1 <1>   0.0800 
 42 H       -3.1930    -2.8080    -1.1900 H     1 <1>   0.1500 
 43 H       -8.3650    -3.0600     0.4110 H     1 <1>   0.0800 
 44 H       -7.3320    -3.3550     1.7850 H     1 <1>   0.0800 
 45 H       -7.4990    -5.1080    -0.6710 H     1 <1>   0.1500 
 46 H       -3.6270    -4.8700    -2.4230 H     1 <1>   0.1500 
 47 H       -6.8040    -7.8900    -2.9270 H     1 <1>   0.0800 
 48 H       -7.7440    -6.4350    -2.6110 H     1 <1>   0.0800 
 49 H       -7.0540    -7.3630    -1.2660 H     1 <1>   0.0800 
@<TRIPOS>BOND
  1   1   2  2   
  2   2   3  am  
  3   2   4  1   
  4   3   5  1   
  5   3   6  1   
  6   4   7  ar  
  7   4   8  ar  
  8   5   9  1   
  9   5  28  1   
 10   5  29  1   
 11   6  10  1   
 12   6  30  1   
 13   6  31  1   
 14   7  11  ar  
 15   7  32  1   
 16   8  12  ar  
 17   8  33  1   
 18   9  13  1   
 19   9  34  1   
 20   9  35  1   
 21  10  13  1   
 22  10  36  1   
 23  10  37  1   
 24  11  14  ar  
 25  11  38  1   
 26  12  14  ar  
 27  12  39  1   
 28  13  15  1   
 29  13  16  1   
 30  14  17  1   
 31  15  18  1   
 32  16  19  ar  
 33  16  20  ar  
 34  17  21  3   
 35  18  22  1   
 36  18  40  1   
 37  18  41  1   
 38  19  22  1   
 39  19  23  ar  
 40  20  24  ar  
 41  20  42  1   
 42  22  43  1   
 43  22  44  1   
 44  23  25  ar  
 45  23  45  1   
 46  24  25  ar  
 47  24  46  1   
 48  25  26  1   
 49  26  27  1   
 50  27  47  1   
 51  27  48  1   
 52  27  49  1   
@<TRIPOS>SUBSTRUCTURE
  1 ****   9 GROUP 4 **** **** 0

# MOE 2024.06 (io_trps.svl 2023.06)
