@<TRIPOS>MOLECULE
NONAME
45 48 1 0 0 
SMALL
USER_CHARGES


@<TRIPOS>ATOM
  1 O       -2.4230     0.9850    -2.3240 O.2   1 <1>  -0.5700 
  2 C       -1.9790     1.0670    -1.1930 C.2   1 <1>   0.5440 
  3 N       -1.7120    -0.1030    -0.5500 N.am  1 <1>  -0.7300 
  4 C       -1.7680     2.3660    -0.5630 C.ar  1 <1>   0.0860 
  5 C       -1.7900    -1.4670    -1.1200 C.3   1 <1>   0.2200 
  6 C       -1.1110     2.5540     0.6660 C.ar  1 <1>   0.0820 
  7 C       -2.2400     3.5160    -1.2090 C.ar  1 <1>  -0.1500 
  8 C       -2.9770    -2.2320    -0.5540 C.3   1 <1>  -0.0800 
  9 C       -0.6360    -2.2960    -0.5720 C.3   1 <1>   0.1200 
 10 O       -0.5980     1.4930     1.3480 O.3   1 <1>  -0.3630 
 11 C       -0.9650     3.8380     1.2060 C.ar  1 <1>   0.0820 
 12 C       -2.0830     4.7820    -0.6800 C.ar  1 <1>  -0.1500 
 13 C       -2.4340    -2.7730     0.7730 C.3   1 <1>   0.1200 
 14 C       -4.2880    -1.4350    -0.4260 C.3   1 <1>  -0.0160 
 15 O       -1.0380    -2.6990     0.7030 O.3   1 <1>  -0.5600 
 16 C        0.3270     1.7370     2.3890 C.3   1 <1>   0.1200 
 17 O       -0.3560     4.0460     2.4020 O.3   1 <1>  -0.3630 
 18 C       -1.4420     4.9450     0.5330 C.ar  1 <1>  -0.1500 
 19 C       -5.4250    -2.3330     0.0360 C.ar  1 <1>  -0.1430 
 20 C       -0.1450     2.9230     3.2320 C.3   1 <1>   0.1200 
 21 C       -5.8210    -2.3980     1.3560 C.ar  1 <1>  -0.1500 
 22 C       -6.1200    -3.1340    -0.8480 C.ar  1 <1>  -0.1500 
 23 C       -6.8590    -3.2410     1.7190 C.ar  1 <1>   0.1600 
 24 C       -7.1440    -3.9420    -0.3820 C.ar  1 <1>   0.1600 
 25 N       -7.5290    -4.0160     0.8820 N.ar  1 <1>  -0.6200 
 26 H       -1.3100    -0.0510     0.3930 H     1 <1>   0.3700 
 27 H       -1.7930    -1.4300    -2.1960 H     1 <1>   0.0800 
 28 H       -2.7450     3.4130    -2.1550 H     1 <1>   0.1500 
 29 H       -3.1580    -3.0760    -1.1960 H     1 <1>   0.0800 
 30 H        0.2820    -1.7390    -0.5070 H     1 <1>   0.0800 
 31 H       -0.4890    -3.1810    -1.1660 H     1 <1>   0.0800 
 32 H       -2.4580     5.6410    -1.2100 H     1 <1>   0.1500 
 33 H       -2.7260    -3.7960     0.9380 H     1 <1>   0.0800 
 34 H       -2.7480    -2.1660     1.6040 H     1 <1>   0.0800 
 35 H       -4.5370    -1.0050    -1.3810 H     1 <1>   0.0800 
 36 H       -4.1680    -0.6230     0.2690 H     1 <1>   0.0800 
 37 H        0.4010     0.8460     2.9860 H     1 <1>   0.0800 
 38 H        1.2840     1.9480     1.9460 H     1 <1>   0.0800 
 39 H       -1.3140     5.9240     0.9600 H     1 <1>   0.1500 
 40 H        0.5910     3.1890     3.9690 H     1 <1>   0.0800 
 41 H       -1.0730     2.6910     3.7250 H     1 <1>   0.0800 
 42 H       -5.3340    -1.8020     2.1060 H     1 <1>   0.1500 
 43 H       -5.8740    -3.1360    -1.8950 H     1 <1>   0.1500 
 44 H       -7.1540    -3.2790     2.7540 H     1 <1>   0.1500 
 45 H       -7.6740    -4.5590    -1.0870 H     1 <1>   0.1500 
@<TRIPOS>BOND
  1   1   2  2   
  2   2   3  am  
  3   2   4  1   
  4   3   5  1   
  5   3  26  1   
  6   4   6  ar  
  7   4   7  ar  
  8   5   8  1   
  9   5   9  1   
 10   5  27  1   
 11   6  10  1   
 12   6  11  ar  
 13   7  12  ar  
 14   7  28  1   
 15   8  13  1   
 16   8  14  1   
 17   8  29  1   
 18   9  15  1   
 19   9  30  1   
 20   9  31  1   
 21  10  16  1   
 22  11  17  1   
 23  11  18  ar  
 24  12  18  ar  
 25  12  32  1   
 26  13  15  1   
 27  13  33  1   
 28  13  34  1   
 29  14  19  1   
 30  14  35  1   
 31  14  36  1   
 32  16  20  1   
 33  16  37  1   
 34  16  38  1   
 35  17  20  1   
 36  18  39  1   
 37  19  21  ar  
 38  19  22  ar  
 39  20  40  1   
 40  20  41  1   
 41  21  23  ar  
 42  21  42  1   
 43  22  24  ar  
 44  22  43  1   
 45  23  25  ar  
 46  23  44  1   
 47  24  25  ar  
 48  24  45  1   
@<TRIPOS>SUBSTRUCTURE
  1 ****   3 GROUP 4 **** **** 0

# MOE 2024.06 (io_trps.svl 2023.06)
