@<TRIPOS>MOLECULE
NONAME
45 48 1 0 0 
SMALL
USER_CHARGES


@<TRIPOS>ATOM
  1 O       -1.7470     0.8410     0.1580 O.3   1 <1>  -0.2800 
  2 C       -2.1520     0.3930     1.3330 C.2   1 <1>  -0.0400 
  3 C       -1.0340     1.9280     0.3700 C.2   1 <1>  -0.0400 
  4 C       -1.7080     1.1950     2.3250 C.2   1 <1>  -0.1500 
  5 C       -3.0160    -0.8510     1.3600 C.3   1 <1>   0.5230 
  6 C       -0.9730     2.2030     1.6900 C.2   1 <1>  -0.1500 
  7 C       -0.4300     2.6510    -0.8140 C.3   1 <1>  -0.0600 
  8 N       -4.1110    -0.6440     0.3780 N.4   1 <1>  -0.9590 
  9 C       -5.0470     0.4380     0.8360 C.3   1 <1>   0.3430 
 10 C       -4.8310    -1.8990     0.0310 C.3   1 <1>   0.3430 
 11 C       -6.0780     0.7910    -0.2480 C.3   1 <1>   0.1430 
 12 C       -5.8410    -1.6150    -1.0870 C.3   1 <1>  -0.1600 
 13 C       -7.0560     1.7820     0.3360 C.ar  1 <1>   0.1670 
 14 C       -6.8160    -0.4810    -0.7200 C.3   1 <1>  -0.1600 
 15 C       -5.4590     1.5850    -1.4310 C.3   1 <1>  -0.1600 
 16 N       -7.6390     1.6470     1.5000 N.ar  1 <1>  -0.6200 
 17 C       -7.2470     2.8520    -0.4850 C.ar  1 <1>  -0.1430 
 18 C       -6.4320     2.7390    -1.7490 C.3   1 <1>  -0.0170 
 19 C       -8.4400     2.6570     1.8130 C.ar  1 <1>   0.7200 
 20 C       -8.1090     3.8330    -0.0580 C.ar  1 <1>   0.1600 
 21 N       -8.7190     3.7400     1.1030 N.ar  1 <1>  -0.6200 
 22 N       -9.0600     2.5650     2.9900 N.pl3 1 <1>  -0.9000 
 23 H       -1.8570     1.1250     3.3900 H     1 <1>   0.1500 
 24 H       -3.4100    -1.0170     2.3490 H     1 <1>   0.0800 
 25 H       -2.4150    -1.6970     1.0720 H     1 <1>   0.0800 
 26 H       -0.4700     3.0160     2.1850 H     1 <1>   0.1500 
 27 H        0.2330     1.9920    -1.3440 H     1 <1>   0.0800 
 28 H        0.1270     3.5080    -0.4810 H     1 <1>   0.0800 
 29 H       -1.2060     2.9780    -1.4810 H     1 <1>   0.0800 
 30 H       -3.6290    -0.2850    -0.4590 H     1 <1>   0.4500 
 31 H       -4.4950     1.3280     1.0920 H     1 <1>   0.0800 
 32 H       -5.5760     0.1120     1.7170 H     1 <1>   0.0800 
 33 H       -5.3520    -2.2730     0.8980 H     1 <1>   0.0800 
 34 H       -4.1320    -2.6510    -0.2990 H     1 <1>   0.0800 
 35 H       -6.4040    -2.5120    -1.2810 H     1 <1>   0.0800 
 36 H       -5.3110    -1.3760    -1.9920 H     1 <1>   0.0800 
 37 H       -7.4500    -0.2500    -1.5600 H     1 <1>   0.0800 
 38 H       -7.4580    -0.8230     0.0760 H     1 <1>   0.0800 
 39 H       -5.2850     0.9780    -2.3020 H     1 <1>   0.0800 
 40 H       -4.5210     2.0180    -1.1260 H     1 <1>   0.0800 
 41 H       -7.0760     2.4820    -2.5720 H     1 <1>   0.0800 
 42 H       -5.9070     3.6530    -1.9690 H     1 <1>   0.0800 
 43 H       -8.3010     4.7000    -0.6680 H     1 <1>   0.1500 
 44 H       -9.8450     3.2010     3.1070 H     1 <1>   0.4000 
 45 H       -9.1790     1.6290     3.3630 H     1 <1>   0.4000 
@<TRIPOS>BOND
  1   1   2  1   
  2   1   3  1   
  3   2   4  2   
  4   2   5  1   
  5   3   6  2   
  6   3   7  1   
  7   4   6  1   
  8   4  23  1   
  9   5   8  1   
 10   5  24  1   
 11   5  25  1   
 12   6  26  1   
 13   7  27  1   
 14   7  28  1   
 15   7  29  1   
 16   8   9  1   
 17   8  10  1   
 18   8  30  1   
 19   9  11  1   
 20   9  31  1   
 21   9  32  1   
 22  10  12  1   
 23  10  33  1   
 24  10  34  1   
 25  11  13  1   
 26  11  14  1   
 27  11  15  1   
 28  12  14  1   
 29  12  35  1   
 30  12  36  1   
 31  13  16  ar  
 32  13  17  ar  
 33  14  37  1   
 34  14  38  1   
 35  15  18  1   
 36  15  39  1   
 37  15  40  1   
 38  16  19  ar  
 39  17  18  1   
 40  17  20  ar  
 41  18  41  1   
 42  18  42  1   
 43  19  21  ar  
 44  19  22  1   
 45  20  21  ar  
 46  20  43  1   
 47  22  44  1   
 48  22  45  1   
@<TRIPOS>SUBSTRUCTURE
  1 ****   9 GROUP 4 **** **** 0

# MOE 2024.06 (io_trps.svl 2023.06)
