@<TRIPOS>MOLECULE
NONAME
47 48 1 0 0 
SMALL
USER_CHARGES


@<TRIPOS>ATOM
  1 O        0.1100    -0.0680     0.6550 O.2   1 <1>  -0.5700 
  2 C        1.1330    -0.6710     0.4040 C.2   1 <1>   0.5440 
  3 N        2.2850     0.0090     0.0910 N.am  1 <1>  -0.4940 
  4 C        1.1620    -2.1190     0.4630 C.ar  1 <1>   0.0860 
  5 C        2.4990     1.3760    -0.1200 C.2   1 <1>   0.2040 
  6 C        1.9180    -2.8800    -0.4310 C.ar  1 <1>  -0.1500 
  7 C        0.4300    -2.8080     1.4290 C.ar  1 <1>  -0.1500 
  8 O        1.5200     2.2480    -0.1630 O.3   1 <1>  -0.0190 
  9 C        3.6510     2.0480    -0.3160 C.2   1 <1>  -0.1810 
 10 C        1.9540    -4.2600    -0.3510 C.ar  1 <1>  -0.1500 
 11 C        0.4630    -4.1870     1.5130 C.ar  1 <1>  -0.1500 
 12 N        1.9580     3.4640    -0.3750 N.2   1 <1>  -0.4100 
 13 C        3.2350     3.3700    -0.4680 C.2   1 <1>   0.1080 
 14 C        5.0760     1.5210    -0.3630 C.3   1 <1>   0.0210 
 15 C        1.2280    -4.9230     0.6240 C.ar  1 <1>  -0.1430 
 16 C        4.1360     4.5620    -0.7150 C.3   1 <1>  -0.0590 
 17 C        5.7360     1.6350     1.0120 C.3   1 <1>  -0.2400 
 18 C        1.2560    -6.4410     0.7110 C.3   1 <1>  -0.0170 
 19 C        0.1630    -7.0410    -0.1900 C.3   1 <1>  -0.1600 
 20 C        0.0260    -8.5720    -0.1200 C.3   1 <1>   0.2800 
 21 O       -0.2260    -8.9250     1.1790 O.3   1 <1>  -0.6800 
 22 C       -1.1680    -9.0500    -0.9430 C.3   1 <1>  -0.2400 
 23 C        1.2970    -9.3100    -0.5390 C.3   1 <1>  -0.2400 
 24 H        3.1230    -0.5620     0.0640 H     1 <1>   0.3700 
 25 H        2.4770    -2.3900    -1.2090 H     1 <1>   0.1500 
 26 H       -0.1720    -2.2450     2.1220 H     1 <1>   0.1500 
 27 H        2.5450    -4.8210    -1.0540 H     1 <1>   0.1500 
 28 H       -0.1130    -4.6870     2.2730 H     1 <1>   0.1500 
 29 H        5.6440     2.0750    -1.0890 H     1 <1>   0.0800 
 30 H        5.0690     0.4910    -0.6710 H     1 <1>   0.0800 
 31 H        4.8330     4.6680     0.0950 H     1 <1>   0.0800 
 32 H        3.5450     5.4580    -0.7830 H     1 <1>   0.0800 
 33 H        4.6730     4.4300    -1.6350 H     1 <1>   0.0800 
 34 H        5.7710     2.6630     1.3270 H     1 <1>   0.0800 
 35 H        6.7400     1.2510     0.9760 H     1 <1>   0.0800 
 36 H        5.1770     1.0750     1.7410 H     1 <1>   0.0800 
 37 H        1.1050    -6.7440     1.7320 H     1 <1>   0.0800 
 38 H        2.2250    -6.7950     0.4080 H     1 <1>   0.0800 
 39 H        0.3700    -6.7620    -1.2080 H     1 <1>   0.0800 
 40 H       -0.7810    -6.5940     0.0690 H     1 <1>   0.0800 
 41 H       -1.0870    -8.5620     1.4520 H     1 <1>   0.4000 
 42 H       -2.0720    -8.5590    -0.6310 H     1 <1>   0.0800 
 43 H       -1.2910   -10.1140    -0.8420 H     1 <1>   0.0800 
 44 H       -1.0070    -8.8290    -1.9830 H     1 <1>   0.0800 
 45 H        2.1110    -9.0800     0.1230 H     1 <1>   0.0800 
 46 H        1.5750    -9.0310    -1.5390 H     1 <1>   0.0800 
 47 H        1.1320   -10.3720    -0.5180 H     1 <1>   0.0800 
@<TRIPOS>BOND
  1   1   2  2   
  2   2   3  am  
  3   2   4  1   
  4   3   5  1   
  5   3  24  1   
  6   4   6  ar  
  7   4   7  ar  
  8   5   8  1   
  9   5   9  2   
 10   6  10  ar  
 11   6  25  1   
 12   7  11  ar  
 13   7  26  1   
 14   8  12  1   
 15   9  13  1   
 16   9  14  1   
 17  10  15  ar  
 18  10  27  1   
 19  11  15  ar  
 20  11  28  1   
 21  12  13  2   
 22  13  16  1   
 23  14  17  1   
 24  14  29  1   
 25  14  30  1   
 26  15  18  1   
 27  16  31  1   
 28  16  32  1   
 29  16  33  1   
 30  17  34  1   
 31  17  35  1   
 32  17  36  1   
 33  18  19  1   
 34  18  37  1   
 35  18  38  1   
 36  19  20  1   
 37  19  39  1   
 38  19  40  1   
 39  20  21  1   
 40  20  22  1   
 41  20  23  1   
 42  21  41  1   
 43  22  42  1   
 44  22  43  1   
 45  22  44  1   
 46  23  45  1   
 47  23  46  1   
 48  23  47  1   
@<TRIPOS>SUBSTRUCTURE
  1 ****   4 GROUP 4 **** **** 0

# MOE 2024.06 (io_trps.svl 2023.06)
