@<TRIPOS>MOLECULE
NONAME
46 49 1 0 0 
SMALL
USER_CHARGES


@<TRIPOS>ATOM
  1 N        0.9270     0.6190     0.8540 N.ar  1 <1>  -0.6200 
  2 C        0.0510     1.5620     1.1800 C.ar  1 <1>   0.4760 
  3 C        1.5380     0.8300    -0.2880 C.ar  1 <1>   0.1660 
  4 N       -0.2490     2.6630     0.5040 N.ar  1 <1>  -0.6200 
  5 C       -0.6920     1.3690     2.4800 C.3   1 <1>  -0.0960 
  6 C        1.3170     1.9230    -1.0690 C.ar  1 <1>  -0.1440 
  7 C        2.5750    -0.0900    -0.8850 C.3   1 <1>   0.1430 
  8 C        0.3940     2.8390    -0.6320 C.ar  1 <1>   0.1600 
  9 C        2.1730     1.9030    -2.3110 C.3   1 <1>  -0.0160 
 10 C        3.5880    -0.4540     0.2130 C.3   1 <1>   0.3430 
 11 C        1.9000    -1.3630    -1.4390 C.3   1 <1>  -0.1600 
 12 C        3.1910     0.7840    -2.0120 C.3   1 <1>  -0.1600 
 13 N        4.5780    -1.4870    -0.2520 N.4   1 <1>  -0.9590 
 14 C        2.9270    -2.4450    -1.8180 C.3   1 <1>  -0.1600 
 15 C        3.8990    -2.7440    -0.6720 C.3   1 <1>   0.3430 
 16 C        5.6150    -1.7330     0.7840 C.3   1 <1>   0.4860 
 17 C        6.4660    -0.4840     0.8920 C.ar  1 <1>  -0.1440 
 18 C        6.2870     0.3970     1.9500 C.ar  1 <1>  -0.1500 
 19 C        7.4250    -0.2080    -0.0720 C.ar  1 <1>  -0.1500 
 20 C        7.0500     1.5480     2.0330 C.ar  1 <1>  -0.1500 
 21 C        8.1880     0.9440     0.0140 C.ar  1 <1>  -0.1500 
 22 C        7.9990     1.8220     1.0650 C.ar  1 <1>  -0.1500 
 23 H       -0.6280     0.3470     2.8030 H     1 <1>   0.0800 
 24 H       -1.7260     1.6270     2.3470 H     1 <1>   0.0800 
 25 H       -0.2650     2.0060     3.2310 H     1 <1>   0.0800 
 26 H        0.1780     3.7220    -1.2100 H     1 <1>   0.1500 
 27 H        2.6580     2.8500    -2.4760 H     1 <1>   0.0800 
 28 H        1.5650     1.6520    -3.1630 H     1 <1>   0.0800 
 29 H        3.0440    -0.8310     1.0630 H     1 <1>   0.0800 
 30 H        4.0990     0.4440     0.5210 H     1 <1>   0.0800 
 31 H        1.2870    -1.1180    -2.2900 H     1 <1>   0.0800 
 32 H        1.2430    -1.7630    -0.6830 H     1 <1>   0.0800 
 33 H        3.4220     0.2260    -2.9010 H     1 <1>   0.0800 
 34 H        4.0960     1.2480    -1.6560 H     1 <1>   0.0800 
 35 H        5.0700    -1.0890    -1.0610 H     1 <1>   0.4500 
 36 H        3.4830    -2.1470    -2.6900 H     1 <1>   0.0800 
 37 H        2.4030    -3.3510    -2.0730 H     1 <1>   0.0800 
 38 H        3.3520    -3.1590     0.1600 H     1 <1>   0.0800 
 39 H        4.6270    -3.4700    -0.9980 H     1 <1>   0.0800 
 40 H        6.2400    -2.5630     0.4970 H     1 <1>   0.0800 
 41 H        5.1560    -1.9580     1.7330 H     1 <1>   0.0800 
 42 H        5.5580     0.2040     2.7190 H     1 <1>   0.1500 
 43 H        7.5980    -0.8800    -0.8950 H     1 <1>   0.1500 
 44 H        6.9110     2.2330     2.8540 H     1 <1>   0.1500 
 45 H        8.9340     1.1580    -0.7330 H     1 <1>   0.1500 
 46 H        8.5940     2.7180     1.1330 H     1 <1>   0.1500 
@<TRIPOS>BOND
  1   1   2  ar  
  2   1   3  ar  
  3   2   4  ar  
  4   2   5  1   
  5   3   6  ar  
  6   3   7  1   
  7   4   8  ar  
  8   5  23  1   
  9   5  24  1   
 10   5  25  1   
 11   6   8  ar  
 12   6   9  1   
 13   7  10  1   
 14   7  11  1   
 15   7  12  1   
 16   8  26  1   
 17   9  12  1   
 18   9  27  1   
 19   9  28  1   
 20  10  13  1   
 21  10  29  1   
 22  10  30  1   
 23  11  14  1   
 24  11  31  1   
 25  11  32  1   
 26  12  33  1   
 27  12  34  1   
 28  13  15  1   
 29  13  16  1   
 30  13  35  1   
 31  14  15  1   
 32  14  36  1   
 33  14  37  1   
 34  15  38  1   
 35  15  39  1   
 36  16  17  1   
 37  16  40  1   
 38  16  41  1   
 39  17  18  ar  
 40  17  19  ar  
 41  18  20  ar  
 42  18  42  1   
 43  19  21  ar  
 44  19  43  1   
 45  20  22  ar  
 46  20  44  1   
 47  21  22  ar  
 48  21  45  1   
 49  22  46  1   
@<TRIPOS>SUBSTRUCTURE
  1 ****  10 GROUP 4 **** **** 0

# MOE 2024.06 (io_trps.svl 2023.06)
