@<TRIPOS>MOLECULE
NONAME
55 59 1 0 0 
SMALL
USER_CHARGES


@<TRIPOS>ATOM
  1 O       -0.0530    -1.4250     0.6030 O.2   1 <1>  -0.5700 
  2 C       -0.4590    -0.3320     0.9240 C.2   1 <1>   0.5690 
  3 N       -1.5940     0.2090     0.3630 N.am  1 <1>  -0.6600 
  4 C        0.3340     0.3910     1.9900 C.3   1 <1>   0.1570 
  5 C       -2.1490     1.5720     0.6730 C.3   1 <1>   0.1400 
  6 C       -2.4230    -0.5780    -0.5970 C.3   1 <1>   0.1400 
  7 N        1.2170     1.3880     1.3720 N.pl3 1 <1>   0.3140 
  8 C       -2.3990     2.3980    -0.6060 C.3   1 <1>   0.1440 
  9 C       -2.6330     0.2140    -1.8910 C.3   1 <1>  -0.1600 
 10 N        1.2020     2.6680     1.7710 N.2   1 <1>  -0.7070 
 11 C        2.1170     1.1640     0.4050 C.2   1 <1>  -0.3020 
 12 C       -3.0770     3.6950    -0.2090 C.ar  1 <1>   0.1670 
 13 C       -3.2530     1.5910    -1.6070 C.3   1 <1>  -0.1600 
 14 C       -1.0720     2.8900    -1.2450 C.3   1 <1>  -0.1600 
 15 C        2.1260     3.2460     1.0330 C.ar  1 <1>   0.2890 
 16 C        2.7330     2.3460     0.1410 C.ar  1 <1>   0.0000 
 17 N       -4.3130     3.8040     0.2110 N.ar  1 <1>  -0.6200 
 18 C       -2.2360     4.7590    -0.3220 C.ar  1 <1>  -0.1440 
 19 C       -0.8670     4.3490    -0.7990 C.3   1 <1>  -0.0170 
 20 C        2.5400     4.5980     1.0370 C.ar  1 <1>  -0.1500 
 21 C        3.7400     2.8000    -0.7480 C.ar  1 <1>  -0.1500 
 22 C       -4.7040     5.0440     0.5150 C.ar  1 <1>   0.7200 
 23 C       -2.7240     5.9960     0.0130 C.ar  1 <1>   0.1600 
 24 C        3.5100     5.0200     0.1760 C.ar  1 <1>  -0.1500 
 25 C        4.1150     4.1100    -0.7270 C.ar  1 <1>  -0.1500 
 26 N       -3.9580     6.1510     0.4310 N.ar  1 <1>  -0.6200 
 27 N       -6.0030     5.1960     0.9610 N.pl3 1 <1>  -0.8380 
 28 C       -7.0310     4.1350     0.7800 C.3   1 <1>   0.1290 
 29 C       -6.4700     6.4460     1.6200 C.3   1 <1>   0.1290 
 30 H        0.9400    -0.3140     2.5240 H     1 <1>   0.0800 
 31 H       -0.3230     0.8760     2.6850 H     1 <1>   0.0800 
 32 H       -1.4930     2.1280     1.3180 H     1 <1>   0.0800 
 33 H       -3.0840     1.4490     1.1910 H     1 <1>   0.0800 
 34 H       -3.3750    -0.7890    -0.1410 H     1 <1>   0.0800 
 35 H       -1.9530    -1.5190    -0.8280 H     1 <1>   0.0800 
 36 H       -3.2830    -0.3440    -2.5420 H     1 <1>   0.0800 
 37 H       -1.6870     0.3230    -2.3910 H     1 <1>   0.0800 
 38 H        2.2830     0.2030    -0.0480 H     1 <1>   0.1500 
 39 H       -3.3720     2.1430    -2.5230 H     1 <1>   0.0800 
 40 H       -4.2350     1.4480    -1.1900 H     1 <1>   0.0800 
 41 H       -1.1600     2.8810    -2.3170 H     1 <1>   0.0800 
 42 H       -0.2330     2.2750    -0.9770 H     1 <1>   0.0800 
 43 H       -0.5220     4.9670    -1.6100 H     1 <1>   0.0800 
 44 H       -0.1760     4.4040     0.0210 H     1 <1>   0.0800 
 45 H        2.0610     5.2570     1.7380 H     1 <1>   0.1500 
 46 H        4.1830     2.0860    -1.4200 H     1 <1>   0.1500 
 47 H       -2.0960     6.8670    -0.0590 H     1 <1>   0.1500 
 48 H        3.8390     6.0450     0.1660 H     1 <1>   0.1500 
 49 H        4.8780     4.4810    -1.3900 H     1 <1>   0.1500 
 50 H       -6.8030     3.5290    -0.0790 H     1 <1>   0.0800 
 51 H       -7.9990     4.5800     0.6310 H     1 <1>   0.0800 
 52 H       -7.0570     3.5080     1.6540 H     1 <1>   0.0800 
 53 H       -5.6550     6.9310     2.1310 H     1 <1>   0.0800 
 54 H       -7.2340     6.2200     2.3430 H     1 <1>   0.0800 
 55 H       -6.8660     7.1170     0.8780 H     1 <1>   0.0800 
@<TRIPOS>BOND
  1   1   2  2   
  2   2   3  am  
  3   2   4  1   
  4   3   5  1   
  5   3   6  1   
  6   4   7  1   
  7   4  30  1   
  8   4  31  1   
  9   5   8  1   
 10   5  32  1   
 11   5  33  1   
 12   6   9  1   
 13   6  34  1   
 14   6  35  1   
 15   7  10  1   
 16   7  11  1   
 17   8  12  1   
 18   8  13  1   
 19   8  14  1   
 20   9  13  1   
 21   9  36  1   
 22   9  37  1   
 23  10  15  2   
 24  11  16  2   
 25  11  38  1   
 26  12  17  ar  
 27  12  18  ar  
 28  13  39  1   
 29  13  40  1   
 30  14  19  1   
 31  14  41  1   
 32  14  42  1   
 33  15  16  ar  
 34  15  20  ar  
 35  16  21  ar  
 36  17  22  ar  
 37  18  19  1   
 38  18  23  ar  
 39  19  43  1   
 40  19  44  1   
 41  20  24  ar  
 42  20  45  1   
 43  21  25  ar  
 44  21  46  1   
 45  22  26  ar  
 46  22  27  1   
 47  23  26  ar  
 48  23  47  1   
 49  24  25  ar  
 50  24  48  1   
 51  25  49  1   
 52  27  28  1   
 53  27  29  1   
 54  28  50  1   
 55  28  51  1   
 56  28  52  1   
 57  29  53  1   
 58  29  54  1   
 59  29  55  1   
@<TRIPOS>SUBSTRUCTURE
  1 ****  14 GROUP 4 **** **** 0

# MOE 2024.06 (io_trps.svl 2023.06)
