@<TRIPOS>MOLECULE
NONAME
50 52 1 0 0 
SMALL
USER_CHARGES


@<TRIPOS>ATOM
  1 F       -4.9940    -2.0770     2.1320 F     1 <1>  -0.3400 
  2 C       -4.4910    -0.9820     1.5790 C.3   1 <1>   0.8800 
  3 F       -3.8060    -0.3720     2.5360 F     1 <1>  -0.3400 
  4 O       -5.5760    -0.1480     1.2270 O.3   1 <1>  -0.3630 
  5 C       -5.4330     0.6480     0.1470 C.ar  1 <1>   0.0830 
  6 C       -5.2950     0.1190    -1.1420 C.ar  1 <1>   0.0860 
  7 C       -5.4600     2.0180     0.3530 C.ar  1 <1>  -0.1500 
  8 C       -5.3080    -1.3060    -1.3750 C.2   1 <1>   0.5440 
  9 C       -5.1520     1.0130    -2.2020 C.ar  1 <1>  -0.1500 
 10 C       -5.3260     2.8840    -0.7150 C.ar  1 <1>  -0.1500 
 11 O       -4.2450    -1.8830    -1.5000 O.2   1 <1>  -0.5700 
 12 N       -6.4770    -2.0320    -1.3850 N.am  1 <1>  -0.6600 
 13 C       -5.1670     2.3800    -1.9950 C.ar  1 <1>  -0.1500 
 14 C       -7.8170    -1.4610    -1.0440 C.3   1 <1>   0.1400 
 15 C       -6.4930    -3.5270    -1.4300 C.3   1 <1>   0.1400 
 16 C       -8.3770    -2.1360     0.2220 C.3   1 <1>   0.2950 
 17 C       -7.1500    -4.1060    -0.1550 C.3   1 <1>   0.2000 
 18 O       -8.4070    -3.5230     0.0470 O.3   1 <1>  -0.5600 
 19 C       -9.8040    -1.6700     0.5240 C.3   1 <1>  -0.1950 
 20 C       -7.3740    -5.6220    -0.2270 C.3   1 <1>  -0.1600 
 21 C      -10.0520    -0.4170     1.3040 C.3   1 <1>  -0.2000 
 22 C      -10.3700    -1.7580     1.9050 C.3   1 <1>  -0.2000 
 23 C       -6.0620    -6.4220    -0.2940 C.3   1 <1>  -0.1600 
 24 C       -6.3370    -7.9300    -0.2670 C.3   1 <1>  -0.1600 
 25 C       -5.0330    -8.7280    -0.3350 C.3   1 <1>  -0.2400 
 26 H       -3.8430    -1.2380     0.7600 H     1 <1>   0.0800 
 27 H       -5.5830     2.4020     1.3510 H     1 <1>   0.1500 
 28 H       -5.0280     0.6230    -3.1980 H     1 <1>   0.1500 
 29 H       -5.3420     3.9490    -0.5540 H     1 <1>   0.1500 
 30 H       -5.0570     3.0540    -2.8270 H     1 <1>   0.1500 
 31 H       -7.7630    -0.4000    -0.8820 H     1 <1>   0.0800 
 32 H       -8.4920    -1.6340    -1.8630 H     1 <1>   0.0800 
 33 H       -7.0470    -3.8480    -2.2930 H     1 <1>   0.0800 
 34 H       -5.4930    -3.9110    -1.5220 H     1 <1>   0.0800 
 35 H       -7.7430    -1.9160     1.0640 H     1 <1>   0.0800 
 36 H       -6.5370    -3.8810     0.7010 H     1 <1>   0.0800 
 37 H      -10.4740    -1.8800    -0.2920 H     1 <1>   0.1000 
 38 H       -7.9160    -5.9210     0.6530 H     1 <1>   0.0800 
 39 H       -7.9790    -5.8500    -1.0870 H     1 <1>   0.0800 
 40 H       -9.2180     0.1340     1.7050 H     1 <1>   0.1000 
 41 H      -10.8680     0.2220     1.0150 H     1 <1>   0.1000 
 42 H      -11.3990    -2.0520     2.0170 H     1 <1>   0.1000 
 43 H       -9.7450    -2.1420     2.6930 H     1 <1>   0.1000 
 44 H       -5.5280    -6.1810    -1.1960 H     1 <1>   0.0800 
 45 H       -5.4400    -6.1580     0.5450 H     1 <1>   0.0800 
 46 H       -6.8610    -8.1860     0.6390 H     1 <1>   0.0800 
 47 H       -6.9620    -8.1990    -1.1010 H     1 <1>   0.0800 
 48 H       -4.4010    -8.4890     0.5020 H     1 <1>   0.0800 
 49 H       -4.5020    -8.5060    -1.2450 H     1 <1>   0.0800 
 50 H       -5.2450    -9.7830    -0.3130 H     1 <1>   0.0800 
@<TRIPOS>BOND
  1   1   2  1   
  2   2   3  1   
  3   2   4  1   
  4   2  26  1   
  5   4   5  1   
  6   5   6  ar  
  7   5   7  ar  
  8   6   8  1   
  9   6   9  ar  
 10   7  10  ar  
 11   7  27  1   
 12   8  11  2   
 13   8  12  am  
 14   9  13  ar  
 15   9  28  1   
 16  10  13  ar  
 17  10  29  1   
 18  12  14  1   
 19  12  15  1   
 20  13  30  1   
 21  14  16  1   
 22  14  31  1   
 23  14  32  1   
 24  15  17  1   
 25  15  33  1   
 26  15  34  1   
 27  16  18  1   
 28  16  19  1   
 29  16  35  1   
 30  17  18  1   
 31  17  20  1   
 32  17  36  1   
 33  19  21  1   
 34  19  22  1   
 35  19  37  1   
 36  20  23  1   
 37  20  38  1   
 38  20  39  1   
 39  21  22  1   
 40  21  40  1   
 41  21  41  1   
 42  22  42  1   
 43  22  43  1   
 44  23  24  1   
 45  23  44  1   
 46  23  45  1   
 47  24  25  1   
 48  24  46  1   
 49  24  47  1   
 50  25  48  1   
 51  25  49  1   
 52  25  50  1   
@<TRIPOS>SUBSTRUCTURE
  1 ****  12 GROUP 4 **** **** 0

# MOE 2024.06 (io_trps.svl 2023.06)
