@<TRIPOS>MOLECULE
NONAME
49 52 1 0 0 
SMALL
USER_CHARGES


@<TRIPOS>ATOM
  1 O        1.7730    -1.1470    -2.7900 O.2   1 <1>  -0.5700 
  2 C        2.1940    -1.7090    -1.8060 C.2   1 <1>   0.5690 
  3 N        1.5380    -1.7150    -0.6060 N.am  1 <1>  -0.6600 
  4 C        3.5090    -2.4540    -1.8880 C.3   1 <1>  -0.0990 
  5 C        2.1580    -2.3580     0.5800 C.3   1 <1>   0.1400 
  6 C        0.2500    -1.0050    -0.3900 C.3   1 <1>   0.0600 
  7 C        3.3820    -3.8240    -1.1980 C.3   1 <1>  -0.0800 
  8 C        2.7530    -3.7340     0.2100 C.3   1 <1>  -0.0800 
  9 C        4.7330    -4.5370    -1.0470 C.3   1 <1>  -0.1600 
 10 C        3.8460    -4.1730     1.1910 C.3   1 <1>  -0.1600 
 11 C        4.7720    -5.0740     0.3810 C.3   1 <1>   0.2200 
 12 N        6.1620    -5.2080     0.9230 N.am  1 <1>  -0.6600 
 13 C        7.1410    -4.2240     0.9080 C.2   1 <1>   0.5440 
 14 C        6.5720    -6.6280     1.1270 C.3   1 <1>   0.0600 
 15 O        8.2870    -4.5530     0.6570 O.2   1 <1>  -0.5700 
 16 C        6.8670    -2.8390     1.2300 C.ar  1 <1>   0.0860 
 17 C        6.8990    -1.8150     0.2410 C.ar  1 <1>   0.0000 
 18 C        6.5480    -2.5030     2.5300 C.ar  1 <1>  -0.1500 
 19 C        6.4530    -0.5170     0.5830 C.ar  1 <1>   0.0000 
 20 C        7.3570    -2.0210    -1.0800 C.ar  1 <1>  -0.1500 
 21 C        6.1650    -1.2080     2.8790 C.ar  1 <1>  -0.1500 
 22 C        6.1030    -0.2400     1.9180 C.ar  1 <1>  -0.1500 
 23 C        6.3890     0.4750    -0.4160 C.ar  1 <1>  -0.1500 
 24 C        7.3010    -1.0360    -2.0270 C.ar  1 <1>  -0.1500 
 25 C        6.7970     0.2240    -1.6950 C.ar  1 <1>  -0.1500 
 26 H        3.7880    -2.5810    -2.9180 H     1 <1>   0.0800 
 27 H        4.2600    -1.8540    -1.4060 H     1 <1>   0.0800 
 28 H        2.9340    -1.7020     0.9390 H     1 <1>   0.0800 
 29 H        1.4300    -2.4770     1.3640 H     1 <1>   0.0800 
 30 H       -0.4960    -1.7010    -0.0490 H     1 <1>   0.0800 
 31 H       -0.0920    -0.5560    -1.3070 H     1 <1>   0.0800 
 32 H        0.3800    -0.2310     0.3450 H     1 <1>   0.0800 
 33 H        2.7350    -4.4350    -1.8060 H     1 <1>   0.0800 
 34 H        1.9570    -4.4590     0.2550 H     1 <1>   0.0800 
 35 H        5.5310    -3.8450    -1.2120 H     1 <1>   0.0800 
 36 H        4.8280    -5.3400    -1.7550 H     1 <1>   0.0800 
 37 H        3.4340    -4.6940     2.0370 H     1 <1>   0.0800 
 38 H        4.3630    -3.3040     1.5310 H     1 <1>   0.0800 
 39 H        4.3120    -6.0490     0.3580 H     1 <1>   0.0800 
 40 H        5.8460    -7.1380     1.7350 H     1 <1>   0.0800 
 41 H        7.5260    -6.6760     1.6250 H     1 <1>   0.0800 
 42 H        6.6550    -7.1210     0.1740 H     1 <1>   0.0800 
 43 H        6.5750    -3.2600     3.2940 H     1 <1>   0.1500 
 44 H        7.7610    -2.9820    -1.3460 H     1 <1>   0.1500 
 45 H        5.9170    -0.9890     3.9030 H     1 <1>   0.1500 
 46 H        5.7920     0.7580     2.1720 H     1 <1>   0.1500 
 47 H        6.0130     1.4470    -0.1520 H     1 <1>   0.1500 
 48 H        7.6430    -1.2160    -3.0320 H     1 <1>   0.1500 
 49 H        6.7460     0.9860    -2.4540 H     1 <1>   0.1500 
@<TRIPOS>BOND
  1   1   2  2   
  2   2   3  am  
  3   2   4  1   
  4   3   5  1   
  5   3   6  1   
  6   4   7  1   
  7   4  26  1   
  8   4  27  1   
  9   5   8  1   
 10   5  28  1   
 11   5  29  1   
 12   6  30  1   
 13   6  31  1   
 14   6  32  1   
 15   7   8  1   
 16   7   9  1   
 17   7  33  1   
 18   8  10  1   
 19   8  34  1   
 20   9  11  1   
 21   9  35  1   
 22   9  36  1   
 23  10  11  1   
 24  10  37  1   
 25  10  38  1   
 26  11  12  1   
 27  11  39  1   
 28  12  13  am  
 29  12  14  1   
 30  13  15  2   
 31  13  16  1   
 32  14  40  1   
 33  14  41  1   
 34  14  42  1   
 35  16  17  ar  
 36  16  18  ar  
 37  17  19  ar  
 38  17  20  ar  
 39  18  21  ar  
 40  18  43  1   
 41  19  22  ar  
 42  19  23  ar  
 43  20  24  ar  
 44  20  44  1   
 45  21  22  ar  
 46  21  45  1   
 47  22  46  1   
 48  23  25  ar  
 49  23  47  1   
 50  24  25  ar  
 51  24  48  1   
 52  25  49  1   
@<TRIPOS>SUBSTRUCTURE
  1 ****  17 GROUP 4 **** **** 0

# MOE 2024.06 (io_trps.svl 2023.06)
