@<TRIPOS>MOLECULE
NONAME
39 41 1 0 0 
SMALL
USER_CHARGES


@<TRIPOS>ATOM
  1 O       -0.5160    -0.0310     0.1930 O.3   1 <1>  -0.5600 
  2 C        0.2690    -0.9340    -0.4960 C.3   1 <1>   0.5600 
  3 C       -1.1330    -0.6780     1.2380 C.3   1 <1>   0.4800 
  4 O       -0.2750    -2.1860    -0.2650 O.3   1 <1>  -0.5600 
  5 C        0.1660    -0.6300    -1.9800 C.3   1 <1>  -0.2400 
  6 C        1.7000    -0.8840     0.0290 C.3   1 <1>  -0.2400 
  7 O       -2.4890    -0.3780     1.1360 O.3   1 <1>  -0.5600 
  8 C       -0.9520    -2.1580     0.9460 C.3   1 <1>   0.2000 
  9 C       -3.1050    -1.3800     0.3850 C.3   1 <1>   0.2000 
 10 C       -2.3680    -2.6730     0.7560 C.3   1 <1>   0.1660 
 11 C       -4.6170    -1.3850     0.6360 C.3   1 <1>   0.2000 
 12 N       -2.8460    -3.2590     2.0180 N.2   1 <1>  -0.5640 
 13 O       -5.1970    -2.4110    -0.0890 O.3   1 <1>  -0.5600 
 14 C       -5.3240    -0.2050     0.0510 C.3   1 <1>   0.1200 
 15 N       -3.4300    -4.3640     1.9550 N.1   1 <1>   0.6880 
 16 C       -6.5080    -2.0790    -0.4600 C.3   1 <1>   0.5600 
 17 O       -6.0750    -0.8290    -0.9200 O.3   1 <1>  -0.5600 
 18 N       -3.9990    -5.4560     1.8930 N.1   1 <1>  -0.3700 
 19 C       -7.9520    -1.7330    -0.9660 C.3   1 <1>  -0.2400 
 20 C       -6.9930    -3.4430     0.1460 C.3   1 <1>  -0.2400 
 21 H       -0.7420    -0.3500     2.1850 H     1 <1>   0.0800 
 22 H        0.7400    -1.3440    -2.5410 H     1 <1>   0.0800 
 23 H        0.5510     0.3530    -2.1790 H     1 <1>   0.0800 
 24 H       -0.8610    -0.6760    -2.2920 H     1 <1>   0.0800 
 25 H        2.3020    -1.5990    -0.5000 H     1 <1>   0.0800 
 26 H        1.7350    -1.1030     1.0790 H     1 <1>   0.0800 
 27 H        2.1100     0.0950    -0.1390 H     1 <1>   0.0800 
 28 H       -0.3840    -2.6840     1.6900 H     1 <1>   0.0800 
 29 H       -2.9190    -1.1520    -0.6510 H     1 <1>   0.0800 
 30 H       -2.4280    -3.3920    -0.0440 H     1 <1>   0.0800 
 31 H       -4.8490    -1.5130     1.6780 H     1 <1>   0.0800 
 32 H       -4.6620     0.5100    -0.4050 H     1 <1>   0.0800 
 33 H       -5.9740     0.2700     0.7640 H     1 <1>   0.0800 
 34 H       -8.5300    -1.3380    -0.1490 H     1 <1>   0.0800 
 35 H       -8.4830    -2.5760    -1.3770 H     1 <1>   0.0800 
 36 H       -8.0020    -1.0090    -1.7670 H     1 <1>   0.0800 
 37 H       -7.9620    -3.4000     0.6140 H     1 <1>   0.0800 
 38 H       -6.3710    -3.8540     0.9270 H     1 <1>   0.0800 
 39 H       -7.0350    -4.1770    -0.6390 H     1 <1>   0.0800 
@<TRIPOS>BOND
  1   1   2  1   
  2   1   3  1   
  3   2   4  1   
  4   2   5  1   
  5   2   6  1   
  6   3   7  1   
  7   3   8  1   
  8   3  21  1   
  9   4   8  1   
 10   5  22  1   
 11   5  23  1   
 12   5  24  1   
 13   6  25  1   
 14   6  26  1   
 15   6  27  1   
 16   7   9  1   
 17   8  10  1   
 18   8  28  1   
 19   9  10  1   
 20   9  11  1   
 21   9  29  1   
 22  10  12  1   
 23  10  30  1   
 24  11  13  1   
 25  11  14  1   
 26  11  31  1   
 27  12  15  2   
 28  13  16  1   
 29  14  17  1   
 30  14  32  1   
 31  14  33  1   
 32  15  18  3   
 33  16  17  1   
 34  16  19  1   
 35  16  20  1   
 36  19  34  1   
 37  19  35  1   
 38  19  36  1   
 39  20  37  1   
 40  20  38  1   
 41  20  39  1   
@<TRIPOS>SUBSTRUCTURE
  1 ****   9 GROUP 4 **** **** 0

# MOE 2024.06 (io_trps.svl 2023.06)
