@<TRIPOS>MOLECULE
NONAME
49 52 1 0 0 
SMALL
USER_CHARGES


@<TRIPOS>ATOM
  1 F        0.4120    -2.2140    -0.1460 F     1 <1>  -0.1900 
  2 C       -0.6750    -2.9150    -0.3520 C.ar  1 <1>   0.1900 
  3 C       -1.8060    -2.6180     0.3670 C.ar  1 <1>  -0.1500 
  4 C       -0.6200    -3.9390    -1.3020 C.ar  1 <1>  -0.1500 
  5 C       -2.9520    -3.3830     0.1280 C.ar  1 <1>   0.0000 
  6 C       -1.7470    -4.6930    -1.5390 C.ar  1 <1>  -0.1500 
  7 C       -2.9130    -4.4060    -0.8190 C.ar  1 <1>  -0.1520 
  8 C       -4.2600    -3.3790     0.6590 C.2   1 <1>  -0.1500 
  9 N       -4.1520    -4.9940    -0.8600 N.pl3 1 <1>   0.0330 
 10 C       -4.9600    -4.3610     0.0420 C.2   1 <1>  -0.3320 
 11 C       -6.3980    -4.7980     0.2270 C.3   1 <1>   0.2900 
 12 N       -6.4680    -6.2660     0.1900 N.3   1 <1>  -0.8100 
 13 C       -7.8570    -6.7260     0.0110 C.3   1 <1>   0.2900 
 14 C       -5.8430    -6.8680     1.3820 C.3   1 <1>   0.0300 
 15 C       -7.9260    -8.2200    -0.2540 C.2   1 <1>  -0.0400 
 16 O       -7.4180    -8.7160    -1.3510 O.3   1 <1>  -0.0190 
 17 C       -8.4480    -9.2340     0.4530 C.2   1 <1>  -0.1500 
 18 N       -7.5720   -10.0070    -1.4150 N.2   1 <1>  -0.4100 
 19 C       -8.1890   -10.3510    -0.3390 C.2   1 <1>   0.1080 
 20 C       -8.5850   -11.7780     0.0270 C.3   1 <1>   0.1010 
 21 C       -7.3400   -12.6670     0.1930 C.3   1 <1>  -0.1600 
 22 C       -9.5420   -12.3730    -1.0200 C.3   1 <1>  -0.1600 
 23 C       -7.7210   -14.1140     0.5380 C.3   1 <1>  -0.1600 
 24 C       -9.9270   -13.8200    -0.6760 C.3   1 <1>  -0.1600 
 25 C       -8.6810   -14.6980    -0.5070 C.3   1 <1>  -0.1600 
 26 H       -1.8210    -1.8260     1.0910 H     1 <1>   0.1500 
 27 H        0.2990    -4.1190    -1.8290 H     1 <1>   0.1500 
 28 H       -1.7450    -5.4900    -2.2620 H     1 <1>   0.1500 
 29 H       -4.5940    -2.6960     1.4200 H     1 <1>   0.1500 
 30 H       -4.4290    -5.8250    -1.3950 H     1 <1>   0.2700 
 31 H       -6.9780    -4.3900    -0.5830 H     1 <1>   0.0800 
 32 H       -6.7910    -4.4210     1.1560 H     1 <1>   0.0800 
 33 H       -8.2970    -6.2200    -0.8320 H     1 <1>   0.0800 
 34 H       -8.4350    -6.4880     0.8870 H     1 <1>   0.0800 
 35 H       -4.8260    -6.5280     1.4840 H     1 <1>   0.0800 
 36 H       -5.8210    -7.9400     1.2890 H     1 <1>   0.0800 
 37 H       -6.3880    -6.6020     2.2720 H     1 <1>   0.0800 
 38 H       -8.9490    -9.2250     1.4020 H     1 <1>   0.1500 
 39 H       -9.1010   -11.7480     0.9710 H     1 <1>   0.0800 
 40 H       -6.7110   -12.2630     0.9660 H     1 <1>   0.0800 
 41 H       -6.7770   -12.6580    -0.7250 H     1 <1>   0.0800 
 42 H       -9.0650   -12.3530    -1.9850 H     1 <1>   0.0800 
 43 H      -10.4290   -11.7670    -1.0810 H     1 <1>   0.0800 
 44 H       -8.1900   -14.1400     1.5070 H     1 <1>   0.0800 
 45 H       -6.8310   -14.7180     0.5860 H     1 <1>   0.0800 
 46 H      -10.5470   -14.2220    -1.4590 H     1 <1>   0.0800 
 47 H      -10.4990   -13.8310     0.2360 H     1 <1>   0.0800 
 48 H       -8.9750   -15.6910    -0.2120 H     1 <1>   0.0800 
 49 H       -8.1700   -14.7740    -1.4520 H     1 <1>   0.0800 
@<TRIPOS>BOND
  1   1   2  1   
  2   2   3  ar  
  3   2   4  ar  
  4   3   5  ar  
  5   3  26  1   
  6   4   6  ar  
  7   4  27  1   
  8   5   7  ar  
  9   5   8  1   
 10   6   7  ar  
 11   6  28  1   
 12   7   9  1   
 13   8  10  2   
 14   8  29  1   
 15   9  10  1   
 16   9  30  1   
 17  10  11  1   
 18  11  12  1   
 19  11  31  1   
 20  11  32  1   
 21  12  13  1   
 22  12  14  1   
 23  13  15  1   
 24  13  33  1   
 25  13  34  1   
 26  14  35  1   
 27  14  36  1   
 28  14  37  1   
 29  15  16  1   
 30  15  17  2   
 31  16  18  1   
 32  17  19  1   
 33  17  38  1   
 34  18  19  2   
 35  19  20  1   
 36  20  21  1   
 37  20  22  1   
 38  20  39  1   
 39  21  23  1   
 40  21  40  1   
 41  21  41  1   
 42  22  24  1   
 43  22  42  1   
 44  22  43  1   
 45  23  25  1   
 46  23  44  1   
 47  23  45  1   
 48  24  25  1   
 49  24  46  1   
 50  24  47  1   
 51  25  48  1   
 52  25  49  1   
@<TRIPOS>SUBSTRUCTURE
  1 ****  12 GROUP 4 **** **** 0

# MOE 2024.06 (io_trps.svl 2023.06)
