@<TRIPOS>MOLECULE
NONAME
46 47 1 0 0 
SMALL
USER_CHARGES


@<TRIPOS>ATOM
  1 O        0.7480     0.1020     1.2940 O.2   1 <1>  -0.5700 
  2 C        1.3890     0.5450     0.3570 C.2   1 <1>   0.5440 
  3 N        1.0280     1.7660    -0.1530 N.am  1 <1>  -0.7300 
  4 C        2.5040    -0.1770    -0.2140 C.ar  1 <1>   0.0860 
  5 C       -0.0740     2.6260     0.3500 C.3   1 <1>   0.0600 
  6 C        2.4830    -1.5790    -0.3680 C.ar  1 <1>   0.4100 
  7 C        3.6430     0.4990    -0.6370 C.ar  1 <1>  -0.1500 
  8 N        3.4780    -2.2780    -0.9120 N.ar  1 <1>  -0.6200 
  9 N        1.3960    -2.3120     0.0470 N.pl3 1 <1>  -0.8690 
 10 C        4.6700    -0.2300    -1.1930 C.ar  1 <1>  -0.1500 
 11 C        4.5350    -1.6010    -1.3060 C.ar  1 <1>   0.1600 
 12 C        1.4040    -3.7830     0.2410 C.3   1 <1>   0.2090 
 13 C       -0.0340    -4.2670     0.4060 C.3   1 <1>  -0.0990 
 14 C       -0.1350    -5.7660     0.6360 C.2   1 <1>   0.5690 
 15 O        0.8890    -6.3990     0.7530 O.2   1 <1>  -0.5700 
 16 N       -1.3670    -6.3700     0.7150 N.am  1 <1>  -0.6600 
 17 C       -2.6790    -5.6650     0.6390 C.3   1 <1>   0.1400 
 18 C       -1.4920    -7.8460     0.8770 C.3   1 <1>   0.1400 
 19 C       -3.4920    -6.2200    -0.5340 C.3   1 <1>  -0.1600 
 20 C       -2.3010    -8.4260    -0.2890 C.3   1 <1>  -0.1600 
 21 C       -3.6710    -7.7430    -0.4260 C.3   1 <1>  -0.0800 
 22 C       -4.4270    -8.2880    -1.6420 C.3   1 <1>  -0.2400 
 23 H        1.4780     2.0850    -1.0130 H     1 <1>   0.3700 
 24 H       -0.4940     2.2140     1.2520 H     1 <1>   0.0800 
 25 H       -0.8500     2.6960    -0.3920 H     1 <1>   0.0800 
 26 H        0.3020     3.6120     0.5640 H     1 <1>   0.0800 
 27 H        3.7250     1.5660    -0.5270 H     1 <1>   0.1500 
 28 H        0.7840    -1.7970     0.7000 H     1 <1>   0.4000 
 29 H        5.5690     0.2530    -1.5340 H     1 <1>   0.1500 
 30 H        5.3400    -2.1670    -1.7430 H     1 <1>   0.1500 
 31 H        1.9850    -4.0250     1.1160 H     1 <1>   0.0800 
 32 H        1.8560    -4.2650    -0.6110 H     1 <1>   0.0800 
 33 H       -0.5770    -4.0200    -0.4870 H     1 <1>   0.0800 
 34 H       -0.4760    -3.7660     1.2460 H     1 <1>   0.0800 
 35 H       -2.5530    -4.6050     0.5170 H     1 <1>   0.0800 
 36 H       -3.2130    -5.8290     1.5590 H     1 <1>   0.0800 
 37 H       -1.9870    -8.0550     1.8090 H     1 <1>   0.0800 
 38 H       -0.5210    -8.3120     0.9050 H     1 <1>   0.0800 
 39 H       -2.9870    -5.9730    -1.4520 H     1 <1>   0.0800 
 40 H       -4.4560    -5.7430    -0.5500 H     1 <1>   0.0800 
 41 H       -2.4330    -9.4810    -0.1310 H     1 <1>   0.0800 
 42 H       -1.7320    -8.2980    -1.1940 H     1 <1>   0.0800 
 43 H       -4.2490    -7.9580     0.4580 H     1 <1>   0.0800 
 44 H       -3.8790    -8.0940    -2.5480 H     1 <1>   0.0800 
 45 H       -5.3940    -7.8230    -1.7200 H     1 <1>   0.0800 
 46 H       -4.5690    -9.3500    -1.5490 H     1 <1>   0.0800 
@<TRIPOS>BOND
  1   1   2  2   
  2   2   3  am  
  3   2   4  1   
  4   3   5  1   
  5   3  23  1   
  6   4   6  ar  
  7   4   7  ar  
  8   5  24  1   
  9   5  25  1   
 10   5  26  1   
 11   6   8  ar  
 12   6   9  1   
 13   7  10  ar  
 14   7  27  1   
 15   8  11  ar  
 16   9  12  1   
 17   9  28  1   
 18  10  11  ar  
 19  10  29  1   
 20  11  30  1   
 21  12  13  1   
 22  12  31  1   
 23  12  32  1   
 24  13  14  1   
 25  13  33  1   
 26  13  34  1   
 27  14  15  2   
 28  14  16  am  
 29  16  17  1   
 30  16  18  1   
 31  17  19  1   
 32  17  35  1   
 33  17  36  1   
 34  18  20  1   
 35  18  37  1   
 36  18  38  1   
 37  19  21  1   
 38  19  39  1   
 39  19  40  1   
 40  20  21  1   
 41  20  41  1   
 42  20  42  1   
 43  21  22  1   
 44  21  43  1   
 45  22  44  1   
 46  22  45  1   
 47  22  46  1   
@<TRIPOS>SUBSTRUCTURE
  1 ****  13 GROUP 4 **** **** 0

# MOE 2024.06 (io_trps.svl 2023.06)
