@<TRIPOS>MOLECULE
NONAME
42 43 1 0 0 
SMALL
USER_CHARGES


@<TRIPOS>ATOM
  1 O        0.2840     1.2350     0.5400 O.2   1 <1>  -0.5700 
  2 C       -0.7570     1.5930    -0.0030 C.2   1 <1>   0.6160 
  3 N       -0.9730     2.9240    -0.3440 N.am  1 <1>  -0.4690 
  4 C       -1.7770     0.6450    -0.2860 C.2   1 <1>  -0.1360 
  5 C       -2.1740     3.3040    -0.9390 C.2   1 <1>  -0.0290 
  6 C        0.1110     3.9100    -0.0460 C.3   1 <1>   0.1400 
  7 C       -2.9450     1.0160    -0.8680 C.2   1 <1>  -0.1500 
  8 C       -3.1390     2.3770    -1.1960 C.2   1 <1>  -0.1500 
  9 C       -2.4060     4.7640    -1.3040 C.3   1 <1>  -0.1020 
 10 C       -0.0230     4.4170     1.3940 C.3   1 <1>  -0.1600 
 11 C        1.0160     5.4900     1.7100 C.3   1 <1>   0.2090 
 12 N        0.7520     6.6930     0.8860 N.pl3 1 <1>  -0.8690 
 13 C        1.6860     7.1500    -0.0360 C.ar  1 <1>   0.4100 
 14 N        2.3370     6.2350    -0.7300 N.ar  1 <1>  -0.6200 
 15 C        1.8920     8.5600    -0.1940 C.ar  1 <1>   0.4100 
 16 C        3.2020     6.7730    -1.5800 C.ar  1 <1>   0.1600 
 17 N        2.7630     9.0710    -1.0480 N.ar  1 <1>  -0.6200 
 18 N        1.1480     9.4820     0.5590 N.pl3 1 <1>  -0.8380 
 19 C        3.4070     8.1330    -1.7320 C.ar  1 <1>   0.1600 
 20 C        1.8740    10.6740     1.0770 C.3   1 <1>   0.1290 
 21 C       -0.1830     9.8140    -0.0110 C.3   1 <1>   0.1290 
 22 H       -1.5680    -0.3710    -0.0120 H     1 <1>   0.1500 
 23 H        0.0700     4.7320    -0.7360 H     1 <1>   0.0800 
 24 H        1.0730     3.4450    -0.1780 H     1 <1>   0.0800 
 25 H       -3.7260     0.3100    -1.0890 H     1 <1>   0.1500 
 26 H       -4.0720     2.6510    -1.6560 H     1 <1>   0.1500 
 27 H       -2.2880     5.3900    -0.4380 H     1 <1>   0.0800 
 28 H       -3.3980     4.9090    -1.6900 H     1 <1>   0.0800 
 29 H       -1.7050     5.0720    -2.0590 H     1 <1>   0.0800 
 30 H        0.1250     3.5910     2.0650 H     1 <1>   0.0800 
 31 H       -1.0050     4.8180     1.5580 H     1 <1>   0.0800 
 32 H        2.0080     5.1100     1.5230 H     1 <1>   0.0800 
 33 H        0.9540     5.7580     2.7510 H     1 <1>   0.0800 
 34 H        0.4310     7.4970     1.4400 H     1 <1>   0.4000 
 35 H        3.7730     6.0910    -2.1830 H     1 <1>   0.1500 
 36 H        4.1330     8.4710    -2.4490 H     1 <1>   0.1500 
 37 H        2.8510    10.3830     1.4230 H     1 <1>   0.0800 
 38 H        1.3300    11.1100     1.8960 H     1 <1>   0.0800 
 39 H        1.9900    11.4040     0.2940 H     1 <1>   0.0800 
 40 H       -0.6580     8.9220    -0.3840 H     1 <1>   0.0800 
 41 H       -0.0680    10.5110    -0.8240 H     1 <1>   0.0800 
 42 H       -0.8090    10.2510     0.7470 H     1 <1>   0.0800 
@<TRIPOS>BOND
  1   1   2  2   
  2   2   3  am  
  3   2   4  1   
  4   3   5  1   
  5   3   6  1   
  6   4   7  2   
  7   4  22  1   
  8   5   8  2   
  9   5   9  1   
 10   6  10  1   
 11   6  23  1   
 12   6  24  1   
 13   7   8  1   
 14   7  25  1   
 15   8  26  1   
 16   9  27  1   
 17   9  28  1   
 18   9  29  1   
 19  10  11  1   
 20  10  30  1   
 21  10  31  1   
 22  11  12  1   
 23  11  32  1   
 24  11  33  1   
 25  12  13  1   
 26  12  34  1   
 27  13  14  ar  
 28  13  15  ar  
 29  14  16  ar  
 30  15  17  ar  
 31  15  18  1   
 32  16  19  ar  
 33  16  35  1   
 34  17  19  ar  
 35  18  20  1   
 36  18  21  1   
 37  19  36  1   
 38  20  37  1   
 39  20  38  1   
 40  20  39  1   
 41  21  40  1   
 42  21  41  1   
 43  21  42  1   
@<TRIPOS>SUBSTRUCTURE
  1 ****   6 GROUP 4 **** **** 0

# MOE 2024.06 (io_trps.svl 2023.06)
