@<TRIPOS>MOLECULE
NONAME
43 45 1 0 0 
SMALL
USER_CHARGES


@<TRIPOS>ATOM
  1 F       -0.5000    -0.2670     0.4600 F     1 <1>  -0.1900 
  2 C       -0.9590    -1.4710     0.2240 C.ar  1 <1>   0.1900 
  3 C       -0.3580    -2.6130     0.7660 C.ar  1 <1>   0.0820 
  4 C       -2.0680    -1.5560    -0.5950 C.ar  1 <1>  -0.1500 
  5 O        0.7340    -2.6570     1.5830 O.3   1 <1>  -0.3630 
  6 C       -0.9170    -3.8410     0.4520 C.ar  1 <1>  -0.1500 
  7 C       -2.5960    -2.7990    -0.8890 C.ar  1 <1>  -0.1500 
  8 C        1.3740    -1.5000     2.0730 C.3   1 <1>   0.0400 
  9 C       -2.0390    -3.9680    -0.3700 C.ar  1 <1>   0.0530 
 10 C       -2.5730    -5.2720    -0.6770 C.2   1 <1>   0.0870 
 11 O       -1.7360    -6.2570    -0.9130 O.3   1 <1>  -0.0190 
 12 C       -3.8280    -5.7890    -0.7810 C.2   1 <1>  -0.2330 
 13 N       -2.3370    -7.3860    -1.1780 N.2   1 <1>  -0.4100 
 14 C       -3.5930    -7.1210    -1.1130 C.2   1 <1>   0.3720 
 15 C       -5.1350    -5.2340    -0.5800 C.2   1 <1>   1.0330 
 16 N       -4.5930    -8.0520    -1.3420 N.pl3 1 <1>  -0.8520 
 17 O       -5.3230    -4.0110    -0.5150 O.co2 1 <1>  -0.9000 
 18 O       -6.1260    -5.9880    -0.4630 O.co2 1 <1>  -0.9000 
 19 C       -4.6550    -9.1410    -0.3440 C.3   1 <1>   0.2890 
 20 C       -6.0370    -9.1820     0.3530 C.3   1 <1>   0.2000 
 21 C       -4.3650   -10.4580    -1.0730 C.3   1 <1>  -0.1600 
 22 O       -6.2460    -8.0480     1.1270 O.3   1 <1>  -0.6800 
 23 C       -6.1700   -10.3950     1.2810 C.3   1 <1>  -0.1600 
 24 C       -4.4950   -11.6670    -0.1340 C.3   1 <1>  -0.1600 
 25 C       -5.8760   -11.7050     0.5360 C.3   1 <1>  -0.1600 
 26 H       -2.5160    -0.6660    -0.9960 H     1 <1>   0.1500 
 27 H       -0.4700    -4.7290     0.8620 H     1 <1>   0.1500 
 28 H       -3.4600    -2.8690    -1.5280 H     1 <1>   0.1500 
 29 H        2.1690    -1.8090     2.7270 H     1 <1>   0.0800 
 30 H        0.6600    -0.9100     2.6200 H     1 <1>   0.0800 
 31 H        1.7800    -0.9460     1.2440 H     1 <1>   0.0800 
 32 H       -5.4780    -7.5140    -1.2540 H     1 <1>   0.4000 
 33 H       -3.9010    -8.9950     0.4130 H     1 <1>   0.0800 
 34 H       -6.8110    -9.2150    -0.3930 H     1 <1>   0.0800 
 35 H       -5.0540   -10.5640    -1.8910 H     1 <1>   0.0800 
 36 H       -3.3670   -10.4180    -1.4740 H     1 <1>   0.0800 
 37 H       -6.2510    -7.2200     0.5470 H     1 <1>   0.4000 
 38 H       -5.4770   -10.2880     2.0980 H     1 <1>   0.0800 
 39 H       -7.1670   -10.4240     1.6820 H     1 <1>   0.0800 
 40 H       -4.3390   -12.5740    -0.6930 H     1 <1>   0.0800 
 41 H       -3.7320   -11.6120     0.6240 H     1 <1>   0.0800 
 42 H       -5.9190   -12.5290     1.2280 H     1 <1>   0.0800 
 43 H       -6.6320   -11.8650    -0.2140 H     1 <1>   0.0800 
@<TRIPOS>BOND
  1   1   2  1   
  2   2   3  ar  
  3   2   4  ar  
  4   3   5  1   
  5   3   6  ar  
  6   4   7  ar  
  7   4  26  1   
  8   5   8  1   
  9   6   9  ar  
 10   6  27  1   
 11   7   9  ar  
 12   7  28  1   
 13   8  29  1   
 14   8  30  1   
 15   8  31  1   
 16   9  10  1   
 17  10  11  1   
 18  10  12  2   
 19  11  13  1   
 20  12  14  1   
 21  12  15  1   
 22  13  14  2   
 23  14  16  1   
 24  15  17  ar  
 25  15  18  ar  
 26  16  19  1   
 27  16  32  1   
 28  19  20  1   
 29  19  21  1   
 30  19  33  1   
 31  20  22  1   
 32  20  23  1   
 33  20  34  1   
 34  21  24  1   
 35  21  35  1   
 36  21  36  1   
 37  22  37  1   
 38  23  25  1   
 39  23  38  1   
 40  23  39  1   
 41  24  25  1   
 42  24  40  1   
 43  24  41  1   
 44  25  42  1   
 45  25  43  1   
@<TRIPOS>SUBSTRUCTURE
  1 ****  12 GROUP 4 **** **** 0

# MOE 2024.06 (io_trps.svl 2023.06)
