@<TRIPOS>MOLECULE
NONAME
37 38 1 0 0 
SMALL
USER_CHARGES


@<TRIPOS>ATOM
  1 O       -1.6460     0.5930    -0.1580 O.2   1 <1>  -0.5700 
  2 C       -1.8740     1.7650    -0.3670 C.2   1 <1>   0.5440 
  3 N       -3.0840     2.2400    -0.8000 N.am  1 <1>  -0.4200 
  4 C       -0.9770     2.8730    -0.1980 C.ar  1 <1>   0.0860 
  5 C       -3.0070     3.6050    -0.8990 C.2   1 <1>   0.5440 
  6 C       -4.2630     1.4090    -1.1360 C.3   1 <1>   0.1400 
  7 C       -1.6830     4.0200    -0.5290 C.ar  1 <1>   0.0860 
  8 C        0.3500     2.9570     0.2060 C.ar  1 <1>  -0.1500 
  9 O       -3.9320     4.3150    -1.2350 O.2   1 <1>  -0.5700 
 10 C       -4.9690     0.9510     0.1390 C.3   1 <1>   0.1200 
 11 C       -1.0700     5.2650    -0.4590 C.ar  1 <1>  -0.1500 
 12 C        0.9600     4.1990     0.2750 C.ar  1 <1>  -0.1500 
 13 O       -6.1580     0.3250    -0.2270 O.3   1 <1>  -0.5600 
 14 C        0.2520     5.3490    -0.0570 C.ar  1 <1>  -0.1500 
 15 C       -6.9860    -0.0300     0.8500 C.3   1 <1>   0.1810 
 16 C       -8.4450    -0.0750     0.4060 C.2   1 <1>   0.4480 
 17 O       -9.1960    -0.9050     0.8270 O.2   1 <1>  -0.5700 
 18 C       -8.9180     0.9530    -0.5980 C.3   1 <1>  -0.0380 
 19 C       -8.3610     2.3120    -0.2640 C.2   1 <1>   0.6590 
 20 O       -8.4000     2.7570     0.8540 O.2   1 <1>  -0.5700 
 21 O       -7.8030     2.9740    -1.2700 O.3   1 <1>  -0.4300 
 22 C       -7.1750     4.2260    -1.0830 C.3   1 <1>   0.0400 
 23 H       -3.9410     0.5510    -1.6990 H     1 <1>   0.0800 
 24 H       -4.9450     1.9880    -1.7350 H     1 <1>   0.0800 
 25 H        0.8870     2.0590     0.4600 H     1 <1>   0.1500 
 26 H       -5.2030     1.8050     0.7520 H     1 <1>   0.0800 
 27 H       -4.3590     0.2480     0.6810 H     1 <1>   0.0800 
 28 H       -1.6290     6.1490    -0.7180 H     1 <1>   0.1500 
 29 H        1.9880     4.2760     0.5870 H     1 <1>   0.1500 
 30 H        0.7380     6.3090     0.0010 H     1 <1>   0.1500 
 31 H       -6.8870     0.6940     1.6400 H     1 <1>   0.0800 
 32 H       -6.6780    -0.9950     1.2120 H     1 <1>   0.0800 
 33 H       -9.9900     1.0010    -0.5910 H     1 <1>   0.0800 
 34 H       -8.5900     0.6600    -1.5770 H     1 <1>   0.0800 
 35 H       -6.7220     4.5260    -2.0110 H     1 <1>   0.0800 
 36 H       -6.4190     4.1290    -0.3240 H     1 <1>   0.0800 
 37 H       -7.9150     4.9460    -0.7790 H     1 <1>   0.0800 
@<TRIPOS>BOND
  1   1   2  2   
  2   2   3  am  
  3   2   4  1   
  4   3   5  am  
  5   3   6  1   
  6   4   7  ar  
  7   4   8  ar  
  8   5   7  1   
  9   5   9  2   
 10   6  10  1   
 11   6  23  1   
 12   6  24  1   
 13   7  11  ar  
 14   8  12  ar  
 15   8  25  1   
 16  10  13  1   
 17  10  26  1   
 18  10  27  1   
 19  11  14  ar  
 20  11  28  1   
 21  12  14  ar  
 22  12  29  1   
 23  13  15  1   
 24  14  30  1   
 25  15  16  1   
 26  15  31  1   
 27  15  32  1   
 28  16  17  2   
 29  16  18  1   
 30  18  19  1   
 31  18  33  1   
 32  18  34  1   
 33  19  20  2   
 34  19  21  1   
 35  21  22  1   
 36  22  35  1   
 37  22  36  1   
 38  22  37  1   
@<TRIPOS>SUBSTRUCTURE
  1 ****   6 GROUP 4 **** **** 0

# MOE 2024.06 (io_trps.svl 2023.06)
