@<TRIPOS>MOLECULE
NONAME
51 53 1 0 0 
SMALL
USER_CHARGES


@<TRIPOS>ATOM
  1 O       -1.5260    -0.7500    -2.7080 O.2   1 <1>  -0.5700 
  2 C       -2.0240    -1.0610    -1.6520 C.2   1 <1>   0.5690 
  3 N       -2.0010    -0.2350    -0.5670 N.am  1 <1>  -0.6600 
  4 C       -2.6840    -2.4180    -1.5610 C.3   1 <1>  -0.0190 
  5 C       -2.6860    -0.5920     0.7090 C.3   1 <1>   0.2200 
  6 C       -1.3380     1.1010    -0.6050 C.3   1 <1>   0.0600 
  7 C       -1.9600    -3.3050    -0.5290 C.3   1 <1>   0.1200 
  8 C       -4.2160    -2.2830    -1.4460 C.3   1 <1>   0.1400 
  9 C       -2.0360    -1.8340     1.3720 C.3   1 <1>   0.1200 
 10 C       -4.2190    -0.6560     0.5110 C.3   1 <1>   0.1400 
 11 O       -2.3500    -3.0730     0.7900 O.3   1 <1>  -0.5600 
 12 N       -4.7240    -1.9400    -0.0780 N.am  1 <1>  -0.6600 
 13 C       -5.4700    -2.7920     0.7030 C.2   1 <1>   0.5690 
 14 O       -5.9590    -2.4250     1.7480 O.2   1 <1>  -0.5700 
 15 C       -5.7030    -4.2330     0.2700 C.3   1 <1>  -0.0990 
 16 C       -6.2640    -5.1350     1.3790 C.3   1 <1>  -0.0170 
 17 C       -6.4310    -6.5560     0.8650 C.ar  1 <1>  -0.1440 
 18 C       -7.6370    -6.9710     0.3240 C.ar  1 <1>  -0.1500 
 19 C       -5.3730    -7.4470     0.9270 C.ar  1 <1>  -0.1500 
 20 C       -7.7910    -8.2700    -0.1550 C.ar  1 <1>   0.0820 
 21 C       -5.5180    -8.7390     0.4530 C.ar  1 <1>  -0.1500 
 22 O       -8.9550    -8.7250    -0.6940 O.3   1 <1>  -0.3630 
 23 C       -6.7210    -9.1580    -0.0900 C.ar  1 <1>  -0.1440 
 24 C      -10.1080    -7.9150    -0.7570 C.3   1 <1>   0.0400 
 25 C       -6.8630   -10.5830    -0.6060 C.3   1 <1>  -0.0970 
 26 H       -2.5040    -2.8810    -2.5140 H     1 <1>   0.0800 
 27 H       -2.5140     0.2240     1.3880 H     1 <1>   0.0800 
 28 H       -0.5880     1.1570     0.1640 H     1 <1>   0.0800 
 29 H       -2.0690     1.8750    -0.4490 H     1 <1>   0.0800 
 30 H       -0.8630     1.2660    -1.5570 H     1 <1>   0.0800 
 31 H       -0.8930    -3.1760    -0.5970 H     1 <1>   0.0800 
 32 H       -2.1860    -4.3370    -0.7340 H     1 <1>   0.0800 
 33 H       -4.6610    -3.1990    -1.7860 H     1 <1>   0.0800 
 34 H       -4.5440    -1.5160    -2.1280 H     1 <1>   0.0800 
 35 H       -2.3790    -1.8920     2.3900 H     1 <1>   0.0800 
 36 H       -0.9650    -1.7290     1.3880 H     1 <1>   0.0800 
 37 H       -4.5310     0.1630    -0.1120 H     1 <1>   0.0800 
 38 H       -4.6720    -0.5010     1.4740 H     1 <1>   0.0800 
 39 H       -6.3840    -4.2350    -0.5600 H     1 <1>   0.0800 
 40 H       -4.7660    -4.6480    -0.0500 H     1 <1>   0.0800 
 41 H       -7.2130    -4.7530     1.7160 H     1 <1>   0.0800 
 42 H       -5.5950    -5.1290     2.2220 H     1 <1>   0.0800 
 43 H       -8.4470    -6.2700     0.2830 H     1 <1>   0.1500 
 44 H       -4.4310    -7.1370     1.3460 H     1 <1>   0.1500 
 45 H       -4.6840    -9.4160     0.5110 H     1 <1>   0.1500 
 46 H      -10.8980    -8.4930    -1.2000 H     1 <1>   0.0800 
 47 H       -9.8970    -7.0560    -1.3690 H     1 <1>   0.0800 
 48 H      -10.3820    -7.6220     0.2410 H     1 <1>   0.0800 
 49 H       -5.9490   -11.1350    -0.4850 H     1 <1>   0.0800 
 50 H       -7.1200   -10.5670    -1.6500 H     1 <1>   0.0800 
 51 H       -7.6440   -11.0880    -0.0660 H     1 <1>   0.0800 
@<TRIPOS>BOND
  1   1   2  2   
  2   2   3  am  
  3   2   4  1   
  4   3   5  1   
  5   3   6  1   
  6   4   7  1   
  7   4   8  1   
  8   4  26  1   
  9   5   9  1   
 10   5  10  1   
 11   5  27  1   
 12   6  28  1   
 13   6  29  1   
 14   6  30  1   
 15   7  11  1   
 16   7  31  1   
 17   7  32  1   
 18   8  12  1   
 19   8  33  1   
 20   8  34  1   
 21   9  11  1   
 22   9  35  1   
 23   9  36  1   
 24  10  12  1   
 25  10  37  1   
 26  10  38  1   
 27  12  13  am  
 28  13  14  2   
 29  13  15  1   
 30  15  16  1   
 31  15  39  1   
 32  15  40  1   
 33  16  17  1   
 34  16  41  1   
 35  16  42  1   
 36  17  18  ar  
 37  17  19  ar  
 38  18  20  ar  
 39  18  43  1   
 40  19  21  ar  
 41  19  44  1   
 42  20  22  1   
 43  20  23  ar  
 44  21  23  ar  
 45  21  45  1   
 46  22  24  1   
 47  23  25  1   
 48  24  46  1   
 49  24  47  1   
 50  24  48  1   
 51  25  49  1   
 52  25  50  1   
 53  25  51  1   
@<TRIPOS>SUBSTRUCTURE
  1 ****  15 GROUP 4 **** **** 0

# MOE 2024.06 (io_trps.svl 2023.06)
