@<TRIPOS>MOLECULE
NONAME
48 49 1 0 0 
SMALL
USER_CHARGES


@<TRIPOS>ATOM
  1 S        0.8960     1.7780    -0.9170 S.o2  1 <1>   1.3330 
  2 O        1.5500     0.5220    -1.2020 O.2   1 <1>  -0.6500 
  3 O        0.3120     2.5220    -2.0110 O.2   1 <1>  -0.6500 
  4 N        2.0590     2.7770    -0.1920 N.am  1 <1>  -0.8490 
  5 C       -0.3970     1.4510     0.2990 C.3   1 <1>  -0.0550 
  6 C        2.8320     2.1170     0.8650 C.3   1 <1>   0.1160 
  7 C        2.9860     3.3130    -1.1960 C.3   1 <1>   0.1160 
  8 C       -1.2180     2.6050     0.9310 C.3   1 <1>  -0.0800 
  9 C       -1.6630     3.7090    -0.0350 C.3   1 <1>   0.2000 
 10 C       -0.4720     3.3480     2.0430 C.3   1 <1>   0.1400 
 11 O       -2.8590     4.2200     0.4450 O.3   1 <1>  -0.6800 
 12 C       -0.6020     4.8040     0.0930 C.3   1 <1>   0.1400 
 13 N       -0.0310     4.6340     1.4570 N.am  1 <1>  -0.6600 
 14 C        1.1180     5.2570     1.8870 C.2   1 <1>   0.5440 
 15 O        1.6830     4.8330     2.8780 O.2   1 <1>  -0.5700 
 16 C        1.6800     6.3820     1.1680 C.ar  1 <1>   0.0860 
 17 C        0.9540     7.5430     0.9240 C.ar  1 <1>  -0.1500 
 18 C        2.9840     6.3220     0.6880 C.ar  1 <1>  -0.1500 
 19 C        1.5150     8.5830     0.2110 C.ar  1 <1>   0.0820 
 20 C        3.5710     7.3470    -0.0510 C.ar  1 <1>   0.0860 
 21 O        0.7860     9.6870    -0.0050 O.3   1 <1>  -0.5320 
 22 C        2.8060     8.4920    -0.2760 C.ar  1 <1>  -0.1500 
 23 C        4.9190     7.2020    -0.5700 C.2   1 <1>   0.6340 
 24 O        5.5080     6.1410    -0.5900 O.2   1 <1>  -0.5700 
 25 O        5.5240     8.2900    -1.0550 O.3   1 <1>  -0.4300 
 26 C        6.8380     8.2400    -1.5760 C.3   1 <1>   0.0400 
 27 H       -1.1060     0.8070    -0.1850 H     1 <1>   0.0800 
 28 H        0.0270     0.8700     1.0950 H     1 <1>   0.0800 
 29 H        3.4920     2.8280     1.3350 H     1 <1>   0.0800 
 30 H        3.4180     1.3090     0.4580 H     1 <1>   0.0800 
 31 H        2.1770     1.7240     1.6210 H     1 <1>   0.0800 
 32 H        3.7490     3.9140    -0.7330 H     1 <1>   0.0800 
 33 H        2.4520     3.9290    -1.9000 H     1 <1>   0.0800 
 34 H        3.4600     2.5090    -1.7350 H     1 <1>   0.0800 
 35 H       -2.0860     2.1400     1.3660 H     1 <1>   0.0800 
 36 H       -1.8240     3.3800    -1.0480 H     1 <1>   0.0800 
 37 H        0.3650     2.7840     2.4150 H     1 <1>   0.0800 
 38 H       -1.1370     3.5580     2.8630 H     1 <1>   0.0800 
 39 H       -2.6900     4.6840     1.2890 H     1 <1>   0.4000 
 40 H       -1.0320     5.7810    -0.0400 H     1 <1>   0.0800 
 41 H        0.1740     4.6620    -0.6380 H     1 <1>   0.0800 
 42 H       -0.0510     7.6350     1.2960 H     1 <1>   0.1500 
 43 H        3.5560     5.4360     0.9040 H     1 <1>   0.1500 
 44 H        1.2610    10.3890    -0.4840 H     1 <1>   0.4500 
 45 H        3.2260     9.3080    -0.8350 H     1 <1>   0.1500 
 46 H        7.1140     9.2270    -1.9030 H     1 <1>   0.0800 
 47 H        6.8590     7.5550    -2.4060 H     1 <1>   0.0800 
 48 H        7.5070     7.9050    -0.8020 H     1 <1>   0.0800 
@<TRIPOS>BOND
  1   1   2  2   
  2   1   3  2   
  3   1   4  am  
  4   1   5  1   
  5   4   6  1   
  6   4   7  1   
  7   5   8  1   
  8   5  27  1   
  9   5  28  1   
 10   6  29  1   
 11   6  30  1   
 12   6  31  1   
 13   7  32  1   
 14   7  33  1   
 15   7  34  1   
 16   8   9  1   
 17   8  10  1   
 18   8  35  1   
 19   9  11  1   
 20   9  12  1   
 21   9  36  1   
 22  10  13  1   
 23  10  37  1   
 24  10  38  1   
 25  11  39  1   
 26  12  13  1   
 27  12  40  1   
 28  12  41  1   
 29  13  14  am  
 30  14  15  2   
 31  14  16  1   
 32  16  17  ar  
 33  16  18  ar  
 34  17  19  ar  
 35  17  42  1   
 36  18  20  ar  
 37  18  43  1   
 38  19  21  1   
 39  19  22  ar  
 40  20  22  ar  
 41  20  23  1   
 42  21  44  1   
 43  22  45  1   
 44  23  24  2   
 45  23  25  1   
 46  25  26  1   
 47  26  46  1   
 48  26  47  1   
 49  26  48  1   
@<TRIPOS>SUBSTRUCTURE
  1 ****  16 GROUP 4 **** **** 0

# MOE 2024.06 (io_trps.svl 2023.06)
