@<TRIPOS>MOLECULE
NONAME
41 43 1 0 0 
SMALL
USER_CHARGES


@<TRIPOS>ATOM
  1 S        2.3770    -0.6200     1.0600 S.3   1 <1>  -0.0800 
  2 C        1.9200    -0.2210    -0.5900 C.2   1 <1>  -0.1400 
  3 C        0.9380    -1.6000     1.2720 C.2   1 <1>  -0.1100 
  4 C        0.7540    -0.8140    -0.9080 C.2   1 <1>  -0.1500 
  5 C        2.8420     0.6810    -1.3980 C.3   1 <1>   0.0810 
  6 C        0.1940    -1.5980     0.1510 C.2   1 <1>  -0.1500 
  7 C        2.8170     2.1320    -0.9250 C.2   1 <1>   0.5690 
  8 O        1.9410     2.8280    -1.3840 O.2   1 <1>  -0.5700 
  9 N        3.7540     2.6450    -0.0530 N.am  1 <1>  -0.6600 
 10 C        4.9260     1.8820     0.4790 C.3   1 <1>   0.1400 
 11 C        3.6350     4.0510     0.4390 C.3   1 <1>   0.1400 
 12 C        6.1420     1.9910    -0.4550 C.3   1 <1>   0.1400 
 13 C        4.9450     4.8470     0.3570 C.3   1 <1>  -0.1600 
 14 N        6.7470     3.3590    -0.4620 N.am  1 <1>  -0.6600 
 15 C        5.8370     4.4820    -0.8340 C.3   1 <1>   0.1400 
 16 C        8.1170     3.5460    -0.2690 C.2   1 <1>   0.5440 
 17 O        8.8240     2.5530    -0.4180 O.2   1 <1>  -0.5700 
 18 C        8.7340     4.8160     0.0600 C.ar  1 <1>   0.3960 
 19 N        8.0760     5.7450     0.8060 N.ar  1 <1>  -0.6200 
 20 C       10.0330     5.0700    -0.4080 C.ar  1 <1>   0.1600 
 21 C        8.7580     6.8430     0.9890 C.ar  1 <1>   0.1600 
 22 N       10.7240     6.1700    -0.2350 N.ar  1 <1>  -0.6200 
 23 C       10.0570     7.0890     0.4830 C.ar  1 <1>   0.1390 
 24 O       10.6120     8.1790     0.6960 O.3   1 <1>  -0.8290 
 25 H        0.8000    -2.0780     2.2250 H     1 <1>   0.1500 
 26 H        0.2480    -0.7310    -1.8540 H     1 <1>   0.1500 
 27 H        2.5100     0.6720    -2.4200 H     1 <1>   0.0800 
 28 H        3.8370     0.2850    -1.3930 H     1 <1>   0.0800 
 29 H       -0.7380    -2.1190     0.0180 H     1 <1>   0.1500 
 30 H        4.6680     0.8470     0.5920 H     1 <1>   0.0800 
 31 H        5.1930     2.2470     1.4560 H     1 <1>   0.0800 
 32 H        3.2880     4.0370     1.4580 H     1 <1>   0.0800 
 33 H        2.8950     4.5760    -0.1400 H     1 <1>   0.0800 
 34 H        5.8600     1.7250    -1.4580 H     1 <1>   0.0800 
 35 H        6.8720     1.2750    -0.1220 H     1 <1>   0.0800 
 36 H        5.5010     4.7370     1.2720 H     1 <1>   0.0800 
 37 H        4.6890     5.8880     0.2820 H     1 <1>   0.0800 
 38 H        6.4190     5.3410    -1.1200 H     1 <1>   0.0800 
 39 H        5.2370     4.2050    -1.6840 H     1 <1>   0.0800 
 40 H       10.5140     4.2940    -0.9710 H     1 <1>   0.1500 
 41 H        8.3320     7.6440     1.5620 H     1 <1>   0.1500 
@<TRIPOS>BOND
  1   1   2  1   
  2   1   3  1   
  3   2   4  2   
  4   2   5  1   
  5   3   6  2   
  6   3  25  1   
  7   4   6  1   
  8   4  26  1   
  9   5   7  1   
 10   5  27  1   
 11   5  28  1   
 12   6  29  1   
 13   7   8  2   
 14   7   9  am  
 15   9  10  1   
 16   9  11  1   
 17  10  12  1   
 18  10  30  1   
 19  10  31  1   
 20  11  13  1   
 21  11  32  1   
 22  11  33  1   
 23  12  14  1   
 24  12  34  1   
 25  12  35  1   
 26  13  15  1   
 27  13  36  1   
 28  13  37  1   
 29  14  15  1   
 30  14  16  am  
 31  15  38  1   
 32  15  39  1   
 33  16  17  2   
 34  16  18  1   
 35  18  19  ar  
 36  18  20  ar  
 37  19  21  ar  
 38  20  22  ar  
 39  20  40  1   
 40  21  23  ar  
 41  21  41  1   
 42  22  23  ar  
 43  23  24  1   
@<TRIPOS>SUBSTRUCTURE
  1 ****  14 GROUP 4 **** **** 0

# MOE 2024.06 (io_trps.svl 2023.06)
