@<TRIPOS>MOLECULE
NONAME
55 59 1 0 0 
SMALL
USER_CHARGES


@<TRIPOS>ATOM
  1 O       -2.8780     2.1060     2.2640 O.2   1 <1>  -0.5700 
  2 C       -3.2150     1.8960     1.1210 C.2   1 <1>   0.5690 
  3 N       -4.2740     1.0670     0.8320 N.am  1 <1>  -0.6600 
  4 C       -2.4270     2.5820     0.0050 C.3   1 <1>  -0.0190 
  5 C       -4.9690     0.3020     1.9060 C.3   1 <1>   0.1400 
  6 C       -4.8290     0.7810    -0.5220 C.3   1 <1>   0.1400 
  7 C       -0.9880     3.0120     0.3650 C.3   1 <1>  -0.0160 
  8 C       -3.1100     3.8580    -0.5220 C.3   1 <1>  -0.0160 
  9 C       -4.7950    -1.1970     1.6440 C.3   1 <1>  -0.1600 
 10 C       -4.6500    -0.7070    -0.8330 C.3   1 <1>  -0.1600 
 11 C       -0.7590     4.1900    -0.5510 C.ar  1 <1>  -0.1440 
 12 C       -1.9480     4.6660    -1.0460 C.ar  1 <1>  -0.1430 
 13 C       -5.2950    -1.6010     0.2420 C.3   1 <1>   0.4240 
 14 C        0.4400     4.7810    -0.9030 C.ar  1 <1>  -0.1500 
 15 C       -1.9750     5.7470    -1.9060 C.ar  1 <1>  -0.1500 
 16 O       -6.6630    -1.2540     0.1820 O.3   1 <1>  -0.5600 
 17 C       -5.0730    -3.1100    -0.0640 C.ar  1 <1>  -0.1430 
 18 C        0.4250     5.8660    -1.7660 C.ar  1 <1>  -0.1500 
 19 C       -0.7780     6.3470    -2.2660 C.ar  1 <1>  -0.1500 
 20 C       -7.5850    -2.1590     0.6960 C.3   1 <1>   0.1200 
 21 C       -3.7930    -3.6780    -0.1290 C.ar  1 <1>   0.0820 
 22 C       -6.1710    -3.9430    -0.2800 C.ar  1 <1>  -0.1430 
 23 C       -7.5790    -3.3920    -0.1930 C.3   1 <1>  -0.0160 
 24 O       -2.7090    -2.8910     0.1050 O.3   1 <1>  -0.3630 
 25 C       -3.6400    -5.0320    -0.4230 C.ar  1 <1>  -0.1500 
 26 C       -6.0060    -5.2860    -0.5730 C.ar  1 <1>  -0.1500 
 27 C       -1.3960    -3.3990     0.1840 C.3   1 <1>   0.0400 
 28 C       -4.7420    -5.8320    -0.6460 C.ar  1 <1>  -0.1500 
 29 H       -2.3240     1.8960    -0.8150 H     1 <1>   0.0800 
 30 H       -6.0130     0.5610     1.9060 H     1 <1>   0.0800 
 31 H       -4.5670     0.5460     2.8740 H     1 <1>   0.0800 
 32 H       -4.3520     1.3670    -1.2830 H     1 <1>   0.0800 
 33 H       -5.8770     1.0320    -0.5290 H     1 <1>   0.0800 
 34 H       -0.2830     2.2200     0.1910 H     1 <1>   0.0800 
 35 H       -0.9140     3.3500     1.3840 H     1 <1>   0.0800 
 36 H       -3.5840     4.3940     0.2820 H     1 <1>   0.0800 
 37 H       -3.8270     3.6430    -1.2940 H     1 <1>   0.0800 
 38 H       -5.3070    -1.7640     2.3970 H     1 <1>   0.0800 
 39 H       -3.7520    -1.4200     1.7460 H     1 <1>   0.0800 
 40 H       -3.6000    -0.8990    -0.9140 H     1 <1>   0.0800 
 41 H       -5.0910    -0.9370    -1.7860 H     1 <1>   0.0800 
 42 H        1.3690     4.4070    -0.5110 H     1 <1>   0.1500 
 43 H       -2.9090     6.1180    -2.2900 H     1 <1>   0.1500 
 44 H        1.3490     6.3370    -2.0490 H     1 <1>   0.1500 
 45 H       -0.7810     7.1890    -2.9350 H     1 <1>   0.1500 
 46 H       -8.5520    -1.6880     0.6840 H     1 <1>   0.0800 
 47 H       -7.3210    -2.4050     1.7090 H     1 <1>   0.0800 
 48 H       -7.9300    -3.1300    -1.1750 H     1 <1>   0.0800 
 49 H       -8.2440    -4.1280     0.2210 H     1 <1>   0.0800 
 50 H       -2.6710    -5.4870    -0.4860 H     1 <1>   0.1500 
 51 H       -6.8630    -5.9150    -0.7450 H     1 <1>   0.1500 
 52 H       -0.7390    -2.5860     0.4330 H     1 <1>   0.0800 
 53 H       -1.1220    -3.8110    -0.7700 H     1 <1>   0.0800 
 54 H       -1.3580    -4.1480     0.9560 H     1 <1>   0.0800 
 55 H       -4.6170    -6.8760    -0.8750 H     1 <1>   0.1500 
@<TRIPOS>BOND
  1   1   2  2   
  2   2   3  am  
  3   2   4  1   
  4   3   5  1   
  5   3   6  1   
  6   4   7  1   
  7   4   8  1   
  8   4  29  1   
  9   5   9  1   
 10   5  30  1   
 11   5  31  1   
 12   6  10  1   
 13   6  32  1   
 14   6  33  1   
 15   7  11  1   
 16   7  34  1   
 17   7  35  1   
 18   8  12  1   
 19   8  36  1   
 20   8  37  1   
 21   9  13  1   
 22   9  38  1   
 23   9  39  1   
 24  10  13  1   
 25  10  40  1   
 26  10  41  1   
 27  11  12  ar  
 28  11  14  ar  
 29  12  15  ar  
 30  13  16  1   
 31  13  17  1   
 32  14  18  ar  
 33  14  42  1   
 34  15  19  ar  
 35  15  43  1   
 36  16  20  1   
 37  17  21  ar  
 38  17  22  ar  
 39  18  19  ar  
 40  18  44  1   
 41  19  45  1   
 42  20  23  1   
 43  20  46  1   
 44  20  47  1   
 45  21  24  1   
 46  21  25  ar  
 47  22  23  1   
 48  22  26  ar  
 49  23  48  1   
 50  23  49  1   
 51  24  27  1   
 52  25  28  ar  
 53  25  50  1   
 54  26  28  ar  
 55  26  51  1   
 56  27  52  1   
 57  27  53  1   
 58  27  54  1   
 59  28  55  1   
@<TRIPOS>SUBSTRUCTURE
  1 ****   6 GROUP 4 **** **** 0

# MOE 2024.06 (io_trps.svl 2023.06)
