@<TRIPOS>MOLECULE
NONAME
38 39 1 0 0 
SMALL
USER_CHARGES


@<TRIPOS>ATOM
  1 S        3.3720    -0.3830     0.3680 S.3   1 <1>  -0.0800 
  2 C        1.7620    -0.0830    -0.2730 C.2   1 <1>  -0.1400 
  3 C        2.7300    -0.6460     1.9780 C.2   1 <1>  -0.1100 
  4 C        0.8400    -0.1930     0.7010 C.2   1 <1>  -0.1500 
  5 C        1.6460     0.2480    -1.7560 C.3   1 <1>   0.0810 
  6 C        1.3920    -0.5120     1.9830 C.2   1 <1>  -0.1500 
  7 C        2.1450     1.6420    -2.1070 C.2   1 <1>   0.5690 
  8 O        2.2070     1.9410    -3.2750 O.2   1 <1>  -0.5700 
  9 N        2.4920     2.4840    -1.0850 N.am  1 <1>  -0.4940 
 10 C        3.0410     3.7890    -1.0400 C.2   1 <1>  -0.0880 
 11 N        2.9410     4.7920    -1.9580 N.pl3 1 <1>   0.3140 
 12 C        3.7820     4.2840    -0.0190 C.2   1 <1>  -0.1810 
 13 N        3.5980     5.8990    -1.5490 N.2   1 <1>  -0.7070 
 14 C        2.1810     4.8300    -3.2140 C.3   1 <1>   0.0160 
 15 C        4.0990     5.5860    -0.3970 C.2   1 <1>   0.1080 
 16 C        4.1900     3.5740     1.2630 C.3   1 <1>   0.0210 
 17 C        4.9280     6.5730     0.4060 C.3   1 <1>   0.0210 
 18 C        5.5140     2.8350     1.0640 C.3   1 <1>  -0.2400 
 19 C        4.0480     7.3870     1.3610 C.3   1 <1>  -0.2400 
 20 H        3.4320    -0.8800     2.7600 H     1 <1>   0.1500 
 21 H       -0.2220    -0.0610     0.5810 H     1 <1>   0.1500 
 22 H        0.6170     0.1820    -2.0550 H     1 <1>   0.0800 
 23 H        2.2020    -0.4710    -2.3280 H     1 <1>   0.0800 
 24 H        0.7560    -0.6250     2.8450 H     1 <1>   0.1500 
 25 H        2.4690     2.0250    -0.1720 H     1 <1>   0.3700 
 26 H        1.2400     4.3350    -3.0750 H     1 <1>   0.0800 
 27 H        2.7480     4.3350    -3.9790 H     1 <1>   0.0800 
 28 H        2.0140     5.8520    -3.4940 H     1 <1>   0.0800 
 29 H        3.4260     2.8710     1.5460 H     1 <1>   0.0800 
 30 H        4.2850     4.2870     2.0620 H     1 <1>   0.0800 
 31 H        5.4240     7.2380    -0.2780 H     1 <1>   0.0800 
 32 H        5.6830     6.0460     0.9590 H     1 <1>   0.0800 
 33 H        5.4180     2.1150     0.2690 H     1 <1>   0.0800 
 34 H        5.7930     2.3210     1.9660 H     1 <1>   0.0800 
 35 H        6.2910     3.5300     0.8020 H     1 <1>   0.0800 
 36 H        3.3060     7.9250     0.7970 H     1 <1>   0.0800 
 37 H        4.6470     8.0910     1.9100 H     1 <1>   0.0800 
 38 H        3.5470     6.7360     2.0530 H     1 <1>   0.0800 
@<TRIPOS>BOND
  1   1   2  1   
  2   1   3  1   
  3   2   4  2   
  4   2   5  1   
  5   3   6  2   
  6   3  20  1   
  7   4   6  1   
  8   4  21  1   
  9   5   7  1   
 10   5  22  1   
 11   5  23  1   
 12   6  24  1   
 13   7   8  2   
 14   7   9  am  
 15   9  10  1   
 16   9  25  1   
 17  10  11  1   
 18  10  12  2   
 19  11  13  1   
 20  11  14  1   
 21  12  15  1   
 22  12  16  1   
 23  13  15  2   
 24  14  26  1   
 25  14  27  1   
 26  14  28  1   
 27  15  17  1   
 28  16  18  1   
 29  16  29  1   
 30  16  30  1   
 31  17  19  1   
 32  17  31  1   
 33  17  32  1   
 34  18  33  1   
 35  18  34  1   
 36  18  35  1   
 37  19  36  1   
 38  19  37  1   
 39  19  38  1   
@<TRIPOS>SUBSTRUCTURE
  1 ****   9 GROUP 4 **** **** 0

# MOE 2024.06 (io_trps.svl 2023.06)
