@<TRIPOS>MOLECULE
NONAME
45 47 1 0 0 
SMALL
USER_CHARGES


@<TRIPOS>ATOM
  1 CL       0.4980     0.7460    -0.6230 Cl    1 <1>  -0.1770 
  2 C        0.7120     2.2830     0.1850 C.ar  1 <1>   0.1770 
  3 C        1.9780     2.7800     0.4850 C.ar  1 <1>  -0.1440 
  4 C       -0.4340     2.9850     0.5100 C.ar  1 <1>  -0.1500 
  5 C        2.0620     4.0130     1.1200 C.ar  1 <1>  -0.1500 
  6 C        3.2710     2.0460     0.1430 C.3   1 <1>   0.3640 
  7 C       -0.3320     4.2090     1.1460 C.ar  1 <1>  -0.1500 
  8 C        0.9180     4.7210     1.4490 C.ar  1 <1>  -0.1500 
  9 N        3.2920     0.7170     0.7970 N.am  1 <1>  -0.7300 
 10 C        3.5320     1.9580    -1.3810 C.3   1 <1>   0.2610 
 11 C        3.7200    -0.4060     0.1770 C.2   1 <1>   0.5690 
 12 O        4.5190     0.9810    -1.6820 O.3   1 <1>  -0.5600 
 13 C        3.8790     3.3510    -1.9250 C.2   1 <1>   0.5690 
 14 O        3.7460    -1.4590     0.7630 O.2   1 <1>  -0.5700 
 15 C        4.1600    -0.3280    -1.2890 C.3   1 <1>   0.1810 
 16 O        3.0380     3.8710    -2.6230 O.2   1 <1>  -0.5700 
 17 N        5.0480     4.0190    -1.6140 N.am  1 <1>  -0.6600 
 18 C        5.2550     5.4300    -2.0460 C.3   1 <1>   0.1400 
 19 C        6.2280     3.4370    -0.9090 C.3   1 <1>   0.1400 
 20 C        5.5610     6.3000    -0.8250 C.3   1 <1>  -0.1600 
 21 C        6.5560     4.2820     0.3240 C.3   1 <1>  -0.1600 
 22 C        6.7620     5.7500    -0.0470 C.3   1 <1>   0.2000 
 23 O        6.8990     6.4520     1.1460 O.3   1 <1>  -0.5600 
 24 C        7.5960     7.6550     1.0600 C.3   1 <1>   0.0400 
 25 H       -1.3970     2.5750     0.2650 H     1 <1>   0.1500 
 26 H        3.0210     4.4410     1.3640 H     1 <1>   0.1500 
 27 H        4.0810     2.6050     0.5730 H     1 <1>   0.0800 
 28 H       -1.2190     4.7630     1.4010 H     1 <1>   0.1500 
 29 H        1.0000     5.6760     1.9400 H     1 <1>   0.1500 
 30 H        2.9500     0.6490     1.7570 H     1 <1>   0.3700 
 31 H        2.6320     1.6490    -1.8780 H     1 <1>   0.0800 
 32 H        3.3600    -0.6660    -1.9210 H     1 <1>   0.0800 
 33 H        5.0150    -0.9620    -1.4390 H     1 <1>   0.0800 
 34 H        6.0750     5.4680    -2.7430 H     1 <1>   0.0800 
 35 H        4.3810     5.8140    -2.5450 H     1 <1>   0.0800 
 36 H        6.0540     2.4230    -0.6050 H     1 <1>   0.0800 
 37 H        7.0680     3.4350    -1.5840 H     1 <1>   0.0800 
 38 H        4.6930     6.3200    -0.1890 H     1 <1>   0.0800 
 39 H        5.7620     7.3000    -1.1590 H     1 <1>   0.0800 
 40 H        7.4510     3.9040     0.7830 H     1 <1>   0.0800 
 41 H        5.7520     4.2010     1.0330 H     1 <1>   0.0800 
 42 H        7.6670     5.8490    -0.6240 H     1 <1>   0.0800 
 43 H        7.6530     8.0770     2.0480 H     1 <1>   0.0800 
 44 H        7.0710     8.3320     0.4100 H     1 <1>   0.0800 
 45 H        8.5890     7.4660     0.6910 H     1 <1>   0.0800 
@<TRIPOS>BOND
  1   1   2  1   
  2   2   3  ar  
  3   2   4  ar  
  4   3   5  ar  
  5   3   6  1   
  6   4   7  ar  
  7   4  25  1   
  8   5   8  ar  
  9   5  26  1   
 10   6   9  1   
 11   6  10  1   
 12   6  27  1   
 13   7   8  ar  
 14   7  28  1   
 15   8  29  1   
 16   9  11  am  
 17   9  30  1   
 18  10  12  1   
 19  10  13  1   
 20  10  31  1   
 21  11  14  2   
 22  11  15  1   
 23  12  15  1   
 24  13  16  2   
 25  13  17  am  
 26  15  32  1   
 27  15  33  1   
 28  17  18  1   
 29  17  19  1   
 30  18  20  1   
 31  18  34  1   
 32  18  35  1   
 33  19  21  1   
 34  19  36  1   
 35  19  37  1   
 36  20  22  1   
 37  20  38  1   
 38  20  39  1   
 39  21  22  1   
 40  21  40  1   
 41  21  41  1   
 42  22  23  1   
 43  22  42  1   
 44  23  24  1   
 45  24  43  1   
 46  24  44  1   
 47  24  45  1   
@<TRIPOS>SUBSTRUCTURE
  1 ****   6 GROUP 4 **** **** 0

# MOE 2024.06 (io_trps.svl 2023.06)
