@<TRIPOS>MOLECULE
NONAME
45 47 1 0 0 
SMALL
USER_CHARGES


@<TRIPOS>ATOM
  1 CL       2.2260    -2.2540     1.1160 Cl    1 <1>  -0.1770 
  2 C        0.9080    -2.7560     0.0910 C.ar  1 <1>   0.1770 
  3 C       -0.1930    -3.3700     0.6590 C.ar  1 <1>  -0.1500 
  4 C        0.9920    -2.5270    -1.2730 C.ar  1 <1>  -0.1500 
  5 C       -1.2640    -3.7760    -0.1370 C.ar  1 <1>   0.0860 
  6 C       -0.0560    -2.9250    -2.0850 C.ar  1 <1>  -0.1500 
  7 C       -1.1540    -3.5370    -1.5060 C.ar  1 <1>   0.1900 
  8 C       -2.4140    -4.4260     0.4470 C.2   1 <1>   0.5440 
  9 F       -2.1290    -3.8960    -2.2960 F     1 <1>  -0.1900 
 10 O       -2.2950    -5.5710     0.8380 O.2   1 <1>  -0.5700 
 11 N       -3.6260    -3.7870     0.6120 N.am  1 <1>  -0.6600 
 12 C       -4.7690    -4.5220     1.2310 C.3   1 <1>   0.1400 
 13 C       -3.8950    -2.3850     0.1760 C.3   1 <1>   0.1400 
 14 C       -5.8600    -3.5540     1.6940 C.3   1 <1>  -0.1600 
 15 C       -5.2830    -2.3230    -0.4590 C.3   1 <1>  -0.1600 
 16 C       -6.4120    -2.6810     0.5440 C.3   1 <1>   0.2800 
 17 O       -6.8610    -1.5150     1.1800 O.3   1 <1>  -0.5600 
 18 C       -7.6080    -3.3960    -0.1290 C.3   1 <1>  -0.1600 
 19 C       -7.6350    -0.5820     0.4800 C.3   1 <1>   0.1200 
 20 C       -8.5380    -2.4810    -0.9320 C.3   1 <1>   0.2800 
 21 C       -8.8840    -1.2500    -0.0930 C.3   1 <1>  -0.1600 
 22 O       -7.8660    -2.0520    -2.0670 O.3   1 <1>  -0.6800 
 23 C       -9.8060    -3.2370    -1.3920 C.3   1 <1>   0.1200 
 24 O      -10.5360    -2.4670    -2.2860 O.3   1 <1>  -0.6800 
 25 H       -0.2230    -3.5420     1.7200 H     1 <1>   0.1500 
 26 H        1.8640    -2.0480    -1.6830 H     1 <1>   0.1500 
 27 H       -0.0250    -2.7660    -3.1490 H     1 <1>   0.1500 
 28 H       -4.4140    -5.0890     2.0760 H     1 <1>   0.0800 
 29 H       -5.1690    -5.2150     0.5100 H     1 <1>   0.0800 
 30 H       -3.1620    -2.0580    -0.5390 H     1 <1>   0.0800 
 31 H       -3.8500    -1.7280     1.0290 H     1 <1>   0.0800 
 32 H       -5.4290    -2.9240     2.4530 H     1 <1>   0.0800 
 33 H       -6.6460    -4.1120     2.1660 H     1 <1>   0.0800 
 34 H       -5.2850    -3.0260    -1.2730 H     1 <1>   0.0800 
 35 H       -5.4200    -1.3490    -0.8840 H     1 <1>   0.0800 
 36 H       -8.2070    -3.8430     0.6430 H     1 <1>   0.0800 
 37 H       -7.2600    -4.2030    -0.7490 H     1 <1>   0.0800 
 38 H       -7.0420    -0.1280    -0.2930 H     1 <1>   0.0800 
 39 H       -7.9180     0.1870     1.1770 H     1 <1>   0.0800 
 40 H       -9.4410    -0.5440    -0.6840 H     1 <1>   0.0800 
 41 H       -9.5140    -1.5430     0.7280 H     1 <1>   0.0800 
 42 H       -7.0400    -1.6130    -1.7970 H     1 <1>   0.4000 
 43 H      -10.4400    -3.4750    -0.5560 H     1 <1>   0.0800 
 44 H       -9.5310    -4.1500    -1.8900 H     1 <1>   0.0800 
 45 H       -9.8960    -2.0590    -2.9090 H     1 <1>   0.4000 
@<TRIPOS>BOND
  1   1   2  1   
  2   2   3  ar  
  3   2   4  ar  
  4   3   5  ar  
  5   3  25  1   
  6   4   6  ar  
  7   4  26  1   
  8   5   7  ar  
  9   5   8  1   
 10   6   7  ar  
 11   6  27  1   
 12   7   9  1   
 13   8  10  2   
 14   8  11  am  
 15  11  12  1   
 16  11  13  1   
 17  12  14  1   
 18  12  28  1   
 19  12  29  1   
 20  13  15  1   
 21  13  30  1   
 22  13  31  1   
 23  14  16  1   
 24  14  32  1   
 25  14  33  1   
 26  15  16  1   
 27  15  34  1   
 28  15  35  1   
 29  16  17  1   
 30  16  18  1   
 31  17  19  1   
 32  18  20  1   
 33  18  36  1   
 34  18  37  1   
 35  19  21  1   
 36  19  38  1   
 37  19  39  1   
 38  20  21  1   
 39  20  22  1   
 40  20  23  1   
 41  21  40  1   
 42  21  41  1   
 43  22  42  1   
 44  23  24  1   
 45  23  43  1   
 46  23  44  1   
 47  24  45  1   
@<TRIPOS>SUBSTRUCTURE
  1 ****  13 GROUP 4 **** **** 0

# MOE 2024.06 (io_trps.svl 2023.06)
