@<TRIPOS>MOLECULE
NONAME
42 44 1 0 0 
SMALL
USER_CHARGES


@<TRIPOS>ATOM
  1 S        1.2430     0.5320    -2.0410 S.3   1 <1>  -0.0800 
  2 C        2.2560    -0.4260    -0.9690 C.2   1 <1>   0.4620 
  3 C       -0.1350    -0.4030    -1.5490 C.2   1 <1>  -0.1100 
  4 N        1.6040    -1.3320    -0.3390 N.2   1 <1>  -0.5650 
  5 N        3.6050    -0.1590    -0.8610 N.pl3 1 <1>  -0.8220 
  6 C        0.2470    -1.3370    -0.6530 C.2   1 <1>   0.1730 
  7 C        4.2690     1.0670    -1.3970 C.3   1 <1>   0.3890 
  8 C        4.5080    -1.1010    -0.1370 C.3   1 <1>   0.1290 
  9 C       -0.6220    -2.3100    -0.0130 C.ar  1 <1>   0.0540 
 10 C        4.9270     1.8740    -0.2850 C.2   1 <1>   0.0070 
 11 C       -0.3030    -2.8600     1.2320 C.ar  1 <1>  -0.1500 
 12 C       -1.8090    -2.7260    -0.6250 C.ar  1 <1>  -0.1500 
 13 N        6.1730     2.2090    -0.2980 N.2   1 <1>  -0.3380 
 14 N        4.3100     2.3300     0.8150 N.pl3 1 <1>   0.0480 
 15 C       -1.1290    -3.7820     1.8510 C.ar  1 <1>  -0.1500 
 16 C       -2.6480    -3.6460    -0.0210 C.ar  1 <1>  -0.1500 
 17 N        6.4070     2.9030     0.8150 N.2   1 <1>  -0.3380 
 18 C        5.2940     2.9610     1.4580 C.2   1 <1>   0.0370 
 19 C        2.9060     2.2100     1.2640 C.3   1 <1>   0.0960 
 20 C       -2.2920    -4.1590     1.2110 C.ar  1 <1>   0.1900 
 21 C        2.0230     3.1850     0.4900 C.3   1 <1>   0.1200 
 22 F       -3.0790    -5.0270     1.7860 F     1 <1>  -0.1900 
 23 O        0.7220     3.0440     0.9580 O.3   1 <1>  -0.5600 
 24 C       -0.2120     3.8200     0.2800 C.3   1 <1>   0.0400 
 25 H       -1.0870    -0.1570    -1.9760 H     1 <1>   0.1500 
 26 H        3.5730     1.6990    -1.9140 H     1 <1>   0.0800 
 27 H        5.0230     0.7700    -2.1050 H     1 <1>   0.0800 
 28 H        4.0310    -2.0560     0.0000 H     1 <1>   0.0800 
 29 H        4.7600    -0.6980     0.8290 H     1 <1>   0.0800 
 30 H        5.4130    -1.2500    -0.7000 H     1 <1>   0.0800 
 31 H        0.6070    -2.5560     1.7210 H     1 <1>   0.1500 
 32 H       -2.0790    -2.3310    -1.5870 H     1 <1>   0.1500 
 33 H       -0.8800    -4.2010     2.8090 H     1 <1>   0.1500 
 34 H       -3.5610    -3.9650    -0.4920 H     1 <1>   0.1500 
 35 H        5.1580     3.4560     2.4020 H     1 <1>   0.1500 
 36 H        2.8570     2.4390     2.3120 H     1 <1>   0.0800 
 37 H        2.5680     1.2030     1.1160 H     1 <1>   0.0800 
 38 H        2.0360     2.9580    -0.5610 H     1 <1>   0.0800 
 39 H        2.3380     4.2010     0.6590 H     1 <1>   0.0800 
 40 H       -1.1770     3.6450     0.7230 H     1 <1>   0.0800 
 41 H       -0.2320     3.5300    -0.7560 H     1 <1>   0.0800 
 42 H        0.0480     4.8600     0.3790 H     1 <1>   0.0800 
@<TRIPOS>BOND
  1   1   2  1   
  2   1   3  1   
  3   2   4  2   
  4   2   5  1   
  5   3   6  2   
  6   3  25  1   
  7   4   6  1   
  8   5   7  1   
  9   5   8  1   
 10   6   9  1   
 11   7  10  1   
 12   7  26  1   
 13   7  27  1   
 14   8  28  1   
 15   8  29  1   
 16   8  30  1   
 17   9  11  ar  
 18   9  12  ar  
 19  10  13  2   
 20  10  14  1   
 21  11  15  ar  
 22  11  31  1   
 23  12  16  ar  
 24  12  32  1   
 25  13  17  1   
 26  14  18  1   
 27  14  19  1   
 28  15  20  ar  
 29  15  33  1   
 30  16  20  ar  
 31  16  34  1   
 32  17  18  2   
 33  18  35  1   
 34  19  21  1   
 35  19  36  1   
 36  19  37  1   
 37  20  22  1   
 38  21  23  1   
 39  21  38  1   
 40  21  39  1   
 41  23  24  1   
 42  24  40  1   
 43  24  41  1   
 44  24  42  1   
@<TRIPOS>SUBSTRUCTURE
  1 ****   4 GROUP 4 **** **** 0

# MOE 2024.06 (io_trps.svl 2023.06)
