@<TRIPOS>MOLECULE
NONAME
50 51 1 0 0 
SMALL
USER_CHARGES


@<TRIPOS>ATOM
  1 S        0.7930    -0.1170    -0.9660 S.o2  1 <1>   1.3330 
  2 O        0.4950    -0.2580    -2.3730 O.2   1 <1>  -0.6500 
  3 O        1.9600    -0.7720    -0.4180 O.2   1 <1>  -0.6500 
  4 N       -0.5700    -0.6790    -0.1190 N.am  1 <1>  -0.8490 
  5 C        0.8580     1.6360    -0.5550 C.3   1 <1>  -0.0550 
  6 C       -1.8350    -0.4470    -0.8270 C.3   1 <1>   0.1160 
  7 C       -0.4560    -2.0970     0.2380 C.3   1 <1>   0.1160 
  8 C        1.4680     2.0400     0.8090 C.3   1 <1>  -0.0800 
  9 C        2.9690     1.7600     0.9160 C.3   1 <1>   0.2200 
 10 C        0.8760     1.3690     2.0560 C.3   1 <1>   0.1200 
 11 N        3.6960     3.0330     1.1250 N.am  1 <1>  -0.7300 
 12 C        3.0710     0.8770     2.1580 C.3   1 <1>   0.1200 
 13 O        1.9500     1.1930     2.9200 O.3   1 <1>  -0.5600 
 14 C        4.1410     3.8720     0.1410 C.2   1 <1>   0.5440 
 15 O        3.8520     3.5920    -1.0100 O.2   1 <1>  -0.5700 
 16 C        4.9230     5.0670     0.4650 C.ar  1 <1>   0.3960 
 17 N        5.1600     5.3830     1.7360 N.ar  1 <1>  -0.6200 
 18 C        5.4190     5.8720    -0.5470 C.ar  1 <1>  -0.1500 
 19 C        5.8840     6.4630     1.9300 C.ar  1 <1>   0.7200 
 20 C        6.1510     6.9860    -0.2180 C.ar  1 <1>   0.1670 
 21 N        6.3860     7.2900     1.0370 N.ar  1 <1>  -0.6200 
 22 N        6.1240     6.7800     3.2020 N.pl3 1 <1>  -0.9000 
 23 C        6.7100     7.8970    -1.3150 C.3   1 <1>   0.0630 
 24 C        8.2430     7.9450    -1.2670 C.3   1 <1>  -0.2400 
 25 C        6.1280     9.3130    -1.2090 C.3   1 <1>  -0.2400 
 26 H        1.4380     2.1300    -1.3120 H     1 <1>   0.0800 
 27 H       -0.1330     2.0400    -0.6170 H     1 <1>   0.0800 
 28 H       -2.6650    -0.7330    -0.2040 H     1 <1>   0.0800 
 29 H       -1.8670    -1.0220    -1.7380 H     1 <1>   0.0800 
 30 H       -1.9380     0.5950    -1.0740 H     1 <1>   0.0800 
 31 H       -1.3290    -2.4180     0.7790 H     1 <1>   0.0800 
 32 H        0.4040    -2.2510     0.8690 H     1 <1>   0.0800 
 33 H       -0.3460    -2.6980    -0.6490 H     1 <1>   0.0800 
 34 H        1.3040     3.0970     0.9190 H     1 <1>   0.0800 
 35 H        3.3730     1.2550     0.0550 H     1 <1>   0.0800 
 36 H        0.4700     0.3950     1.8580 H     1 <1>   0.0800 
 37 H        0.1350     1.9810     2.5400 H     1 <1>   0.0800 
 38 H        3.8440     3.3100     2.1010 H     1 <1>   0.3700 
 39 H        3.9630     1.0550     2.7300 H     1 <1>   0.0800 
 40 H        3.0060    -0.1640     1.8910 H     1 <1>   0.0800 
 41 H        5.2280     5.6180    -1.5730 H     1 <1>   0.1500 
 42 H        5.4960     6.3810     3.8930 H     1 <1>   0.4000 
 43 H        6.4360     7.7350     3.3590 H     1 <1>   0.4000 
 44 H        6.4260     7.4970    -2.2720 H     1 <1>   0.0800 
 45 H        8.5750     8.3670    -0.3340 H     1 <1>   0.0800 
 46 H        8.6270     8.5440    -2.0730 H     1 <1>   0.0800 
 47 H        8.6470     6.9520    -1.3530 H     1 <1>   0.0800 
 48 H        6.4140     9.7660    -0.2760 H     1 <1>   0.0800 
 49 H        5.0540     9.2740    -1.2540 H     1 <1>   0.0800 
 50 H        6.4850     9.9270    -2.0150 H     1 <1>   0.0800 
@<TRIPOS>BOND
  1   1   2  2   
  2   1   3  2   
  3   1   4  am  
  4   1   5  1   
  5   4   6  1   
  6   4   7  1   
  7   5   8  1   
  8   5  26  1   
  9   5  27  1   
 10   6  28  1   
 11   6  29  1   
 12   6  30  1   
 13   7  31  1   
 14   7  32  1   
 15   7  33  1   
 16   8   9  1   
 17   8  10  1   
 18   8  34  1   
 19   9  11  1   
 20   9  12  1   
 21   9  35  1   
 22  10  13  1   
 23  10  36  1   
 24  10  37  1   
 25  11  14  am  
 26  11  38  1   
 27  12  13  1   
 28  12  39  1   
 29  12  40  1   
 30  14  15  2   
 31  14  16  1   
 32  16  17  ar  
 33  16  18  ar  
 34  17  19  ar  
 35  18  20  ar  
 36  18  41  1   
 37  19  21  ar  
 38  19  22  1   
 39  20  21  ar  
 40  20  23  1   
 41  22  42  1   
 42  22  43  1   
 43  23  24  1   
 44  23  25  1   
 45  23  44  1   
 46  24  45  1   
 47  24  46  1   
 48  24  47  1   
 49  25  48  1   
 50  25  49  1   
 51  25  50  1   
@<TRIPOS>SUBSTRUCTURE
  1 ****  11 GROUP 4 **** **** 0

# MOE 2024.06 (io_trps.svl 2023.06)
