@<TRIPOS>MOLECULE
NONAME
43 45 1 0 0 
SMALL
USER_CHARGES


@<TRIPOS>ATOM
  1 F       -2.1250     0.3000    -1.1450 F     1 <1>  -0.1900 
  2 C       -2.3340     0.8600     0.0170 C.ar  1 <1>   0.1900 
  3 C       -2.5560     0.0410     1.1220 C.ar  1 <1>   0.0860 
  4 C       -2.3230     2.2460     0.0860 C.ar  1 <1>  -0.1440 
  5 C       -2.5790    -1.4000     1.0320 C.2   1 <1>   0.5440 
  6 C       -2.7540     0.6810     2.3450 C.ar  1 <1>  -0.1500 
  7 C       -2.5360     2.8430     1.3180 C.ar  1 <1>  -0.1500 
  8 C       -2.0800     3.1000    -1.1520 C.3   1 <1>  -0.0960 
  9 O       -1.7080    -2.0500     1.5770 O.2   1 <1>  -0.5700 
 10 N       -3.5920    -2.0670     0.3820 N.am  1 <1>  -0.6600 
 11 C       -2.7480     2.0610     2.4430 C.ar  1 <1>  -0.1500 
 12 C       -4.7880    -1.4410    -0.2340 C.3   1 <1>   0.1400 
 13 C       -3.6670    -3.5450     0.3020 C.3   1 <1>   0.1400 
 14 C       -5.5520    -2.6020    -0.8690 C.3   1 <1>   0.2000 
 15 C       -5.1080    -3.8480    -0.1080 C.3   1 <1>  -0.0800 
 16 O       -6.9230    -2.4330    -0.7570 O.3   1 <1>  -0.6800 
 17 C       -5.2570    -5.1410    -0.9230 C.3   1 <1>   0.0210 
 18 C       -4.7210    -6.3310    -0.1520 C.2   1 <1>   0.1080 
 19 N       -5.2430    -6.7380     0.9630 N.2   1 <1>  -0.7070 
 20 C       -3.6280    -7.1020    -0.5330 C.2   1 <1>  -0.1500 
 21 N       -4.4880    -7.7910     1.3280 N.pl3 1 <1>   0.3000 
 22 C       -3.5020    -8.0300     0.4380 C.2   1 <1>  -0.3320 
 23 C       -2.4840    -9.1470     0.5730 C.3   1 <1>  -0.0600 
 24 H       -2.9110     0.0790     3.2240 H     1 <1>   0.1500 
 25 H       -2.5340     3.9150     1.4130 H     1 <1>   0.1500 
 26 H       -2.1100     4.1470    -0.9120 H     1 <1>   0.0800 
 27 H       -2.8330     2.8960    -1.8920 H     1 <1>   0.0800 
 28 H       -1.1150     2.8720    -1.5690 H     1 <1>   0.0800 
 29 H       -2.9050     2.5320     3.3980 H     1 <1>   0.1500 
 30 H       -5.3750    -0.9670     0.5340 H     1 <1>   0.0800 
 31 H       -4.5020    -0.7250    -0.9830 H     1 <1>   0.0800 
 32 H       -2.9690    -3.8890    -0.4420 H     1 <1>   0.0800 
 33 H       -3.4260    -3.9970     1.2510 H     1 <1>   0.0800 
 34 H       -5.3020    -2.6680    -1.9150 H     1 <1>   0.0800 
 35 H       -5.6780    -3.9390     0.8010 H     1 <1>   0.0800 
 36 H       -7.2000    -2.5480     0.1730 H     1 <1>   0.4000 
 37 H       -4.7300    -5.0530    -1.8560 H     1 <1>   0.0800 
 38 H       -6.2960    -5.3110    -1.1390 H     1 <1>   0.0800 
 39 H       -3.0280    -6.9630    -1.4150 H     1 <1>   0.1500 
 40 H       -4.6700    -8.3220     2.1870 H     1 <1>   0.2700 
 41 H       -1.8030    -9.1300    -0.2600 H     1 <1>   0.0800 
 42 H       -2.9780   -10.1020     0.5920 H     1 <1>   0.0800 
 43 H       -1.9170    -9.0260     1.4800 H     1 <1>   0.0800 
@<TRIPOS>BOND
  1   1   2  1   
  2   2   3  ar  
  3   2   4  ar  
  4   3   5  1   
  5   3   6  ar  
  6   4   7  ar  
  7   4   8  1   
  8   5   9  2   
  9   5  10  am  
 10   6  11  ar  
 11   6  24  1   
 12   7  11  ar  
 13   7  25  1   
 14   8  26  1   
 15   8  27  1   
 16   8  28  1   
 17  10  12  1   
 18  10  13  1   
 19  11  29  1   
 20  12  14  1   
 21  12  30  1   
 22  12  31  1   
 23  13  15  1   
 24  13  32  1   
 25  13  33  1   
 26  14  15  1   
 27  14  16  1   
 28  14  34  1   
 29  15  17  1   
 30  15  35  1   
 31  16  36  1   
 32  17  18  1   
 33  17  37  1   
 34  17  38  1   
 35  18  19  2   
 36  18  20  1   
 37  19  21  1   
 38  20  22  2   
 39  20  39  1   
 40  21  22  1   
 41  21  40  1   
 42  22  23  1   
 43  23  41  1   
 44  23  42  1   
 45  23  43  1   
@<TRIPOS>SUBSTRUCTURE
  1 ****  10 GROUP 4 **** **** 0

# MOE 2024.06 (io_trps.svl 2023.06)
