@<TRIPOS>MOLECULE
NONAME
47 51 1 0 0 
SMALL
USER_CHARGES


@<TRIPOS>ATOM
  1 S       -1.3840     1.4920     2.4930 S.3   1 <1>  -0.0800 
  2 C       -1.4000     1.6060     0.7390 C.2   1 <1>  -0.1400 
  3 C       -2.8090     0.4610     2.4700 C.2   1 <1>  -0.1100 
  4 C       -2.4270     0.9150     0.2290 C.2   1 <1>  -0.1810 
  5 C       -0.3620     2.4000    -0.0460 C.3   1 <1>   0.4600 
  6 C       -3.2330     0.2530     1.2080 C.2   1 <1>  -0.1500 
  7 C       -2.6400     0.8920    -1.2680 C.3   1 <1>   0.0210 
  8 O       -0.5650     2.1660    -1.4270 O.3   1 <1>  -0.5600 
  9 C       -0.4820     3.9060     0.2270 C.3   1 <1>  -0.1600 
 10 C        1.0550     1.9110     0.2690 C.3   1 <1>  -0.1600 
 11 C       -1.8890     2.0800    -1.9000 C.3   1 <1>   0.1200 
 12 C        0.5910     4.6990    -0.5200 C.3   1 <1>   0.1400 
 13 C        2.1130     2.7290    -0.4730 C.3   1 <1>   0.1400 
 14 N        1.9360     4.1730    -0.1470 N.am  1 <1>  -0.6600 
 15 C        2.9600     4.9210     0.3940 C.2   1 <1>   0.5690 
 16 O        4.0350     4.4160     0.6410 O.2   1 <1>  -0.5700 
 17 C        2.7650     6.4040     0.7430 C.3   1 <1>   0.2610 
 18 O        2.5220     7.1740    -0.4340 O.3   1 <1>  -0.3630 
 19 C        3.9610     7.0020     1.5020 C.3   1 <1>   0.1200 
 20 C        2.5850     8.5230    -0.3090 C.ar  1 <1>   0.0830 
 21 O        3.7250     8.3690     1.7960 O.3   1 <1>  -0.3630 
 22 C        3.1700     9.1190     0.8100 C.ar  1 <1>   0.0830 
 23 C        2.0500     9.3120    -1.3120 C.ar  1 <1>  -0.1500 
 24 C        3.1940    10.4980     0.9250 C.ar  1 <1>  -0.1500 
 25 C        2.0820    10.6930    -1.1960 C.ar  1 <1>  -0.1500 
 26 C        2.6500    11.2840    -0.0780 C.ar  1 <1>  -0.1500 
 27 H       -3.1830     0.1160     3.4170 H     1 <1>   0.1500 
 28 H       -4.0830    -0.3420     0.9230 H     1 <1>   0.1500 
 29 H       -3.6870     0.9710    -1.4950 H     1 <1>   0.0800 
 30 H       -2.2700    -0.0320    -1.6740 H     1 <1>   0.0800 
 31 H       -0.3660     4.0830     1.2810 H     1 <1>   0.0800 
 32 H       -1.4590     4.2550    -0.0470 H     1 <1>   0.0800 
 33 H        1.1390     0.8740     0.0000 H     1 <1>   0.0800 
 34 H        1.2430     1.9900     1.3230 H     1 <1>   0.0800 
 35 H       -2.3930     3.0030    -1.6740 H     1 <1>   0.0800 
 36 H       -1.8480     1.9650    -2.9690 H     1 <1>   0.0800 
 37 H        0.4920     5.7420    -0.2840 H     1 <1>   0.0800 
 38 H        0.4560     4.5870    -1.5830 H     1 <1>   0.0800 
 39 H        2.0070     2.5930    -1.5360 H     1 <1>   0.0800 
 40 H        3.0950     2.3880    -0.1920 H     1 <1>   0.0800 
 41 H        1.8950     6.4870     1.3660 H     1 <1>   0.0800 
 42 H        4.8550     6.9340     0.9070 H     1 <1>   0.0800 
 43 H        4.1190     6.4840     2.4310 H     1 <1>   0.0800 
 44 H        1.6110     8.8460    -2.1760 H     1 <1>   0.1500 
 45 H        3.6410    10.9480     1.7930 H     1 <1>   0.1500 
 46 H        1.6640    11.3070    -1.9750 H     1 <1>   0.1500 
 47 H        2.6710    12.3570     0.0110 H     1 <1>   0.1500 
@<TRIPOS>BOND
  1   1   2  1   
  2   1   3  1   
  3   2   4  2   
  4   2   5  1   
  5   3   6  2   
  6   3  27  1   
  7   4   6  1   
  8   4   7  1   
  9   5   8  1   
 10   5   9  1   
 11   5  10  1   
 12   6  28  1   
 13   7  11  1   
 14   7  29  1   
 15   7  30  1   
 16   8  11  1   
 17   9  12  1   
 18   9  31  1   
 19   9  32  1   
 20  10  13  1   
 21  10  33  1   
 22  10  34  1   
 23  11  35  1   
 24  11  36  1   
 25  12  14  1   
 26  12  37  1   
 27  12  38  1   
 28  13  14  1   
 29  13  39  1   
 30  13  40  1   
 31  14  15  am  
 32  15  16  2   
 33  15  17  1   
 34  17  18  1   
 35  17  19  1   
 36  17  41  1   
 37  18  20  1   
 38  19  21  1   
 39  19  42  1   
 40  19  43  1   
 41  20  22  ar  
 42  20  23  ar  
 43  21  22  1   
 44  22  24  ar  
 45  23  25  ar  
 46  23  44  1   
 47  24  26  ar  
 48  24  45  1   
 49  25  26  ar  
 50  25  46  1   
 51  26  47  1   
@<TRIPOS>SUBSTRUCTURE
  1 ****  12 GROUP 4 **** **** 0

# MOE 2024.06 (io_trps.svl 2023.06)
