@<TRIPOS>MOLECULE
NONAME
55 58 1 0 0 
SMALL
USER_CHARGES


@<TRIPOS>ATOM
  1 O       -0.6910    -1.2360     1.4150 O.co2 1 <1>  -0.9000 
  2 C       -0.5130    -2.4520     1.5590 C.2   1 <1>   1.0330 
  3 O       -1.4990    -3.1500     1.8780 O.co2 1 <1>  -0.9000 
  4 C        0.7640    -3.0660     1.3330 C.2   1 <1>  -0.2330 
  5 C        1.0750    -4.3730     1.7070 C.2   1 <1>   0.3720 
  6 C        1.9160    -2.6340     0.7470 C.2   1 <1>   0.0870 
  7 N        2.2680    -4.7020     1.3680 N.2   1 <1>  -0.4100 
  8 N        0.1950    -5.2320     2.3450 N.pl3 1 <1>  -0.8520 
  9 O        2.7650    -3.6370     0.7980 O.3   1 <1>  -0.0190 
 10 C        2.3420    -1.4060     0.1170 C.ar  1 <1>   0.0530 
 11 C       -0.0920    -6.4640     1.6010 C.3   1 <1>   0.2090 
 12 C        3.6740    -0.9950     0.1950 C.ar  1 <1>  -0.1500 
 13 C        1.4710    -0.5910    -0.6070 C.ar  1 <1>  -0.1500 
 14 C       -1.4840    -6.9730     1.9900 C.3   1 <1>  -0.0800 
 15 C        4.1130     0.1650    -0.4160 C.ar  1 <1>  -0.1500 
 16 C        1.8980     0.5740    -1.2170 C.ar  1 <1>  -0.1500 
 17 C       -1.8740    -8.2200     1.2010 C.3   1 <1>   0.3430 
 18 C       -2.6010    -5.9620     1.7070 C.3   1 <1>  -0.1600 
 19 C        3.2310     0.9620    -1.1260 C.ar  1 <1>   0.0830 
 20 N       -3.0930    -7.8570     0.4200 N.4   1 <1>  -0.9590 
 21 C       -3.7600    -6.7830     1.1980 C.3   1 <1>   0.3430 
 22 O        3.7320     2.0860    -1.6930 O.3   1 <1>  -0.3620 
 23 C       -3.9700    -9.0020     0.0570 C.3   1 <1>   0.4230 
 24 C        2.8950     2.9980    -2.3670 C.3   1 <1>   0.0400 
 25 C       -3.2100    -9.9620    -0.8590 C.3   1 <1>  -0.1600 
 26 C       -5.0950    -8.5260    -0.8630 C.3   1 <1>  -0.1600 
 27 C       -3.2440    -9.3210    -2.2530 C.3   1 <1>  -0.1600 
 28 C       -4.4690    -8.3970    -2.2570 C.3   1 <1>  -0.1600 
 29 H       -0.6790    -4.6700     2.4530 H     1 <1>   0.4000 
 30 H        0.6620    -7.1940     1.8410 H     1 <1>   0.0800 
 31 H       -0.0480    -6.2600     0.5430 H     1 <1>   0.0800 
 32 H        4.3740    -1.5980     0.7460 H     1 <1>   0.1500 
 33 H        0.4370    -0.8750    -0.6890 H     1 <1>   0.1500 
 34 H       -1.4720    -7.2260     3.0360 H     1 <1>   0.0800 
 35 H        5.1420     0.4630    -0.3430 H     1 <1>   0.1500 
 36 H        1.1770     1.1600    -1.7520 H     1 <1>   0.1500 
 37 H       -2.1000    -9.0180     1.8890 H     1 <1>   0.0800 
 38 H       -1.0770    -8.5340     0.5460 H     1 <1>   0.0800 
 39 H       -2.3110    -5.2810     0.9250 H     1 <1>   0.0800 
 40 H       -2.8650    -5.3840     2.5770 H     1 <1>   0.0800 
 41 H       -2.7860    -7.4300    -0.4630 H     1 <1>   0.4500 
 42 H       -4.4220    -6.1890     0.5890 H     1 <1>   0.0800 
 43 H       -4.3030    -7.2050     2.0280 H     1 <1>   0.0800 
 44 H       -4.3470    -9.4940     0.9390 H     1 <1>   0.0800 
 45 H        3.4990     3.8200    -2.7050 H     1 <1>   0.0800 
 46 H        2.1430     3.3510    -1.6840 H     1 <1>   0.0800 
 47 H        2.4470     2.5020    -3.2100 H     1 <1>   0.0800 
 48 H       -3.7610   -10.8860    -0.9000 H     1 <1>   0.0800 
 49 H       -2.2130   -10.1940    -0.5350 H     1 <1>   0.0800 
 50 H       -5.5800    -7.6220    -0.5430 H     1 <1>   0.0800 
 51 H       -5.8430    -9.3000    -0.9000 H     1 <1>   0.0800 
 52 H       -3.3200   -10.0750    -3.0200 H     1 <1>   0.0800 
 53 H       -2.3500    -8.7470    -2.4260 H     1 <1>   0.0800 
 54 H       -4.1620    -7.3810    -2.4410 H     1 <1>   0.0800 
 55 H       -5.1730    -8.6840    -3.0210 H     1 <1>   0.0800 
@<TRIPOS>BOND
  1   1   2  ar  
  2   2   3  ar  
  3   2   4  1   
  4   4   5  1   
  5   4   6  2   
  6   5   7  2   
  7   5   8  1   
  8   6   9  1   
  9   6  10  1   
 10   7   9  1   
 11   8  11  1   
 12   8  29  1   
 13  10  12  ar  
 14  10  13  ar  
 15  11  14  1   
 16  11  30  1   
 17  11  31  1   
 18  12  15  ar  
 19  12  32  1   
 20  13  16  ar  
 21  13  33  1   
 22  14  17  1   
 23  14  18  1   
 24  14  34  1   
 25  15  19  ar  
 26  15  35  1   
 27  16  19  ar  
 28  16  36  1   
 29  17  20  1   
 30  17  37  1   
 31  17  38  1   
 32  18  21  1   
 33  18  39  1   
 34  18  40  1   
 35  19  22  1   
 36  20  21  1   
 37  20  23  1   
 38  20  41  1   
 39  21  42  1   
 40  21  43  1   
 41  22  24  1   
 42  23  25  1   
 43  23  26  1   
 44  23  44  1   
 45  24  45  1   
 46  24  46  1   
 47  24  47  1   
 48  25  27  1   
 49  25  48  1   
 50  25  49  1   
 51  26  28  1   
 52  26  50  1   
 53  26  51  1   
 54  27  28  1   
 55  27  52  1   
 56  27  53  1   
 57  28  54  1   
 58  28  55  1   
@<TRIPOS>SUBSTRUCTURE
  1 ****   4 GROUP 4 **** **** 0

# MOE 2024.06 (io_trps.svl 2023.06)
