@<TRIPOS>MOLECULE
NONAME
50 53 1 0 0 
SMALL
USER_CHARGES


@<TRIPOS>ATOM
  1 O        1.0210    -4.3590     2.0610 O.3   1 <1>  -0.6800 
  2 C        1.1190    -3.8840     0.7720 C.3   1 <1>   0.2000 
  3 C        2.2880    -4.5550     0.0670 C.3   1 <1>  -0.1600 
  4 C        1.4780    -2.4080     0.8100 C.3   1 <1>  -0.1600 
  5 C        2.7990    -3.5180    -0.9450 C.3   1 <1>  -0.0800 
  6 C        2.2690    -2.1520    -0.4810 C.3   1 <1>  -0.0800 
  7 C        4.3280    -3.3970    -0.9690 C.3   1 <1>  -0.1600 
  8 C        3.4980    -1.2630    -0.2630 C.3   1 <1>  -0.1600 
  9 C        4.6460    -2.2410    -0.0240 C.3   1 <1>   0.4230 
 10 N        5.9670    -1.6280    -0.3210 N.4   1 <1>  -0.9590 
 11 C        6.2480    -0.4560     0.5580 C.3   1 <1>   0.5240 
 12 C        7.0880    -2.6190    -0.2060 C.3   1 <1>   0.2630 
 13 C        7.4000     0.3250    -0.0190 C.2   1 <1>  -0.1810 
 14 C        8.7110     0.1540     0.2780 C.2   1 <1>  -0.0260 
 15 C        7.3670     1.3650    -0.9320 C.2   1 <1>   0.1390 
 16 N        9.3100    -0.7520     1.1260 N.2   1 <1>  -0.5760 
 17 N        9.4000     1.0920    -0.4580 N.pl3 1 <1>   0.6010 
 18 N        8.5510     1.8270    -1.2130 N.2   1 <1>  -0.7070 
 19 C       10.5980    -0.6700     1.2260 C.2   1 <1>   0.3750 
 20 C       10.7810     1.1620    -0.3440 C.2   1 <1>  -0.1690 
 21 C       11.3770     0.2790     0.5010 C.2   1 <1>  -0.1360 
 22 C       11.3200    -1.6260     2.1490 C.3   1 <1>  -0.1790 
 23 C       11.5280     2.2090    -1.1600 C.3   1 <1>  -0.1020 
 24 H        0.7130    -5.2860     2.0590 H     1 <1>   0.4000 
 25 H        0.1890    -4.0460     0.2510 H     1 <1>   0.0800 
 26 H        3.0520    -4.7860     0.7900 H     1 <1>   0.0800 
 27 H        1.9770    -5.4590    -0.4260 H     1 <1>   0.0800 
 28 H        0.5940    -1.7970     0.8580 H     1 <1>   0.0800 
 29 H        2.0880    -2.2160     1.6760 H     1 <1>   0.0800 
 30 H        2.4180    -3.7520    -1.9260 H     1 <1>   0.0800 
 31 H        1.6140    -1.7310    -1.2270 H     1 <1>   0.0800 
 32 H        4.6320    -3.1480    -1.9710 H     1 <1>   0.0800 
 33 H        4.8040    -4.3140    -0.6690 H     1 <1>   0.0800 
 34 H        3.3510    -0.5870     0.5600 H     1 <1>   0.0800 
 35 H        3.6720    -0.7010    -1.1650 H     1 <1>   0.0800 
 36 H        4.6060    -2.5960     0.9950 H     1 <1>   0.0800 
 37 H        5.9490    -1.2790    -1.2860 H     1 <1>   0.4500 
 38 H        5.3870     0.1870     0.6230 H     1 <1>   0.0800 
 39 H        6.5020    -0.7900     1.5510 H     1 <1>   0.0800 
 40 H        7.1840    -2.9620     0.8120 H     1 <1>   0.0800 
 41 H        8.0210    -2.1660    -0.4990 H     1 <1>   0.0800 
 42 H        6.9120    -3.4690    -0.8440 H     1 <1>   0.0800 
 43 H        6.4740     1.7740    -1.3800 H     1 <1>   0.1500 
 44 H       12.4420     0.2700     0.6490 H     1 <1>   0.1500 
 45 H       11.8630    -1.0720     2.8940 H     1 <1>   0.0800 
 46 H       12.0070    -2.2300     1.5870 H     1 <1>   0.0800 
 47 H       10.6190    -2.2710     2.6470 H     1 <1>   0.0800 
 48 H       11.1830     3.1940    -0.8970 H     1 <1>   0.0800 
 49 H       11.3500     2.0550    -2.2100 H     1 <1>   0.0800 
 50 H       12.5870     2.1550    -0.9780 H     1 <1>   0.0800 
@<TRIPOS>BOND
  1   1   2  1   
  2   1  24  1   
  3   2   3  1   
  4   2   4  1   
  5   2  25  1   
  6   3   5  1   
  7   3  26  1   
  8   3  27  1   
  9   4   6  1   
 10   4  28  1   
 11   4  29  1   
 12   5   6  1   
 13   5   7  1   
 14   5  30  1   
 15   6   8  1   
 16   6  31  1   
 17   7   9  1   
 18   7  32  1   
 19   7  33  1   
 20   8   9  1   
 21   8  34  1   
 22   8  35  1   
 23   9  10  1   
 24   9  36  1   
 25  10  11  1   
 26  10  12  1   
 27  10  37  1   
 28  11  13  1   
 29  11  38  1   
 30  11  39  1   
 31  12  40  1   
 32  12  41  1   
 33  12  42  1   
 34  13  14  2   
 35  13  15  1   
 36  14  16  1   
 37  14  17  1   
 38  15  18  2   
 39  15  43  1   
 40  16  19  2   
 41  17  18  1   
 42  17  20  1   
 43  19  21  1   
 44  19  22  1   
 45  20  21  2   
 46  20  23  1   
 47  21  44  1   
 48  22  45  1   
 49  22  46  1   
 50  22  47  1   
 51  23  48  1   
 52  23  49  1   
 53  23  50  1   
@<TRIPOS>SUBSTRUCTURE
  1 ****  10 GROUP 4 **** **** 0

# MOE 2024.06 (io_trps.svl 2023.06)
