@<TRIPOS>MOLECULE
NONAME
49 50 1 0 0 
SMALL
USER_CHARGES


@<TRIPOS>ATOM
  1 O        1.0370    -0.7690    -1.7790 O.2   1 <1>  -0.5700 
  2 C        1.7400    -1.0230    -0.8290 C.2   1 <1>   0.5690 
  3 N        2.3860    -0.0630    -0.1070 N.am  1 <1>  -0.4930 
  4 C        1.9250    -2.4810    -0.4090 C.3   1 <1>  -0.0190 
  5 C        2.3790     1.3420    -0.2910 C.2   1 <1>   0.0630 
  6 C        2.7970    -3.2450    -1.4210 C.3   1 <1>  -0.1600 
  7 C        0.5770    -3.2040    -0.2360 C.3   1 <1>  -0.1600 
  8 C        1.7240     2.1120    -1.2540 C.2   1 <1>   0.1390 
  9 C        3.0370     2.2420     0.4670 C.2   1 <1>  -0.3020 
 10 C        2.9830    -4.7080    -1.0110 C.3   1 <1>   0.1400 
 11 C        0.7650    -4.6700     0.1650 C.3   1 <1>   0.1400 
 12 N        1.9530     3.3840    -1.1090 N.2   1 <1>  -0.7070 
 13 N        2.7680     3.4680    -0.0410 N.pl3 1 <1>   0.3140 
 14 N        1.6570    -5.3570    -0.8130 N.am  1 <1>  -0.6600 
 15 C        3.2660     4.7800     0.4570 C.3   1 <1>   0.1760 
 16 C        1.3600    -6.5590    -1.4210 C.2   1 <1>   0.5690 
 17 C        4.7970     4.8510     0.3700 C.3   1 <1>  -0.2400 
 18 C        2.7840     5.0370     1.8920 C.3   1 <1>  -0.2400 
 19 O        2.1400    -7.0890    -2.1800 O.2   1 <1>  -0.5700 
 20 C        0.0200    -7.2740    -1.2070 C.3   1 <1>   0.1810 
 21 O       -0.2290    -7.5770     0.1440 O.3   1 <1>  -0.5600 
 22 C       -1.3810    -8.3200     0.3530 C.3   1 <1>   0.1200 
 23 C       -1.5350    -8.5090     1.8570 C.3   1 <1>  -0.2400 
 24 H        2.9590    -0.3810     0.6710 H     1 <1>   0.3700 
 25 H        2.4280    -2.4970     0.5410 H     1 <1>   0.0800 
 26 H        3.7610    -2.7750    -1.5010 H     1 <1>   0.0800 
 27 H        2.3380    -3.2130    -2.3940 H     1 <1>   0.0800 
 28 H        0.0230    -3.1680    -1.1590 H     1 <1>   0.0800 
 29 H       -0.0100    -2.7040     0.5140 H     1 <1>   0.0800 
 30 H        1.0990     1.7050    -2.0310 H     1 <1>   0.1500 
 31 H        3.6680     2.0920     1.3210 H     1 <1>   0.1500 
 32 H        3.5390    -4.7680    -0.0920 H     1 <1>   0.0800 
 33 H        3.5480    -5.2200    -1.7720 H     1 <1>   0.0800 
 34 H       -0.1990    -5.1400     0.2130 H     1 <1>   0.0800 
 35 H        1.2120    -4.7320     1.1420 H     1 <1>   0.0800 
 36 H        2.8510     5.5380    -0.1840 H     1 <1>   0.0800 
 37 H        5.2530     4.1190     1.0120 H     1 <1>   0.0800 
 38 H        5.1370     5.8270     0.6670 H     1 <1>   0.0800 
 39 H        5.1130     4.6790    -0.6440 H     1 <1>   0.0800 
 40 H        3.1920     4.3090     2.5700 H     1 <1>   0.0800 
 41 H        1.7090     4.9930     1.9290 H     1 <1>   0.0800 
 42 H        3.0920     6.0150     2.2140 H     1 <1>   0.0800 
 43 H        0.0300    -8.1940    -1.7640 H     1 <1>   0.0800 
 44 H       -0.7740    -6.6490    -1.5710 H     1 <1>   0.0800 
 45 H       -1.2760    -9.2710    -0.1410 H     1 <1>   0.0800 
 46 H       -2.2230    -7.7830    -0.0500 H     1 <1>   0.0800 
 47 H       -0.6830    -9.0340     2.2500 H     1 <1>   0.0800 
 48 H       -2.4190    -9.0840     2.0640 H     1 <1>   0.0800 
 49 H       -1.6230    -7.5540     2.3430 H     1 <1>   0.0800 
@<TRIPOS>BOND
  1   1   2  2   
  2   2   3  am  
  3   2   4  1   
  4   3   5  1   
  5   3  24  1   
  6   4   6  1   
  7   4   7  1   
  8   4  25  1   
  9   5   8  1   
 10   5   9  2   
 11   6  10  1   
 12   6  26  1   
 13   6  27  1   
 14   7  11  1   
 15   7  28  1   
 16   7  29  1   
 17   8  12  2   
 18   8  30  1   
 19   9  13  1   
 20   9  31  1   
 21  10  14  1   
 22  10  32  1   
 23  10  33  1   
 24  11  14  1   
 25  11  34  1   
 26  11  35  1   
 27  12  13  1   
 28  13  15  1   
 29  14  16  am  
 30  15  17  1   
 31  15  18  1   
 32  15  36  1   
 33  16  19  2   
 34  16  20  1   
 35  17  37  1   
 36  17  38  1   
 37  17  39  1   
 38  18  40  1   
 39  18  41  1   
 40  18  42  1   
 41  20  21  1   
 42  20  43  1   
 43  20  44  1   
 44  21  22  1   
 45  22  23  1   
 46  22  45  1   
 47  22  46  1   
 48  23  47  1   
 49  23  48  1   
 50  23  49  1   
@<TRIPOS>SUBSTRUCTURE
  1 ****   4 GROUP 4 **** **** 0

# MOE 2024.06 (io_trps.svl 2023.06)
