@<TRIPOS>MOLECULE
NONAME
45 47 1 0 0 
SMALL
USER_CHARGES


@<TRIPOS>ATOM
  1 S        0.2130     0.2480     0.3070 S.3   1 <1>  -0.0800 
  2 C       -0.5860     1.7140     0.8560 C.2   1 <1>   0.0600 
  3 C       -1.1440    -0.7560     0.7870 C.2   1 <1>  -0.1400 
  4 C        0.1080     2.9510     0.7000 C.1   1 <1>  -0.0200 
  5 C       -1.7970     1.4010     1.3630 C.2   1 <1>  -0.1500 
  6 C       -2.1150     0.0080     1.3280 C.2   1 <1>  -0.1500 
  7 C       -0.9790    -2.2380     0.5180 C.3   1 <1>   0.5230 
  8 C        0.6940     3.9790     0.5650 C.1   1 <1>  -0.2000 
  9 N       -2.3000    -2.9080     0.5520 N.4   1 <1>  -0.9590 
 10 C        1.4340     5.2560     0.3920 C.3   1 <1>   0.3200 
 11 C       -3.2520    -2.4850    -0.5110 C.3   1 <1>   0.3430 
 12 C       -2.2440    -4.3960     0.4790 C.3   1 <1>   0.3430 
 13 O        2.4920     5.0050    -0.4550 O.3   1 <1>  -0.6800 
 14 C       -4.3250    -3.5710    -0.4710 C.3   1 <1>   0.2000 
 15 C       -3.4920    -4.8450    -0.2960 C.3   1 <1>  -0.0800 
 16 O       -5.0990    -3.3510     0.6660 O.3   1 <1>  -0.6800 
 17 C       -4.2030    -6.0410     0.3680 C.3   1 <1>   0.0210 
 18 C       -3.3150    -7.2720     0.3760 C.2   1 <1>   0.1080 
 19 N       -2.0930    -7.2690     0.8160 N.2   1 <1>  -0.7070 
 20 C       -3.7080    -8.5270    -0.0760 C.2   1 <1>  -0.1500 
 21 N       -1.6740    -8.5440     0.6620 N.pl3 1 <1>   0.3000 
 22 C       -2.6340    -9.3200     0.1200 C.2   1 <1>  -0.3320 
 23 C       -2.4660   -10.7990    -0.1780 C.3   1 <1>  -0.0600 
 24 H       -2.4880     2.1200     1.7700 H     1 <1>   0.1500 
 25 H       -3.0600    -0.3310     1.7180 H     1 <1>   0.1500 
 26 H       -0.3260    -2.6620     1.2640 H     1 <1>   0.0800 
 27 H       -0.5250    -2.3780    -0.4500 H     1 <1>   0.0800 
 28 H       -2.7660    -2.6780     1.4410 H     1 <1>   0.4500 
 29 H        1.8250     5.6040     1.3320 H     1 <1>   0.0800 
 30 H        0.8150     6.0160    -0.0530 H     1 <1>   0.0800 
 31 H       -3.6710    -1.5100    -0.3200 H     1 <1>   0.0800 
 32 H       -2.7630    -2.4890    -1.4710 H     1 <1>   0.0800 
 33 H       -1.3590    -4.7330    -0.0380 H     1 <1>   0.0800 
 34 H       -2.2440    -4.8210     1.4710 H     1 <1>   0.0800 
 35 H        2.8540     4.1220    -0.2500 H     1 <1>   0.4000 
 36 H       -4.9590    -3.5700    -1.3420 H     1 <1>   0.0800 
 37 H       -3.1610    -5.1620    -1.2700 H     1 <1>   0.0800 
 38 H       -5.9230    -3.8830     0.6470 H     1 <1>   0.4000 
 39 H       -5.1070    -6.2680    -0.1670 H     1 <1>   0.0800 
 40 H       -4.4640    -5.8100     1.3860 H     1 <1>   0.0800 
 41 H       -4.6670    -8.7910    -0.4860 H     1 <1>   0.1500 
 42 H       -0.7350    -8.8580     0.9390 H     1 <1>   0.2700 
 43 H       -3.3700   -11.1960    -0.6050 H     1 <1>   0.0800 
 44 H       -2.2500   -11.3390     0.7260 H     1 <1>   0.0800 
 45 H       -1.6630   -10.9500    -0.8780 H     1 <1>   0.0800 
@<TRIPOS>BOND
  1   1   2  1   
  2   1   3  1   
  3   2   4  1   
  4   2   5  2   
  5   3   6  2   
  6   3   7  1   
  7   4   8  3   
  8   5   6  1   
  9   5  24  1   
 10   6  25  1   
 11   7   9  1   
 12   7  26  1   
 13   7  27  1   
 14   8  10  1   
 15   9  11  1   
 16   9  12  1   
 17   9  28  1   
 18  10  13  1   
 19  10  29  1   
 20  10  30  1   
 21  11  14  1   
 22  11  31  1   
 23  11  32  1   
 24  12  15  1   
 25  12  33  1   
 26  12  34  1   
 27  13  35  1   
 28  14  15  1   
 29  14  16  1   
 30  14  36  1   
 31  15  17  1   
 32  15  37  1   
 33  16  38  1   
 34  17  18  1   
 35  17  39  1   
 36  17  40  1   
 37  18  19  2   
 38  18  20  1   
 39  19  21  1   
 40  20  22  2   
 41  20  41  1   
 42  21  22  1   
 43  21  42  1   
 44  22  23  1   
 45  23  43  1   
 46  23  44  1   
 47  23  45  1   
@<TRIPOS>SUBSTRUCTURE
  1 ****   9 GROUP 4 **** **** 0

# MOE 2024.06 (io_trps.svl 2023.06)
