@<TRIPOS>MOLECULE
NONAME
39 41 1 0 0 
SMALL
USER_CHARGES


@<TRIPOS>ATOM
  1 O       -0.6690     0.2950     0.6500 O.2   1 <1>  -0.5700 
  2 C       -1.6320     0.9050     0.2100 C.2   1 <1>   0.7160 
  3 N       -2.7920     0.1770     0.0160 N.am  1 <1>  -0.6600 
  4 C       -1.5080     2.3350    -0.0690 C.2   1 <1>   0.1410 
  5 C       -4.1370     0.7240    -0.2960 C.3   1 <1>   0.1400 
  6 C       -2.8520    -1.3000     0.1380 C.3   1 <1>   0.1400 
  7 N       -2.4330     3.1150    -0.7130 N.2   1 <1>  -0.5650 
  8 C       -0.4430     3.1270     0.2540 C.2   1 <1>  -0.3020 
  9 C       -5.1000    -0.4050     0.0660 C.3   1 <1>   0.2000 
 10 C       -4.2920    -1.6750    -0.2270 C.3   1 <1>  -0.0800 
 11 C       -1.9110     4.2950    -0.7480 C.2   1 <1>   0.0360 
 12 N       -0.6930     4.3690    -0.1720 N.pl3 1 <1>   0.0480 
 13 O       -5.3620    -0.3290     1.4270 O.3   1 <1>  -0.6800 
 14 C       -4.7970    -2.9540     0.4650 C.3   1 <1>  -0.0170 
 15 C        0.1730     5.5520    -0.0470 C.3   1 <1>   0.0160 
 16 C       -3.9680    -4.1590     0.0460 C.ar  1 <1>  -0.1430 
 17 C       -2.9200    -4.6290     0.8110 C.ar  1 <1>  -0.1500 
 18 C       -4.2210    -4.8420    -1.1260 C.ar  1 <1>  -0.1500 
 19 C       -2.1920    -5.7240     0.3770 C.ar  1 <1>   0.1600 
 20 C       -3.4330    -5.9280    -1.4690 C.ar  1 <1>   0.1600 
 21 N       -2.4230    -6.3840    -0.7470 N.ar  1 <1>  -0.6200 
 22 H       -4.3480     1.6200     0.2630 H     1 <1>   0.0800 
 23 H       -4.1900     0.9370    -1.3490 H     1 <1>   0.0800 
 24 H       -2.1410    -1.7670    -0.5240 H     1 <1>   0.0800 
 25 H       -2.6250    -1.5750     1.1540 H     1 <1>   0.0800 
 26 H        0.4600     2.8370     0.7610 H     1 <1>   0.1500 
 27 H       -6.0330    -0.3550    -0.4670 H     1 <1>   0.0800 
 28 H       -4.3180    -1.8350    -1.2910 H     1 <1>   0.0800 
 29 H       -2.3830     5.1540    -1.1910 H     1 <1>   0.1500 
 30 H       -4.5200    -0.1590     1.8950 H     1 <1>   0.4000 
 31 H       -5.8270    -3.1200     0.2030 H     1 <1>   0.0800 
 32 H       -4.7520    -2.8450     1.5350 H     1 <1>   0.0800 
 33 H        1.0100     5.3190     0.5850 H     1 <1>   0.0800 
 34 H       -0.3880     6.3610     0.3860 H     1 <1>   0.0800 
 35 H        0.5270     5.8370    -1.0210 H     1 <1>   0.0800 
 36 H       -2.6590    -4.1550     1.7400 H     1 <1>   0.1500 
 37 H       -5.0220    -4.5400    -1.7750 H     1 <1>   0.1500 
 38 H       -1.3770    -6.0760     0.9850 H     1 <1>   0.1500 
 39 H       -3.6450    -6.4490    -2.3870 H     1 <1>   0.1500 
@<TRIPOS>BOND
  1   1   2  2   
  2   2   3  am  
  3   2   4  1   
  4   3   5  1   
  5   3   6  1   
  6   4   7  1   
  7   4   8  2   
  8   5   9  1   
  9   5  22  1   
 10   5  23  1   
 11   6  10  1   
 12   6  24  1   
 13   6  25  1   
 14   7  11  2   
 15   8  12  1   
 16   8  26  1   
 17   9  10  1   
 18   9  13  1   
 19   9  27  1   
 20  10  14  1   
 21  10  28  1   
 22  11  12  1   
 23  11  29  1   
 24  12  15  1   
 25  13  30  1   
 26  14  16  1   
 27  14  31  1   
 28  14  32  1   
 29  15  33  1   
 30  15  34  1   
 31  15  35  1   
 32  16  17  ar  
 33  16  18  ar  
 34  17  19  ar  
 35  17  36  1   
 36  18  20  ar  
 37  18  37  1   
 38  19  21  ar  
 39  19  38  1   
 40  20  21  ar  
 41  20  39  1   
@<TRIPOS>SUBSTRUCTURE
  1 ****   6 GROUP 4 **** **** 0

# MOE 2024.06 (io_trps.svl 2023.06)
