@<TRIPOS>MOLECULE
NONAME
57 60 1 0 0 
SMALL
USER_CHARGES


@<TRIPOS>ATOM
  1 O       -2.9850     0.7290     3.1910 O.2   1 <1>  -0.5700 
  2 C       -2.9630     1.3660     2.1630 C.2   1 <1>   0.5690 
  3 N       -3.5840     0.8990     1.0330 N.am  1 <1>  -0.6600 
  4 C       -2.2180     2.6830     2.1810 C.3   1 <1>   0.1570 
  5 C       -3.6900     1.6050    -0.2770 C.3   1 <1>   0.1400 
  6 C       -3.8690    -0.5470     0.8520 C.3   1 <1>   0.1400 
  7 N       -1.1200     2.6730     1.2010 N.pl3 1 <1>   0.3140 
  8 C       -4.3370     0.5860    -1.2140 C.3   1 <1>   0.2000 
  9 C       -3.8750    -0.7650    -0.6680 C.3   1 <1>  -0.0800 
 10 N       -1.0600     3.6240     0.2480 N.2   1 <1>  -0.7070 
 11 C       -0.1210     1.7690     1.0530 C.2   1 <1>  -0.3320 
 12 O       -5.7140     0.6620    -1.0710 O.3   1 <1>  -0.6800 
 13 C       -2.4680    -1.1110    -1.2030 C.3   1 <1>  -0.0170 
 14 C       -0.0380     3.3070    -0.4800 C.2   1 <1>   0.1080 
 15 C        0.5930     2.1510    -0.0290 C.2   1 <1>  -0.1810 
 16 C        0.0950     0.5570     1.9510 C.3   1 <1>  -0.0600 
 17 C       -1.9800    -2.4630    -0.7100 C.ar  1 <1>   0.1670 
 18 C        0.3790     4.1310    -1.6770 C.3   1 <1>  -0.0590 
 19 C        1.8080     1.4750    -0.6400 C.3   1 <1>   0.0210 
 20 N       -1.1070    -2.4740     0.2500 N.ar  1 <1>  -0.6200 
 21 C       -2.4900    -3.6270    -1.3080 C.ar  1 <1>  -0.1500 
 22 C        1.3720     0.3320    -1.5590 C.3   1 <1>  -0.2400 
 23 C       -0.6740    -3.6790     0.7000 C.ar  1 <1>   0.3100 
 24 C       -2.0710    -4.8490    -0.8790 C.ar  1 <1>  -0.1500 
 25 C       -1.1300    -4.9020     0.1620 C.ar  1 <1>   0.0000 
 26 C        0.2630    -3.7150     1.7450 C.ar  1 <1>  -0.1500 
 27 C       -0.6290    -6.1100     0.6880 C.ar  1 <1>  -0.1500 
 28 C        0.7370    -4.9000     2.2420 C.ar  1 <1>  -0.1500 
 29 C        0.2850    -6.1100     1.7060 C.ar  1 <1>  -0.1500 
 30 H       -1.8020     2.8530     3.1550 H     1 <1>   0.0800 
 31 H       -2.8930     3.4820     1.9440 H     1 <1>   0.0800 
 32 H       -4.2660     2.5110    -0.2020 H     1 <1>   0.0800 
 33 H       -2.7080     1.8330    -0.6480 H     1 <1>   0.0800 
 34 H       -3.1310    -1.1510     1.3540 H     1 <1>   0.0800 
 35 H       -4.8360    -0.7670     1.2680 H     1 <1>   0.0800 
 36 H       -4.0930     0.7480    -2.2500 H     1 <1>   0.0800 
 37 H       -4.5580    -1.5500    -0.9440 H     1 <1>   0.0800 
 38 H       -5.9300     0.6720    -0.1170 H     1 <1>   0.4000 
 39 H       -1.7600    -0.3570    -0.9020 H     1 <1>   0.0800 
 40 H       -2.4840    -1.1260    -2.2770 H     1 <1>   0.0800 
 41 H        1.0260     0.0740     1.7240 H     1 <1>   0.0800 
 42 H       -0.6920    -0.1610     1.8050 H     1 <1>   0.0800 
 43 H        0.1090     0.8530     2.9850 H     1 <1>   0.0800 
 44 H        0.5380     3.4920    -2.5250 H     1 <1>   0.0800 
 45 H        1.2860     4.6600    -1.4500 H     1 <1>   0.0800 
 46 H       -0.3900     4.8430    -1.9150 H     1 <1>   0.0800 
 47 H        2.3860     2.1910    -1.1960 H     1 <1>   0.0800 
 48 H        2.4360     1.0890     0.1430 H     1 <1>   0.0800 
 49 H       -3.2090    -3.5380    -2.1020 H     1 <1>   0.1500 
 50 H        0.7380     0.7060    -2.3420 H     1 <1>   0.0800 
 51 H        0.8260    -0.4050    -0.9950 H     1 <1>   0.0800 
 52 H        2.2320    -0.1400    -2.0000 H     1 <1>   0.0800 
 53 H       -2.4380    -5.7620    -1.3130 H     1 <1>   0.1500 
 54 H        0.5960    -2.7750     2.1430 H     1 <1>   0.1500 
 55 H       -0.9810    -7.0370     0.2720 H     1 <1>   0.1500 
 56 H        1.4560    -4.9150     3.0440 H     1 <1>   0.1500 
 57 H        0.6660    -7.0340     2.1070 H     1 <1>   0.1500 
@<TRIPOS>BOND
  1   1   2  2   
  2   2   3  am  
  3   2   4  1   
  4   3   5  1   
  5   3   6  1   
  6   4   7  1   
  7   4  30  1   
  8   4  31  1   
  9   5   8  1   
 10   5  32  1   
 11   5  33  1   
 12   6   9  1   
 13   6  34  1   
 14   6  35  1   
 15   7  10  1   
 16   7  11  1   
 17   8   9  1   
 18   8  12  1   
 19   8  36  1   
 20   9  13  1   
 21   9  37  1   
 22  10  14  2   
 23  11  15  2   
 24  11  16  1   
 25  12  38  1   
 26  13  17  1   
 27  13  39  1   
 28  13  40  1   
 29  14  15  1   
 30  14  18  1   
 31  15  19  1   
 32  16  41  1   
 33  16  42  1   
 34  16  43  1   
 35  17  20  ar  
 36  17  21  ar  
 37  18  44  1   
 38  18  45  1   
 39  18  46  1   
 40  19  22  1   
 41  19  47  1   
 42  19  48  1   
 43  20  23  ar  
 44  21  24  ar  
 45  21  49  1   
 46  22  50  1   
 47  22  51  1   
 48  22  52  1   
 49  23  25  ar  
 50  23  26  ar  
 51  24  25  ar  
 52  24  53  1   
 53  25  27  ar  
 54  26  28  ar  
 55  26  54  1   
 56  27  29  ar  
 57  27  55  1   
 58  28  29  ar  
 59  28  56  1   
 60  29  57  1   
@<TRIPOS>SUBSTRUCTURE
  1 ****  13 GROUP 4 **** **** 0

# MOE 2024.06 (io_trps.svl 2023.06)
