@<TRIPOS>MOLECULE
NONAME
59 61 1 0 0 
SMALL
USER_CHARGES


@<TRIPOS>ATOM
  1 O        1.0130     0.1680    -1.5390 O.3   1 <1>  -0.3630 
  2 C       -0.1360     0.7920    -1.1870 C.ar  1 <1>   0.0820 
  3 C        0.9680    -1.1120    -2.1510 C.3   1 <1>   0.1200 
  4 C       -0.3040     1.2240     0.1290 C.ar  1 <1>  -0.1440 
  5 C       -1.1450     0.9710    -2.1230 C.ar  1 <1>  -0.1500 
  6 C        0.8130    -2.2070    -1.0800 C.3   1 <1>   0.3430 
  7 C       -1.5190     1.7910     0.5050 C.ar  1 <1>  -0.1440 
  8 C        0.8310     1.1080     1.1480 C.3   1 <1>  -0.0970 
  9 C       -2.3440     1.5380    -1.7440 C.ar  1 <1>  -0.1500 
 10 N       -0.3580    -1.9610    -0.1810 N.4   1 <1>  -0.9590 
 11 C       -2.5300     1.9380    -0.4330 C.ar  1 <1>  -0.1500 
 12 C       -1.7760     2.2800     1.9250 C.3   1 <1>  -0.0970 
 13 C       -1.6630    -2.2490    -0.8760 C.3   1 <1>   0.3430 
 14 C       -0.2140    -2.6700     1.1150 C.3   1 <1>   0.3430 
 15 C       -2.8970    -2.3780     0.0500 C.3   1 <1>   0.0000 
 16 C       -1.2740    -2.1730     2.0980 C.3   1 <1>  -0.1600 
 17 C       -2.5740    -1.7240     1.4180 C.3   1 <1>   0.2000 
 18 C       -4.0410    -1.5540    -0.5840 C.3   1 <1>   0.1200 
 19 C       -3.3810    -3.8620     0.1280 C.3   1 <1>  -0.0160 
 20 O       -3.6190    -1.8850     2.3060 O.3   1 <1>  -0.6800 
 21 O       -4.1720    -1.8800    -1.9290 O.3   1 <1>  -0.6800 
 22 C       -2.3410    -4.8970     0.5400 C.ar  1 <1>  -0.1440 
 23 C       -2.2320    -5.3010     1.8630 C.ar  1 <1>  -0.1500 
 24 C       -1.5040    -5.4670    -0.4100 C.ar  1 <1>  -0.1500 
 25 C       -1.2670    -6.2190     2.2390 C.ar  1 <1>  -0.1500 
 26 C       -0.5400    -6.3870    -0.0350 C.ar  1 <1>  -0.1500 
 27 C       -0.4160    -6.7570     1.2910 C.ar  1 <1>  -0.1500 
 28 H        0.1700    -1.1500    -2.8700 H     1 <1>   0.0800 
 29 H        1.8980    -1.2480    -2.6740 H     1 <1>   0.0800 
 30 H       -1.0000     0.6840    -3.1490 H     1 <1>   0.1500 
 31 H        1.7170    -2.2220    -0.4940 H     1 <1>   0.0800 
 32 H        0.7160    -3.1700    -1.5540 H     1 <1>   0.0800 
 33 H        0.4860     0.6530     2.0570 H     1 <1>   0.0800 
 34 H        1.1980     2.0930     1.3800 H     1 <1>   0.0800 
 35 H        1.6600     0.5330     0.7810 H     1 <1>   0.0800 
 36 H       -3.1300     1.6810    -2.4670 H     1 <1>   0.1500 
 37 H       -0.3440    -0.9430     0.0150 H     1 <1>   0.4500 
 38 H       -3.4690     2.3840    -0.1520 H     1 <1>   0.1500 
 39 H       -2.7320     2.7660     2.0000 H     1 <1>   0.0800 
 40 H       -1.0230     2.9900     2.2150 H     1 <1>   0.0800 
 41 H       -1.7660     1.4550     2.6140 H     1 <1>   0.0800 
 42 H       -1.8520    -1.4540    -1.5790 H     1 <1>   0.0800 
 43 H       -1.5780    -3.1530    -1.4520 H     1 <1>   0.0800 
 44 H       -0.3210    -3.7300     0.9620 H     1 <1>   0.0800 
 45 H        0.7650    -2.4960     1.5310 H     1 <1>   0.0800 
 46 H       -0.8720    -1.3360     2.6400 H     1 <1>   0.0800 
 47 H       -1.4560    -2.9480     2.8180 H     1 <1>   0.0800 
 48 H       -2.4900    -0.6620     1.2540 H     1 <1>   0.0800 
 49 H       -3.8410    -0.4980    -0.5220 H     1 <1>   0.0800 
 50 H       -4.9770    -1.7550    -0.0890 H     1 <1>   0.0800 
 51 H       -4.2260    -3.9330     0.7900 H     1 <1>   0.0800 
 52 H       -3.7510    -4.1610    -0.8390 H     1 <1>   0.0800 
 53 H       -3.7010    -2.8140     2.5940 H     1 <1>   0.4000 
 54 H       -4.9750    -1.4620    -2.3090 H     1 <1>   0.4000 
 55 H       -2.8970    -4.9120     2.6120 H     1 <1>   0.1500 
 56 H       -1.6030    -5.2140    -1.4510 H     1 <1>   0.1500 
 57 H       -1.1850    -6.5260     3.2680 H     1 <1>   0.1500 
 58 H        0.1060    -6.8270    -0.7750 H     1 <1>   0.1500 
 59 H        0.3310    -7.4760     1.5840 H     1 <1>   0.1500 
@<TRIPOS>BOND
  1   1   2  1   
  2   1   3  1   
  3   2   4  ar  
  4   2   5  ar  
  5   3   6  1   
  6   3  28  1   
  7   3  29  1   
  8   4   7  ar  
  9   4   8  1   
 10   5   9  ar  
 11   5  30  1   
 12   6  10  1   
 13   6  31  1   
 14   6  32  1   
 15   7  11  ar  
 16   7  12  1   
 17   8  33  1   
 18   8  34  1   
 19   8  35  1   
 20   9  11  ar  
 21   9  36  1   
 22  10  13  1   
 23  10  14  1   
 24  10  37  1   
 25  11  38  1   
 26  12  39  1   
 27  12  40  1   
 28  12  41  1   
 29  13  15  1   
 30  13  42  1   
 31  13  43  1   
 32  14  16  1   
 33  14  44  1   
 34  14  45  1   
 35  15  17  1   
 36  15  18  1   
 37  15  19  1   
 38  16  17  1   
 39  16  46  1   
 40  16  47  1   
 41  17  20  1   
 42  17  48  1   
 43  18  21  1   
 44  18  49  1   
 45  18  50  1   
 46  19  22  1   
 47  19  51  1   
 48  19  52  1   
 49  20  53  1   
 50  21  54  1   
 51  22  23  ar  
 52  22  24  ar  
 53  23  25  ar  
 54  23  55  1   
 55  24  26  ar  
 56  24  56  1   
 57  25  27  ar  
 58  25  57  1   
 59  26  27  ar  
 60  26  58  1   
 61  27  59  1   
@<TRIPOS>SUBSTRUCTURE
  1 ****  13 GROUP 4 **** **** 0

# MOE 2024.06 (io_trps.svl 2023.06)
