@<TRIPOS>MOLECULE
NONAME
49 53 1 0 0 
SMALL
USER_CHARGES


@<TRIPOS>ATOM
  1 O        0.2420     0.5910    -0.5990 O.2   1 <1>  -0.5700 
  2 C       -0.3390     1.6290    -0.3140 C.2   1 <1>   0.7160 
  3 N       -1.7220     1.5720    -0.2020 N.am  1 <1>  -0.6600 
  4 C        0.4550     2.8400    -0.0920 C.2   1 <1>   0.2030 
  5 C       -2.5570     2.6250     0.4600 C.3   1 <1>   0.1400 
  6 C       -2.5070     0.3860    -0.6520 C.3   1 <1>   0.1400 
  7 N        0.1090     4.1000    -0.3320 N.2   1 <1>  -0.7070 
  8 C        1.7650     2.8110     0.4110 C.2   1 <1>  -0.1810 
  9 C       -3.6700     3.1210    -0.4820 C.3   1 <1>   0.1430 
 10 C       -3.6320     0.8300    -1.5970 C.3   1 <1>  -0.1600 
 11 N        1.1720     4.8460     0.0160 N.pl3 1 <1>   0.3000 
 12 C        2.1820     4.0820     0.4590 C.2   1 <1>  -0.3320 
 13 C        2.6380     1.6430     0.8430 C.3   1 <1>   0.3010 
 14 C       -4.4990     4.1560     0.2590 C.ar  1 <1>   0.1670 
 15 C       -4.5140     1.9220    -0.9650 C.3   1 <1>  -0.1600 
 16 C       -3.1010     3.9450    -1.6680 C.3   1 <1>  -0.1600 
 17 C        3.5630     4.4640     0.9520 C.3   1 <1>   0.0200 
 18 O        3.7330     2.1260     1.5880 O.3   1 <1>  -0.5600 
 19 N       -5.3690     3.9010     1.2120 N.ar  1 <1>  -0.6200 
 20 C       -4.2240     5.4190    -0.1730 C.ar  1 <1>  -0.1430 
 21 C       -3.1740     5.4240    -1.2560 C.3   1 <1>  -0.0170 
 22 C        4.4360     3.1930     1.0020 C.3   1 <1>   0.1200 
 23 C       -5.9660     4.9750     1.7080 C.ar  1 <1>   0.4770 
 24 C       -4.9020     6.4580     0.4130 C.ar  1 <1>   0.1600 
 25 N       -5.7880     6.2440     1.3640 N.ar  1 <1>  -0.6200 
 26 C       -6.9810     4.7230     2.7970 C.3   1 <1>  -0.0970 
 27 H       -1.9620     3.4530     0.7930 H     1 <1>   0.0800 
 28 H       -3.0140     2.1960     1.3360 H     1 <1>   0.0800 
 29 H       -2.9260    -0.1020     0.2110 H     1 <1>   0.0800 
 30 H       -1.8760    -0.3220    -1.1620 H     1 <1>   0.0800 
 31 H       -4.2390    -0.0220    -1.8460 H     1 <1>   0.0800 
 32 H       -3.1930     1.1930    -2.5100 H     1 <1>   0.0800 
 33 H        1.1810     5.8700    -0.0610 H     1 <1>   0.2700 
 34 H        3.0100     1.1090    -0.0140 H     1 <1>   0.0800 
 35 H        2.0860     0.9650     1.4700 H     1 <1>   0.0800 
 36 H       -5.2600     2.2520    -1.6670 H     1 <1>   0.0800 
 37 H       -5.0330     1.5010    -0.1210 H     1 <1>   0.0800 
 38 H       -3.7270     3.8090    -2.5320 H     1 <1>   0.0800 
 39 H       -2.0990     3.6550    -1.9310 H     1 <1>   0.0800 
 40 H        3.4940     4.8910     1.9370 H     1 <1>   0.0800 
 41 H        4.0170     5.1850     0.2960 H     1 <1>   0.0800 
 42 H       -3.4500     6.0530    -2.0840 H     1 <1>   0.0800 
 43 H       -2.2320     5.7470    -0.8460 H     1 <1>   0.0800 
 44 H        5.3210     3.3680     1.5890 H     1 <1>   0.0800 
 45 H        4.7280     2.8960     0.0100 H     1 <1>   0.0800 
 46 H       -4.7190     7.4730     0.1030 H     1 <1>   0.1500 
 47 H       -6.7130     3.8450     3.3550 H     1 <1>   0.0800 
 48 H       -7.9470     4.5790     2.3520 H     1 <1>   0.0800 
 49 H       -7.0210     5.5630     3.4650 H     1 <1>   0.0800 
@<TRIPOS>BOND
  1   1   2  2   
  2   2   3  am  
  3   2   4  1   
  4   3   5  1   
  5   3   6  1   
  6   4   7  2   
  7   4   8  1   
  8   5   9  1   
  9   5  27  1   
 10   5  28  1   
 11   6  10  1   
 12   6  29  1   
 13   6  30  1   
 14   7  11  1   
 15   8  12  2   
 16   8  13  1   
 17   9  14  1   
 18   9  15  1   
 19   9  16  1   
 20  10  15  1   
 21  10  31  1   
 22  10  32  1   
 23  11  12  1   
 24  11  33  1   
 25  12  17  1   
 26  13  18  1   
 27  13  34  1   
 28  13  35  1   
 29  14  19  ar  
 30  14  20  ar  
 31  15  36  1   
 32  15  37  1   
 33  16  21  1   
 34  16  38  1   
 35  16  39  1   
 36  17  22  1   
 37  17  40  1   
 38  17  41  1   
 39  18  22  1   
 40  19  23  ar  
 41  20  21  1   
 42  20  24  ar  
 43  21  42  1   
 44  21  43  1   
 45  22  44  1   
 46  22  45  1   
 47  23  25  ar  
 48  23  26  1   
 49  24  25  ar  
 50  24  46  1   
 51  26  47  1   
 52  26  48  1   
 53  26  49  1   
@<TRIPOS>SUBSTRUCTURE
  1 ****   5 GROUP 4 **** **** 0

# MOE 2024.06 (io_trps.svl 2023.06)
