@<TRIPOS>MOLECULE
NONAME
46 48 1 0 0 
SMALL
USER_CHARGES


@<TRIPOS>ATOM
  1 O       -0.0070    -0.0160     2.7090 O.2   1 <1>  -0.5700 
  2 C       -0.6150     0.7700     2.0200 C.2   1 <1>   0.5690 
  3 N       -1.6870     0.3680     1.2710 N.am  1 <1>  -0.6600 
  4 C       -0.1600     2.2230     2.0180 C.3   1 <1>   0.0440 
  5 C       -2.4960     1.2180     0.3610 C.3   1 <1>   0.1400 
  6 C       -2.0940    -1.0520     1.1500 C.3   1 <1>   0.1400 
  7 C        0.3890     2.6620     0.6590 C.ar  1 <1>  -0.1440 
  8 C       -3.7100     0.3560     0.0210 C.3   1 <1>   0.2000 
  9 C       -3.1520    -1.0720     0.0400 C.3   1 <1>  -0.0800 
 10 C       -0.1980     3.6830    -0.0880 C.ar  1 <1>   0.0820 
 11 C        1.5100     2.0130     0.1640 C.ar  1 <1>  -0.1500 
 12 O       -4.6400     0.5030     1.0390 O.3   1 <1>  -0.6800 
 13 C       -4.2010    -2.1880     0.1980 C.3   1 <1>  -0.0170 
 14 O       -1.3020     4.2940     0.4190 O.3   1 <1>  -0.3630 
 15 C        0.3510     4.0370    -1.3190 C.ar  1 <1>  -0.1500 
 16 C        2.0490     2.3680    -1.0590 C.ar  1 <1>  -0.1500 
 17 C       -3.5490    -3.5610     0.1230 C.ar  1 <1>  -0.1440 
 18 C       -1.8680     5.4330    -0.1920 C.3   1 <1>   0.0400 
 19 C        1.4690     3.3810    -1.8000 C.ar  1 <1>  -0.1500 
 20 C       -3.2150    -4.2770     1.2540 C.ar  1 <1>  -0.1500 
 21 C       -3.2550    -4.1590    -1.0860 C.ar  1 <1>  -0.1500 
 22 C       -2.6170    -5.5200     1.1260 C.ar  1 <1>   0.1600 
 23 C       -2.6560    -5.4070    -1.1040 C.ar  1 <1>   0.1600 
 24 N       -2.3280    -6.1020    -0.0270 N.ar  1 <1>  -0.6200 
 25 H       -0.9810     2.8350     2.3380 H     1 <1>   0.0800 
 26 H        0.6170     2.3370     2.7510 H     1 <1>   0.0800 
 27 H       -2.7850     2.1470     0.8210 H     1 <1>   0.0800 
 28 H       -1.9260     1.4170    -0.5300 H     1 <1>   0.0800 
 29 H       -1.2490    -1.6720     0.9010 H     1 <1>   0.0800 
 30 H       -2.5090    -1.3770     2.0880 H     1 <1>   0.0800 
 31 H       -4.1740     0.6250    -0.9120 H     1 <1>   0.0800 
 32 H       -2.6330    -1.2280    -0.8890 H     1 <1>   0.0800 
 33 H        1.9690     1.2210     0.7330 H     1 <1>   0.1500 
 34 H       -4.1740     0.4280     1.8960 H     1 <1>   0.4000 
 35 H       -4.9360    -2.1000    -0.5820 H     1 <1>   0.0800 
 36 H       -4.7170    -2.0890     1.1370 H     1 <1>   0.0800 
 37 H       -0.0760     4.8170    -1.9190 H     1 <1>   0.1500 
 38 H        2.9190     1.8560    -1.4310 H     1 <1>   0.1500 
 39 H       -2.6820     5.7720     0.4230 H     1 <1>   0.0800 
 40 H       -2.2350     5.1630    -1.1660 H     1 <1>   0.0800 
 41 H       -1.1180     6.2010    -0.2610 H     1 <1>   0.0800 
 42 H        1.8910     3.6580    -2.7510 H     1 <1>   0.1500 
 43 H       -3.4120    -3.8830     2.2340 H     1 <1>   0.1500 
 44 H       -3.4860    -3.6670    -2.0120 H     1 <1>   0.1500 
 45 H       -2.3620    -6.0630     2.0200 H     1 <1>   0.1500 
 46 H       -2.4330    -5.8590    -2.0560 H     1 <1>   0.1500 
@<TRIPOS>BOND
  1   1   2  2   
  2   2   3  am  
  3   2   4  1   
  4   3   5  1   
  5   3   6  1   
  6   4   7  1   
  7   4  25  1   
  8   4  26  1   
  9   5   8  1   
 10   5  27  1   
 11   5  28  1   
 12   6   9  1   
 13   6  29  1   
 14   6  30  1   
 15   7  10  ar  
 16   7  11  ar  
 17   8   9  1   
 18   8  12  1   
 19   8  31  1   
 20   9  13  1   
 21   9  32  1   
 22  10  14  1   
 23  10  15  ar  
 24  11  16  ar  
 25  11  33  1   
 26  12  34  1   
 27  13  17  1   
 28  13  35  1   
 29  13  36  1   
 30  14  18  1   
 31  15  19  ar  
 32  15  37  1   
 33  16  19  ar  
 34  16  38  1   
 35  17  20  ar  
 36  17  21  ar  
 37  18  39  1   
 38  18  40  1   
 39  18  41  1   
 40  19  42  1   
 41  20  22  ar  
 42  20  43  1   
 43  21  23  ar  
 44  21  44  1   
 45  22  24  ar  
 46  22  45  1   
 47  23  24  ar  
 48  23  46  1   
@<TRIPOS>SUBSTRUCTURE
  1 ****   3 GROUP 4 **** **** 0

# MOE 2024.06 (io_trps.svl 2023.06)
