@<TRIPOS>MOLECULE
NONAME
45 46 1 0 0 
SMALL
USER_CHARGES


@<TRIPOS>ATOM
  1 S        1.6270     1.5790     0.1030 S.o2  1 <1>   1.3330 
  2 O        1.0750     2.7840     0.6790 O.2   1 <1>  -0.6500 
  3 O        0.9390     0.3200     0.2910 O.2   1 <1>  -0.6500 
  4 N        1.7570     1.8350    -1.5720 N.am  1 <1>  -0.8490 
  5 C        3.3340     1.3780     0.6150 C.3   1 <1>  -0.0550 
  6 C        2.2190     3.1860    -1.9110 C.3   1 <1>   0.1160 
  7 C        0.4910     1.5650    -2.2590 C.3   1 <1>   0.1160 
  8 C        4.0270     0.1440    -0.0200 C.3   1 <1>  -0.0800 
  9 C        5.5440     0.1610     0.0810 C.3   1 <1>   0.2200 
 10 C        3.7070    -1.1200     0.7830 C.3   1 <1>   0.1200 
 11 N        6.1380     1.4730    -0.3140 N.am  1 <1>  -0.7300 
 12 C        5.7660    -0.3580     1.5020 C.3   1 <1>   0.1200 
 13 O        4.7280    -1.2670     1.7250 O.3   1 <1>  -0.5600 
 14 C        6.6320     2.4790     0.4550 C.2   1 <1>   0.5690 
 15 O        6.7150     2.4210     1.6570 O.2   1 <1>  -0.5700 
 16 C        7.0140     3.7870    -0.2070 C.3   1 <1>   0.0440 
 17 C        5.7820     4.6360    -0.5180 C.ar  1 <1>  -0.1440 
 18 C        4.8170     4.9320     0.4460 C.ar  1 <1>   0.0820 
 19 C        5.6200     5.1480    -1.7980 C.ar  1 <1>  -0.1500 
 20 O        4.8990     4.4720     1.7090 O.3   1 <1>  -0.5330 
 21 C        3.7230     5.7180     0.1300 C.ar  1 <1>  -0.1500 
 22 C        4.5260     5.9370    -2.1130 C.ar  1 <1>  -0.1500 
 23 C        3.5760     6.2240    -1.1480 C.ar  1 <1>  -0.1500 
 24 H        3.8560     2.2710     0.3450 H     1 <1>   0.0800 
 25 H        3.3800     1.3030     1.6840 H     1 <1>   0.0800 
 26 H        2.3250     3.2860    -2.9780 H     1 <1>   0.0800 
 27 H        3.1770     3.3750    -1.4610 H     1 <1>   0.0800 
 28 H        1.5200     3.9270    -1.5580 H     1 <1>   0.0800 
 29 H        0.5990     1.7210    -3.3180 H     1 <1>   0.0800 
 30 H       -0.2850     2.2110    -1.8810 H     1 <1>   0.0800 
 31 H        0.1950     0.5410    -2.0990 H     1 <1>   0.0800 
 32 H        3.7180     0.0270    -1.0440 H     1 <1>   0.0800 
 33 H        5.9400    -0.5880    -0.5850 H     1 <1>   0.0800 
 34 H        3.7230    -1.9900     0.1490 H     1 <1>   0.0800 
 35 H        2.7620    -1.0760     1.2980 H     1 <1>   0.0800 
 36 H        6.0470     1.6580    -1.3150 H     1 <1>   0.3700 
 37 H        5.6600     0.4110     2.2430 H     1 <1>   0.0800 
 38 H        6.7080    -0.8630     1.6120 H     1 <1>   0.0800 
 39 H        7.6590     4.3390     0.4520 H     1 <1>   0.0800 
 40 H        7.5690     3.5750    -1.1010 H     1 <1>   0.0800 
 41 H        6.3490     4.9470    -2.5640 H     1 <1>   0.1500 
 42 H        5.6290     3.8260     1.8710 H     1 <1>   0.4500 
 43 H        2.9900     5.9290     0.8900 H     1 <1>   0.1500 
 44 H        4.4160     6.3350    -3.1070 H     1 <1>   0.1500 
 45 H        2.7270     6.8410    -1.3870 H     1 <1>   0.1500 
@<TRIPOS>BOND
  1   1   2  2   
  2   1   3  2   
  3   1   4  am  
  4   1   5  1   
  5   4   6  1   
  6   4   7  1   
  7   5   8  1   
  8   5  24  1   
  9   5  25  1   
 10   6  26  1   
 11   6  27  1   
 12   6  28  1   
 13   7  29  1   
 14   7  30  1   
 15   7  31  1   
 16   8   9  1   
 17   8  10  1   
 18   8  32  1   
 19   9  11  1   
 20   9  12  1   
 21   9  33  1   
 22  10  13  1   
 23  10  34  1   
 24  10  35  1   
 25  11  14  am  
 26  11  36  1   
 27  12  13  1   
 28  12  37  1   
 29  12  38  1   
 30  14  15  2   
 31  14  16  1   
 32  16  17  1   
 33  16  39  1   
 34  16  40  1   
 35  17  18  ar  
 36  17  19  ar  
 37  18  20  1   
 38  18  21  ar  
 39  19  22  ar  
 40  19  41  1   
 41  20  42  1   
 42  21  23  ar  
 43  21  43  1   
 44  22  23  ar  
 45  22  44  1   
 46  23  45  1   
@<TRIPOS>SUBSTRUCTURE
  1 ****   5 GROUP 4 **** **** 0

# MOE 2024.06 (io_trps.svl 2023.06)
