@<TRIPOS>MOLECULE
NONAME
41 43 1 0 0 
SMALL
USER_CHARGES


@<TRIPOS>ATOM
  1 O       -0.0270     0.3440     1.5240 O.3   1 <1>  -0.5600 
  2 C        0.8420     0.6760     0.4810 C.3   1 <1>   0.1200 
  3 C       -1.3560     0.5250     1.1250 C.3   1 <1>   0.1200 
  4 C        0.0920     1.6880    -0.3760 C.3   1 <1>   0.2890 
  5 C       -1.3240     1.1380    -0.2780 C.3   1 <1>  -0.0800 
  6 N        0.1950     3.0250     0.2600 N.pl3 1 <1>  -0.8690 
  7 C       -2.4570     2.1420    -0.5570 C.3   1 <1>  -0.0170 
  8 C        0.2210     4.2310    -0.3930 C.ar  1 <1>   0.4100 
  9 C       -3.8150     1.4590    -0.5040 C.ar  1 <1>  -0.1430 
 10 N        0.0760     4.2000    -1.7000 N.ar  1 <1>  -0.6200 
 11 C        0.3770     5.4270     0.3000 C.ar  1 <1>  -0.1430 
 12 C       -4.6270     1.5270     0.6100 C.ar  1 <1>  -0.1500 
 13 C       -4.3040     0.7350    -1.5720 C.ar  1 <1>  -0.1500 
 14 C        0.0840     5.3730    -2.2970 C.ar  1 <1>   0.4700 
 15 C        0.3600     6.5860    -0.4460 C.ar  1 <1>   0.1670 
 16 C        0.5570     5.4070     1.8210 C.3   1 <1>  -0.0970 
 17 C       -5.8520     0.8800     0.6040 C.ar  1 <1>   0.1600 
 18 C       -5.5450     0.1260    -1.4760 C.ar  1 <1>   0.1600 
 19 N        0.2130     6.5680    -1.7550 N.ar  1 <1>  -0.6200 
 20 C        0.5050     7.9680     0.1670 C.3   1 <1>  -0.0970 
 21 N       -6.3300     0.1800    -0.4120 N.ar  1 <1>  -0.6200 
 22 H        1.7590     1.0720     0.8810 H     1 <1>   0.0800 
 23 H        1.0420    -0.2200    -0.0790 H     1 <1>   0.0800 
 24 H       -1.8610    -0.4250     1.1360 H     1 <1>   0.0800 
 25 H       -1.8170     1.1910     1.8340 H     1 <1>   0.0800 
 26 H        0.4630     1.7120    -1.3870 H     1 <1>   0.0800 
 27 H       -1.4100     0.3300    -0.9830 H     1 <1>   0.0800 
 28 H        0.2140     3.0000     1.2810 H     1 <1>   0.4000 
 29 H       -2.3150     2.5780    -1.5300 H     1 <1>   0.0800 
 30 H       -2.4320     2.9450     0.1590 H     1 <1>   0.0800 
 31 H       -4.3200     2.0750     1.4810 H     1 <1>   0.1500 
 32 H       -3.7330     0.6410    -2.4770 H     1 <1>   0.1500 
 33 H       -0.0320     5.3560    -3.3670 H     1 <1>   0.1500 
 34 H        0.7990     6.3730     2.2200 H     1 <1>   0.0800 
 35 H        1.3560     4.7380     2.0840 H     1 <1>   0.0800 
 36 H       -0.3500     5.0650     2.2870 H     1 <1>   0.0800 
 37 H       -6.4720     0.9430     1.4820 H     1 <1>   0.1500 
 38 H       -5.9100    -0.4350    -2.3190 H     1 <1>   0.1500 
 39 H       -0.2230     8.1070     0.9440 H     1 <1>   0.0800 
 40 H        0.3520     8.7280    -0.5780 H     1 <1>   0.0800 
 41 H        1.4930     8.0840     0.5730 H     1 <1>   0.0800 
@<TRIPOS>BOND
  1   1   2  1   
  2   1   3  1   
  3   2   4  1   
  4   2  22  1   
  5   2  23  1   
  6   3   5  1   
  7   3  24  1   
  8   3  25  1   
  9   4   5  1   
 10   4   6  1   
 11   4  26  1   
 12   5   7  1   
 13   5  27  1   
 14   6   8  1   
 15   6  28  1   
 16   7   9  1   
 17   7  29  1   
 18   7  30  1   
 19   8  10  ar  
 20   8  11  ar  
 21   9  12  ar  
 22   9  13  ar  
 23  10  14  ar  
 24  11  15  ar  
 25  11  16  1   
 26  12  17  ar  
 27  12  31  1   
 28  13  18  ar  
 29  13  32  1   
 30  14  19  ar  
 31  14  33  1   
 32  15  19  ar  
 33  15  20  1   
 34  16  34  1   
 35  16  35  1   
 36  16  36  1   
 37  17  21  ar  
 38  17  37  1   
 39  18  21  ar  
 40  18  38  1   
 41  20  39  1   
 42  20  40  1   
 43  20  41  1   
@<TRIPOS>SUBSTRUCTURE
  1 ****   7 GROUP 4 **** **** 0

# MOE 2024.06 (io_trps.svl 2023.06)
