@<TRIPOS>MOLECULE
NONAME
35 36 1 0 0 
SMALL
USER_CHARGES


@<TRIPOS>ATOM
  1 S        1.3000    -0.5600    -1.5630 S.3   1 <1>  -0.0800 
  2 C        1.5940    -0.4940     0.1640 C.2   1 <1>   0.1980 
  3 C       -0.1690    -1.4370    -1.2550 C.2   1 <1>  -0.1100 
  4 N        0.6950    -1.0640     0.8690 N.2   1 <1>  -0.5650 
  5 C        2.8600     0.2200     0.6260 C.3   1 <1>   0.3890 
  6 C       -0.3040    -1.5980     0.0690 C.2   1 <1>   0.0770 
  7 N        2.7830     1.7040     0.4210 N.pl3 1 <1>  -0.8380 
  8 C        3.9320     2.4130     0.1610 C.ar  1 <1>   0.4100 
  9 C        1.5810     2.3640     1.0020 C.3   1 <1>   0.1290 
 10 N        5.0770     1.8850     0.5810 N.ar  1 <1>  -0.6200 
 11 C        3.8750     3.6280    -0.5200 C.ar  1 <1>  -0.1500 
 12 C        6.1720     2.5830     0.3290 C.ar  1 <1>   0.1600 
 13 C        5.0230     4.3410    -0.7670 C.ar  1 <1>  -0.1500 
 14 C        6.2300     3.8140    -0.3170 C.ar  1 <1>   0.0860 
 15 C        7.4980     4.4780    -0.5070 C.2   1 <1>   0.5440 
 16 O        8.4590     3.8200    -0.8610 O.2   1 <1>  -0.5700 
 17 N        7.6640     5.8330    -0.2870 N.am  1 <1>  -0.6600 
 18 C        6.7740     6.6440     0.5890 C.3   1 <1>   0.0600 
 19 C        8.8910     6.5440    -0.7450 C.3   1 <1>   0.0600 
 20 H       -0.7690    -1.7360    -2.0950 H     1 <1>   0.1500 
 21 H        3.6940    -0.1840     0.0800 H     1 <1>   0.0800 
 22 H        3.0160     0.0190     1.6710 H     1 <1>   0.0800 
 23 H       -1.1180    -2.1050     0.5600 H     1 <1>   0.1500 
 24 H        1.3140     1.8910     1.9320 H     1 <1>   0.0800 
 25 H        0.7540     2.2770     0.3170 H     1 <1>   0.0800 
 26 H        1.7730     3.4050     1.1920 H     1 <1>   0.0800 
 27 H        2.9230     3.9890    -0.8570 H     1 <1>   0.1500 
 28 H        7.1040     2.1550     0.6590 H     1 <1>   0.1500 
 29 H        5.0010     5.2760    -1.2990 H     1 <1>   0.1500 
 30 H        6.1030     6.0130     1.1450 H     1 <1>   0.0800 
 31 H        6.2000     7.3280    -0.0120 H     1 <1>   0.0800 
 32 H        7.3670     7.2050     1.2900 H     1 <1>   0.0800 
 33 H        9.3850     5.9830    -1.5200 H     1 <1>   0.0800 
 34 H        9.5690     6.6630     0.0820 H     1 <1>   0.0800 
 35 H        8.6300     7.5110    -1.1370 H     1 <1>   0.0800 
@<TRIPOS>BOND
  1   1   2  1   
  2   1   3  1   
  3   2   4  2   
  4   2   5  1   
  5   3   6  2   
  6   3  20  1   
  7   4   6  1   
  8   5   7  1   
  9   5  21  1   
 10   5  22  1   
 11   6  23  1   
 12   7   8  1   
 13   7   9  1   
 14   8  10  ar  
 15   8  11  ar  
 16   9  24  1   
 17   9  25  1   
 18   9  26  1   
 19  10  12  ar  
 20  11  13  ar  
 21  11  27  1   
 22  12  14  ar  
 23  12  28  1   
 24  13  14  ar  
 25  13  29  1   
 26  14  15  1   
 27  15  16  2   
 28  15  17  am  
 29  17  18  1   
 30  17  19  1   
 31  18  30  1   
 32  18  31  1   
 33  18  32  1   
 34  19  33  1   
 35  19  34  1   
 36  19  35  1   
@<TRIPOS>SUBSTRUCTURE
  1 ****   8 GROUP 4 **** **** 0

# MOE 2024.06 (io_trps.svl 2023.06)
