@<TRIPOS>MOLECULE
NONAME
53 56 1 0 0 
SMALL
USER_CHARGES


@<TRIPOS>ATOM
  1 S        0.5640     0.5480     2.2960 S.3   1 <1>  -0.0800 
  2 C        0.2330     1.9710     1.3310 C.2   1 <1>  -0.1400 
  3 C        2.2930     0.7770     2.0730 C.2   1 <1>  -0.1100 
  4 C        1.3560     2.5430     0.8810 C.2   1 <1>  -0.1810 
  5 C       -1.1640     2.4640     1.0650 C.3   1 <1>   0.0200 
  6 C        2.5430     1.8610     1.3130 C.2   1 <1>  -0.1500 
  7 C        1.3050     3.7950     0.0010 C.3   1 <1>   0.4610 
  8 C       -1.0490     3.9220     0.5900 C.3   1 <1>   0.1200 
  9 O       -0.0340     4.0640    -0.3760 O.3   1 <1>  -0.5600 
 10 C        2.0750     3.5640    -1.3040 C.3   1 <1>  -0.1600 
 11 C        1.8730     5.0130     0.7420 C.3   1 <1>  -0.1600 
 12 C        2.0940     4.8200    -2.1750 C.3   1 <1>   0.1400 
 13 C        1.8980     6.2590    -0.1450 C.3   1 <1>   0.1400 
 14 N        2.6550     5.9580    -1.3930 N.am  1 <1>  -0.6600 
 15 C        3.7790     6.6540    -1.8140 C.2   1 <1>   0.5440 
 16 O        4.4930     6.1230    -2.6490 O.2   1 <1>  -0.5700 
 17 C        4.1710     7.9670    -1.2920 C.ar  1 <1>   0.3960 
 18 N        3.2660     8.9030    -1.0130 N.ar  1 <1>  -0.6200 
 19 C        5.5150     8.2390    -1.0980 C.ar  1 <1>  -0.1500 
 20 C        3.7370    10.0330    -0.5390 C.ar  1 <1>   0.7200 
 21 C        5.8830     9.4660    -0.6070 C.ar  1 <1>   0.1670 
 22 N        4.9900    10.3800    -0.3220 N.ar  1 <1>  -0.6200 
 23 N        2.8270    10.9650    -0.2580 N.pl3 1 <1>  -0.9000 
 24 C        7.3480     9.8090    -0.3770 C.3   1 <1>  -0.0170 
 25 C        7.7370     9.7910     1.1140 C.3   1 <1>  -0.0800 
 26 C        9.1910    10.2460     1.2900 C.3   1 <1>  -0.2400 
 27 C        7.5530     8.3990     1.7380 C.3   1 <1>  -0.2400 
 28 H        2.9480     0.0650     2.5430 H     1 <1>   0.1500 
 29 H       -1.7570     2.4180     1.9600 H     1 <1>   0.0800 
 30 H       -1.6290     1.8600     0.3070 H     1 <1>   0.0800 
 31 H        3.5220     2.2120     1.0360 H     1 <1>   0.1500 
 32 H       -0.8250     4.5690     1.4190 H     1 <1>   0.0800 
 33 H       -1.9740     4.2410     0.1440 H     1 <1>   0.0800 
 34 H        1.6220     2.7520    -1.8420 H     1 <1>   0.0800 
 35 H        3.0900     3.2880    -1.0880 H     1 <1>   0.0800 
 36 H        2.8790     4.7980     1.0500 H     1 <1>   0.0800 
 37 H        1.3050     5.2040     1.6320 H     1 <1>   0.0800 
 38 H        1.0930     5.0680    -2.4840 H     1 <1>   0.0800 
 39 H        2.6770     4.6380    -3.0620 H     1 <1>   0.0800 
 40 H        2.3530     7.0630     0.4040 H     1 <1>   0.0800 
 41 H        0.8940     6.5530    -0.4050 H     1 <1>   0.0800 
 42 H        6.2500     7.4910    -1.3330 H     1 <1>   0.1500 
 43 H        3.1940    11.9080    -0.1730 H     1 <1>   0.4000 
 44 H        1.9370    10.8660    -0.7370 H     1 <1>   0.4000 
 45 H        7.5260    10.7910    -0.7780 H     1 <1>   0.0800 
 46 H        7.9710     9.1220    -0.9200 H     1 <1>   0.0800 
 47 H        7.1000    10.4860     1.6370 H     1 <1>   0.0800 
 48 H        9.8640     9.5750     0.7850 H     1 <1>   0.0800 
 49 H        9.4500    10.2700     2.3340 H     1 <1>   0.0800 
 50 H        9.3240    11.2350     0.8890 H     1 <1>   0.0800 
 51 H        8.1440     7.6660     1.2180 H     1 <1>   0.0800 
 52 H        6.5190     8.1020     1.7010 H     1 <1>   0.0800 
 53 H        7.8550     8.4130     2.7700 H     1 <1>   0.0800 
@<TRIPOS>BOND
  1   1   2  1   
  2   1   3  1   
  3   2   4  2   
  4   2   5  1   
  5   3   6  2   
  6   3  28  1   
  7   4   6  1   
  8   4   7  1   
  9   5   8  1   
 10   5  29  1   
 11   5  30  1   
 12   6  31  1   
 13   7   9  1   
 14   7  10  1   
 15   7  11  1   
 16   8   9  1   
 17   8  32  1   
 18   8  33  1   
 19  10  12  1   
 20  10  34  1   
 21  10  35  1   
 22  11  13  1   
 23  11  36  1   
 24  11  37  1   
 25  12  14  1   
 26  12  38  1   
 27  12  39  1   
 28  13  14  1   
 29  13  40  1   
 30  13  41  1   
 31  14  15  am  
 32  15  16  2   
 33  15  17  1   
 34  17  18  ar  
 35  17  19  ar  
 36  18  20  ar  
 37  19  21  ar  
 38  19  42  1   
 39  20  22  ar  
 40  20  23  1   
 41  21  22  ar  
 42  21  24  1   
 43  23  43  1   
 44  23  44  1   
 45  24  25  1   
 46  24  45  1   
 47  24  46  1   
 48  25  26  1   
 49  25  27  1   
 50  25  47  1   
 51  26  48  1   
 52  26  49  1   
 53  26  50  1   
 54  27  51  1   
 55  27  52  1   
 56  27  53  1   
@<TRIPOS>SUBSTRUCTURE
  1 ****  13 GROUP 4 **** **** 0

# MOE 2024.06 (io_trps.svl 2023.06)
