@<TRIPOS>MOLECULE
NONAME
50 53 1 0 0 
SMALL
USER_CHARGES


@<TRIPOS>ATOM
  1 O       -0.1740     0.3870     1.1310 O.3   1 <1>  -0.6800 
  2 C        0.6440    -0.0950     0.1170 C.3   1 <1>   0.2000 
  3 C        0.9450    -1.5650     0.4180 C.3   1 <1>  -0.0800 
  4 C        2.0140     0.5980     0.2320 C.3   1 <1>   0.3430 
  5 C        2.0140    -1.4260     1.5070 C.3   1 <1>   0.3430 
  6 C        1.4250    -2.3080    -0.8620 C.3   1 <1>  -0.0170 
  7 N        2.8770    -0.3290     1.0210 N.4   1 <1>  -0.9590 
  8 C        2.6740    -3.1530    -0.6650 C.ar  1 <1>   0.1670 
  9 C        3.7330     0.3440     2.0300 C.3   1 <1>   0.5240 
 10 N        3.8090    -2.5200    -0.6530 N.ar  1 <1>  -0.6200 
 11 C        2.5560    -4.5420    -0.4980 C.ar  1 <1>  -0.1500 
 12 C        4.7700     1.2070     1.3140 C.2   1 <1>   0.1080 
 13 C        4.9410    -3.2500    -0.4730 C.ar  1 <1>   0.3100 
 14 C        3.6740    -5.2960    -0.3090 C.ar  1 <1>  -0.1500 
 15 N        5.1970     0.9600     0.1080 N.2   1 <1>  -0.7070 
 16 C        5.3660     2.3420     1.8530 C.2   1 <1>  -0.1500 
 17 C        4.9210    -4.6500    -0.2900 C.ar  1 <1>   0.0000 
 18 C        6.1790    -2.5880    -0.4540 C.ar  1 <1>  -0.1500 
 19 N        6.0880     1.9370    -0.1560 N.pl3 1 <1>   0.3140 
 20 C        6.2000     2.7810     0.8870 C.2   1 <1>  -0.3020 
 21 C        6.1390    -5.3310    -0.0950 C.ar  1 <1>  -0.1500 
 22 C        7.3520    -3.2690    -0.2610 C.ar  1 <1>  -0.1500 
 23 C        6.8150     2.0180    -1.4400 C.3   1 <1>   0.0960 
 24 C        7.3300    -4.6550    -0.0800 C.ar  1 <1>  -0.1500 
 25 C        6.0980     2.9520    -2.4230 C.3   1 <1>  -0.2400 
 26 H       -1.1110     0.1390     0.9820 H     1 <1>   0.4000 
 27 H        0.1640     0.0850    -0.8310 H     1 <1>   0.0800 
 28 H        0.0840    -2.0770     0.8120 H     1 <1>   0.0800 
 29 H        1.9060     1.5540     0.7170 H     1 <1>   0.0800 
 30 H        2.4500     0.7400    -0.7440 H     1 <1>   0.0800 
 31 H        2.5730    -2.3370     1.6560 H     1 <1>   0.0800 
 32 H        1.5420    -1.1350     2.4310 H     1 <1>   0.0800 
 33 H        1.6460    -1.6030    -1.6460 H     1 <1>   0.0800 
 34 H        0.6260    -2.9270    -1.2320 H     1 <1>   0.0800 
 35 H        3.5500    -0.7460     0.3400 H     1 <1>   0.4500 
 36 H        3.1320     0.9540     2.6820 H     1 <1>   0.0800 
 37 H        4.2500    -0.3950     2.6180 H     1 <1>   0.0800 
 38 H        1.5840    -5.0020    -0.5230 H     1 <1>   0.1500 
 39 H        3.6270    -6.3630    -0.1790 H     1 <1>   0.1500 
 40 H        5.1950     2.7680     2.8260 H     1 <1>   0.1500 
 41 H        6.1810    -1.5230    -0.5980 H     1 <1>   0.1500 
 42 H        6.8570     3.6330     0.8840 H     1 <1>   0.1500 
 43 H        6.1190    -6.3980     0.0420 H     1 <1>   0.1500 
 44 H        8.2970    -2.7520    -0.2490 H     1 <1>   0.1500 
 45 H        7.8100     2.3730    -1.2480 H     1 <1>   0.0800 
 46 H        6.8790     1.0280    -1.8550 H     1 <1>   0.0800 
 47 H        8.2600    -5.1780     0.0690 H     1 <1>   0.1500 
 48 H        6.0410     3.9490    -2.0220 H     1 <1>   0.0800 
 49 H        5.1040     2.5900    -2.6210 H     1 <1>   0.0800 
 50 H        6.6380     2.9880    -3.3510 H     1 <1>   0.0800 
@<TRIPOS>BOND
  1   1   2  1   
  2   1  26  1   
  3   2   3  1   
  4   2   4  1   
  5   2  27  1   
  6   3   5  1   
  7   3   6  1   
  8   3  28  1   
  9   4   7  1   
 10   4  29  1   
 11   4  30  1   
 12   5   7  1   
 13   5  31  1   
 14   5  32  1   
 15   6   8  1   
 16   6  33  1   
 17   6  34  1   
 18   7   9  1   
 19   7  35  1   
 20   8  10  ar  
 21   8  11  ar  
 22   9  12  1   
 23   9  36  1   
 24   9  37  1   
 25  10  13  ar  
 26  11  14  ar  
 27  11  38  1   
 28  12  15  2   
 29  12  16  1   
 30  13  17  ar  
 31  13  18  ar  
 32  14  17  ar  
 33  14  39  1   
 34  15  19  1   
 35  16  20  2   
 36  16  40  1   
 37  17  21  ar  
 38  18  22  ar  
 39  18  41  1   
 40  19  20  1   
 41  19  23  1   
 42  20  42  1   
 43  21  24  ar  
 44  21  43  1   
 45  22  24  ar  
 46  22  44  1   
 47  23  25  1   
 48  23  45  1   
 49  23  46  1   
 50  24  47  1   
 51  25  48  1   
 52  25  49  1   
 53  25  50  1   
@<TRIPOS>SUBSTRUCTURE
  1 ****  10 GROUP 4 **** **** 0

# MOE 2024.06 (io_trps.svl 2023.06)
