@<TRIPOS>MOLECULE
NONAME
57 59 1 0 0 
SMALL
USER_CHARGES


@<TRIPOS>ATOM
  1 S        1.0740     0.0540    -0.2610 S.o2  1 <1>   1.3330 
  2 O        2.3580     0.4160     0.2980 O.2   1 <1>  -0.6500 
  3 O        0.9880    -0.3440    -1.6480 O.2   1 <1>  -0.6500 
  4 N        0.4160    -1.1950     0.6830 N.am  1 <1>  -0.8490 
  5 C       -0.0490     1.4210     0.0210 C.3   1 <1>  -0.0550 
  6 C       -0.6950    -1.8960     0.0300 C.3   1 <1>   0.1160 
  7 C        1.4320    -2.1620     1.1090 C.3   1 <1>   0.1160 
  8 C        0.3660     2.7060    -0.7250 C.3   1 <1>  -0.0800 
  9 C       -0.6310     3.8590    -0.6060 C.3   1 <1>   0.2000 
 10 C        1.6940     3.3000    -0.2350 C.3   1 <1>   0.2090 
 11 O       -1.0400     3.9650     0.7150 O.3   1 <1>  -0.6800 
 12 C        0.2160     5.0850    -0.9370 C.3   1 <1>   0.2090 
 13 N        1.5510     4.7780    -0.3490 N.pl3 1 <1>  -0.8380 
 14 C        2.6490     5.5730    -0.6320 C.ar  1 <1>   0.4100 
 15 N        2.4540     6.6200    -1.4270 N.ar  1 <1>  -0.6200 
 16 C        3.8950     5.2760    -0.0810 C.ar  1 <1>  -0.1500 
 17 C        3.5050     7.3720    -1.6840 C.ar  1 <1>   0.1600 
 18 C        4.9850     6.0690    -0.3480 C.ar  1 <1>  -0.1500 
 19 C        4.7740     7.1600    -1.1710 C.ar  1 <1>  -0.1430 
 20 C        5.8950     8.1210    -1.4960 C.3   1 <1>   0.4860 
 21 N        6.2160     8.9090    -0.2740 N.4   1 <1>  -0.9590 
 22 C        5.0580     9.7420     0.1760 C.3   1 <1>   0.3430 
 23 C        7.4540     9.7200    -0.4570 C.3   1 <1>   0.3430 
 24 C        5.3940    10.4150     1.5080 C.3   1 <1>  -0.1600 
 25 C        7.8320    10.3900     0.8660 C.3   1 <1>  -0.1600 
 26 C        6.6830    11.2420     1.4210 C.3   1 <1>  -0.1600 
 27 H       -1.0320     1.1410    -0.3020 H     1 <1>   0.0800 
 28 H       -0.0990     1.6170     1.0750 H     1 <1>   0.0800 
 29 H       -1.1260    -2.6150     0.7060 H     1 <1>   0.0800 
 30 H       -0.3500    -2.4090    -0.8540 H     1 <1>   0.0800 
 31 H       -1.4620    -1.1960    -0.2530 H     1 <1>   0.0800 
 32 H        0.9860    -2.9280     1.7200 H     1 <1>   0.0800 
 33 H        2.1910    -1.6670     1.6920 H     1 <1>   0.0800 
 34 H        1.8980    -2.6180     0.2510 H     1 <1>   0.0800 
 35 H        0.4800     2.4760    -1.7700 H     1 <1>   0.0800 
 36 H       -1.4980     3.7530    -1.2340 H     1 <1>   0.0800 
 37 H        2.5170     2.9410    -0.8310 H     1 <1>   0.0800 
 38 H        1.8670     3.0470     0.7980 H     1 <1>   0.0800 
 39 H       -0.2940     4.3530     1.2220 H     1 <1>   0.4000 
 40 H       -0.2010     5.9880    -0.5240 H     1 <1>   0.0800 
 41 H        0.3090     5.1890    -2.0050 H     1 <1>   0.0800 
 42 H        3.9930     4.4210     0.5610 H     1 <1>   0.1500 
 43 H        3.3290     8.2090    -2.3390 H     1 <1>   0.1500 
 44 H        5.9460     5.8330     0.0750 H     1 <1>   0.1500 
 45 H        5.6000     8.7790    -2.2980 H     1 <1>   0.0800 
 46 H        6.7590     7.5600    -1.8140 H     1 <1>   0.0800 
 47 H        6.3880     8.2310     0.4790 H     1 <1>   0.4500 
 48 H        4.8390    10.4970    -0.5620 H     1 <1>   0.0800 
 49 H        4.1810     9.1260     0.3040 H     1 <1>   0.0800 
 50 H        8.2670     9.0910    -0.7830 H     1 <1>   0.0800 
 51 H        7.2870    10.4780    -1.2060 H     1 <1>   0.0800 
 52 H        4.5780    11.0570     1.7920 H     1 <1>   0.0800 
 53 H        5.4900     9.6630     2.2730 H     1 <1>   0.0800 
 54 H        8.1080     9.6360     1.5830 H     1 <1>   0.0800 
 55 H        8.6950    11.0150     0.7100 H     1 <1>   0.0800 
 56 H        6.9440    11.6170     2.3970 H     1 <1>   0.0800 
 57 H        6.5220    12.0920     0.7780 H     1 <1>   0.0800 
@<TRIPOS>BOND
  1   1   2  2   
  2   1   3  2   
  3   1   4  am  
  4   1   5  1   
  5   4   6  1   
  6   4   7  1   
  7   5   8  1   
  8   5  27  1   
  9   5  28  1   
 10   6  29  1   
 11   6  30  1   
 12   6  31  1   
 13   7  32  1   
 14   7  33  1   
 15   7  34  1   
 16   8   9  1   
 17   8  10  1   
 18   8  35  1   
 19   9  11  1   
 20   9  12  1   
 21   9  36  1   
 22  10  13  1   
 23  10  37  1   
 24  10  38  1   
 25  11  39  1   
 26  12  13  1   
 27  12  40  1   
 28  12  41  1   
 29  13  14  1   
 30  14  15  ar  
 31  14  16  ar  
 32  15  17  ar  
 33  16  18  ar  
 34  16  42  1   
 35  17  19  ar  
 36  17  43  1   
 37  18  19  ar  
 38  18  44  1   
 39  19  20  1   
 40  20  21  1   
 41  20  45  1   
 42  20  46  1   
 43  21  22  1   
 44  21  23  1   
 45  21  47  1   
 46  22  24  1   
 47  22  48  1   
 48  22  49  1   
 49  23  25  1   
 50  23  50  1   
 51  23  51  1   
 52  24  26  1   
 53  24  52  1   
 54  24  53  1   
 55  25  26  1   
 56  25  54  1   
 57  25  55  1   
 58  26  56  1   
 59  26  57  1   
@<TRIPOS>SUBSTRUCTURE
  1 ****  14 GROUP 4 **** **** 0

# MOE 2024.06 (io_trps.svl 2023.06)
