@<TRIPOS>MOLECULE
NONAME
50 54 1 0 0 
SMALL
USER_CHARGES


@<TRIPOS>ATOM
  1 O        2.3180     1.5500    -3.4660 O.2   1 <1>  -0.5750 
  2 C        3.1820     1.2120    -2.6920 C.2   1 <1>   0.6860 
  3 N        3.9370     2.1300    -1.9740 N.am  1 <1>  -0.4420 
  4 N        3.4170    -0.1220    -2.5230 N.am  1 <1>  -0.4950 
  5 C        4.9020     1.6330    -1.1100 C.2   1 <1>   0.4200 
  6 C        3.7320     3.5980    -2.1400 C.3   1 <1>   0.0520 
  7 C        4.3670    -0.6260    -1.6810 C.2   1 <1>   0.6990 
  8 N        5.7450     2.3380    -0.3100 N.pl3 1 <1>  -0.7040 
  9 C        5.1520     0.3160    -0.9380 C.2   1 <1>   0.2700 
 10 O        4.5010    -1.8310    -1.5960 O.2   1 <1>  -0.5750 
 11 C        6.5310     1.4800     0.3410 C.cat 1 <1>   1.0690 
 12 N        6.1960     0.2250     0.0020 N.pl3 1 <1>  -0.7670 
 13 N        7.5060     1.8730     1.1870 N.pl3 1 <1>  -0.5960 
 14 C        6.6450    -1.0820     0.5630 C.3   1 <1>   0.2670 
 15 C        8.8590     1.2530     1.2000 C.3   1 <1>   0.1600 
 16 C        7.4760     3.1830     1.8920 C.3   1 <1>   0.1600 
 17 C        9.8300     2.1800     0.4650 C.3   1 <1>  -0.1670 
 18 C        8.3950     4.1620     1.1650 C.3   1 <1>  -0.1670 
 19 C        9.8270     3.6140     1.0250 C.3   1 <1>   0.0920 
 20 C       10.6380     4.5230     0.1110 C.2   1 <1>  -0.0020 
 21 N       10.2780     4.8410    -1.0850 N.2   1 <1>  -0.5700 
 22 N       11.8210     5.0720     0.4910 N.pl3 1 <1>   0.0250 
 23 C       11.2780     5.6520    -1.5360 C.ar  1 <1>   0.2200 
 24 C       12.2480     5.8060    -0.5640 C.ar  1 <1>  -0.1590 
 25 C       11.4210     6.2910    -2.7660 C.ar  1 <1>  -0.1570 
 26 C       13.3790     6.5950    -0.7850 C.ar  1 <1>  -0.1570 
 27 C       12.5330     7.0710    -2.9950 C.ar  1 <1>  -0.1570 
 28 C       13.5120     7.2230    -2.0040 C.ar  1 <1>  -0.1570 
 29 H        2.8470    -0.7700    -3.0630 H     1 <1>   0.3640 
 30 H        2.9120     3.7990    -2.8090 H     1 <1>   0.0720 
 31 H        4.6210     4.0470    -2.5490 H     1 <1>   0.0720 
 32 H        3.5080     4.0470    -1.1880 H     1 <1>   0.0720 
 33 H        5.8610     3.3470    -0.2780 H     1 <1>   0.4450 
 34 H        5.7970    -1.7280     0.7180 H     1 <1>   0.0720 
 35 H        7.1360    -0.9420     1.5110 H     1 <1>   0.0720 
 36 H        7.3220    -1.5630    -0.1220 H     1 <1>   0.0720 
 37 H        8.8580     0.2980     0.7050 H     1 <1>   0.0720 
 38 H        9.1810     1.1090     2.2180 H     1 <1>   0.0720 
 39 H        7.8160     3.0480     2.9060 H     1 <1>   0.0720 
 40 H        6.4730     3.5740     1.9330 H     1 <1>   0.0720 
 41 H        9.5650     2.2040    -0.5780 H     1 <1>   0.0720 
 42 H       10.8270     1.7790     0.5270 H     1 <1>   0.0720 
 43 H        8.4250     5.0950     1.7020 H     1 <1>   0.0720 
 44 H        7.9890     4.3700     0.1910 H     1 <1>   0.0720 
 45 H       10.2800     3.6000     2.0020 H     1 <1>   0.0720 
 46 H       12.3090     4.9660     1.3830 H     1 <1>   0.2630 
 47 H       10.6570     6.1590    -3.5100 H     1 <1>   0.1430 
 48 H       14.1250     6.7050    -0.0180 H     1 <1>   0.1430 
 49 H       12.6600     7.5720    -3.9390 H     1 <1>   0.1430 
 50 H       14.3710     7.8370    -2.2070 H     1 <1>   0.1430 
@<TRIPOS>BOND
  1   1   2  2   
  2   2   3  am  
  3   2   4  am  
  4   3   5  1   
  5   3   6  1   
  6   4   7  am  
  7   4  29  1   
  8   5   8  1   
  9   5   9  2   
 10   6  30  1   
 11   6  31  1   
 12   6  32  1   
 13   7   9  1   
 14   7  10  2   
 15   8  11  ar  
 16   8  33  1   
 17   9  12  1   
 18  11  12  ar  
 19  11  13  ar  
 20  12  14  1   
 21  13  15  1   
 22  13  16  1   
 23  14  34  1   
 24  14  35  1   
 25  14  36  1   
 26  15  17  1   
 27  15  37  1   
 28  15  38  1   
 29  16  18  1   
 30  16  39  1   
 31  16  40  1   
 32  17  19  1   
 33  17  41  1   
 34  17  42  1   
 35  18  19  1   
 36  18  43  1   
 37  18  44  1   
 38  19  20  1   
 39  19  45  1   
 40  20  21  2   
 41  20  22  1   
 42  21  23  1   
 43  22  24  1   
 44  22  46  1   
 45  23  24  ar  
 46  23  25  ar  
 47  24  26  ar  
 48  25  27  ar  
 49  25  47  1   
 50  26  28  ar  
 51  26  48  1   
 52  27  28  ar  
 53  27  49  1   
 54  28  50  1   
@<TRIPOS>SUBSTRUCTURE
  1 ****  11 GROUP 4 **** **** 0

# MOE 2024.06 (io_trps.svl 2023.06)
