@<TRIPOS>MOLECULE
NONAME
55 56 1 0 0 
SMALL
USER_CHARGES


@<TRIPOS>ATOM
  1 O        0.1850    -0.6590    -1.2060 O.2   1 <1>  -0.5700 
  2 C        1.2910    -1.0450    -0.9110 C.2   1 <1>   0.5690 
  3 N        2.3490    -0.2050    -0.6800 N.am  1 <1>  -0.4940 
  4 C        1.5390    -2.5480    -0.7870 C.3   1 <1>  -0.0190 
  5 C        2.3920     1.2140    -0.7190 C.2   1 <1>  -0.0880 
  6 C        1.4460    -3.2420    -2.1580 C.3   1 <1>  -0.1600 
  7 C        0.5570    -3.2060     0.2010 C.3   1 <1>  -0.1600 
  8 N        3.4950     1.9820    -0.4890 N.pl3 1 <1>   0.3140 
  9 C        1.3830     2.0790    -0.9760 C.2   1 <1>  -0.1500 
 10 C        1.6690    -4.7530    -2.0440 C.3   1 <1>   0.1400 
 11 C        0.7850    -4.7160     0.3030 C.3   1 <1>   0.1400 
 12 N        3.2030     3.3040    -0.5880 N.2   1 <1>  -0.7070 
 13 C        4.8680     1.5070    -0.1440 C.3   1 <1>   0.1760 
 14 C        1.9450     3.3440    -0.8810 C.2   1 <1>   0.1080 
 15 N        0.7180    -5.3290    -1.0540 N.am  1 <1>  -0.6600 
 16 C        5.1820     1.8500     1.3260 C.3   1 <1>  -0.1600 
 17 C        5.9020     2.0930    -1.1220 C.3   1 <1>  -0.2400 
 18 C        1.2030     4.6430    -1.0860 C.3   1 <1>  -0.0590 
 19 C       -0.0980    -6.3880    -1.3830 C.2   1 <1>   0.5690 
 20 C        6.4720     1.1960     1.8460 C.3   1 <1>  -0.2400 
 21 O       -0.0480    -6.9110    -2.4740 O.2   1 <1>  -0.5700 
 22 C       -1.1150    -6.9650    -0.3890 C.3   1 <1>   0.1810 
 23 O       -0.5230    -7.5440     0.7510 O.3   1 <1>  -0.5600 
 24 C        0.2260    -8.6860     0.4910 C.3   1 <1>   0.1200 
 25 C        0.7640    -9.1910     1.8230 C.3   1 <1>  -0.2400 
 26 H        3.2210    -0.6710    -0.4450 H     1 <1>   0.3700 
 27 H        2.5340    -2.6980    -0.4080 H     1 <1>   0.0800 
 28 H        2.1770    -2.8260    -2.8290 H     1 <1>   0.0800 
 29 H        0.4740    -3.0680    -2.5890 H     1 <1>   0.0800 
 30 H       -0.4550    -3.0300    -0.1200 H     1 <1>   0.0800 
 31 H        0.6700    -2.7620     1.1740 H     1 <1>   0.0800 
 32 H        0.3570     1.8560    -1.2070 H     1 <1>   0.1500 
 33 H        2.6750    -4.9570    -1.7220 H     1 <1>   0.0800 
 34 H        1.5320    -5.2060    -3.0120 H     1 <1>   0.0800 
 35 H        0.0480    -5.1370     0.9640 H     1 <1>   0.0800 
 36 H        1.7540    -4.9150     0.7260 H     1 <1>   0.0800 
 37 H        4.8790     0.4400    -0.2530 H     1 <1>   0.0800 
 38 H        4.3630     1.5170     1.9400 H     1 <1>   0.0800 
 39 H        5.2570     2.9190     1.4320 H     1 <1>   0.0800 
 40 H        5.9730     3.1590    -0.9940 H     1 <1>   0.0800 
 41 H        5.6090     1.8850    -2.1360 H     1 <1>   0.0800 
 42 H        6.8710     1.6620    -0.9570 H     1 <1>   0.0800 
 43 H        0.1730     4.4540    -1.3230 H     1 <1>   0.0800 
 44 H        1.6570     5.1900    -1.8920 H     1 <1>   0.0800 
 45 H        1.2580     5.2320    -0.1900 H     1 <1>   0.0800 
 46 H        6.4360     0.1290     1.7220 H     1 <1>   0.0800 
 47 H        6.5900     1.4130     2.8930 H     1 <1>   0.0800 
 48 H        7.3330     1.5810     1.3300 H     1 <1>   0.0800 
 49 H       -1.7160    -7.7120    -0.8760 H     1 <1>   0.0800 
 50 H       -1.7630    -6.1770    -0.0550 H     1 <1>   0.0800 
 51 H        1.0370    -8.4360    -0.1730 H     1 <1>   0.0800 
 52 H       -0.4100    -9.4240     0.0310 H     1 <1>   0.0800 
 53 H        1.3870    -8.4420     2.2760 H     1 <1>   0.0800 
 54 H        1.3510   -10.0770     1.6650 H     1 <1>   0.0800 
 55 H       -0.0500    -9.4300     2.4830 H     1 <1>   0.0800 
@<TRIPOS>BOND
  1   1   2  2   
  2   2   3  am  
  3   2   4  1   
  4   3   5  1   
  5   3  26  1   
  6   4   6  1   
  7   4   7  1   
  8   4  27  1   
  9   5   8  1   
 10   5   9  2   
 11   6  10  1   
 12   6  28  1   
 13   6  29  1   
 14   7  11  1   
 15   7  30  1   
 16   7  31  1   
 17   8  12  1   
 18   8  13  1   
 19   9  14  1   
 20   9  32  1   
 21  10  15  1   
 22  10  33  1   
 23  10  34  1   
 24  11  15  1   
 25  11  35  1   
 26  11  36  1   
 27  12  14  2   
 28  13  16  1   
 29  13  17  1   
 30  13  37  1   
 31  14  18  1   
 32  15  19  am  
 33  16  20  1   
 34  16  38  1   
 35  16  39  1   
 36  17  40  1   
 37  17  41  1   
 38  17  42  1   
 39  18  43  1   
 40  18  44  1   
 41  18  45  1   
 42  19  21  2   
 43  19  22  1   
 44  20  46  1   
 45  20  47  1   
 46  20  48  1   
 47  22  23  1   
 48  22  49  1   
 49  22  50  1   
 50  23  24  1   
 51  24  25  1   
 52  24  51  1   
 53  24  52  1   
 54  25  53  1   
 55  25  54  1   
 56  25  55  1   
@<TRIPOS>SUBSTRUCTURE
  1 ****   4 GROUP 4 **** **** 0

# MOE 2024.06 (io_trps.svl 2023.06)
