@<TRIPOS>MOLECULE
NONAME
26 27 1 0 0 
SMALL
USER_CHARGES


@<TRIPOS>ATOM
  1 O       -1.8400     0.5770     1.1450 O.2   1 <1>  -0.5700 
  2 C       -1.2840     1.2260     0.2840 C.2   1 <1>   0.6340 
  3 O       -1.0930     0.6760    -0.9170 O.3   1 <1>  -0.4300 
  4 C       -0.8350     2.5880     0.4910 C.ar  1 <1>   0.0860 
  5 C       -1.5230    -0.6360    -1.2220 C.3   1 <1>   0.0400 
  6 C        0.4100     3.0740     0.0600 C.ar  1 <1>  -0.0320 
  7 C       -1.6820     3.4760     1.1570 C.ar  1 <1>  -0.1500 
  8 C        0.7480     4.4030     0.2680 C.ar  1 <1>  -0.1500 
  9 C        1.4380     2.1820    -0.6350 C.3   1 <1>   0.1370 
 10 C       -1.3350     4.7960     1.3680 C.ar  1 <1>  -0.1500 
 11 C       -0.1170     5.2640     0.9170 C.ar  1 <1>  -0.1500 
 12 C        1.3190     2.2090    -2.1300 C.1   1 <1>   0.4520 
 13 C        2.8210     2.1190    -0.0470 C.3   1 <1>  -0.2000 
 14 C        1.9210     0.9320     0.0490 C.3   1 <1>  -0.2000 
 15 N        1.2570     2.2330    -3.2670 N.1   1 <1>  -0.5570 
 16 H       -1.2580    -0.8520    -2.2410 H     1 <1>   0.0800 
 17 H       -2.5900    -0.6890    -1.0960 H     1 <1>   0.0800 
 18 H       -1.0350    -1.3260    -0.5550 H     1 <1>   0.0800 
 19 H       -2.6340     3.1180     1.5120 H     1 <1>   0.1500 
 20 H        1.6960     4.7810    -0.0750 H     1 <1>   0.1500 
 21 H       -2.0120     5.4590     1.8810 H     1 <1>   0.1500 
 22 H        0.1580     6.2940     1.0740 H     1 <1>   0.1500 
 23 H        3.0370     2.6650     0.8550 H     1 <1>   0.1000 
 24 H        3.6690     2.0670    -0.7090 H     1 <1>   0.1000 
 25 H        2.1300     0.0660    -0.5540 H     1 <1>   0.1000 
 26 H        1.5180     0.6730     1.0130 H     1 <1>   0.1000 
@<TRIPOS>BOND
  1   1   2  2   
  2   2   3  1   
  3   2   4  1   
  4   3   5  1   
  5   4   6  ar  
  6   4   7  ar  
  7   5  16  1   
  8   5  17  1   
  9   5  18  1   
 10   6   8  ar  
 11   6   9  1   
 12   7  10  ar  
 13   7  19  1   
 14   8  11  ar  
 15   8  20  1   
 16   9  12  1   
 17   9  13  1   
 18   9  14  1   
 19  10  11  ar  
 20  10  21  1   
 21  11  22  1   
 22  12  15  3   
 23  13  14  1   
 24  13  23  1   
 25  13  24  1   
 26  14  25  1   
 27  14  26  1   
@<TRIPOS>SUBSTRUCTURE
  1 ****   6 GROUP 4 **** **** 0

# MOE 2024.06 (io_trps.svl 2023.06)
