@<TRIPOS>MOLECULE
NONAME
51 54 1 0 0 
SMALL
USER_CHARGES


@<TRIPOS>ATOM
  1 CL       0.4720    -3.4770     2.2700 Cl    1 <1>  -0.1770 
  2 C       -0.7450    -3.5190     1.0130 C.ar  1 <1>   0.1770 
  3 C       -1.4410    -2.3620     0.6920 C.ar  1 <1>   0.0830 
  4 C       -0.9990    -4.7070     0.3550 C.ar  1 <1>  -0.1500 
  5 O       -1.1950    -1.2050     1.3350 O.3   1 <1>  -0.5330 
  6 C       -2.4020    -2.3980    -0.3020 C.ar  1 <1>  -0.1500 
  7 C       -1.9660    -4.7470    -0.6400 C.ar  1 <1>  -0.1440 
  8 C       -2.6600    -3.5870    -0.9660 C.ar  1 <1>  -0.1500 
  9 C       -2.2640    -6.0600    -1.3610 C.3   1 <1>   0.0440 
 10 C       -2.6320    -7.1920    -0.4100 C.2   1 <1>   0.5690 
 11 O       -1.9320    -8.1780    -0.4130 O.2   1 <1>  -0.5700 
 12 N       -3.7220    -7.0950     0.4120 N.am  1 <1>  -0.6600 
 13 C       -4.6690    -5.9610     0.4910 C.3   1 <1>   0.1400 
 14 C       -4.1650    -8.1830     1.3010 C.3   1 <1>   0.1400 
 15 C       -5.9760    -6.5610     1.0220 C.3   1 <1>  -0.0800 
 16 C       -5.6880    -8.0450     1.3570 C.3   1 <1>  -0.0800 
 17 C       -7.1980    -6.3070     0.1030 C.3   1 <1>   0.4240 
 18 C       -6.3750    -9.0380     0.4010 C.3   1 <1>  -0.1600 
 19 O       -6.8420    -6.5760    -1.2080 O.3   1 <1>  -0.6800 
 20 C       -7.6720    -4.8430     0.2150 C.ar  1 <1>  -0.1440 
 21 C       -8.3100    -7.3140     0.4420 C.3   1 <1>  -0.1600 
 22 C       -7.8920    -8.7940     0.2770 C.3   1 <1>  -0.1600 
 23 C       -7.5350    -3.9340    -0.8320 C.ar  1 <1>  -0.1500 
 24 C       -8.2470    -4.3870     1.3980 C.ar  1 <1>  -0.1500 
 25 C       -7.9580    -2.6220    -0.7020 C.ar  1 <1>  -0.1500 
 26 C       -8.6720    -3.0760     1.5320 C.ar  1 <1>  -0.1500 
 27 C       -8.5280    -2.1910     0.4810 C.ar  1 <1>  -0.1500 
 28 H       -0.4480    -5.5910     0.6250 H     1 <1>   0.1500 
 29 H       -0.4960    -1.3020     2.0110 H     1 <1>   0.4500 
 30 H       -2.9410    -1.5010    -0.5510 H     1 <1>   0.1500 
 31 H       -3.4110    -3.6010    -1.7380 H     1 <1>   0.1500 
 32 H       -1.3940    -6.3500    -1.9200 H     1 <1>   0.0800 
 33 H       -3.0680    -5.9340    -2.0610 H     1 <1>   0.0800 
 34 H       -4.2880    -5.2270     1.1810 H     1 <1>   0.0800 
 35 H       -4.7940    -5.4950    -0.4710 H     1 <1>   0.0800 
 36 H       -3.8550    -9.1450     0.9280 H     1 <1>   0.0800 
 37 H       -3.7380    -8.0270     2.2770 H     1 <1>   0.0800 
 38 H       -6.1760    -6.0720     1.9580 H     1 <1>   0.0800 
 39 H       -6.0240    -8.2650     2.3560 H     1 <1>   0.0800 
 40 H       -5.9160    -8.9640    -0.5700 H     1 <1>   0.0800 
 41 H       -6.2060   -10.0450     0.7430 H     1 <1>   0.0800 
 42 H       -6.5740    -7.5110    -1.2480 H     1 <1>   0.4000 
 43 H       -8.5990    -7.1670     1.4660 H     1 <1>   0.0800 
 44 H       -9.1770    -7.1040    -0.1600 H     1 <1>   0.0800 
 45 H       -8.4080    -9.3770     1.0200 H     1 <1>   0.0800 
 46 H       -8.2190    -9.1510    -0.6850 H     1 <1>   0.0800 
 47 H       -7.0980    -4.2360    -1.7670 H     1 <1>   0.1500 
 48 H       -8.3720    -5.0480     2.2370 H     1 <1>   0.1500 
 49 H       -7.8450    -1.9380    -1.5240 H     1 <1>   0.1500 
 50 H       -9.1160    -2.7450     2.4550 H     1 <1>   0.1500 
 51 H       -8.8580    -1.1720     0.5820 H     1 <1>   0.1500 
@<TRIPOS>BOND
  1   1   2  1   
  2   2   3  ar  
  3   2   4  ar  
  4   3   5  1   
  5   3   6  ar  
  6   4   7  ar  
  7   4  28  1   
  8   5  29  1   
  9   6   8  ar  
 10   6  30  1   
 11   7   8  ar  
 12   7   9  1   
 13   8  31  1   
 14   9  10  1   
 15   9  32  1   
 16   9  33  1   
 17  10  11  2   
 18  10  12  am  
 19  12  13  1   
 20  12  14  1   
 21  13  15  1   
 22  13  34  1   
 23  13  35  1   
 24  14  16  1   
 25  14  36  1   
 26  14  37  1   
 27  15  16  1   
 28  15  17  1   
 29  15  38  1   
 30  16  18  1   
 31  16  39  1   
 32  17  19  1   
 33  17  20  1   
 34  17  21  1   
 35  18  22  1   
 36  18  40  1   
 37  18  41  1   
 38  19  42  1   
 39  20  23  ar  
 40  20  24  ar  
 41  21  22  1   
 42  21  43  1   
 43  21  44  1   
 44  22  45  1   
 45  22  46  1   
 46  23  25  ar  
 47  23  47  1   
 48  24  26  ar  
 49  24  48  1   
 50  25  27  ar  
 51  25  49  1   
 52  26  27  ar  
 53  26  50  1   
 54  27  51  1   
@<TRIPOS>SUBSTRUCTURE
  1 ****  13 GROUP 4 **** **** 0

# MOE 2024.06 (io_trps.svl 2023.06)
