@<TRIPOS>MOLECULE
NONAME
51 53 1 0 0 
SMALL
USER_CHARGES


@<TRIPOS>ATOM
  1 O        1.3130     0.7130    -1.0920 O.2   1 <1>  -0.5700 
  2 C        1.7890    -0.3100    -0.6550 C.2   1 <1>   0.5690 
  3 N        2.9210    -0.2550     0.1270 N.am  1 <1>  -0.6600 
  4 C        1.1220    -1.6250    -1.0610 C.3   1 <1>   0.1810 
  5 C        3.2440     0.9910     0.8980 C.3   1 <1>   0.1400 
  6 C        3.8750    -1.3870     0.3170 C.3   1 <1>   0.1400 
  7 O        1.0550    -2.5350     0.0260 O.3   1 <1>  -0.3620 
  8 C        4.5810     1.6860     0.5200 C.3   1 <1>   0.4230 
  9 C        5.2650    -1.0490    -0.2670 C.3   1 <1>  -0.0800 
 10 C        0.5620    -3.7890    -0.1420 C.ar  1 <1>   0.0820 
 11 N        5.0600     1.4620    -0.9020 N.4   1 <1>  -0.9590 
 12 C        5.6930     1.3840     1.5480 C.3   1 <1>   0.1200 
 13 C        6.3330    -0.7810     0.8060 C.3   1 <1>   0.1200 
 14 C        5.2060     0.0330    -1.3600 C.3   1 <1>   0.3430 
 15 C        0.6370    -4.6380     0.9510 C.ar  1 <1>  -0.1500 
 16 C        0.0020    -4.2520    -1.3300 C.ar  1 <1>  -0.1500 
 17 C        4.1590     2.1870    -1.8540 C.3   1 <1>   0.2630 
 18 O        5.8300     0.0240     1.8190 O.3   1 <1>  -0.5600 
 19 C        0.1680    -5.9380     0.8700 C.ar  1 <1>  -0.1500 
 20 C       -0.4650    -5.5520    -1.4110 C.ar  1 <1>  -0.1500 
 21 C       -0.3860    -6.4020    -0.3200 C.ar  1 <1>   0.0820 
 22 O       -0.8700    -7.6600    -0.4920 O.3   1 <1>  -0.3620 
 23 C       -0.8540    -8.5970     0.5600 C.3   1 <1>   0.1200 
 24 C       -1.4680    -9.8940     0.0450 C.3   1 <1>  -0.2400 
 25 H        1.6810    -2.0830    -1.8560 H     1 <1>   0.0800 
 26 H        0.1180    -1.4260    -1.3890 H     1 <1>   0.0800 
 27 H        2.4510     1.7080     0.7680 H     1 <1>   0.0800 
 28 H        3.2520     0.7500     1.9480 H     1 <1>   0.0800 
 29 H        3.9450    -1.6280     1.3650 H     1 <1>   0.0800 
 30 H        3.5050    -2.2650    -0.1820 H     1 <1>   0.0800 
 31 H        4.3990     2.7430     0.6240 H     1 <1>   0.0800 
 32 H        5.5930    -1.9420    -0.7670 H     1 <1>   0.0800 
 33 H        5.9910     1.8910    -0.9640 H     1 <1>   0.4500 
 34 H        5.4360     1.8500     2.4830 H     1 <1>   0.0800 
 35 H        6.6430     1.7790     1.2340 H     1 <1>   0.0800 
 36 H        7.2240    -0.3340     0.3970 H     1 <1>   0.0800 
 37 H        6.6100    -1.7130     1.2700 H     1 <1>   0.0800 
 38 H        4.3730    -0.2110    -2.0000 H     1 <1>   0.0800 
 39 H        6.0950    -0.0430    -1.9640 H     1 <1>   0.0800 
 40 H        1.0630    -4.2740     1.8690 H     1 <1>   0.1500 
 41 H       -0.0850    -3.6260    -2.1980 H     1 <1>   0.1500 
 42 H        3.1680     1.7670    -1.8260 H     1 <1>   0.0800 
 43 H        4.5340     2.1090    -2.8620 H     1 <1>   0.0800 
 44 H        4.0940     3.2310    -1.5930 H     1 <1>   0.0800 
 45 H        0.2430    -6.5670     1.7360 H     1 <1>   0.1500 
 46 H       -0.9000    -5.9200    -2.3230 H     1 <1>   0.1500 
 47 H        0.1670    -8.7540     0.8620 H     1 <1>   0.0800 
 48 H       -1.4310    -8.2010     1.3780 H     1 <1>   0.0800 
 49 H       -0.8940   -10.2720    -0.7830 H     1 <1>   0.0800 
 50 H       -2.4820    -9.7230    -0.2700 H     1 <1>   0.0800 
 51 H       -1.4710   -10.6320     0.8260 H     1 <1>   0.0800 
@<TRIPOS>BOND
  1   1   2  2   
  2   2   3  am  
  3   2   4  1   
  4   3   5  1   
  5   3   6  1   
  6   4   7  1   
  7   4  25  1   
  8   4  26  1   
  9   5   8  1   
 10   5  27  1   
 11   5  28  1   
 12   6   9  1   
 13   6  29  1   
 14   6  30  1   
 15   7  10  1   
 16   8  11  1   
 17   8  12  1   
 18   8  31  1   
 19   9  13  1   
 20   9  14  1   
 21   9  32  1   
 22  10  15  ar  
 23  10  16  ar  
 24  11  14  1   
 25  11  17  1   
 26  11  33  1   
 27  12  18  1   
 28  12  34  1   
 29  12  35  1   
 30  13  18  1   
 31  13  36  1   
 32  13  37  1   
 33  14  38  1   
 34  14  39  1   
 35  15  19  ar  
 36  15  40  1   
 37  16  20  ar  
 38  16  41  1   
 39  17  42  1   
 40  17  43  1   
 41  17  44  1   
 42  19  21  ar  
 43  19  45  1   
 44  20  21  ar  
 45  20  46  1   
 46  21  22  1   
 47  22  23  1   
 48  23  24  1   
 49  23  47  1   
 50  23  48  1   
 51  24  49  1   
 52  24  50  1   
 53  24  51  1   
@<TRIPOS>SUBSTRUCTURE
  1 ****   7 GROUP 4 **** **** 0

# MOE 2024.06 (io_trps.svl 2023.06)
