@<TRIPOS>MOLECULE
NONAME
51 54 1 0 0 
SMALL
USER_CHARGES


@<TRIPOS>ATOM
  1 O        1.4540     0.2320     1.4600 O.3   1 <1>  -0.6800 
  2 C        1.3800     0.0450     0.0810 C.3   1 <1>   0.2000 
  3 C        2.1020    -1.2450    -0.3060 C.3   1 <1>  -0.0800 
  4 C        2.2450     1.1100    -0.5980 C.3   1 <1>   0.3430 
  5 C        3.5870    -0.8630    -0.2840 C.3   1 <1>   0.3430 
  6 C        1.7900    -2.4900     0.5470 C.3   1 <1>  -0.0170 
  7 N        3.6570     0.6180    -0.4790 N.4   1 <1>  -0.9590 
  8 C        2.6860    -3.6440     0.1310 C.ar  1 <1>  -0.1440 
  9 C        4.3440     1.2750     0.6660 C.3   1 <1>   0.4860 
 10 C        2.5040    -4.3150    -1.0620 C.ar  1 <1>  -0.1500 
 11 C        3.7340    -4.0770     0.9210 C.ar  1 <1>  -0.1500 
 12 C        4.5440     2.7360     0.3220 C.ar  1 <1>  -0.1440 
 13 C        3.3660    -5.3420    -1.4080 C.ar  1 <1>   0.1600 
 14 C        4.5380    -5.1160     0.4820 C.ar  1 <1>   0.1600 
 15 C        5.5020     3.1140    -0.5950 C.ar  1 <1>  -0.1500 
 16 C        3.7410     3.7070     0.9400 C.ar  1 <1>  -0.1500 
 17 N        4.3840    -5.7480    -0.6690 N.ar  1 <1>  -0.6200 
 18 C        5.6530     4.4650    -0.9180 C.ar  1 <1>   0.0000 
 19 C        3.8840     5.0390     0.6300 C.ar  1 <1>  -0.1500 
 20 C        4.8450     5.4190    -0.3110 C.ar  1 <1>  -0.1520 
 21 C        6.5090     5.1620    -1.7940 C.2   1 <1>  -0.1500 
 22 N        5.1940     6.6580    -0.8000 N.pl3 1 <1>   0.0480 
 23 C        6.2070     6.4780    -1.6990 C.2   1 <1>  -0.3020 
 24 C        4.5960     7.9570    -0.4260 C.3   1 <1>   0.0960 
 25 C        5.2580     8.5100     0.8390 C.3   1 <1>  -0.2400 
 26 H        0.7220    -0.2310     1.9200 H     1 <1>   0.4000 
 27 H        0.3490     0.0870    -0.2290 H     1 <1>   0.0800 
 28 H        1.8500    -1.4720    -1.3270 H     1 <1>   0.0800 
 29 H        2.1030     2.0770    -0.1450 H     1 <1>   0.0800 
 30 H        1.9750     1.1700    -1.6390 H     1 <1>   0.0800 
 31 H        4.1260    -1.3900    -1.0560 H     1 <1>   0.0800 
 32 H        4.0050    -1.1270     0.6730 H     1 <1>   0.0800 
 33 H        0.7590    -2.7740     0.4200 H     1 <1>   0.0800 
 34 H        1.9450    -2.2860     1.5930 H     1 <1>   0.0800 
 35 H        4.1770     0.8710    -1.3280 H     1 <1>   0.4500 
 36 H        3.7530     1.1800     1.5630 H     1 <1>   0.0800 
 37 H        5.3050     0.8170     0.8360 H     1 <1>   0.0800 
 38 H        1.7000    -4.0590    -1.7280 H     1 <1>   0.1500 
 39 H        3.9360    -3.6270     1.8760 H     1 <1>   0.1500 
 40 H        3.2110    -5.8580    -2.3410 H     1 <1>   0.1500 
 41 H        5.3500    -5.4460     1.1090 H     1 <1>   0.1500 
 42 H        6.1510     2.4070    -1.0790 H     1 <1>   0.1500 
 43 H        3.0030     3.4130     1.6680 H     1 <1>   0.1500 
 44 H        3.2730     5.7870     1.1020 H     1 <1>   0.1500 
 45 H        7.2580     4.6990    -2.4110 H     1 <1>   0.1500 
 46 H        6.6570     7.3050    -2.2200 H     1 <1>   0.1500 
 47 H        4.7290     8.6440    -1.2420 H     1 <1>   0.0800 
 48 H        3.5420     7.8190    -0.2670 H     1 <1>   0.0800 
 49 H        6.3100     8.6570     0.6740 H     1 <1>   0.0800 
 50 H        5.1190     7.8310     1.6610 H     1 <1>   0.0800 
 51 H        4.8170     9.4560     1.0980 H     1 <1>   0.0800 
@<TRIPOS>BOND
  1   1   2  1   
  2   1  26  1   
  3   2   3  1   
  4   2   4  1   
  5   2  27  1   
  6   3   5  1   
  7   3   6  1   
  8   3  28  1   
  9   4   7  1   
 10   4  29  1   
 11   4  30  1   
 12   5   7  1   
 13   5  31  1   
 14   5  32  1   
 15   6   8  1   
 16   6  33  1   
 17   6  34  1   
 18   7   9  1   
 19   7  35  1   
 20   8  10  ar  
 21   8  11  ar  
 22   9  12  1   
 23   9  36  1   
 24   9  37  1   
 25  10  13  ar  
 26  10  38  1   
 27  11  14  ar  
 28  11  39  1   
 29  12  15  ar  
 30  12  16  ar  
 31  13  17  ar  
 32  13  40  1   
 33  14  17  ar  
 34  14  41  1   
 35  15  18  ar  
 36  15  42  1   
 37  16  19  ar  
 38  16  43  1   
 39  18  20  ar  
 40  18  21  1   
 41  19  20  ar  
 42  19  44  1   
 43  20  22  1   
 44  21  23  2   
 45  21  45  1   
 46  22  23  1   
 47  22  24  1   
 48  23  46  1   
 49  24  25  1   
 50  24  47  1   
 51  24  48  1   
 52  25  49  1   
 53  25  50  1   
 54  25  51  1   
@<TRIPOS>SUBSTRUCTURE
  1 ****   7 GROUP 4 **** **** 0

# MOE 2024.06 (io_trps.svl 2023.06)
