@<TRIPOS>MOLECULE
NONAME
42 44 1 0 0 
SMALL
USER_CHARGES


@<TRIPOS>ATOM
  1 O       -3.5350    -0.4980     1.7560 O.co2 1 <1>  -0.9000 
  2 C       -3.7420    -1.7030     1.7530 C.2   1 <1>   0.9060 
  3 O       -4.8580    -2.1970     1.5230 O.co2 1 <1>  -0.9000 
  4 C       -2.5680    -2.6280     1.6500 C.3   1 <1>  -0.2660 
  5 C       -2.1770    -2.7360     0.1810 C.3   1 <1>   0.3430 
  6 N       -3.4200    -2.9710    -0.5830 N.4   1 <1>  -0.9590 
  7 C       -3.9170    -1.8580    -1.4160 C.3   1 <1>   0.3430 
  8 C       -3.7150    -4.2090    -1.3000 C.3   1 <1>   0.3430 
  9 C       -5.2850    -2.3910    -1.8400 C.3   1 <1>   0.2000 
 10 C       -5.0960    -3.9310    -1.9210 C.3   1 <1>  -0.0800 
 11 O       -6.2100    -2.0400    -0.8570 O.3   1 <1>  -0.6800 
 12 C       -6.2360    -4.7750    -1.2960 C.3   1 <1>  -0.0170 
 13 C       -5.8360    -6.2390    -1.1450 C.ar  1 <1>  -0.1440 
 14 C       -5.2790    -6.7610     0.0500 C.ar  1 <1>   0.0000 
 15 C       -6.0040    -7.0960    -2.1930 C.ar  1 <1>  -0.1500 
 16 C       -4.9060    -8.1280     0.0540 C.ar  1 <1>   0.3100 
 17 C       -5.0580    -6.0140     1.2340 C.ar  1 <1>  -0.1500 
 18 C       -5.6120    -8.4350    -2.0780 C.ar  1 <1>   0.1600 
 19 N       -5.0740    -8.9440    -1.0160 N.ar  1 <1>  -0.6200 
 20 C       -4.3260    -8.6740     1.2100 C.ar  1 <1>  -0.1500 
 21 C       -4.4910    -6.5780     2.3440 C.ar  1 <1>  -0.1500 
 22 C       -4.1170    -7.9240     2.3350 C.ar  1 <1>  -0.1500 
 23 H       -1.7550    -2.2270     2.2230 H     1 <1>   0.0800 
 24 H       -2.8340    -3.5890     2.0470 H     1 <1>   0.0800 
 25 H       -1.4750    -3.5400     0.0330 H     1 <1>   0.0800 
 26 H       -1.7270    -1.8080    -0.1330 H     1 <1>   0.0800 
 27 H       -4.1380    -2.9620     0.1810 H     1 <1>   0.4500 
 28 H       -4.0110    -0.9420    -0.8520 H     1 <1>   0.0800 
 29 H       -3.2770    -1.7140    -2.2690 H     1 <1>   0.0800 
 30 H       -2.9820    -4.3710    -2.0730 H     1 <1>   0.0800 
 31 H       -3.7210    -5.0510    -0.6310 H     1 <1>   0.0800 
 32 H       -5.6180    -1.9640    -2.7700 H     1 <1>   0.0800 
 33 H       -5.0200    -4.2100    -2.9560 H     1 <1>   0.0800 
 34 H       -5.8180    -2.0180     0.0690 H     1 <1>   0.4000 
 35 H       -7.1020    -4.7040    -1.9320 H     1 <1>   0.0800 
 36 H       -6.5460    -4.3940    -0.3410 H     1 <1>   0.0800 
 37 H       -6.4350    -6.7730    -3.1230 H     1 <1>   0.1500 
 38 H       -5.3400    -4.9780     1.2870 H     1 <1>   0.1500 
 39 H       -5.7630    -9.0800    -2.9270 H     1 <1>   0.1500 
 40 H       -4.0520    -9.7130     1.1810 H     1 <1>   0.1500 
 41 H       -4.3340    -5.9960     3.2370 H     1 <1>   0.1500 
 42 H       -3.6740    -8.3560     3.2150 H     1 <1>   0.1500 
@<TRIPOS>BOND
  1   1   2  ar  
  2   2   3  ar  
  3   2   4  1   
  4   4   5  1   
  5   4  23  1   
  6   4  24  1   
  7   5   6  1   
  8   5  25  1   
  9   5  26  1   
 10   6   7  1   
 11   6   8  1   
 12   6  27  1   
 13   7   9  1   
 14   7  28  1   
 15   7  29  1   
 16   8  10  1   
 17   8  30  1   
 18   8  31  1   
 19   9  10  1   
 20   9  11  1   
 21   9  32  1   
 22  10  12  1   
 23  10  33  1   
 24  11  34  1   
 25  12  13  1   
 26  12  35  1   
 27  12  36  1   
 28  13  14  ar  
 29  13  15  ar  
 30  14  16  ar  
 31  14  17  ar  
 32  15  18  ar  
 33  15  37  1   
 34  16  19  ar  
 35  16  20  ar  
 36  17  21  ar  
 37  17  38  1   
 38  18  19  ar  
 39  18  39  1   
 40  20  22  ar  
 41  20  40  1   
 42  21  22  ar  
 43  21  41  1   
 44  22  42  1   
@<TRIPOS>SUBSTRUCTURE
  1 ****   8 GROUP 4 **** **** 0

# MOE 2024.06 (io_trps.svl 2023.06)
