@<TRIPOS>MOLECULE
NONAME
53 56 1 0 0 
SMALL
USER_CHARGES


@<TRIPOS>ATOM
  1 O        0.5820     4.2610    -1.2550 O.3   1 <1>  -0.0190 
  2 N        1.4680     4.5830    -2.1450 N.2   1 <1>  -0.4100 
  3 C        0.8250     3.0940    -0.7270 C.2   1 <1>  -0.0400 
  4 C        2.2530     3.5710    -2.2540 C.2   1 <1>   0.1080 
  5 C        1.8910     2.5730    -1.3530 C.2   1 <1>  -0.1500 
  6 C       -0.0250     2.5980     0.4300 C.3   1 <1>   0.0200 
  7 C        3.4100     3.4930    -3.2270 C.3   1 <1>  -0.0590 
  8 C        0.0650     3.5100     1.6810 C.3   1 <1>  -0.0800 
  9 C       -0.7460     4.8070     1.5380 C.3   1 <1>   0.2000 
 10 C        1.4900     4.0060     1.9540 C.3   1 <1>   0.3430 
 11 O       -1.3750     5.0820     2.7440 O.3   1 <1>  -0.6800 
 12 C        0.2600     5.9280     1.2270 C.3   1 <1>   0.3430 
 13 N        1.6130     5.2840     1.2020 N.4   1 <1>  -0.9590 
 14 C        2.7390     6.1660     1.6100 C.3   1 <1>   0.4860 
 15 C        2.7380     7.4170     0.7630 C.ar  1 <1>  -0.1440 
 16 C        3.0530     7.3950    -0.5760 C.ar  1 <1>   0.1600 
 17 C        2.4200     8.6390     1.3060 C.ar  1 <1>   0.1600 
 18 N        3.0580     8.4800    -1.3060 N.ar  1 <1>  -0.6200 
 19 N        2.4090     9.7350     0.5940 N.ar  1 <1>  -0.6200 
 20 C        2.7570     9.6280    -0.6920 C.ar  1 <1>   0.6200 
 21 C        2.7830    10.8330    -1.4850 C.ar  1 <1>   0.0000 
 22 C        3.8260    11.7600    -1.3700 C.ar  1 <1>   0.0820 
 23 C        1.7590    11.1000    -2.3940 C.ar  1 <1>  -0.1500 
 24 O        4.8260    11.4750    -0.4970 O.3   1 <1>  -0.3630 
 25 C        3.8170    12.9210    -2.1400 C.ar  1 <1>  -0.1500 
 26 C        1.7560    12.2510    -3.1570 C.ar  1 <1>  -0.1500 
 27 C        5.9050    12.3530    -0.2710 C.3   1 <1>   0.0400 
 28 C        2.7860    13.1650    -3.0280 C.ar  1 <1>  -0.1500 
 29 H        2.3880     1.6280    -1.2180 H     1 <1>   0.1500 
 30 H       -1.0490     2.5050     0.1090 H     1 <1>   0.0800 
 31 H        0.3150     1.6110     0.6930 H     1 <1>   0.0800 
 32 H        4.3160     3.2350    -2.7100 H     1 <1>   0.0800 
 33 H        3.5460     4.4410    -3.7170 H     1 <1>   0.0800 
 34 H        3.2060     2.7470    -3.9730 H     1 <1>   0.0800 
 35 H       -0.2930     2.9330     2.5170 H     1 <1>   0.0800 
 36 H       -1.5100     4.7480     0.7800 H     1 <1>   0.0800 
 37 H        2.2290     3.2860     1.6370 H     1 <1>   0.0800 
 38 H        1.6060     4.1940     3.0090 H     1 <1>   0.0800 
 39 H       -0.8250     4.8930     3.5300 H     1 <1>   0.4000 
 40 H        0.2030     6.6860     1.9910 H     1 <1>   0.0800 
 41 H        0.0440     6.3730     0.2680 H     1 <1>   0.0800 
 42 H        1.7600     5.0330     0.2040 H     1 <1>   0.4500 
 43 H        2.6380     6.4330     2.6500 H     1 <1>   0.0800 
 44 H        3.6770     5.6500     1.4830 H     1 <1>   0.0800 
 45 H        3.3070     6.4730    -1.0730 H     1 <1>   0.1500 
 46 H        2.1660     8.7350     2.3490 H     1 <1>   0.1500 
 47 H        0.9580    10.3890    -2.4990 H     1 <1>   0.1500 
 48 H        4.6040    13.6470    -2.0640 H     1 <1>   0.1500 
 49 H        0.9550    12.4370    -3.8510 H     1 <1>   0.1500 
 50 H        6.5460    11.9100     0.4700 H     1 <1>   0.0800 
 51 H        5.5220    13.2910     0.0900 H     1 <1>   0.0800 
 52 H        6.4470    12.4840    -1.1910 H     1 <1>   0.0800 
 53 H        2.7840    14.0630    -3.6210 H     1 <1>   0.1500 
@<TRIPOS>BOND
  1   1   2  1   
  2   1   3  1   
  3   2   4  2   
  4   3   5  2   
  5   3   6  1   
  6   4   5  1   
  7   4   7  1   
  8   5  29  1   
  9   6   8  1   
 10   6  30  1   
 11   6  31  1   
 12   7  32  1   
 13   7  33  1   
 14   7  34  1   
 15   8   9  1   
 16   8  10  1   
 17   8  35  1   
 18   9  11  1   
 19   9  12  1   
 20   9  36  1   
 21  10  13  1   
 22  10  37  1   
 23  10  38  1   
 24  11  39  1   
 25  12  13  1   
 26  12  40  1   
 27  12  41  1   
 28  13  14  1   
 29  13  42  1   
 30  14  15  1   
 31  14  43  1   
 32  14  44  1   
 33  15  16  ar  
 34  15  17  ar  
 35  16  18  ar  
 36  16  45  1   
 37  17  19  ar  
 38  17  46  1   
 39  18  20  ar  
 40  19  20  ar  
 41  20  21  1   
 42  21  22  ar  
 43  21  23  ar  
 44  22  24  1   
 45  22  25  ar  
 46  23  26  ar  
 47  23  47  1   
 48  24  27  1   
 49  25  28  ar  
 50  25  48  1   
 51  26  28  ar  
 52  26  49  1   
 53  27  50  1   
 54  27  51  1   
 55  27  52  1   
 56  28  53  1   
@<TRIPOS>SUBSTRUCTURE
  1 ****  16 GROUP 4 **** **** 0

# MOE 2024.06 (io_trps.svl 2023.06)
