@<TRIPOS>MOLECULE
NONAME
21 21 1 0 0 
SMALL
USER_CHARGES


@<TRIPOS>ATOM
  1 BR       0.1870    -0.1840     0.2310 Br    1 <1>  -0.1110 
  2 C        1.5720     1.0050    -0.3780 C.ar  1 <1>   0.1110 
  3 C        2.6110     0.5050    -1.1380 C.ar  1 <1>   0.1600 
  4 C        1.5030     2.3370    -0.0430 C.ar  1 <1>  -0.1500 
  5 N        3.6020     1.2560    -1.5920 N.ar  1 <1>  -0.6200 
  6 C        2.5300     3.1460    -0.5130 C.ar  1 <1>  -0.1430 
  7 C        3.5340     2.5420    -1.2730 C.ar  1 <1>   0.1600 
  8 C        2.6090     4.6580    -0.2160 C.3   1 <1>   0.3440 
  9 C        2.9540     5.4160    -1.4690 C.1   1 <1>   0.3570 
 10 C        3.7040     4.8870     0.8390 C.3   1 <1>  -0.2400 
 11 C        1.2870     5.2290     0.3330 C.3   1 <1>  -0.2400 
 12 N        3.2320     5.9940    -2.4100 N.1   1 <1>  -0.5570 
 13 H        2.6270    -0.5440    -1.3770 H     1 <1>   0.1500 
 14 H        0.6810     2.6870     0.5540 H     1 <1>   0.1500 
 15 H        4.3440     3.1480    -1.6460 H     1 <1>   0.1500 
 16 H        4.6590     4.5500     0.4750 H     1 <1>   0.0800 
 17 H        3.4760     4.3430     1.7390 H     1 <1>   0.0800 
 18 H        3.7860     5.9320     1.0800 H     1 <1>   0.0800 
 19 H        0.4810     5.0330    -0.3530 H     1 <1>   0.0800 
 20 H        1.3640     6.2950     0.4600 H     1 <1>   0.0800 
 21 H        1.0470     4.8000     1.2890 H     1 <1>   0.0800 
@<TRIPOS>BOND
  1   1   2  1   
  2   2   3  ar  
  3   2   4  ar  
  4   3   5  ar  
  5   3  13  1   
  6   4   6  ar  
  7   4  14  1   
  8   5   7  ar  
  9   6   7  ar  
 10   6   8  1   
 11   7  15  1   
 12   8   9  1   
 13   8  10  1   
 14   8  11  1   
 15   9  12  3   
 16  10  16  1   
 17  10  17  1   
 18  10  18  1   
 19  11  19  1   
 20  11  20  1   
 21  11  21  1   
@<TRIPOS>SUBSTRUCTURE
  1 ****   6 GROUP 4 **** **** 0

# MOE 2024.06 (io_trps.svl 2023.06)
