@<TRIPOS>MOLECULE
NONAME
40 42 1 0 0 
SMALL
USER_CHARGES


@<TRIPOS>ATOM
  1 CL       1.4080     0.7320    -1.7230 Cl    1 <1>  -0.1770 
  2 C        2.2140    -0.3250    -0.5900 C.ar  1 <1>   0.1770 
  3 C        2.9020     0.2180     0.4840 C.ar  1 <1>  -0.1440 
  4 C        2.1640    -1.6890    -0.8030 C.ar  1 <1>  -0.1500 
  5 C        3.5510    -0.6420     1.3600 C.ar  1 <1>  -0.1500 
  6 C        2.9440     1.7170     0.6920 C.3   1 <1>   0.4870 
  7 C        2.8160    -2.5410     0.0710 C.ar  1 <1>  -0.1440 
  8 C        3.5060    -2.0100     1.1500 C.ar  1 <1>  -0.1500 
  9 N        4.2880     2.2190     0.3040 N.4   1 <1>  -0.9590 
 10 C        2.7720    -4.0450    -0.1390 C.3   1 <1>  -0.0970 
 11 C        4.5650     3.5990     0.8460 C.3   1 <1>   0.3430 
 12 C        4.5790     2.0080    -1.1560 C.3   1 <1>   0.3430 
 13 C        6.0370     4.0820     0.7100 C.3   1 <1>   0.2200 
 14 C        6.0630     2.1460    -1.5270 C.3   1 <1>  -0.0190 
 15 N        6.3340     4.4510    -0.6930 N.am  1 <1>  -0.7300 
 16 C        7.0780     3.0580     1.2300 C.3   1 <1>   0.1200 
 17 C        6.3720     3.6040    -1.7350 C.2   1 <1>   0.5690 
 18 C        7.0840     1.4800    -0.5770 C.3   1 <1>   0.1200 
 19 O        6.8360     1.7490     0.7780 O.3   1 <1>  -0.5600 
 20 O        6.6220     4.0080    -2.8370 O.2   1 <1>  -0.5700 
 21 H        1.6180    -2.0750    -1.6460 H     1 <1>   0.1500 
 22 H        4.0930    -0.2660     2.2120 H     1 <1>   0.1500 
 23 H        2.7580     1.9280     1.7330 H     1 <1>   0.0800 
 24 H        2.1800     2.2040     0.1080 H     1 <1>   0.0800 
 25 H        4.0110    -2.6700     1.8370 H     1 <1>   0.1500 
 26 H        4.9890     1.6110     0.7730 H     1 <1>   0.4500 
 27 H        3.7220    -4.4860     0.1030 H     1 <1>   0.0800 
 28 H        2.5410    -4.2810    -1.1630 H     1 <1>   0.0800 
 29 H        2.0180    -4.4790     0.4920 H     1 <1>   0.0800 
 30 H        3.9230     4.3160     0.3610 H     1 <1>   0.0800 
 31 H        4.3210     3.6050     1.8950 H     1 <1>   0.0800 
 32 H        4.2760     1.0110    -1.4280 H     1 <1>   0.0800 
 33 H        3.9970     2.6940    -1.7510 H     1 <1>   0.0800 
 34 H        6.1440     4.9790     1.2960 H     1 <1>   0.0800 
 35 H        6.1870     1.6820    -2.4890 H     1 <1>   0.0800 
 36 H        6.6060     5.4210    -0.8930 H     1 <1>   0.3700 
 37 H        7.0340     3.0240     2.3040 H     1 <1>   0.0800 
 38 H        8.0780     3.3480     0.9510 H     1 <1>   0.0800 
 39 H        8.0890     1.7900    -0.8140 H     1 <1>   0.0800 
 40 H        7.0320     0.4110    -0.6940 H     1 <1>   0.0800 
@<TRIPOS>BOND
  1   1   2  1   
  2   2   3  ar  
  3   2   4  ar  
  4   3   5  ar  
  5   3   6  1   
  6   4   7  ar  
  7   4  21  1   
  8   5   8  ar  
  9   5  22  1   
 10   6   9  1   
 11   6  23  1   
 12   6  24  1   
 13   7   8  ar  
 14   7  10  1   
 15   8  25  1   
 16   9  11  1   
 17   9  12  1   
 18   9  26  1   
 19  10  27  1   
 20  10  28  1   
 21  10  29  1   
 22  11  13  1   
 23  11  30  1   
 24  11  31  1   
 25  12  14  1   
 26  12  32  1   
 27  12  33  1   
 28  13  15  1   
 29  13  16  1   
 30  13  34  1   
 31  14  17  1   
 32  14  18  1   
 33  14  35  1   
 34  15  17  am  
 35  15  36  1   
 36  16  19  1   
 37  16  37  1   
 38  16  38  1   
 39  17  20  2   
 40  18  19  1   
 41  18  39  1   
 42  18  40  1   
@<TRIPOS>SUBSTRUCTURE
  1 ****   9 GROUP 4 **** **** 0

# MOE 2024.06 (io_trps.svl 2023.06)
