@<TRIPOS>MOLECULE
NONAME
29 30 1 0 0 
SMALL
USER_CHARGES


@<TRIPOS>ATOM
  1 O        0.2160     3.9930    -0.5270 O.3   1 <1>  -0.6800 
  2 C       -0.8550     3.1370    -0.3370 C.3   1 <1>   0.1200 
  3 C       -2.1370     3.8610    -0.7520 C.3   1 <1>   0.0200 
  4 C       -3.3460     2.9410    -0.6520 C.2   1 <1>  -0.3320 
  5 N       -3.6310     1.9690    -1.5410 N.pl3 1 <1>   0.3000 
  6 C       -4.3230     2.9190     0.2780 C.2   1 <1>  -0.1500 
  7 N       -4.7670     1.3120    -1.2100 N.2   1 <1>  -0.7070 
  8 C       -5.1730     1.8930    -0.1170 C.2   1 <1>   0.1080 
  9 C       -6.4430     1.4950     0.6290 C.3   1 <1>   0.1010 
 10 C       -6.6110    -0.0160     0.5580 C.3   1 <1>   0.3430 
 11 C       -7.6830     2.0050    -0.1130 C.3   1 <1>  -0.1600 
 12 N       -7.1440    -0.2270    -0.8070 N.4   1 <1>  -0.9060 
 13 C       -8.0720     0.8940    -1.0910 C.3   1 <1>   0.3430 
 14 H        1.0500     3.5840    -0.2230 H     1 <1>   0.4000 
 15 H       -0.8960     2.8630     0.7040 H     1 <1>   0.0800 
 16 H       -0.6950     2.2580    -0.9380 H     1 <1>   0.0800 
 17 H       -2.0400     4.2210    -1.7620 H     1 <1>   0.0800 
 18 H       -2.2810     4.7080    -0.1040 H     1 <1>   0.0800 
 19 H       -3.0770     1.7430    -2.3790 H     1 <1>   0.2700 
 20 H       -4.4350     3.5530     1.1420 H     1 <1>   0.1500 
 21 H       -6.4010     1.8440     1.6460 H     1 <1>   0.0800 
 22 H       -7.3250    -0.3470     1.2950 H     1 <1>   0.0800 
 23 H       -5.6690    -0.5210     0.7010 H     1 <1>   0.0800 
 24 H       -7.4880     2.9280    -0.6310 H     1 <1>   0.0800 
 25 H       -8.4920     2.1660     0.5770 H     1 <1>   0.0800 
 26 H       -7.5190    -1.1640    -0.9900 H     1 <1>   0.4500 
 27 H       -6.3130    -0.0670    -1.4140 H     1 <1>   0.4500 
 28 H       -7.9590     1.2240    -2.1120 H     1 <1>   0.0800 
 29 H       -9.0940     0.5930    -0.9230 H     1 <1>   0.0800 
@<TRIPOS>BOND
  1   1   2  1   
  2   1  14  1   
  3   2   3  1   
  4   2  15  1   
  5   2  16  1   
  6   3   4  1   
  7   3  17  1   
  8   3  18  1   
  9   4   5  1   
 10   4   6  2   
 11   5   7  1   
 12   5  19  1   
 13   6   8  1   
 14   6  20  1   
 15   7   8  2   
 16   8   9  1   
 17   9  10  1   
 18   9  11  1   
 19   9  21  1   
 20  10  12  1   
 21  10  22  1   
 22  10  23  1   
 23  11  13  1   
 24  11  24  1   
 25  11  25  1   
 26  12  13  1   
 27  12  26  1   
 28  12  27  1   
 29  13  28  1   
 30  13  29  1   
@<TRIPOS>SUBSTRUCTURE
  1 ****   8 GROUP 4 **** **** 0

# MOE 2024.06 (io_trps.svl 2023.06)
