@<TRIPOS>MOLECULE
NONAME
44 45 1 0 0 
SMALL
USER_CHARGES


@<TRIPOS>ATOM
  1 N       -0.8400    -0.2150     0.1430 N.ar  1 <1>  -0.6200 
  2 C       -1.7780     0.7030     0.2370 C.ar  1 <1>   0.4100 
  3 C        0.3470     0.2050    -0.2380 C.ar  1 <1>   0.4760 
  4 N       -3.0250     0.2810     0.6350 N.pl3 1 <1>  -0.8690 
  5 C       -1.5220     2.0380    -0.0550 C.ar  1 <1>  -0.1430 
  6 N        0.7140     1.4360    -0.5350 N.ar  1 <1>  -0.6200 
  7 C        1.4230    -0.8480    -0.3440 C.3   1 <1>  -0.0970 
  8 C       -3.3050    -1.0710     1.1980 C.3   1 <1>   0.2090 
  9 C       -0.2380     2.3420    -0.4390 C.ar  1 <1>   0.1600 
 10 C       -2.6400     3.0810     0.0550 C.3   1 <1>  -0.0170 
 11 C       -3.4880    -2.1060     0.0830 C.3   1 <1>   0.2090 
 12 C       -2.2480     4.5120    -0.3430 C.3   1 <1>  -0.1600 
 13 N       -3.9470    -3.4020     0.6490 N.pl3 1 <1>  -0.8690 
 14 C       -3.4360     5.4720    -0.2140 C.3   1 <1>  -0.2400 
 15 C       -4.9210    -4.0890    -0.0180 C.ar  1 <1>   0.4100 
 16 N       -4.4580    -5.1730    -0.6150 N.ar  1 <1>  -0.6200 
 17 C       -6.2620    -3.6800    -0.0520 C.ar  1 <1>  -0.1430 
 18 C       -5.3450    -5.8760    -1.2950 C.ar  1 <1>   0.1600 
 19 C       -7.1650    -4.4300    -0.7720 C.ar  1 <1>  -0.1500 
 20 C       -6.7470    -2.4460     0.6970 C.3   1 <1>  -0.0970 
 21 C       -6.6850    -5.5560    -1.4100 C.ar  1 <1>  -0.1500 
 22 H       -3.7040     1.0000     0.8810 H     1 <1>   0.4000 
 23 H        0.9820    -1.8170    -0.4880 H     1 <1>   0.0800 
 24 H        2.0020    -0.8540     0.5590 H     1 <1>   0.0800 
 25 H        2.0670    -0.6310    -1.1760 H     1 <1>   0.0800 
 26 H       -4.2030    -1.0250     1.7890 H     1 <1>   0.0800 
 27 H       -2.4910    -1.3740     1.8350 H     1 <1>   0.0800 
 28 H        0.0450     3.3510    -0.6800 H     1 <1>   0.1500 
 29 H       -2.9910     3.0930     1.0720 H     1 <1>   0.0800 
 30 H       -3.4570     2.7650    -0.5720 H     1 <1>   0.0800 
 31 H       -2.5510    -2.2530    -0.4260 H     1 <1>   0.0800 
 32 H       -4.2070    -1.7420    -0.6300 H     1 <1>   0.0800 
 33 H       -1.9030     4.5210    -1.3630 H     1 <1>   0.0800 
 34 H       -1.4510     4.8590     0.2910 H     1 <1>   0.0800 
 35 H       -3.1490    -4.0350     0.7520 H     1 <1>   0.4000 
 36 H       -4.2430     5.1640    -0.8550 H     1 <1>   0.0800 
 37 H       -3.1370     6.4660    -0.4970 H     1 <1>   0.0800 
 38 H       -3.7900     5.5000     0.8020 H     1 <1>   0.0800 
 39 H       -4.9830    -6.7600    -1.7910 H     1 <1>   0.1500 
 40 H       -8.2040    -4.1610    -0.8380 H     1 <1>   0.1500 
 41 H       -6.3140    -2.4220     1.6810 H     1 <1>   0.0800 
 42 H       -7.8170    -2.4580     0.8010 H     1 <1>   0.0800 
 43 H       -6.4620    -1.5570     0.1660 H     1 <1>   0.0800 
 44 H       -7.3440    -6.1800    -1.9850 H     1 <1>   0.1500 
@<TRIPOS>BOND
  1   1   2  ar  
  2   1   3  ar  
  3   2   4  1   
  4   2   5  ar  
  5   3   6  ar  
  6   3   7  1   
  7   4   8  1   
  8   4  22  1   
  9   5   9  ar  
 10   5  10  1   
 11   6   9  ar  
 12   7  23  1   
 13   7  24  1   
 14   7  25  1   
 15   8  11  1   
 16   8  26  1   
 17   8  27  1   
 18   9  28  1   
 19  10  12  1   
 20  10  29  1   
 21  10  30  1   
 22  11  13  1   
 23  11  31  1   
 24  11  32  1   
 25  12  14  1   
 26  12  33  1   
 27  12  34  1   
 28  13  15  1   
 29  13  35  1   
 30  14  36  1   
 31  14  37  1   
 32  14  38  1   
 33  15  16  ar  
 34  15  17  ar  
 35  16  18  ar  
 36  17  19  ar  
 37  17  20  1   
 38  18  21  ar  
 39  18  39  1   
 40  19  21  ar  
 41  19  40  1   
 42  20  41  1   
 43  20  42  1   
 44  20  43  1   
 45  21  44  1   
@<TRIPOS>SUBSTRUCTURE
  1 ****  11 GROUP 4 **** **** 0

# MOE 2024.06 (io_trps.svl 2023.06)
