@<TRIPOS>MOLECULE
NONAME
41 43 1 0 0 
SMALL
USER_CHARGES


@<TRIPOS>ATOM
  1 O       -0.6690     0.3400     1.5560 O.2   1 <1>  -0.5700 
  2 C       -1.5720     0.9670     1.0400 C.2   1 <1>   0.5440 
  3 N       -2.6970     0.2870     0.6280 N.am  1 <1>  -0.6600 
  4 C       -1.4390     2.3940     0.8550 C.ar  1 <1>   0.0860 
  5 C       -3.6690     0.7880    -0.3810 C.3   1 <1>   0.1400 
  6 C       -2.8260    -1.1880     0.7710 C.3   1 <1>   0.1400 
  7 C       -2.4190     3.2720     1.3110 C.ar  1 <1>   0.1600 
  8 C       -0.3370     2.9510     0.2220 C.ar  1 <1>  -0.1500 
  9 C       -4.6570    -0.3630    -0.5700 C.3   1 <1>   0.2000 
 10 C       -3.8090    -1.6140    -0.3250 C.3   1 <1>  -0.0800 
 11 N       -2.4100     4.5870     1.1660 N.ar  1 <1>  -0.6200 
 12 C       -0.2920     4.3200     0.0660 C.ar  1 <1>  -0.1430 
 13 O       -5.6300    -0.2610     0.4140 O.3   1 <1>  -0.6800 
 14 C       -4.6100    -2.8860     0.0130 C.3   1 <1>   0.0200 
 15 C       -1.3480     5.0800     0.5480 C.ar  1 <1>   0.1600 
 16 C        0.8920     4.9780    -0.6220 C.3   1 <1>  -0.0970 
 17 C       -3.7420    -4.1300     0.1110 C.2   1 <1>  -0.0400 
 18 O       -4.2890    -5.2440     0.5190 O.3   1 <1>  -0.0190 
 19 C       -2.4470    -4.3830    -0.1440 C.2   1 <1>  -0.1500 
 20 N       -3.4340    -6.2240     0.5550 N.2   1 <1>  -0.4100 
 21 C       -2.3140    -5.7340     0.1610 C.2   1 <1>   0.1080 
 22 C       -1.0310    -6.5270     0.0480 C.3   1 <1>  -0.0590 
 23 H       -4.1710     1.6840    -0.0580 H     1 <1>   0.0800 
 24 H       -3.1490     0.9790    -1.3040 H     1 <1>   0.0800 
 25 H       -1.8710    -1.6710     0.6550 H     1 <1>   0.0800 
 26 H       -3.2160    -1.4110     1.7490 H     1 <1>   0.0800 
 27 H       -3.2630     2.8520     1.8290 H     1 <1>   0.1500 
 28 H        0.4570     2.3140    -0.1300 H     1 <1>   0.1500 
 29 H       -5.1410    -0.3520    -1.5320 H     1 <1>   0.0800 
 30 H       -3.2410    -1.7990    -1.2200 H     1 <1>   0.0800 
 31 H       -5.1950    -0.1320     1.2800 H     1 <1>   0.4000 
 32 H       -5.3550    -3.0510    -0.7450 H     1 <1>   0.0800 
 33 H       -5.1250    -2.7600     0.9500 H     1 <1>   0.0800 
 34 H       -1.3180     6.1490     0.4230 H     1 <1>   0.1500 
 35 H        1.7840     4.3950    -0.4760 H     1 <1>   0.0800 
 36 H        1.0630     5.9620    -0.2220 H     1 <1>   0.0800 
 37 H        0.7010     5.0620    -1.6780 H     1 <1>   0.0800 
 38 H       -1.6650    -3.7380    -0.4980 H     1 <1>   0.1500 
 39 H       -0.6810    -6.5120    -0.9670 H     1 <1>   0.0800 
 40 H       -1.2030    -7.5460     0.3430 H     1 <1>   0.0800 
 41 H       -0.2820    -6.1000     0.6890 H     1 <1>   0.0800 
@<TRIPOS>BOND
  1   1   2  2   
  2   2   3  am  
  3   2   4  1   
  4   3   5  1   
  5   3   6  1   
  6   4   7  ar  
  7   4   8  ar  
  8   5   9  1   
  9   5  23  1   
 10   5  24  1   
 11   6  10  1   
 12   6  25  1   
 13   6  26  1   
 14   7  11  ar  
 15   7  27  1   
 16   8  12  ar  
 17   8  28  1   
 18   9  10  1   
 19   9  13  1   
 20   9  29  1   
 21  10  14  1   
 22  10  30  1   
 23  11  15  ar  
 24  12  15  ar  
 25  12  16  1   
 26  13  31  1   
 27  14  17  1   
 28  14  32  1   
 29  14  33  1   
 30  15  34  1   
 31  16  35  1   
 32  16  36  1   
 33  16  37  1   
 34  17  18  1   
 35  17  19  2   
 36  18  20  1   
 37  19  21  1   
 38  19  38  1   
 39  20  21  2   
 40  21  22  1   
 41  22  39  1   
 42  22  40  1   
 43  22  41  1   
@<TRIPOS>SUBSTRUCTURE
  1 ****   3 GROUP 4 **** **** 0

# MOE 2024.06 (io_trps.svl 2023.06)
