@<TRIPOS>MOLECULE
NONAME
45 48 1 0 0 
SMALL
USER_CHARGES


@<TRIPOS>ATOM
  1 O       -0.0590    -0.6370    -0.5810 O.2   1 <1>  -0.5700 
  2 C       -0.1270    -1.8190    -0.3550 C.2   1 <1>   0.5690 
  3 N       -1.2450    -2.3640     0.1810 N.am  1 <1>  -0.5470 
  4 C        1.0620    -2.7370    -0.6360 C.3   1 <1>   0.1810 
  5 C       -1.3740    -3.7340     0.3940 C.ar  1 <1>   0.1170 
  6 O        0.7110    -4.1210    -0.7440 O.3   1 <1>  -0.3630 
  7 C       -0.3790    -4.5960    -0.0770 C.ar  1 <1>   0.0830 
  8 C       -2.4660    -4.2720     1.0580 C.ar  1 <1>  -0.1500 
  9 C       -0.4880    -5.9590     0.1130 C.ar  1 <1>  -0.1500 
 10 C       -2.5650    -5.6390     1.2450 C.ar  1 <1>  -0.1500 
 11 C       -1.5850    -6.5150     0.7710 C.ar  1 <1>   0.0860 
 12 C       -1.6850    -7.9480     0.9590 C.2   1 <1>   0.5440 
 13 O       -0.7600    -8.5550     1.4620 O.2   1 <1>  -0.5700 
 14 N       -2.8000    -8.6570     0.5680 N.am  1 <1>  -0.6600 
 15 C       -3.8000    -8.1780    -0.4230 C.3   1 <1>   0.1400 
 16 C       -2.8860   -10.1350     0.7050 C.3   1 <1>   0.1400 
 17 C       -4.7630    -9.3530    -0.5980 C.3   1 <1>   0.2000 
 18 C       -3.8780   -10.5830    -0.3750 C.3   1 <1>  -0.0800 
 19 O       -5.7170    -9.2800     0.4060 O.3   1 <1>  -0.6800 
 20 C       -4.6380   -11.8780    -0.0290 C.3   1 <1>   0.0200 
 21 C       -3.7350   -13.0980     0.0450 C.2   1 <1>  -0.0400 
 22 O       -4.2440   -14.2290     0.4560 O.3   1 <1>  -0.0190 
 23 C       -2.4380   -13.3130    -0.2330 C.2   1 <1>  -0.1500 
 24 N       -3.3610   -15.1850     0.4710 N.2   1 <1>  -0.4100 
 25 C       -2.2630   -14.6620     0.0610 C.2   1 <1>   0.1080 
 26 C       -0.9610   -15.4180    -0.0790 C.3   1 <1>  -0.0590 
 27 H       -2.0080    -1.7210     0.3930 H     1 <1>   0.3700 
 28 H        1.7730    -2.6440     0.1630 H     1 <1>   0.0800 
 29 H        1.5320    -2.4470    -1.5580 H     1 <1>   0.0800 
 30 H       -3.2360    -3.6210     1.4330 H     1 <1>   0.1500 
 31 H        0.2900    -6.6070    -0.2500 H     1 <1>   0.1500 
 32 H       -3.4100    -6.0440     1.7740 H     1 <1>   0.1500 
 33 H       -4.3160    -7.2960    -0.0880 H     1 <1>   0.0800 
 34 H       -3.3000    -7.9730    -1.3540 H     1 <1>   0.0800 
 35 H       -1.9200   -10.5910     0.5680 H     1 <1>   0.0800 
 36 H       -3.2510   -10.3730     1.6890 H     1 <1>   0.0800 
 37 H       -5.2660    -9.3510    -1.5500 H     1 <1>   0.0800 
 38 H       -3.3220   -10.7470    -1.2810 H     1 <1>   0.0800 
 39 H       -5.2640    -9.1540     1.2640 H     1 <1>   0.4000 
 40 H       -5.3920   -12.0590    -0.7750 H     1 <1>   0.0800 
 41 H       -5.1380   -11.7700     0.9170 H     1 <1>   0.0800 
 42 H       -1.6800   -12.6450    -0.5970 H     1 <1>   0.1500 
 43 H       -0.6330   -15.3940    -1.1020 H     1 <1>   0.0800 
 44 H       -1.0970   -16.4420     0.2190 H     1 <1>   0.0800 
 45 H       -0.2100   -14.9710     0.5460 H     1 <1>   0.0800 
@<TRIPOS>BOND
  1   1   2  2   
  2   2   3  am  
  3   2   4  1   
  4   3   5  1   
  5   3  27  1   
  6   4   6  1   
  7   4  28  1   
  8   4  29  1   
  9   5   7  ar  
 10   5   8  ar  
 11   6   7  1   
 12   7   9  ar  
 13   8  10  ar  
 14   8  30  1   
 15   9  11  ar  
 16   9  31  1   
 17  10  11  ar  
 18  10  32  1   
 19  11  12  1   
 20  12  13  2   
 21  12  14  am  
 22  14  15  1   
 23  14  16  1   
 24  15  17  1   
 25  15  33  1   
 26  15  34  1   
 27  16  18  1   
 28  16  35  1   
 29  16  36  1   
 30  17  18  1   
 31  17  19  1   
 32  17  37  1   
 33  18  20  1   
 34  18  38  1   
 35  19  39  1   
 36  20  21  1   
 37  20  40  1   
 38  20  41  1   
 39  21  22  1   
 40  21  23  2   
 41  22  24  1   
 42  23  25  1   
 43  23  42  1   
 44  24  25  2   
 45  25  26  1   
 46  26  43  1   
 47  26  44  1   
 48  26  45  1   
@<TRIPOS>SUBSTRUCTURE
  1 ****  14 GROUP 4 **** **** 0

# MOE 2024.06 (io_trps.svl 2023.06)
