@<TRIPOS>MOLECULE
NONAME
52 54 1 0 0 
SMALL
USER_CHARGES


@<TRIPOS>ATOM
  1 CL      -0.7330    -0.0970     0.1410 Cl    1 <1>  -0.1770 
  2 C       -2.1550     0.7620     0.6920 C.ar  1 <1>   0.1770 
  3 C       -3.2270     0.0300     1.1970 C.ar  1 <1>   0.0860 
  4 C       -2.1790     2.1490     0.5970 C.ar  1 <1>  -0.1440 
  5 C       -4.3370     0.7660     1.5920 C.ar  1 <1>   0.1900 
  6 C       -3.1940    -1.4050     1.3040 C.2   1 <1>   0.5440 
  7 C       -3.3100     2.8380     1.0140 C.ar  1 <1>  -0.1500 
  8 C       -0.9860     2.9210     0.0470 C.3   1 <1>  -0.0970 
  9 F       -5.3870     0.1400     2.0490 F     1 <1>  -0.1900 
 10 C       -4.3980     2.1440     1.5130 C.ar  1 <1>  -0.1500 
 11 O       -2.8370    -1.9100     2.3490 O.2   1 <1>  -0.5700 
 12 N       -3.5590    -2.2080     0.2490 N.am  1 <1>  -0.6600 
 13 C       -3.5900    -3.7060     0.3860 C.3   1 <1>   0.3640 
 14 C       -4.0400    -1.6510    -1.0540 C.3   1 <1>   0.1400 
 15 C       -2.3220    -4.3690    -0.1830 C.ar  1 <1>  -0.1430 
 16 C       -4.8820    -4.3080    -0.2560 C.3   1 <1>   0.2000 
 17 C       -4.5100    -2.7500    -2.0190 C.3   1 <1>   0.1200 
 18 C       -2.1420    -5.7290     0.0400 C.ar  1 <1>  -0.1500 
 19 C       -1.3420    -3.6840    -0.8950 C.ar  1 <1>  -0.1500 
 20 O       -5.4010    -3.5920    -1.3590 O.3   1 <1>  -0.5600 
 21 C       -6.0140    -4.4050     0.7730 C.3   1 <1>   0.1200 
 22 C       -1.0370    -6.4020    -0.4530 C.ar  1 <1>   0.0830 
 23 C       -0.2220    -4.3400    -1.3760 C.ar  1 <1>  -0.1500 
 24 O       -5.7610    -5.4420     1.6690 O.3   1 <1>  -0.6800 
 25 O       -0.9720    -7.7380    -0.2290 O.3   1 <1>  -0.3630 
 26 C       -0.0530    -5.6940    -1.1500 C.ar  1 <1>   0.0830 
 27 C       -0.9710    -8.5720    -1.3670 C.3   1 <1>   0.0400 
 28 O        1.0830    -6.2710    -1.6100 O.3   1 <1>  -0.3630 
 29 C        2.0000    -6.6930    -0.6250 C.3   1 <1>   0.0400 
 30 H       -3.3490     3.9130     0.9520 H     1 <1>   0.1500 
 31 H       -1.1690     3.9800     0.0590 H     1 <1>   0.0800 
 32 H       -0.7880     2.6220    -0.9670 H     1 <1>   0.0800 
 33 H       -0.1130     2.7220     0.6430 H     1 <1>   0.0800 
 34 H       -5.2830     2.6630     1.8390 H     1 <1>   0.1500 
 35 H       -3.6060    -3.9600     1.4330 H     1 <1>   0.0800 
 36 H       -4.8650    -0.9850    -0.8700 H     1 <1>   0.0800 
 37 H       -3.2490    -1.0880    -1.5180 H     1 <1>   0.0800 
 38 H       -4.6750    -5.2980    -0.6170 H     1 <1>   0.0800 
 39 H       -3.6840    -3.3330    -2.3890 H     1 <1>   0.0800 
 40 H       -5.0250    -2.3140    -2.8560 H     1 <1>   0.0800 
 41 H       -2.8650    -6.2900     0.6050 H     1 <1>   0.1500 
 42 H       -1.4250    -2.6290    -1.0760 H     1 <1>   0.1500 
 43 H       -6.9530    -4.6060     0.2880 H     1 <1>   0.0800 
 44 H       -6.0860    -3.4890     1.3350 H     1 <1>   0.0800 
 45 H        0.5320    -3.8000    -1.9190 H     1 <1>   0.1500 
 46 H       -5.9630    -6.3080     1.2630 H     1 <1>   0.4000 
 47 H       -1.0910    -9.5890    -1.0380 H     1 <1>   0.0800 
 48 H       -0.0380    -8.4650    -1.8880 H     1 <1>   0.0800 
 49 H       -1.7910    -8.2910    -2.0040 H     1 <1>   0.0800 
 50 H        2.8800    -7.0610    -1.1200 H     1 <1>   0.0800 
 51 H        1.5550    -7.4740    -0.0360 H     1 <1>   0.0800 
 52 H        2.2500    -5.8520    -0.0020 H     1 <1>   0.0800 
@<TRIPOS>BOND
  1   1   2  1   
  2   2   3  ar  
  3   2   4  ar  
  4   3   5  ar  
  5   3   6  1   
  6   4   7  ar  
  7   4   8  1   
  8   5   9  1   
  9   5  10  ar  
 10   6  11  2   
 11   6  12  am  
 12   7  10  ar  
 13   7  30  1   
 14   8  31  1   
 15   8  32  1   
 16   8  33  1   
 17  10  34  1   
 18  12  13  1   
 19  12  14  1   
 20  13  15  1   
 21  13  16  1   
 22  13  35  1   
 23  14  17  1   
 24  14  36  1   
 25  14  37  1   
 26  15  18  ar  
 27  15  19  ar  
 28  16  20  1   
 29  16  21  1   
 30  16  38  1   
 31  17  20  1   
 32  17  39  1   
 33  17  40  1   
 34  18  22  ar  
 35  18  41  1   
 36  19  23  ar  
 37  19  42  1   
 38  21  24  1   
 39  21  43  1   
 40  21  44  1   
 41  22  25  1   
 42  22  26  ar  
 43  23  26  ar  
 44  23  45  1   
 45  24  46  1   
 46  25  27  1   
 47  26  28  1   
 48  27  47  1   
 49  27  48  1   
 50  27  49  1   
 51  28  29  1   
 52  29  50  1   
 53  29  51  1   
 54  29  52  1   
@<TRIPOS>SUBSTRUCTURE
  1 ****  12 GROUP 4 **** **** 0

# MOE 2024.06 (io_trps.svl 2023.06)
