@<TRIPOS>MOLECULE
NONAME
49 51 1 0 0 
SMALL
USER_CHARGES


@<TRIPOS>ATOM
  1 CL      -1.9660     2.0120     2.9170 Cl    1 <1>  -0.1770 
  2 C       -1.5910     2.9910     1.5240 C.ar  1 <1>   0.1770 
  3 C       -0.3100     3.4980     1.3840 C.ar  1 <1>  -0.1500 
  4 C       -2.5750     3.2410     0.5840 C.ar  1 <1>  -0.1500 
  5 C       -0.0040     4.2810     0.2800 C.ar  1 <1>  -0.1440 
  6 C       -2.2720     4.0240    -0.5160 C.ar  1 <1>  -0.1500 
  7 C       -0.9950     4.5470    -0.6560 C.ar  1 <1>   0.0830 
  8 C        1.3870     4.8290     0.0650 C.3   1 <1>   0.4870 
  9 O       -0.7200     5.3230    -1.7220 O.3   1 <1>  -0.3630 
 10 N        1.3410     6.3060     0.2210 N.4   1 <1>  -0.9590 
 11 C       -0.5440     6.7020    -1.4700 C.3   1 <1>   0.1200 
 12 C        0.9010     7.0090    -1.0380 C.3   1 <1>   0.3430 
 13 C        2.6360     6.8360     0.7190 C.3   1 <1>   0.5240 
 14 C        2.4500     8.3030     1.0420 C.2   1 <1>  -0.1810 
 15 C        2.9490     9.4290     0.4680 C.2   1 <1>  -0.0400 
 16 C        1.6320     8.7390     2.0890 C.2   1 <1>  -0.1500 
 17 O        2.4680    10.4810     1.0970 O.3   1 <1>  -0.2800 
 18 C        3.9050     9.7160    -0.7040 C.3   1 <1>   0.1800 
 19 C        1.6690    10.0970     2.0850 C.2   1 <1>   0.0550 
 20 C        5.0810    10.5620    -0.1960 C.3   1 <1>  -0.2400 
 21 C        3.1510    10.5020    -1.7850 C.3   1 <1>  -0.2400 
 22 C        4.4790     8.4430    -1.3430 C.3   1 <1>  -0.2400 
 23 C        1.0080    11.0510     2.9430 C.2   1 <1>   0.7150 
 24 O        0.2190    10.6910     3.7920 O.2   1 <1>  -0.5700 
 25 N        1.2330    12.3790     2.8360 N.am  1 <1>  -0.8000 
 26 H        0.4200     3.2630     2.1380 H     1 <1>   0.1500 
 27 H       -3.5590     2.8270     0.7160 H     1 <1>   0.1500 
 28 H       -3.0190     4.2290    -1.2630 H     1 <1>   0.1500 
 29 H        1.7380     4.5640    -0.9190 H     1 <1>   0.0800 
 30 H        2.0490     4.3950     0.7970 H     1 <1>   0.0800 
 31 H        0.6390     6.5040     0.9460 H     1 <1>   0.4500 
 32 H       -1.2530     7.0170    -0.7240 H     1 <1>   0.0800 
 33 H       -0.7630     7.2210    -2.3870 H     1 <1>   0.0800 
 34 H        1.5620     6.7530    -1.8500 H     1 <1>   0.0800 
 35 H        0.9730     8.0750    -0.8920 H     1 <1>   0.0800 
 36 H        3.4040     6.6980    -0.0200 H     1 <1>   0.0800 
 37 H        2.9320     6.3150     1.6160 H     1 <1>   0.0800 
 38 H        1.0750     8.1330     2.7840 H     1 <1>   0.1500 
 39 H        4.7300    11.4960     0.2050 H     1 <1>   0.0800 
 40 H        5.7710    10.7780    -0.9920 H     1 <1>   0.0800 
 41 H        5.6090    10.0410     0.5830 H     1 <1>   0.0800 
 42 H        2.7810    11.4300    -1.3850 H     1 <1>   0.0800 
 43 H        2.3140     9.9370    -2.1520 H     1 <1>   0.0800 
 44 H        3.8000    10.7310    -2.6120 H     1 <1>   0.0800 
 45 H        5.0340     7.8750    -0.6190 H     1 <1>   0.0800 
 46 H        5.1550     8.7050    -2.1390 H     1 <1>   0.0800 
 47 H        3.6990     7.8390    -1.7670 H     1 <1>   0.0800 
 48 H        0.7690    13.0250     3.4740 H     1 <1>   0.3700 
 49 H        1.9010    12.7620     2.1680 H     1 <1>   0.3700 
@<TRIPOS>BOND
  1   1   2  1   
  2   2   3  ar  
  3   2   4  ar  
  4   3   5  ar  
  5   3  26  1   
  6   4   6  ar  
  7   4  27  1   
  8   5   7  ar  
  9   5   8  1   
 10   6   7  ar  
 11   6  28  1   
 12   7   9  1   
 13   8  10  1   
 14   8  29  1   
 15   8  30  1   
 16   9  11  1   
 17  10  12  1   
 18  10  13  1   
 19  10  31  1   
 20  11  12  1   
 21  11  32  1   
 22  11  33  1   
 23  12  34  1   
 24  12  35  1   
 25  13  14  1   
 26  13  36  1   
 27  13  37  1   
 28  14  15  2   
 29  14  16  1   
 30  15  17  1   
 31  15  18  1   
 32  16  19  2   
 33  16  38  1   
 34  17  19  1   
 35  18  20  1   
 36  18  21  1   
 37  18  22  1   
 38  19  23  1   
 39  20  39  1   
 40  20  40  1   
 41  20  41  1   
 42  21  42  1   
 43  21  43  1   
 44  21  44  1   
 45  22  45  1   
 46  22  46  1   
 47  22  47  1   
 48  23  24  2   
 49  23  25  am  
 50  25  48  1   
 51  25  49  1   
@<TRIPOS>SUBSTRUCTURE
  1 ****  10 GROUP 4 **** **** 0

# MOE 2024.06 (io_trps.svl 2023.06)
