@<TRIPOS>MOLECULE
NONAME
44 46 1 0 0 
SMALL
USER_CHARGES


@<TRIPOS>ATOM
  1 F       -0.1430    -0.2270    -1.2230 F     1 <1>  -0.3400 
  2 C       -0.5060    -0.3590     0.0480 C.3   1 <1>   1.1640 
  3 F        0.4890     0.1380     0.7690 F     1 <1>  -0.3400 
  4 F       -0.5010    -1.6670     0.2840 F     1 <1>  -0.3400 
  5 C       -1.8550     0.3250     0.3550 C.ar  1 <1>  -0.1440 
  6 C       -2.0810     1.6930     0.1450 C.ar  1 <1>  -0.1440 
  7 C       -2.8950    -0.4480     0.8730 C.ar  1 <1>  -0.1500 
  8 C       -3.3180     2.2360     0.4690 C.ar  1 <1>  -0.1500 
  9 C       -1.0480     2.6760    -0.4320 C.3   1 <1>   0.0450 
 10 C       -4.1230     0.1060     1.1810 C.ar  1 <1>  -0.1500 
 11 C       -4.3340     1.4540     0.9810 C.ar  1 <1>  -0.1500 
 12 C       -0.2760     3.4480     0.6380 C.2   1 <1>   0.5690 
 13 O       -0.9380     4.1470     1.3730 O.2   1 <1>  -0.5700 
 14 N        1.1010     3.4220     0.7420 N.am  1 <1>  -0.6600 
 15 C        1.7810     4.4150     1.6400 C.3   1 <1>   0.1400 
 16 C        2.0490     2.7140    -0.1770 C.3   1 <1>   0.1400 
 17 C        2.3570     5.6430     0.8820 C.3   1 <1>   0.2200 
 18 C        2.6610     3.6500    -1.2420 C.3   1 <1>  -0.0190 
 19 N        1.7370     5.8510    -0.4700 N.am  1 <1>  -0.6600 
 20 C        3.8930     5.5850     0.7700 C.3   1 <1>   0.1200 
 21 C        1.8400     4.9100    -1.4630 C.2   1 <1>   0.5690 
 22 C        4.1340     3.9990    -0.9780 C.3   1 <1>   0.1200 
 23 C        0.7770     6.9840    -0.5670 C.3   1 <1>   0.0600 
 24 O        4.3610     4.3330     0.3570 O.3   1 <1>  -0.5600 
 25 O        1.2820     5.0300    -2.5290 O.2   1 <1>  -0.5700 
 26 H       -2.7680    -1.5030     1.0490 H     1 <1>   0.1500 
 27 H       -3.4960     3.2890     0.3310 H     1 <1>   0.1500 
 28 H       -1.5740     3.4150    -1.0080 H     1 <1>   0.0800 
 29 H       -0.4040     2.1980    -1.1330 H     1 <1>   0.0800 
 30 H       -4.9110    -0.5090     1.5800 H     1 <1>   0.1500 
 31 H       -5.2840     1.8970     1.2250 H     1 <1>   0.1500 
 32 H        1.0880     4.7740     2.3800 H     1 <1>   0.0800 
 33 H        2.5650     3.9190     2.1840 H     1 <1>   0.0800 
 34 H        2.8340     2.2700     0.4120 H     1 <1>   0.0800 
 35 H        1.5580     1.9020    -0.6740 H     1 <1>   0.0800 
 36 H        2.1390     6.5110     1.4800 H     1 <1>   0.0800 
 37 H        2.6540     3.1120    -2.1730 H     1 <1>   0.0800 
 38 H        4.3190     5.7610     1.7420 H     1 <1>   0.0800 
 39 H        4.2610     6.3430     0.1010 H     1 <1>   0.0800 
 40 H        4.4630     4.8090    -1.6080 H     1 <1>   0.0800 
 41 H        4.7450     3.1390    -1.1870 H     1 <1>   0.0800 
 42 H        1.2730     7.9070    -0.3240 H     1 <1>   0.0800 
 43 H       -0.0380     6.8240     0.1180 H     1 <1>   0.0800 
 44 H        0.3770     7.0620    -1.5630 H     1 <1>   0.0800 
@<TRIPOS>BOND
  1   1   2  1   
  2   2   3  1   
  3   2   4  1   
  4   2   5  1   
  5   5   6  ar  
  6   5   7  ar  
  7   6   8  ar  
  8   6   9  1   
  9   7  10  ar  
 10   7  26  1   
 11   8  11  ar  
 12   8  27  1   
 13   9  12  1   
 14   9  28  1   
 15   9  29  1   
 16  10  11  ar  
 17  10  30  1   
 18  11  31  1   
 19  12  13  2   
 20  12  14  am  
 21  14  15  1   
 22  14  16  1   
 23  15  17  1   
 24  15  32  1   
 25  15  33  1   
 26  16  18  1   
 27  16  34  1   
 28  16  35  1   
 29  17  19  1   
 30  17  20  1   
 31  17  36  1   
 32  18  21  1   
 33  18  22  1   
 34  18  37  1   
 35  19  21  am  
 36  19  23  1   
 37  20  24  1   
 38  20  38  1   
 39  20  39  1   
 40  21  25  2   
 41  22  24  1   
 42  22  40  1   
 43  22  41  1   
 44  23  42  1   
 45  23  43  1   
 46  23  44  1   
@<TRIPOS>SUBSTRUCTURE
  1 ****  12 GROUP 4 **** **** 0

# MOE 2024.06 (io_trps.svl 2023.06)
