@<TRIPOS>MOLECULE
NONAME
40 42 1 0 0 
SMALL
USER_CHARGES


@<TRIPOS>ATOM
  1 O        0.0820    -0.0030    -1.8550 O.2   1 <1>  -0.5700 
  2 C        0.9510    -0.4990    -1.1800 C.2   1 <1>   0.5690 
  3 N        1.8870     0.2210    -0.4930 N.am  1 <1>  -0.4940 
  4 C        1.0260    -2.0220    -1.1110 C.3   1 <1>  -0.0190 
  5 C        2.2010     1.5980    -0.3820 C.2   1 <1>  -0.0880 
  6 C        0.7860    -2.6330     0.2900 C.3   1 <1>   0.0580 
  7 C        2.4050    -2.6250    -1.5220 C.3   1 <1>  -0.1600 
  8 N        1.4080     2.6840    -0.6110 N.pl3 1 <1>   0.3140 
  9 C        3.4000     2.0840     0.0220 C.2   1 <1>  -0.1810 
 10 C        1.8600    -2.1140     1.2310 C.2   1 <1>  -0.2880 
 11 C        1.3620    -4.0290     0.0620 C.3   1 <1>  -0.1600 
 12 C        2.7540    -3.5440    -0.3370 C.3   1 <1>   0.0580 
 13 N        2.0710     3.8360    -0.3610 N.2   1 <1>  -0.7070 
 14 C       -0.0090     2.7390    -0.9880 C.3   1 <1>   0.0160 
 15 C        3.2530     3.4680     0.0130 C.2   1 <1>   0.1080 
 16 C        4.6430     1.2960     0.4000 C.3   1 <1>   0.0210 
 17 C        3.0210    -2.6360     0.8480 C.2   1 <1>  -0.2880 
 18 C        4.3170     4.4740     0.3880 C.3   1 <1>  -0.0590 
 19 C        4.6150     0.9310     1.8850 C.3   1 <1>  -0.2400 
 20 H        2.5150    -0.3840     0.0430 H     1 <1>   0.3700 
 21 H        0.2750    -2.4120    -1.7770 H     1 <1>   0.0800 
 22 H       -0.2230    -2.6100     0.6640 H     1 <1>   0.0800 
 23 H        2.3040    -3.1990    -2.4260 H     1 <1>   0.0800 
 24 H        3.1650    -1.8760    -1.6670 H     1 <1>   0.0800 
 25 H        1.6110    -1.4280     2.0260 H     1 <1>   0.1500 
 26 H        1.3810    -4.6140     0.9670 H     1 <1>   0.0800 
 27 H        0.8630    -4.5760    -0.7200 H     1 <1>   0.0800 
 28 H        3.4820    -4.3180    -0.5110 H     1 <1>   0.0800 
 29 H       -0.1000     2.5230    -2.0350 H     1 <1>   0.0800 
 30 H       -0.3900     3.7230    -0.7890 H     1 <1>   0.0800 
 31 H       -0.5570     2.0180    -0.4140 H     1 <1>   0.0800 
 32 H        4.6920     0.3990    -0.1920 H     1 <1>   0.0800 
 33 H        5.5210     1.8770     0.1810 H     1 <1>   0.0800 
 34 H        4.0210    -2.5090     1.2300 H     1 <1>   0.1500 
 35 H        4.8180     4.1660     1.2860 H     1 <1>   0.0800 
 36 H        3.8650     5.4340     0.5540 H     1 <1>   0.0800 
 37 H        5.0300     4.5580    -0.4110 H     1 <1>   0.0800 
 38 H        3.7470     0.3370     2.1050 H     1 <1>   0.0800 
 39 H        4.5790     1.8240     2.4840 H     1 <1>   0.0800 
 40 H        5.4950     0.3720     2.1470 H     1 <1>   0.0800 
@<TRIPOS>BOND
  1   1   2  2   
  2   2   3  am  
  3   2   4  1   
  4   3   5  1   
  5   3  20  1   
  6   4   6  1   
  7   4   7  1   
  8   4  21  1   
  9   5   8  1   
 10   5   9  2   
 11   6  10  1   
 12   6  11  1   
 13   6  22  1   
 14   7  12  1   
 15   7  23  1   
 16   7  24  1   
 17   8  13  1   
 18   8  14  1   
 19   9  15  1   
 20   9  16  1   
 21  10  17  2   
 22  10  25  1   
 23  11  12  1   
 24  11  26  1   
 25  11  27  1   
 26  12  17  1   
 27  12  28  1   
 28  13  15  2   
 29  14  29  1   
 30  14  30  1   
 31  14  31  1   
 32  15  18  1   
 33  16  19  1   
 34  16  32  1   
 35  16  33  1   
 36  17  34  1   
 37  18  35  1   
 38  18  36  1   
 39  18  37  1   
 40  19  38  1   
 41  19  39  1   
 42  19  40  1   
@<TRIPOS>SUBSTRUCTURE
  1 ****   3 GROUP 4 **** **** 0

# MOE 2024.06 (io_trps.svl 2023.06)
