@<TRIPOS>MOLECULE
NONAME
47 48 1 0 0 
SMALL
USER_CHARGES


@<TRIPOS>ATOM
  1 O       -0.1340    -0.5350    -2.2090 O.2   1 <1>  -0.5700 
  2 C       -0.8170     0.3210    -1.6950 C.2   1 <1>   0.5690 
  3 N       -1.9770     0.0020    -1.0380 N.am  1 <1>  -0.6600 
  4 C       -0.3580     1.7840    -1.8170 C.3   1 <1>   0.1710 
  5 C       -2.8390     0.9580    -0.3010 C.3   1 <1>   0.1400 
  6 C       -2.4340    -1.3910    -0.8370 C.3   1 <1>   0.1400 
  7 N       -0.0840     2.4920    -0.5300 N.3   1 <1>  -0.8100 
  8 C       -3.9620     0.1000     0.2830 C.3   1 <1>   0.2000 
  9 C       -3.4050    -1.3220     0.3420 C.3   1 <1>  -0.0800 
 10 C        0.2210     3.9140    -0.7870 C.3   1 <1>   0.1100 
 11 C        1.0130     1.8240     0.1910 C.3   1 <1>   0.0300 
 12 O       -4.3210     0.5240     1.5530 O.3   1 <1>  -0.6800 
 13 C       -4.5010    -2.3970     0.3050 C.3   1 <1>  -0.0170 
 14 C        0.0780     4.7590     0.4800 C.3   1 <1>   0.1200 
 15 C       -3.9000    -3.7930     0.3610 C.ar  1 <1>  -0.1440 
 16 O        0.2920     6.0950     0.1430 O.3   1 <1>  -0.5600 
 17 C       -3.5190    -4.3680     1.5560 C.ar  1 <1>  -0.1500 
 18 C       -3.7000    -4.5540    -0.7730 C.ar  1 <1>  -0.1500 
 19 C        0.1570     6.9720     1.2130 C.3   1 <1>   0.0400 
 20 C       -2.9700    -5.6390     1.5600 C.ar  1 <1>   0.1600 
 21 C       -3.1410    -5.8160    -0.6600 C.ar  1 <1>   0.1600 
 22 N       -2.7710    -6.3770     0.4800 N.ar  1 <1>  -0.6200 
 23 H       -1.1270     2.3120    -2.3500 H     1 <1>   0.0800 
 24 H        0.5280     1.8050    -2.4270 H     1 <1>   0.0800 
 25 H       -2.2660     1.4230     0.4810 H     1 <1>   0.0800 
 26 H       -3.2310     1.7040    -0.9690 H     1 <1>   0.0800 
 27 H       -2.9320    -1.7230    -1.7310 H     1 <1>   0.0800 
 28 H       -1.6030    -2.0440    -0.6280 H     1 <1>   0.0800 
 29 H       -4.8310     0.1560    -0.3520 H     1 <1>   0.0800 
 30 H       -2.8210    -1.4380     1.2380 H     1 <1>   0.0800 
 31 H        1.2180     4.0140    -1.1820 H     1 <1>   0.0800 
 32 H       -0.4750     4.3010    -1.5120 H     1 <1>   0.0800 
 33 H        1.1900     2.3040     1.1370 H     1 <1>   0.0800 
 34 H        1.9190     1.8500    -0.3910 H     1 <1>   0.0800 
 35 H        0.7570     0.7960     0.3870 H     1 <1>   0.0800 
 36 H       -3.5430     0.5130     2.1440 H     1 <1>   0.4000 
 37 H       -5.0920    -2.2910    -0.5880 H     1 <1>   0.0800 
 38 H       -5.1610    -2.2610     1.1460 H     1 <1>   0.0800 
 39 H        0.8090     4.4740     1.2150 H     1 <1>   0.0800 
 40 H       -0.9170     4.6590     0.8780 H     1 <1>   0.0800 
 41 H       -3.6450    -3.8400     2.4840 H     1 <1>   0.1500 
 42 H       -3.9700    -4.1800    -1.7430 H     1 <1>   0.1500 
 43 H        0.3400     7.9690     0.8530 H     1 <1>   0.0800 
 44 H        0.8780     6.7220     1.9720 H     1 <1>   0.0800 
 45 H       -0.8440     6.9060     1.6030 H     1 <1>   0.0800 
 46 H       -2.6790    -6.0720     2.5020 H     1 <1>   0.1500 
 47 H       -2.9900    -6.3950    -1.5550 H     1 <1>   0.1500 
@<TRIPOS>BOND
  1   1   2  2   
  2   2   3  am  
  3   2   4  1   
  4   3   5  1   
  5   3   6  1   
  6   4   7  1   
  7   4  23  1   
  8   4  24  1   
  9   5   8  1   
 10   5  25  1   
 11   5  26  1   
 12   6   9  1   
 13   6  27  1   
 14   6  28  1   
 15   7  10  1   
 16   7  11  1   
 17   8   9  1   
 18   8  12  1   
 19   8  29  1   
 20   9  13  1   
 21   9  30  1   
 22  10  14  1   
 23  10  31  1   
 24  10  32  1   
 25  11  33  1   
 26  11  34  1   
 27  11  35  1   
 28  12  36  1   
 29  13  15  1   
 30  13  37  1   
 31  13  38  1   
 32  14  16  1   
 33  14  39  1   
 34  14  40  1   
 35  15  17  ar  
 36  15  18  ar  
 37  16  19  1   
 38  17  20  ar  
 39  17  41  1   
 40  18  21  ar  
 41  18  42  1   
 42  19  43  1   
 43  19  44  1   
 44  19  45  1   
 45  20  22  ar  
 46  20  46  1   
 47  21  22  ar  
 48  21  47  1   
@<TRIPOS>SUBSTRUCTURE
  1 ****   3 GROUP 4 **** **** 0

# MOE 2024.06 (io_trps.svl 2023.06)
