@<TRIPOS>MOLECULE
NONAME
57 59 1 0 0 
SMALL
USER_CHARGES


@<TRIPOS>ATOM
  1 O       -0.3750     0.1280    -0.7680 O.2   1 <1>  -0.5700 
  2 C       -1.3780     0.8070    -0.8890 C.2   1 <1>   0.5440 
  3 N       -2.6020     0.2190    -0.6690 N.am  1 <1>  -0.6600 
  4 C       -1.2590     2.2090    -1.2470 C.ar  1 <1>   0.0860 
  5 C       -3.8710     0.9440    -0.4390 C.3   1 <1>   0.1400 
  6 C       -2.7420    -1.2080    -0.3080 C.3   1 <1>   0.1400 
  7 C       -0.3810     3.0450    -0.5630 C.ar  1 <1>  -0.1500 
  8 C       -2.0090     2.7700    -2.2810 C.ar  1 <1>  -0.1500 
  9 C       -4.6900     0.0320     0.4840 C.3   1 <1>  -0.0800 
 10 C       -4.1920    -1.3890     0.1540 C.3   1 <1>  -0.0800 
 11 C       -0.2610     4.3880    -0.8750 C.ar  1 <1>   0.0830 
 12 C       -1.9000     4.1100    -2.6060 C.ar  1 <1>  -0.1500 
 13 C       -6.2390     0.2150     0.4370 C.3   1 <1>   0.2800 
 14 C       -5.0740    -2.0460    -0.9190 C.3   1 <1>  -0.1600 
 15 O        0.6180     5.1100    -0.1380 O.3   1 <1>  -0.3630 
 16 C       -1.0290     4.9240    -1.9050 C.ar  1 <1>  -0.1500 
 17 O       -6.6310     0.6980    -0.7980 O.3   1 <1>  -0.6800 
 18 C       -6.9390    -1.1450     0.6140 C.3   1 <1>  -0.1600 
 19 C       -6.7560     1.2150     1.4950 C.3   1 <1>  -0.1600 
 20 C       -6.5310    -2.1930    -0.4430 C.3   1 <1>  -0.1600 
 21 C        0.8280     6.4840    -0.3860 C.3   1 <1>   0.1200 
 22 C       -6.2030     2.6470     1.3850 C.3   1 <1>  -0.2400 
 23 C        1.8730     6.9980     0.5970 C.3   1 <1>   0.1200 
 24 O        2.0660     8.3560     0.3560 O.3   1 <1>  -0.5600 
 25 C        3.0010     8.9480     1.1920 C.3   1 <1>   0.1200 
 26 C        3.0970    10.4180     0.8040 C.3   1 <1>  -0.2400 
 27 H       -3.6950     1.9050     0.0110 H     1 <1>   0.0800 
 28 H       -4.3540     1.0770    -1.3900 H     1 <1>   0.0800 
 29 H       -2.5070    -1.8300    -1.1550 H     1 <1>   0.0800 
 30 H       -2.0620    -1.4340     0.4950 H     1 <1>   0.0800 
 31 H        0.2210     2.6350     0.2280 H     1 <1>   0.1500 
 32 H       -2.6820     2.1400    -2.8370 H     1 <1>   0.1500 
 33 H       -4.3650     0.2310     1.4890 H     1 <1>   0.0800 
 34 H       -4.2060    -2.0090     1.0330 H     1 <1>   0.0800 
 35 H       -2.4920     4.5190    -3.4070 H     1 <1>   0.1500 
 36 H       -5.0550    -1.4320    -1.8040 H     1 <1>   0.0800 
 37 H       -4.6820    -3.0120    -1.1870 H     1 <1>   0.0800 
 38 H       -0.9620     5.9610    -2.1740 H     1 <1>   0.1500 
 39 H       -7.6030     0.7230    -0.8390 H     1 <1>   0.4000 
 40 H       -6.6740    -1.5270     1.5850 H     1 <1>   0.0800 
 41 H       -8.0080    -1.0250     0.6110 H     1 <1>   0.0800 
 42 H       -7.8290     1.2590     1.4380 H     1 <1>   0.0800 
 43 H       -6.5140     0.8370     2.4730 H     1 <1>   0.0800 
 44 H       -6.6760    -3.1760    -0.0280 H     1 <1>   0.0800 
 45 H       -7.1760    -2.1080    -1.3010 H     1 <1>   0.0800 
 46 H        1.1810     6.5980    -1.3960 H     1 <1>   0.0800 
 47 H       -0.1030     7.0020    -0.2420 H     1 <1>   0.0800 
 48 H       -6.3720     3.0480     0.4010 H     1 <1>   0.0800 
 49 H       -5.1490     2.6690     1.5930 H     1 <1>   0.0800 
 50 H       -6.6960     3.2840     2.0980 H     1 <1>   0.0800 
 51 H        2.8070     6.4840     0.4500 H     1 <1>   0.0800 
 52 H        1.5260     6.8730     1.6080 H     1 <1>   0.0800 
 53 H        2.6730     8.8450     2.2120 H     1 <1>   0.0800 
 54 H        3.9510     8.4580     1.0570 H     1 <1>   0.0800 
 55 H        2.1410    10.8950     0.9280 H     1 <1>   0.0800 
 56 H        3.4120    10.5090    -0.2200 H     1 <1>   0.0800 
 57 H        3.8140    10.9160     1.4310 H     1 <1>   0.0800 
@<TRIPOS>BOND
  1   1   2  2   
  2   2   3  am  
  3   2   4  1   
  4   3   5  1   
  5   3   6  1   
  6   4   7  ar  
  7   4   8  ar  
  8   5   9  1   
  9   5  27  1   
 10   5  28  1   
 11   6  10  1   
 12   6  29  1   
 13   6  30  1   
 14   7  11  ar  
 15   7  31  1   
 16   8  12  ar  
 17   8  32  1   
 18   9  10  1   
 19   9  13  1   
 20   9  33  1   
 21  10  14  1   
 22  10  34  1   
 23  11  15  1   
 24  11  16  ar  
 25  12  16  ar  
 26  12  35  1   
 27  13  17  1   
 28  13  18  1   
 29  13  19  1   
 30  14  20  1   
 31  14  36  1   
 32  14  37  1   
 33  15  21  1   
 34  16  38  1   
 35  17  39  1   
 36  18  20  1   
 37  18  40  1   
 38  18  41  1   
 39  19  22  1   
 40  19  42  1   
 41  19  43  1   
 42  20  44  1   
 43  20  45  1   
 44  21  23  1   
 45  21  46  1   
 46  21  47  1   
 47  22  48  1   
 48  22  49  1   
 49  22  50  1   
 50  23  24  1   
 51  23  51  1   
 52  23  52  1   
 53  24  25  1   
 54  25  26  1   
 55  25  53  1   
 56  25  54  1   
 57  26  55  1   
 58  26  56  1   
 59  26  57  1   
@<TRIPOS>SUBSTRUCTURE
  1 ****   4 GROUP 4 **** **** 0

# MOE 2024.06 (io_trps.svl 2023.06)
