@<TRIPOS>MOLECULE
NONAME
49 52 1 0 0 
SMALL
USER_CHARGES


@<TRIPOS>ATOM
  1 S       -2.3700     3.9210     1.8280 S.3   1 <1>  -0.0800 
  2 C       -2.3290     2.2710     1.2260 C.2   1 <1>  -0.1400 
  3 C       -1.6140     4.5210     0.3630 C.2   1 <1>  -0.1100 
  4 C       -1.7720     2.2310     0.0020 C.2   1 <1>  -0.1500 
  5 C       -2.8890     1.1820     2.1290 C.3   1 <1>   0.0810 
  6 C       -1.3660     3.5120    -0.4910 C.2   1 <1>  -0.1500 
  7 C       -3.5530     0.0550     1.3480 C.2   1 <1>   0.5690 
  8 O       -2.9030    -0.9510     1.1800 O.2   1 <1>  -0.5700 
  9 N       -4.8410     0.1680     0.8750 N.am  1 <1>  -0.6600 
 10 C       -5.6870     1.4040     0.9740 C.3   1 <1>   0.1400 
 11 C       -5.5440    -1.0020     0.2710 C.3   1 <1>   0.1400 
 12 C       -6.2820     1.8030    -0.3900 C.3   1 <1>   0.1430 
 13 C       -6.1310    -0.6330    -1.0970 C.3   1 <1>  -0.1600 
 14 C       -7.1730     3.0110    -0.1770 C.ar  1 <1>   0.1670 
 15 C       -7.0350     0.6080    -1.0090 C.3   1 <1>  -0.1600 
 16 C       -5.1970     2.3610    -1.3490 C.3   1 <1>  -0.1600 
 17 N       -8.3580     2.9910     0.3810 N.ar  1 <1>  -0.6200 
 18 C       -6.5800     4.1540    -0.6180 C.ar  1 <1>  -0.1430 
 19 C       -5.2110     3.8910    -1.1950 C.3   1 <1>  -0.0170 
 20 C       -8.9630     4.1770     0.4780 C.ar  1 <1>   0.7200 
 21 C       -7.2740     5.3280    -0.4740 C.ar  1 <1>   0.1600 
 22 N       -8.4670     5.3510     0.0730 N.ar  1 <1>  -0.6200 
 23 N      -10.2180     4.1930     1.0560 N.pl3 1 <1>  -0.8380 
 24 C      -11.0220     2.9530     1.2370 C.3   1 <1>   0.1290 
 25 C      -10.8720     5.4580     1.4900 C.3   1 <1>   0.1290 
 26 H       -1.4300     5.5790     0.2990 H     1 <1>   0.1500 
 27 H       -1.6220     1.3390    -0.5840 H     1 <1>   0.1500 
 28 H       -3.5980     1.5960     2.8200 H     1 <1>   0.0800 
 29 H       -2.0840     0.7730     2.7110 H     1 <1>   0.0800 
 30 H       -0.9040     3.6080    -1.4590 H     1 <1>   0.1500 
 31 H       -5.1240     2.2350     1.3570 H     1 <1>   0.0800 
 32 H       -6.4940     1.2120     1.6610 H     1 <1>   0.0800 
 33 H       -6.3360    -1.3080     0.9330 H     1 <1>   0.0800 
 34 H       -4.8710    -1.8350     0.1560 H     1 <1>   0.0800 
 35 H       -6.7010    -1.4660    -1.4690 H     1 <1>   0.0800 
 36 H       -5.3230    -0.4590    -1.7860 H     1 <1>   0.0800 
 37 H       -7.4080     0.8680    -1.9840 H     1 <1>   0.0800 
 38 H       -7.8860     0.3750    -0.3910 H     1 <1>   0.0800 
 39 H       -5.4650     2.1290    -2.3650 H     1 <1>   0.0800 
 40 H       -4.2260     1.9450    -1.1580 H     1 <1>   0.0800 
 41 H       -5.0710     4.3870    -2.1400 H     1 <1>   0.0800 
 42 H       -4.4570     4.2100    -0.4980 H     1 <1>   0.0800 
 43 H       -6.8470     6.2580    -0.8080 H     1 <1>   0.1500 
 44 H      -10.7520     2.2160     0.5000 H     1 <1>   0.0800 
 45 H      -12.0690     3.1720     1.1260 H     1 <1>   0.0800 
 46 H      -10.8440     2.5490     2.2180 H     1 <1>   0.0800 
 47 H      -10.1330     6.1850     1.7790 H     1 <1>   0.0800 
 48 H      -11.5120     5.2730     2.3350 H     1 <1>   0.0800 
 49 H      -11.4560     5.8560     0.6790 H     1 <1>   0.0800 
@<TRIPOS>BOND
  1   1   2  1   
  2   1   3  1   
  3   2   4  2   
  4   2   5  1   
  5   3   6  2   
  6   3  26  1   
  7   4   6  1   
  8   4  27  1   
  9   5   7  1   
 10   5  28  1   
 11   5  29  1   
 12   6  30  1   
 13   7   8  2   
 14   7   9  am  
 15   9  10  1   
 16   9  11  1   
 17  10  12  1   
 18  10  31  1   
 19  10  32  1   
 20  11  13  1   
 21  11  33  1   
 22  11  34  1   
 23  12  14  1   
 24  12  15  1   
 25  12  16  1   
 26  13  15  1   
 27  13  35  1   
 28  13  36  1   
 29  14  17  ar  
 30  14  18  ar  
 31  15  37  1   
 32  15  38  1   
 33  16  19  1   
 34  16  39  1   
 35  16  40  1   
 36  17  20  ar  
 37  18  19  1   
 38  18  21  ar  
 39  19  41  1   
 40  19  42  1   
 41  20  22  ar  
 42  20  23  1   
 43  21  22  ar  
 44  21  43  1   
 45  23  24  1   
 46  23  25  1   
 47  24  44  1   
 48  24  45  1   
 49  24  46  1   
 50  25  47  1   
 51  25  48  1   
 52  25  49  1   
@<TRIPOS>SUBSTRUCTURE
  1 ****  12 GROUP 4 **** **** 0

# MOE 2024.06 (io_trps.svl 2023.06)
