@<TRIPOS>MOLECULE
NONAME
49 51 1 0 0 
SMALL
USER_CHARGES


@<TRIPOS>ATOM
  1 O       -1.7770     0.4990     2.9490 O.2   1 <1>  -0.5700 
  2 C       -2.0510     1.1250     1.9510 C.2   1 <1>   0.5690 
  3 N       -2.5900     0.5010     0.8560 N.am  1 <1>  -0.6600 
  4 C       -1.8130     2.6330     1.9660 C.3   1 <1>   0.1810 
  5 C       -2.9140     1.1340    -0.4480 C.3   1 <1>   0.1400 
  6 C       -2.7560    -0.9700     0.7730 C.3   1 <1>   0.1400 
  7 O       -1.0180     3.0470     0.8640 O.3   1 <1>  -0.3620 
  8 C       -3.6830     0.0570    -1.2110 C.3   1 <1>   0.2000 
  9 C       -3.0690    -1.2520    -0.7020 C.3   1 <1>  -0.0800 
 10 C       -0.7780     4.3610     0.6270 C.ar  1 <1>   0.0830 
 11 O       -5.0140     0.1240    -0.8260 O.3   1 <1>  -0.6800 
 12 C       -3.9320    -2.5070    -0.9290 C.3   1 <1>   0.0200 
 13 C       -0.0750     4.6680    -0.5250 C.ar  1 <1>  -0.1500 
 14 C       -1.1970     5.3890     1.4630 C.ar  1 <1>  -0.1500 
 15 C       -3.2250    -3.7950    -0.5410 C.2   1 <1>  -0.0400 
 16 C        0.2120     5.9820    -0.8610 C.ar  1 <1>  -0.1430 
 17 C       -0.9140     6.7020     1.1330 C.ar  1 <1>  -0.1500 
 18 O       -3.9040    -4.9120    -0.5590 O.3   1 <1>  -0.0190 
 19 C       -1.9710    -4.0880    -0.1570 C.2   1 <1>  -0.1500 
 20 C       -0.2130     7.0090    -0.0240 C.ar  1 <1>  -0.1430 
 21 C        0.9880     6.2660    -2.1390 C.3   1 <1>  -0.0970 
 22 N       -3.1760    -5.9310    -0.2050 N.2   1 <1>  -0.4100 
 23 C       -2.0060    -5.4650     0.0440 C.2   1 <1>   0.1080 
 24 C        0.0760     8.4680    -0.3480 C.3   1 <1>  -0.0970 
 25 C       -0.8400    -6.3160     0.4940 C.3   1 <1>  -0.0590 
 26 H       -1.2990     2.9060     2.8690 H     1 <1>   0.0800 
 27 H       -2.7590     3.1400     1.9140 H     1 <1>   0.0800 
 28 H       -3.4920     2.0350    -0.3310 H     1 <1>   0.0800 
 29 H       -1.9960     1.3620    -0.9630 H     1 <1>   0.0800 
 30 H       -1.8600    -1.4700     1.0970 H     1 <1>   0.0800 
 31 H       -3.5750    -1.2660     1.4070 H     1 <1>   0.0800 
 32 H       -3.6280     0.1730    -2.2800 H     1 <1>   0.0800 
 33 H       -2.1320    -1.3870    -1.2150 H     1 <1>   0.0800 
 34 H       -5.0580     0.1740     0.1500 H     1 <1>   0.4000 
 35 H       -4.2050    -2.5700    -1.9680 H     1 <1>   0.0800 
 36 H       -4.8420    -2.4360    -0.3600 H     1 <1>   0.0800 
 37 H        0.2480     3.8610    -1.1570 H     1 <1>   0.1500 
 38 H       -1.7370     5.1950     2.3700 H     1 <1>   0.1500 
 39 H       -1.2440     7.4890     1.7880 H     1 <1>   0.1500 
 40 H       -1.1160    -3.4530    -0.0240 H     1 <1>   0.1500 
 41 H        1.2350     5.3540    -2.6510 H     1 <1>   0.0800 
 42 H        1.9030     6.7800    -1.9070 H     1 <1>   0.0800 
 43 H        0.3990     6.8750    -2.8000 H     1 <1>   0.0800 
 44 H       -0.3300     9.1200     0.4040 H     1 <1>   0.0800 
 45 H       -0.3640     8.7300    -1.2930 H     1 <1>   0.0800 
 46 H        1.1370     8.6310    -0.3970 H     1 <1>   0.0800 
 47 H        0.0330    -5.7090     0.6460 H     1 <1>   0.0800 
 48 H       -0.6280    -7.0580    -0.2530 H     1 <1>   0.0800 
 49 H       -1.0910    -6.8100     1.4150 H     1 <1>   0.0800 
@<TRIPOS>BOND
  1   1   2  2   
  2   2   3  am  
  3   2   4  1   
  4   3   5  1   
  5   3   6  1   
  6   4   7  1   
  7   4  26  1   
  8   4  27  1   
  9   5   8  1   
 10   5  28  1   
 11   5  29  1   
 12   6   9  1   
 13   6  30  1   
 14   6  31  1   
 15   7  10  1   
 16   8   9  1   
 17   8  11  1   
 18   8  32  1   
 19   9  12  1   
 20   9  33  1   
 21  10  13  ar  
 22  10  14  ar  
 23  11  34  1   
 24  12  15  1   
 25  12  35  1   
 26  12  36  1   
 27  13  16  ar  
 28  13  37  1   
 29  14  17  ar  
 30  14  38  1   
 31  15  18  1   
 32  15  19  2   
 33  16  20  ar  
 34  16  21  1   
 35  17  20  ar  
 36  17  39  1   
 37  18  22  1   
 38  19  23  1   
 39  19  40  1   
 40  20  24  1   
 41  21  41  1   
 42  21  42  1   
 43  21  43  1   
 44  22  23  2   
 45  23  25  1   
 46  24  44  1   
 47  24  45  1   
 48  24  46  1   
 49  25  47  1   
 50  25  48  1   
 51  25  49  1   
@<TRIPOS>SUBSTRUCTURE
  1 ****   3 GROUP 4 **** **** 0

# MOE 2024.06 (io_trps.svl 2023.06)
