@<TRIPOS>MOLECULE
NONAME
48 50 1 0 0 
SMALL
USER_CHARGES


@<TRIPOS>ATOM
  1 CL      -0.8150    -0.8510    -0.3860 Cl    1 <1>  -0.1770 
  2 C       -1.8980     0.4450     0.0960 C.ar  1 <1>   0.1770 
  3 C       -1.6910     1.7290    -0.3930 C.ar  1 <1>   0.0830 
  4 C       -2.9420     0.1430     0.9560 C.ar  1 <1>  -0.1440 
  5 O       -0.6350     1.8980    -1.2410 O.3   1 <1>  -0.3630 
  6 C       -2.5760     2.7480    -0.0080 C.ar  1 <1>   0.0830 
  7 C       -3.8000     1.1590     1.3460 C.ar  1 <1>  -0.1500 
  8 C       -3.1460    -1.2720     1.4610 C.3   1 <1>   0.4860 
  9 C        0.1690     3.0560    -1.1700 C.3   1 <1>   0.0400 
 10 O       -2.4140     4.0040    -0.5120 O.3   1 <1>  -0.3630 
 11 C       -3.6170     2.4460     0.8700 C.ar  1 <1>  -0.1500 
 12 N       -3.5610    -2.1540     0.3330 N.4   1 <1>  -0.9590 
 13 C       -3.3060     5.0610    -0.2240 C.3   1 <1>   0.0400 
 14 C       -4.8610    -1.7120    -0.2600 C.3   1 <1>   0.3430 
 15 C       -3.7570    -3.5580     0.8120 C.3   1 <1>   0.3430 
 16 C       -5.9270    -2.5840     0.4070 C.3   1 <1>   0.2000 
 17 C       -5.2280    -3.9340     0.5540 C.3   1 <1>  -0.0800 
 18 O       -6.1760    -2.0810     1.6810 O.3   1 <1>  -0.6800 
 19 C       -5.4000    -4.8000    -0.7140 C.3   1 <1>  -0.0170 
 20 C       -4.8280    -6.2010    -0.5370 C.ar  1 <1>   0.1670 
 21 N       -3.5090    -6.2950    -0.5010 N.ar  1 <1>  -0.6200 
 22 C       -5.6810    -7.2990    -0.4280 C.ar  1 <1>   0.1600 
 23 C       -3.1030    -7.5490    -0.3600 C.ar  1 <1>   0.1600 
 24 N       -5.2760    -8.5470    -0.2750 N.ar  1 <1>  -0.6200 
 25 C       -3.9580    -8.6380    -0.2500 C.ar  1 <1>   0.1600 
 26 H       -4.6170     0.9620     2.0220 H     1 <1>   0.1500 
 27 H       -3.9040    -1.2770     2.2280 H     1 <1>   0.0800 
 28 H       -2.2250    -1.6320     1.8900 H     1 <1>   0.0800 
 29 H        1.1330     2.8210    -1.5850 H     1 <1>   0.0800 
 30 H        0.2730     3.3550    -0.1420 H     1 <1>   0.0800 
 31 H       -0.2920     3.8370    -1.7490 H     1 <1>   0.0800 
 32 H       -4.3050     3.2040     1.1960 H     1 <1>   0.1500 
 33 H       -2.8120    -2.1120    -0.3750 H     1 <1>   0.4500 
 34 H       -2.9750     5.9310    -0.7620 H     1 <1>   0.0800 
 35 H       -3.2870     5.2580     0.8330 H     1 <1>   0.0800 
 36 H       -4.2930     4.7860    -0.5510 H     1 <1>   0.0800 
 37 H       -5.0570    -0.6650    -0.1000 H     1 <1>   0.0800 
 38 H       -4.8550    -1.9100    -1.3190 H     1 <1>   0.0800 
 39 H       -3.0820    -4.2240     0.3030 H     1 <1>   0.0800 
 40 H       -3.5590    -3.6180     1.8690 H     1 <1>   0.0800 
 41 H       -6.8520    -2.6110    -0.1460 H     1 <1>   0.0800 
 42 H       -5.6240    -4.4850     1.3900 H     1 <1>   0.0800 
 43 H       -6.9680    -2.5020     2.0800 H     1 <1>   0.4000 
 44 H       -4.9150    -4.3400    -1.5580 H     1 <1>   0.0800 
 45 H       -6.4460    -4.8820    -0.9510 H     1 <1>   0.0800 
 46 H       -6.7450    -7.1460    -0.4670 H     1 <1>   0.1500 
 47 H       -2.0420    -7.7270    -0.3310 H     1 <1>   0.1500 
 48 H       -3.5350    -9.6210    -0.1370 H     1 <1>   0.1500 
@<TRIPOS>BOND
  1   1   2  1   
  2   2   3  ar  
  3   2   4  ar  
  4   3   5  1   
  5   3   6  ar  
  6   4   7  ar  
  7   4   8  1   
  8   5   9  1   
  9   6  10  1   
 10   6  11  ar  
 11   7  11  ar  
 12   7  26  1   
 13   8  12  1   
 14   8  27  1   
 15   8  28  1   
 16   9  29  1   
 17   9  30  1   
 18   9  31  1   
 19  10  13  1   
 20  11  32  1   
 21  12  14  1   
 22  12  15  1   
 23  12  33  1   
 24  13  34  1   
 25  13  35  1   
 26  13  36  1   
 27  14  16  1   
 28  14  37  1   
 29  14  38  1   
 30  15  17  1   
 31  15  39  1   
 32  15  40  1   
 33  16  17  1   
 34  16  18  1   
 35  16  41  1   
 36  17  19  1   
 37  17  42  1   
 38  18  43  1   
 39  19  20  1   
 40  19  44  1   
 41  19  45  1   
 42  20  21  ar  
 43  20  22  ar  
 44  21  23  ar  
 45  22  24  ar  
 46  22  46  1   
 47  23  25  ar  
 48  23  47  1   
 49  24  25  ar  
 50  25  48  1   
@<TRIPOS>SUBSTRUCTURE
  1 ****  12 GROUP 4 **** **** 0

# MOE 2024.06 (io_trps.svl 2023.06)
