@<TRIPOS>MOLECULE
NONAME
50 52 1 0 0 
SMALL
USER_CHARGES


@<TRIPOS>ATOM
  1 F        0.5880     1.4670     0.5650 F     1 <1>  -0.3400 
  2 C        1.2290     1.5780    -0.5910 C.3   1 <1>   1.1640 
  3 F        0.6660     0.7010    -1.4150 F     1 <1>  -0.3400 
  4 F        0.9280     2.7790    -1.0700 F     1 <1>  -0.3400 
  5 C        2.7430     1.3670    -0.4300 C.ar  1 <1>  -0.1440 
  6 C        3.5660     2.4200    -0.0420 C.ar  1 <1>  -0.1500 
  7 C        3.3230     0.1250    -0.6580 C.ar  1 <1>  -0.1500 
  8 C        4.9410     2.2660     0.1170 C.ar  1 <1>  -0.1440 
  9 C        4.6850    -0.0500    -0.5080 C.ar  1 <1>  -0.1500 
 10 C        5.4870     1.0100    -0.1260 C.ar  1 <1>  -0.1500 
 11 C        5.7890     3.4800     0.5460 C.3   1 <1>   0.4240 
 12 O        5.1450     4.0330     1.6350 O.3   1 <1>  -0.6800 
 13 C        7.2160     3.1350     1.0080 C.3   1 <1>  -0.1600 
 14 C        5.8280     4.5390    -0.5640 C.3   1 <1>  -0.1600 
 15 C        8.0120     4.3850     1.3840 C.3   1 <1>   0.2090 
 16 C        6.6760     5.7530    -0.1820 C.3   1 <1>   0.2090 
 17 N        8.0330     5.2950     0.2160 N.pl3 1 <1>  -0.8380 
 18 C        9.1110     6.1360     0.0480 C.ar  1 <1>   0.4100 
 19 N        8.8880     7.4440     0.1110 N.ar  1 <1>  -0.6200 
 20 C       10.3790     5.6060    -0.1750 C.ar  1 <1>  -0.1500 
 21 C        9.9420     8.2270    -0.0400 C.ar  1 <1>   0.1600 
 22 C       11.4640     6.4350    -0.3270 C.ar  1 <1>  -0.1500 
 23 C       11.2560     7.8110    -0.2500 C.ar  1 <1>   0.0860 
 24 C       12.3220     8.7800    -0.3810 C.2   1 <1>   0.5440 
 25 O       12.0740     9.9390    -0.6480 O.2   1 <1>  -0.5700 
 26 N       13.6300     8.4230    -0.1910 N.am  1 <1>  -0.7300 
 27 C       14.7860     9.3310    -0.3270 C.3   1 <1>   0.1400 
 28 C       15.9490     8.5500    -0.9260 C.3   1 <1>  -0.2400 
 29 H        3.1270     3.3880     0.1410 H     1 <1>   0.1500 
 30 H        2.7190    -0.7180    -0.9540 H     1 <1>   0.1500 
 31 H        5.1240    -1.0160    -0.6910 H     1 <1>   0.1500 
 32 H        6.5400     0.8250    -0.0280 H     1 <1>   0.1500 
 33 H        4.8450     3.3030     2.2070 H     1 <1>   0.4000 
 34 H        7.7460     2.6540     0.2070 H     1 <1>   0.0800 
 35 H        7.1800     2.4570     1.8410 H     1 <1>   0.0800 
 36 H        4.8320     4.8620    -0.8020 H     1 <1>   0.0800 
 37 H        6.2470     4.1010    -1.4510 H     1 <1>   0.0800 
 38 H        9.0140     4.1140     1.6660 H     1 <1>   0.0800 
 39 H        7.5510     4.8880     2.2180 H     1 <1>   0.0800 
 40 H        6.2240     6.2840     0.6390 H     1 <1>   0.0800 
 41 H        6.7470     6.4250    -1.0200 H     1 <1>   0.0800 
 42 H       10.4830     4.5400    -0.2350 H     1 <1>   0.1500 
 43 H        9.7600     9.2880     0.0100 H     1 <1>   0.1500 
 44 H       12.4420     6.0280    -0.5100 H     1 <1>   0.1500 
 45 H       13.8500     7.4920     0.1590 H     1 <1>   0.3700 
 46 H       15.0530     9.7170     0.6420 H     1 <1>   0.0800 
 47 H       14.5300    10.1600    -0.9670 H     1 <1>   0.0800 
 48 H       16.2330     7.7380    -0.2810 H     1 <1>   0.0800 
 49 H       16.7960     9.2020    -1.0440 H     1 <1>   0.0800 
 50 H       15.6790     8.1670    -1.8940 H     1 <1>   0.0800 
@<TRIPOS>BOND
  1   1   2  1   
  2   2   3  1   
  3   2   4  1   
  4   2   5  1   
  5   5   6  ar  
  6   5   7  ar  
  7   6   8  ar  
  8   6  29  1   
  9   7   9  ar  
 10   7  30  1   
 11   8  10  ar  
 12   8  11  1   
 13   9  10  ar  
 14   9  31  1   
 15  10  32  1   
 16  11  12  1   
 17  11  13  1   
 18  11  14  1   
 19  12  33  1   
 20  13  15  1   
 21  13  34  1   
 22  13  35  1   
 23  14  16  1   
 24  14  36  1   
 25  14  37  1   
 26  15  17  1   
 27  15  38  1   
 28  15  39  1   
 29  16  17  1   
 30  16  40  1   
 31  16  41  1   
 32  17  18  1   
 33  18  19  ar  
 34  18  20  ar  
 35  19  21  ar  
 36  20  22  ar  
 37  20  42  1   
 38  21  23  ar  
 39  21  43  1   
 40  22  23  ar  
 41  22  44  1   
 42  23  24  1   
 43  24  25  2   
 44  24  26  am  
 45  26  27  1   
 46  26  45  1   
 47  27  28  1   
 48  27  46  1   
 49  27  47  1   
 50  28  48  1   
 51  28  49  1   
 52  28  50  1   
@<TRIPOS>SUBSTRUCTURE
  1 ****  17 GROUP 4 **** **** 0

# MOE 2024.06 (io_trps.svl 2023.06)
