@<TRIPOS>MOLECULE
NONAME
46 49 1 0 0 
SMALL
USER_CHARGES


@<TRIPOS>ATOM
  1 S       -1.2190    -0.1160     1.6750 S.3   1 <1>  -0.0800 
  2 C       -1.0750    -1.7040     0.9710 C.2   1 <1>  -0.1400 
  3 C       -1.1360    -0.8440     3.2640 C.2   1 <1>   0.2280 
  4 C       -0.9810    -2.6060     1.9610 C.2   1 <1>   0.0770 
  5 C       -1.0770    -1.8300    -0.5330 C.3   1 <1>   0.5230 
  6 N       -1.0220    -2.1120     3.2530 N.2   1 <1>  -0.5650 
  7 N       -2.4190    -2.2940    -0.9540 N.4   1 <1>  -0.9590 
  8 C       -2.4430    -2.9080    -2.3150 C.3   1 <1>   0.3430 
  9 C       -3.5280    -1.3310    -0.7100 C.3   1 <1>   0.3430 
 10 C       -3.6350    -3.8800    -2.4780 C.3   1 <1>   0.1400 
 11 C       -4.6830    -2.0310     0.0150 C.3   1 <1>  -0.1600 
 12 N       -4.3470    -4.1730    -1.1880 N.am  1 <1>  -0.6600 
 13 C       -5.3570    -3.1680    -0.7690 C.3   1 <1>   0.1400 
 14 C       -3.8090    -5.0390    -0.2620 C.2   1 <1>   0.5440 
 15 O       -2.6020    -4.9770    -0.1050 O.2   1 <1>  -0.5700 
 16 C       -4.6370    -5.9130     0.5490 C.ar  1 <1>   0.0860 
 17 C       -5.8470    -6.4250     0.0630 C.ar  1 <1>  -0.1500 
 18 C       -4.2480    -6.2730     1.8480 C.ar  1 <1>  -0.1500 
 19 C       -6.6220    -7.2440     0.8580 C.ar  1 <1>  -0.1430 
 20 C       -5.0300    -7.0950     2.6420 C.ar  1 <1>  -0.1500 
 21 C       -6.2200    -7.5700     2.1250 C.ar  1 <1>   0.0830 
 22 C       -7.9370    -7.9170     0.5890 C.3   1 <1>  -0.0170 
 23 O       -7.0840    -8.3710     2.7590 O.3   1 <1>  -0.3620 
 24 C       -8.1850    -8.6670     1.9110 C.3   1 <1>   0.1200 
 25 H       -1.1880    -0.1860     4.1150 H     1 <1>   0.1500 
 26 H       -0.8810    -3.6740     1.8410 H     1 <1>   0.1500 
 27 H       -0.3370    -2.5600    -0.8180 H     1 <1>   0.0800 
 28 H       -0.8320    -0.8870    -0.9930 H     1 <1>   0.0800 
 29 H       -2.6170    -3.1180    -0.3460 H     1 <1>   0.4500 
 30 H       -1.5400    -3.4770    -2.4610 H     1 <1>   0.0800 
 31 H       -2.4780    -2.1470    -3.0770 H     1 <1>   0.0800 
 32 H       -3.8730    -0.9160    -1.6430 H     1 <1>   0.0800 
 33 H       -3.1790    -0.5190    -0.0930 H     1 <1>   0.0800 
 34 H       -3.2680    -4.8040    -2.8910 H     1 <1>   0.0800 
 35 H       -4.3330    -3.4750    -3.1900 H     1 <1>   0.0800 
 36 H       -5.4340    -1.2930     0.2340 H     1 <1>   0.0800 
 37 H       -4.3370    -2.4030     0.9650 H     1 <1>   0.0800 
 38 H       -5.8630    -2.7770    -1.6360 H     1 <1>   0.0800 
 39 H       -6.1000    -3.6380    -0.1450 H     1 <1>   0.0800 
 40 H       -6.1720    -6.1850    -0.9330 H     1 <1>   0.1500 
 41 H       -3.3170    -5.9010     2.2390 H     1 <1>   0.1500 
 42 H       -4.7340    -7.3690     3.6380 H     1 <1>   0.1500 
 43 H       -7.8650    -8.6040    -0.2350 H     1 <1>   0.0800 
 44 H       -8.7150    -7.1990     0.4030 H     1 <1>   0.0800 
 45 H       -8.2160    -9.7320     1.7630 H     1 <1>   0.0800 
 46 H       -9.0830    -8.3300     2.3980 H     1 <1>   0.0800 
@<TRIPOS>BOND
  1   1   2  1   
  2   1   3  1   
  3   2   4  2   
  4   2   5  1   
  5   3   6  2   
  6   3  25  1   
  7   4   6  1   
  8   4  26  1   
  9   5   7  1   
 10   5  27  1   
 11   5  28  1   
 12   7   8  1   
 13   7   9  1   
 14   7  29  1   
 15   8  10  1   
 16   8  30  1   
 17   8  31  1   
 18   9  11  1   
 19   9  32  1   
 20   9  33  1   
 21  10  12  1   
 22  10  34  1   
 23  10  35  1   
 24  11  13  1   
 25  11  36  1   
 26  11  37  1   
 27  12  13  1   
 28  12  14  am  
 29  13  38  1   
 30  13  39  1   
 31  14  15  2   
 32  14  16  1   
 33  16  17  ar  
 34  16  18  ar  
 35  17  19  ar  
 36  17  40  1   
 37  18  20  ar  
 38  18  41  1   
 39  19  21  ar  
 40  19  22  1   
 41  20  21  ar  
 42  20  42  1   
 43  21  23  1   
 44  22  24  1   
 45  22  43  1   
 46  22  44  1   
 47  23  24  1   
 48  24  45  1   
 49  24  46  1   
@<TRIPOS>SUBSTRUCTURE
  1 ****  14 GROUP 4 **** **** 0

# MOE 2024.06 (io_trps.svl 2023.06)
