@<TRIPOS>MOLECULE
NONAME
52 53 1 0 0 
SMALL
USER_CHARGES


@<TRIPOS>ATOM
  1 S       -0.0770     0.0910     2.2630 S.o2  1 <1>   1.4470 
  2 O        0.3560    -1.2490     2.6020 O.2   1 <1>  -0.6500 
  3 O       -0.3280     1.0150     3.3500 O.2   1 <1>  -0.6500 
  4 N       -1.5120    -0.0670     1.3760 N.am  1 <1>  -0.8490 
  5 C        1.1200     0.8110     1.1050 C.ar  1 <1>  -0.0090 
  6 C       -1.4010    -1.0300     0.2570 C.3   1 <1>   0.1960 
  7 C       -2.6580    -0.4320     2.2160 C.3   1 <1>   0.1960 
  8 C        0.8350     1.9580     0.3700 C.ar  1 <1>   0.0820 
  9 C        2.3630     0.2160     0.9260 C.ar  1 <1>  -0.1500 
 10 C       -2.6240    -0.8650    -0.6680 C.3   1 <1>   0.2000 
 11 C       -3.9560    -0.3110     1.3990 C.3   1 <1>  -0.1600 
 12 O       -0.3740     2.5480     0.5360 O.3   1 <1>  -0.3630 
 13 C        1.7770     2.4770    -0.5140 C.ar  1 <1>  -0.1500 
 14 C        3.3060     0.7240     0.0460 C.ar  1 <1>  -0.1440 
 15 O       -2.6030     0.4710    -1.0540 O.3   1 <1>  -0.6800 
 16 C       -3.9250    -1.1950     0.1150 C.3   1 <1>  -0.1060 
 17 C       -0.9770     3.2800    -0.5080 C.3   1 <1>   0.0400 
 18 C        3.0090     1.8680    -0.6820 C.ar  1 <1>  -0.1440 
 19 C        4.6440     0.0130    -0.0960 C.3   1 <1>  -0.0970 
 20 C       -3.8320    -2.6870     0.5020 C.2   1 <1>   0.9060 
 21 C       -5.2300    -1.0470    -0.7260 C.3   1 <1>  -0.1600 
 22 C        4.0090     2.4710    -1.6600 C.3   1 <1>  -0.0960 
 23 O       -4.3320    -3.0760     1.5640 O.co2 1 <1>  -0.9000 
 24 O       -3.2500    -3.4740    -0.2570 O.co2 1 <1>  -0.9000 
 25 C       -5.6930     0.3670    -1.1260 C.3   1 <1>  -0.1600 
 26 C       -7.0200     0.3070    -1.8900 C.3   1 <1>  -0.2400 
 27 H       -0.5150    -0.8340    -0.3210 H     1 <1>   0.0800 
 28 H       -1.3270    -2.0390     0.6300 H     1 <1>   0.0800 
 29 H       -2.5410    -1.4370     2.5910 H     1 <1>   0.0800 
 30 H       -2.7180     0.2340     3.0610 H     1 <1>   0.0800 
 31 H        2.5920    -0.6710     1.4920 H     1 <1>   0.1500 
 32 H       -2.5350    -1.4780    -1.5490 H     1 <1>   0.0800 
 33 H       -4.7850    -0.6060     2.0190 H     1 <1>   0.0800 
 34 H       -4.0930     0.7230     1.1500 H     1 <1>   0.0800 
 35 H        1.5570     3.3670    -1.0700 H     1 <1>   0.1500 
 36 H       -2.3710     0.9530    -0.2280 H     1 <1>   0.4000 
 37 H       -2.0060     3.4490    -0.2440 H     1 <1>   0.0800 
 38 H       -0.9260     2.7040    -1.4150 H     1 <1>   0.0800 
 39 H       -0.4700     4.2220    -0.6160 H     1 <1>   0.0800 
 40 H        4.6960    -0.8470     0.5460 H     1 <1>   0.0800 
 41 H        5.4460     0.6790     0.1690 H     1 <1>   0.0800 
 42 H        4.7810    -0.3160    -1.1100 H     1 <1>   0.0800 
 43 H       -5.1120    -1.6360    -1.6200 H     1 <1>   0.0800 
 44 H       -6.0260    -1.5030    -0.1610 H     1 <1>   0.0800 
 45 H        3.6080     3.3480    -2.1340 H     1 <1>   0.0800 
 46 H        4.2520     1.7560    -2.4250 H     1 <1>   0.0800 
 47 H        4.9080     2.7500    -1.1410 H     1 <1>   0.0800 
 48 H       -5.8270     0.9770    -0.2520 H     1 <1>   0.0800 
 49 H       -4.9590     0.8330    -1.7570 H     1 <1>   0.0800 
 50 H       -7.7860    -0.1340    -1.2760 H     1 <1>   0.0800 
 51 H       -6.9100    -0.2820    -2.7830 H     1 <1>   0.0800 
 52 H       -7.3310     1.2990    -2.1670 H     1 <1>   0.0800 
@<TRIPOS>BOND
  1   1   2  2   
  2   1   3  2   
  3   1   4  am  
  4   1   5  1   
  5   4   6  1   
  6   4   7  1   
  7   5   8  ar  
  8   5   9  ar  
  9   6  10  1   
 10   6  27  1   
 11   6  28  1   
 12   7  11  1   
 13   7  29  1   
 14   7  30  1   
 15   8  12  1   
 16   8  13  ar  
 17   9  14  ar  
 18   9  31  1   
 19  10  15  1   
 20  10  16  1   
 21  10  32  1   
 22  11  16  1   
 23  11  33  1   
 24  11  34  1   
 25  12  17  1   
 26  13  18  ar  
 27  13  35  1   
 28  14  18  ar  
 29  14  19  1   
 30  15  36  1   
 31  16  20  1   
 32  16  21  1   
 33  17  37  1   
 34  17  38  1   
 35  17  39  1   
 36  18  22  1   
 37  19  40  1   
 38  19  41  1   
 39  19  42  1   
 40  20  23  ar  
 41  20  24  ar  
 42  21  25  1   
 43  21  43  1   
 44  21  44  1   
 45  22  45  1   
 46  22  46  1   
 47  22  47  1   
 48  25  26  1   
 49  25  48  1   
 50  25  49  1   
 51  26  50  1   
 52  26  51  1   
 53  26  52  1   
@<TRIPOS>SUBSTRUCTURE
  1 ****   4 GROUP 4 **** **** 0

# MOE 2024.06 (io_trps.svl 2023.06)
