@<TRIPOS>MOLECULE
NONAME
50 52 1 0 0 
SMALL
USER_CHARGES


@<TRIPOS>ATOM
  1 O       -1.0840     0.0260    -0.5740 O.2   1 <1>  -0.5700 
  2 C       -1.8950     0.9100    -0.7820 C.2   1 <1>   0.5440 
  3 N       -3.0540     0.5870    -1.4570 N.am  1 <1>  -0.6600 
  4 C       -1.6960     2.2490    -0.2550 C.ar  1 <1>   0.0860 
  5 C       -3.1660    -0.7210    -2.1580 C.3   1 <1>   0.3200 
  6 C       -4.3570     1.2560    -1.1530 C.3   1 <1>   0.1400 
  7 C       -1.4220     2.5080     1.0980 C.ar  1 <1>  -0.1440 
  8 C       -1.8280     3.3390    -1.1170 C.ar  1 <1>  -0.1500 
  9 C       -3.8150    -1.6670    -1.1760 C.2   1 <1>  -0.3320 
 10 C       -4.6910     1.1150     0.3470 C.3   1 <1>   0.3430 
 11 C       -1.3130     3.8130     1.5550 C.ar  1 <1>  -0.1500 
 12 C       -1.2210     1.3770     2.1020 C.3   1 <1>  -0.0960 
 13 C       -1.7350     4.6360    -0.6580 C.ar  1 <1>   0.0830 
 14 N       -3.1710    -2.1020    -0.0780 N.pl3 1 <1>   0.0330 
 15 C       -5.0530    -2.2040    -1.1390 C.2   1 <1>   0.0770 
 16 N       -6.1510     1.2600     0.6590 N.4   1 <1>  -0.9590 
 17 C       -1.4690     4.8780     0.6870 C.ar  1 <1>   0.0830 
 18 O       -1.9150     5.6550    -1.5350 O.3   1 <1>  -0.3630 
 19 C       -4.0820    -2.8430     0.5870 C.2   1 <1>   0.0360 
 20 N       -5.2330    -2.9080    -0.0070 N.2   1 <1>  -0.5650 
 21 C       -6.3350     1.5620     2.1120 C.3   1 <1>   0.2630 
 22 C       -6.8960     0.0050     0.3120 C.3   1 <1>   0.2630 
 23 O       -1.3520     6.1380     1.1620 O.3   1 <1>  -0.3630 
 24 C       -2.0800     6.9570    -0.9970 C.3   1 <1>   0.1200 
 25 C       -1.1540     7.1660     0.2090 C.3   1 <1>   0.1200 
 26 H       -2.1960    -1.0850    -2.4540 H     1 <1>   0.0800 
 27 H       -3.7690    -0.6130    -3.0430 H     1 <1>   0.0800 
 28 H       -5.1300     0.8000    -1.7450 H     1 <1>   0.0800 
 29 H       -4.3010     2.2970    -1.4200 H     1 <1>   0.0800 
 30 H       -2.0110     3.1740    -2.1640 H     1 <1>   0.1500 
 31 H       -4.1300     1.8610     0.8860 H     1 <1>   0.0800 
 32 H       -4.3610     0.1450     0.6810 H     1 <1>   0.0800 
 33 H       -1.0960     4.0260     2.5870 H     1 <1>   0.1500 
 34 H       -2.0250     0.6670     2.0480 H     1 <1>   0.0800 
 35 H       -1.1680     1.7540     3.1080 H     1 <1>   0.0800 
 36 H       -0.2970     0.8670     1.8880 H     1 <1>   0.0800 
 37 H       -2.1950    -1.8890     0.1740 H     1 <1>   0.2700 
 38 H       -5.8420    -2.1100    -1.8670 H     1 <1>   0.1500 
 39 H       -6.5370     2.0470     0.1160 H     1 <1>   0.4500 
 40 H       -3.8520    -3.3280     1.5210 H     1 <1>   0.1500 
 41 H       -5.9470     0.7560     2.7140 H     1 <1>   0.0800 
 42 H       -7.3820     1.6870     2.3380 H     1 <1>   0.0800 
 43 H       -5.8170     2.4700     2.3750 H     1 <1>   0.0800 
 44 H       -6.4860    -0.8370     0.8490 H     1 <1>   0.0800 
 45 H       -6.8210    -0.1990    -0.7430 H     1 <1>   0.0800 
 46 H       -7.9380     0.1020     0.5680 H     1 <1>   0.0800 
 47 H       -3.1080     7.0690    -0.7010 H     1 <1>   0.0800 
 48 H       -1.8590     7.6660    -1.7740 H     1 <1>   0.0800 
 49 H       -0.1240     7.1410    -0.1000 H     1 <1>   0.0800 
 50 H       -1.3560     8.1070     0.6890 H     1 <1>   0.0800 
@<TRIPOS>BOND
  1   1   2  2   
  2   2   3  am  
  3   2   4  1   
  4   3   5  1   
  5   3   6  1   
  6   4   7  ar  
  7   4   8  ar  
  8   5   9  1   
  9   5  26  1   
 10   5  27  1   
 11   6  10  1   
 12   6  28  1   
 13   6  29  1   
 14   7  11  ar  
 15   7  12  1   
 16   8  13  ar  
 17   8  30  1   
 18   9  14  1   
 19   9  15  2   
 20  10  16  1   
 21  10  31  1   
 22  10  32  1   
 23  11  17  ar  
 24  11  33  1   
 25  12  34  1   
 26  12  35  1   
 27  12  36  1   
 28  13  17  ar  
 29  13  18  1   
 30  14  19  1   
 31  14  37  1   
 32  15  20  1   
 33  15  38  1   
 34  16  21  1   
 35  16  22  1   
 36  16  39  1   
 37  17  23  1   
 38  18  24  1   
 39  19  20  2   
 40  19  40  1   
 41  21  41  1   
 42  21  42  1   
 43  21  43  1   
 44  22  44  1   
 45  22  45  1   
 46  22  46  1   
 47  23  25  1   
 48  24  25  1   
 49  24  47  1   
 50  24  48  1   
 51  25  49  1   
 52  25  50  1   
@<TRIPOS>SUBSTRUCTURE
  1 ****   4 GROUP 4 **** **** 0

# MOE 2024.06 (io_trps.svl 2023.06)
