@<TRIPOS>MOLECULE
NONAME
40 41 1 0 0 
SMALL
USER_CHARGES


@<TRIPOS>ATOM
  1 F        0.1030    -0.6090     0.5720 F     1 <1>  -0.1900 
  2 C       -0.0360    -1.8940     0.3800 C.ar  1 <1>   0.1900 
  3 C       -0.8240    -2.3450    -0.6680 C.ar  1 <1>  -0.1440 
  4 C        0.6170    -2.7550     1.2400 C.ar  1 <1>  -0.1500 
  5 C       -0.9550    -3.7150    -0.8390 C.ar  1 <1>  -0.1500 
  6 C       -1.5190    -1.3700    -1.6090 C.3   1 <1>  -0.0960 
  7 C        0.4740    -4.1180     1.0550 C.ar  1 <1>  -0.1500 
  8 C       -0.3180    -4.6050     0.0190 C.ar  1 <1>  -0.1440 
  9 C       -0.5110    -6.1090    -0.1820 C.3   1 <1>   0.4610 
 10 N       -1.4430    -6.6260     0.9120 N.4   1 <1>  -0.9590 
 11 C        0.8240    -6.8900    -0.2070 C.2   1 <1>   0.9060 
 12 C       -1.6510    -8.1140     0.7960 C.3   1 <1>   0.3430 
 13 C       -2.6660    -5.8020     1.1330 C.3   1 <1>   0.2630 
 14 O        1.2770    -7.2530     0.8910 O.co2 1 <1>  -0.9000 
 15 O        1.2810    -7.2780    -1.2840 O.co2 1 <1>  -0.9000 
 16 C       -2.7160    -8.5700    -0.2180 C.3   1 <1>   0.0000 
 17 C       -4.1450    -8.5590     0.3480 C.3   1 <1>   0.2580 
 18 C       -2.9040   -10.0940    -0.1330 C.3   1 <1>   0.2580 
 19 C       -2.5890    -8.0670    -1.6740 C.3   1 <1>  -0.2400 
 20 O       -4.3070    -9.8710    -0.1640 O.3   1 <1>  -0.5160 
 21 H        1.2280    -2.3620     2.0330 H     1 <1>   0.1500 
 22 H       -1.5530    -4.0890    -1.6520 H     1 <1>   0.1500 
 23 H       -2.1810    -0.7310    -1.0520 H     1 <1>   0.0800 
 24 H       -2.0900    -1.8890    -2.3560 H     1 <1>   0.0800 
 25 H       -0.7860    -0.7580    -2.1030 H     1 <1>   0.0800 
 26 H        0.9930    -4.7950     1.7160 H     1 <1>   0.1500 
 27 H       -0.9600    -6.2610    -1.1440 H     1 <1>   0.0800 
 28 H       -0.8060    -6.5300     1.7240 H     1 <1>   0.4500 
 29 H       -1.9260    -8.4970     1.7650 H     1 <1>   0.0800 
 30 H       -0.7140    -8.5840     0.5390 H     1 <1>   0.0800 
 31 H       -3.2880    -5.8150     0.2530 H     1 <1>   0.0800 
 32 H       -2.3940    -4.7800     1.3460 H     1 <1>   0.0800 
 33 H       -3.2290    -6.1860     1.9660 H     1 <1>   0.0800 
 34 H       -4.8260    -7.8810    -0.1350 H     1 <1>   0.0000 
 35 H       -4.2110    -8.5760     1.4230 H     1 <1>   0.0000 
 36 H       -2.6280   -10.5400     0.8080 H     1 <1>   0.0000 
 37 H       -2.5930   -10.6490    -1.0010 H     1 <1>   0.0000 
 38 H       -2.7960    -7.0150    -1.7370 H     1 <1>   0.0800 
 39 H       -3.2920    -8.5770    -2.3110 H     1 <1>   0.0800 
 40 H       -1.5980    -8.2580    -2.0510 H     1 <1>   0.0800 
@<TRIPOS>BOND
  1   1   2  1   
  2   2   3  ar  
  3   2   4  ar  
  4   3   5  ar  
  5   3   6  1   
  6   4   7  ar  
  7   4  21  1   
  8   5   8  ar  
  9   5  22  1   
 10   6  23  1   
 11   6  24  1   
 12   6  25  1   
 13   7   8  ar  
 14   7  26  1   
 15   8   9  1   
 16   9  10  1   
 17   9  11  1   
 18   9  27  1   
 19  10  12  1   
 20  10  13  1   
 21  10  28  1   
 22  11  14  ar  
 23  11  15  ar  
 24  12  16  1   
 25  12  29  1   
 26  12  30  1   
 27  13  31  1   
 28  13  32  1   
 29  13  33  1   
 30  16  17  1   
 31  16  18  1   
 32  16  19  1   
 33  17  20  1   
 34  17  34  1   
 35  17  35  1   
 36  18  20  1   
 37  18  36  1   
 38  18  37  1   
 39  19  38  1   
 40  19  39  1   
 41  19  40  1   
@<TRIPOS>SUBSTRUCTURE
  1 ****   9 GROUP 4 **** **** 0

# MOE 2024.06 (io_trps.svl 2023.06)
