@<TRIPOS>MOLECULE
NONAME
42 44 1 0 0 
SMALL
USER_CHARGES


@<TRIPOS>ATOM
  1 O       -0.1420    -0.0640     0.0120 O.2   1 <1>  -0.5700 
  2 C        0.8940    -0.4990    -0.4660 C.2   1 <1>   0.7160 
  3 N        1.9530     0.3460    -0.6710 N.am  1 <1>  -0.4930 
  4 C        1.0320    -1.8800    -0.8030 C.2   1 <1>  -0.0860 
  5 C        2.0420     1.7470    -0.4780 C.2   1 <1>   0.0630 
  6 C        0.3330    -2.9780    -0.3630 C.2   1 <1>  -0.0680 
  7 C        1.9570    -2.4470    -1.6960 C.2   1 <1>   0.1390 
  8 C        1.1410     2.7570    -0.8320 C.2   1 <1>   0.1080 
  9 C        3.0850     2.3970     0.0840 C.2   1 <1>  -0.3320 
 10 N        0.8540    -4.0560    -0.9690 N.pl3 1 <1>   0.6010 
 11 N       -0.6940    -3.3720     0.4720 N.pl3 1 <1>  -0.5530 
 12 N        1.8740    -3.7380    -1.8040 N.2   1 <1>  -0.7070 
 13 N        1.5810     3.9350    -0.5180 N.2   1 <1>  -0.7070 
 14 C       -0.1960     2.5730    -1.5140 C.3   1 <1>  -0.0590 
 15 N        2.7780     3.7200     0.0510 N.pl3 1 <1>   0.3140 
 16 C        4.3720     1.8340     0.6720 C.3   1 <1>  -0.0600 
 17 C        0.1590    -5.1660    -0.5280 C.2   1 <1>  -0.1810 
 18 C       -0.7810    -4.7490     0.3450 C.2   1 <1>  -0.0500 
 19 C       -1.5560    -2.4830     1.2820 C.3   1 <1>   0.1290 
 20 C        3.5900     4.8500     0.5510 C.3   1 <1>   0.0960 
 21 C        4.5610     5.3500    -0.5280 C.3   1 <1>  -0.1600 
 22 C        5.4200     6.5110    -0.0130 C.3   1 <1>  -0.2400 
 23 H        2.8510    -0.1060    -0.8090 H     1 <1>   0.3700 
 24 H        2.6760    -1.8730    -2.2570 H     1 <1>   0.1500 
 25 H       -0.1650     1.7300    -2.1780 H     1 <1>   0.0800 
 26 H       -0.4400     3.4540    -2.0790 H     1 <1>   0.0800 
 27 H       -0.9560     2.4130    -0.7720 H     1 <1>   0.0800 
 28 H        4.3810     0.7610     0.6130 H     1 <1>   0.0800 
 29 H        4.4570     2.1120     1.7070 H     1 <1>   0.0800 
 30 H        5.2230     2.2130     0.1360 H     1 <1>   0.0800 
 31 H        0.4130    -6.1420    -0.8910 H     1 <1>   0.1500 
 32 H       -1.5110    -5.3270     0.8890 H     1 <1>   0.1500 
 33 H       -0.9430    -1.8730     1.9220 H     1 <1>   0.0800 
 34 H       -2.2280    -3.0670     1.8820 H     1 <1>   0.0800 
 35 H       -2.1230    -1.8420     0.6290 H     1 <1>   0.0800 
 36 H        4.1260     4.5320     1.4250 H     1 <1>   0.0800 
 37 H        2.9180     5.6410     0.8330 H     1 <1>   0.0800 
 38 H        3.9950     5.6800    -1.3820 H     1 <1>   0.0800 
 39 H        5.2040     4.5440    -0.8380 H     1 <1>   0.0800 
 40 H        4.7970     7.3370     0.2810 H     1 <1>   0.0800 
 41 H        6.0860     6.8460    -0.7890 H     1 <1>   0.0800 
 42 H        6.0090     6.2010     0.8320 H     1 <1>   0.0800 
@<TRIPOS>BOND
  1   1   2  2   
  2   2   3  am  
  3   2   4  1   
  4   3   5  1   
  5   3  23  1   
  6   4   6  2   
  7   4   7  1   
  8   5   8  1   
  9   5   9  2   
 10   6  10  1   
 11   6  11  1   
 12   7  12  2   
 13   7  24  1   
 14   8  13  2   
 15   8  14  1   
 16   9  15  1   
 17   9  16  1   
 18  10  12  1   
 19  10  17  1   
 20  11  18  1   
 21  11  19  1   
 22  13  15  1   
 23  14  25  1   
 24  14  26  1   
 25  14  27  1   
 26  15  20  1   
 27  16  28  1   
 28  16  29  1   
 29  16  30  1   
 30  17  18  2   
 31  17  31  1   
 32  18  32  1   
 33  19  33  1   
 34  19  34  1   
 35  19  35  1   
 36  20  21  1   
 37  20  36  1   
 38  20  37  1   
 39  21  22  1   
 40  21  38  1   
 41  21  39  1   
 42  22  40  1   
 43  22  41  1   
 44  22  42  1   
@<TRIPOS>SUBSTRUCTURE
  1 ****   3 GROUP 4 **** **** 0

# MOE 2024.06 (io_trps.svl 2023.06)
