@<TRIPOS>MOLECULE
NONAME
53 55 1 0 0 
SMALL
USER_CHARGES


@<TRIPOS>ATOM
  1 O       -0.9720     0.0810     0.0740 O.2   1 <1>  -0.5700 
  2 C       -1.5670     1.0900     0.3810 C.2   1 <1>   0.5690 
  3 N       -2.9030     1.0280     0.7310 N.am  1 <1>  -0.6600 
  4 C       -0.7890     2.4360     0.3850 C.3   1 <1>   0.2610 
  5 C       -3.6280    -0.2820     0.7530 C.3   1 <1>   0.1400 
  6 C       -3.7350     2.2240     1.0590 C.3   1 <1>   0.1400 
  7 O       -1.3090     3.3390    -0.5520 O.3   1 <1>  -0.6800 
  8 C        0.7440     2.3290     0.1670 C.3   1 <1>  -0.0800 
  9 C       -4.7990    -0.3240    -0.2390 C.3   1 <1>   0.1400 
 10 C       -4.5490     2.6390    -0.1720 C.3   1 <1>  -0.1600 
 11 C        1.4550     3.6320     0.5900 C.3   1 <1>  -0.1600 
 12 C        1.1550     1.9570    -1.2780 C.3   1 <1>  -0.1600 
 13 N       -5.9330     0.5470     0.2120 N.am  1 <1>  -0.6600 
 14 C       -5.9160     1.9500    -0.3000 C.3   1 <1>   0.1400 
 15 C        2.9790     3.5150     0.4530 C.3   1 <1>  -0.1600 
 16 C        2.6790     1.8290    -1.4080 C.3   1 <1>  -0.1600 
 17 C       -6.9830     0.1030     0.9870 C.2   1 <1>   0.5690 
 18 C        3.3810     3.1200    -0.9730 C.3   1 <1>  -0.1600 
 19 O       -7.9100     0.8250     1.2710 O.2   1 <1>  -0.5700 
 20 C       -7.0280    -1.2980     1.5580 C.3   1 <1>   0.1570 
 21 N       -7.4550    -2.2540     0.5300 N.pl3 1 <1>   0.3140 
 22 N       -6.6960    -3.3190     0.2020 N.2   1 <1>  -0.7070 
 23 C       -8.5970    -2.2320    -0.1860 C.2   1 <1>  -0.3020 
 24 C       -7.3750    -3.9430    -0.7130 C.2   1 <1>   0.1390 
 25 C       -8.5760    -3.3080    -1.0000 C.2   1 <1>  -0.1500 
 26 H       -0.9460     2.8750     1.3530 H     1 <1>   0.0800 
 27 H       -2.9550    -1.0830     0.5030 H     1 <1>   0.0800 
 28 H       -3.9870    -0.4720     1.7490 H     1 <1>   0.0800 
 29 H       -4.3860     2.0060     1.8880 H     1 <1>   0.0800 
 30 H       -3.1080     3.0450     1.3550 H     1 <1>   0.0800 
 31 H       -1.1100     3.0020    -1.4470 H     1 <1>   0.4000 
 32 H        1.0990     1.5490     0.8190 H     1 <1>   0.0800 
 33 H       -5.1300    -1.3390    -0.3420 H     1 <1>   0.0800 
 34 H       -4.4560    -0.0120    -1.2100 H     1 <1>   0.0800 
 35 H       -4.7280     3.6980    -0.1190 H     1 <1>   0.0800 
 36 H       -3.9710     2.4730    -1.0630 H     1 <1>   0.0800 
 37 H        1.1080     4.4480    -0.0210 H     1 <1>   0.0800 
 38 H        1.2130     3.8630     1.6130 H     1 <1>   0.0800 
 39 H        0.7060     1.0230    -1.5670 H     1 <1>   0.0800 
 40 H        0.8190     2.7130    -1.9650 H     1 <1>   0.0800 
 41 H       -6.2240     1.9510    -1.3320 H     1 <1>   0.0800 
 42 H       -6.6340     2.5380     0.2460 H     1 <1>   0.0800 
 43 H        3.4370     4.4550     0.7090 H     1 <1>   0.0800 
 44 H        3.3440     2.7730     1.1430 H     1 <1>   0.0800 
 45 H        3.0210     1.0110    -0.7960 H     1 <1>   0.0800 
 46 H        2.9360     1.6050    -2.4290 H     1 <1>   0.0800 
 47 H        4.4480     2.9850    -1.0230 H     1 <1>   0.0800 
 48 H        3.1170     3.9150    -1.6500 H     1 <1>   0.0800 
 49 H       -7.7330    -1.3340     2.3660 H     1 <1>   0.0800 
 50 H       -6.0640    -1.5840     1.9280 H     1 <1>   0.0800 
 51 H       -9.3430    -1.4640    -0.0770 H     1 <1>   0.1500 
 52 H       -7.0360    -4.8490    -1.1880 H     1 <1>   0.1500 
 53 H       -9.3100    -3.6290    -1.7180 H     1 <1>   0.1500 
@<TRIPOS>BOND
  1   1   2  2   
  2   2   3  am  
  3   2   4  1   
  4   3   5  1   
  5   3   6  1   
  6   4   7  1   
  7   4   8  1   
  8   4  26  1   
  9   5   9  1   
 10   5  27  1   
 11   5  28  1   
 12   6  10  1   
 13   6  29  1   
 14   6  30  1   
 15   7  31  1   
 16   8  11  1   
 17   8  12  1   
 18   8  32  1   
 19   9  13  1   
 20   9  33  1   
 21   9  34  1   
 22  10  14  1   
 23  10  35  1   
 24  10  36  1   
 25  11  15  1   
 26  11  37  1   
 27  11  38  1   
 28  12  16  1   
 29  12  39  1   
 30  12  40  1   
 31  13  14  1   
 32  13  17  am  
 33  14  41  1   
 34  14  42  1   
 35  15  18  1   
 36  15  43  1   
 37  15  44  1   
 38  16  18  1   
 39  16  45  1   
 40  16  46  1   
 41  17  19  2   
 42  17  20  1   
 43  18  47  1   
 44  18  48  1   
 45  20  21  1   
 46  20  49  1   
 47  20  50  1   
 48  21  22  1   
 49  21  23  1   
 50  22  24  2   
 51  23  25  2   
 52  23  51  1   
 53  24  25  1   
 54  24  52  1   
 55  25  53  1   
@<TRIPOS>SUBSTRUCTURE
  1 ****   3 GROUP 4 **** **** 0

# MOE 2024.06 (io_trps.svl 2023.06)
