@<TRIPOS>MOLECULE
NONAME
36 37 1 0 0 
SMALL
USER_CHARGES


@<TRIPOS>ATOM
  1 F        0.9810     1.2190     0.0410 F     1 <1>  -0.1900 
  2 C        2.0090     0.7030    -0.5750 C.ar  1 <1>   0.1900 
  3 C        2.5000    -0.5100    -0.1340 C.ar  1 <1>  -0.1500 
  4 C        2.5650     1.3880    -1.6330 C.ar  1 <1>  -0.1500 
  5 C        3.6020    -1.0920    -0.7620 C.ar  1 <1>  -0.1430 
  6 C        3.6560     0.8260    -2.2650 C.ar  1 <1>  -0.1500 
  7 C        4.1640    -0.3910    -1.8350 C.ar  1 <1>  -0.1500 
  8 C        4.1790    -2.4490    -0.2720 C.3   1 <1>   0.6470 
  9 N        5.0990    -2.1940     0.9010 N.4   1 <1>  -0.9590 
 10 C        4.9810    -3.1820    -1.3950 C.3   1 <1>  -0.1600 
 11 C        3.0380    -3.4350     0.1360 C.3   1 <1>  -0.1600 
 12 C        4.4140    -1.7180     2.1450 C.3   1 <1>   0.2630 
 13 C        6.2170    -1.2440     0.5950 C.3   1 <1>   0.2630 
 14 C        5.4290    -4.6300    -1.0660 C.3   1 <1>  -0.0990 
 15 C        3.5080    -4.8460     0.5780 C.3   1 <1>  -0.0990 
 16 C        4.9890    -4.9960     0.3300 C.2   1 <1>   0.4480 
 17 O        5.7680    -5.1050     1.2240 O.2   1 <1>  -0.5700 
 18 H        1.9910    -0.9570     0.6990 H     1 <1>   0.1500 
 19 H        2.1530     2.3310    -1.9490 H     1 <1>   0.1500 
 20 H        4.1100     1.3400    -3.0980 H     1 <1>   0.1500 
 21 H        5.0150    -0.7610    -2.3780 H     1 <1>   0.1500 
 22 H        5.5310    -3.1090     1.1370 H     1 <1>   0.4500 
 23 H        5.8480    -2.6230    -1.6860 H     1 <1>   0.0800 
 24 H        4.3500    -3.2310    -2.2670 H     1 <1>   0.0800 
 25 H        2.4000    -3.5560    -0.7230 H     1 <1>   0.0800 
 26 H        2.4120    -3.0340     0.9090 H     1 <1>   0.0800 
 27 H        3.9380    -0.7660     1.9730 H     1 <1>   0.0800 
 28 H        5.1330    -1.6010     2.9410 H     1 <1>   0.0800 
 29 H        3.6720    -2.4290     2.4680 H     1 <1>   0.0800 
 30 H        5.8240    -0.2810     0.3110 H     1 <1>   0.0800 
 31 H        6.8290    -1.6200    -0.2080 H     1 <1>   0.0800 
 32 H        6.8440    -1.1170     1.4620 H     1 <1>   0.0800 
 33 H        6.5010    -4.7120    -1.1310 H     1 <1>   0.0800 
 34 H        5.0030    -5.3270    -1.7660 H     1 <1>   0.0800 
 35 H        2.9730    -5.6090     0.0400 H     1 <1>   0.0800 
 36 H        3.3170    -4.9880     1.6280 H     1 <1>   0.0800 
@<TRIPOS>BOND
  1   1   2  1   
  2   2   3  ar  
  3   2   4  ar  
  4   3   5  ar  
  5   3  18  1   
  6   4   6  ar  
  7   4  19  1   
  8   5   7  ar  
  9   5   8  1   
 10   6   7  ar  
 11   6  20  1   
 12   7  21  1   
 13   8   9  1   
 14   8  10  1   
 15   8  11  1   
 16   9  12  1   
 17   9  13  1   
 18   9  22  1   
 19  10  14  1   
 20  10  23  1   
 21  10  24  1   
 22  11  15  1   
 23  11  25  1   
 24  11  26  1   
 25  12  27  1   
 26  12  28  1   
 27  12  29  1   
 28  13  30  1   
 29  13  31  1   
 30  13  32  1   
 31  14  16  1   
 32  14  33  1   
 33  14  34  1   
 34  15  16  1   
 35  15  35  1   
 36  15  36  1   
 37  16  17  2   
@<TRIPOS>SUBSTRUCTURE
  1 ****   8 GROUP 4 **** **** 0

# MOE 2024.06 (io_trps.svl 2023.06)
