@<TRIPOS>MOLECULE
NONAME
44 46 1 0 0 
SMALL
USER_CHARGES


@<TRIPOS>ATOM
  1 F       -2.8300     0.2740    -1.5740 F     1 <1>  -0.1900 
  2 C       -2.6960    -0.4350    -0.4810 C.ar  1 <1>   0.1900 
  3 C       -2.3890     0.1610     0.7480 C.ar  1 <1>   0.0830 
  4 C       -2.8820    -1.7960    -0.6110 C.ar  1 <1>  -0.1500 
  5 O       -2.1920     1.4820     0.9950 O.3   1 <1>  -0.3630 
  6 C       -2.2690    -0.6780     1.8460 C.ar  1 <1>  -0.1500 
  7 C       -2.7800    -2.6320     0.4990 C.ar  1 <1>   0.0860 
  8 C       -2.2100     2.4730    -0.0090 C.3   1 <1>   0.0400 
  9 C       -2.4580    -2.0440     1.7230 C.ar  1 <1>  -0.1500 
 10 C       -3.0090    -4.0590     0.3920 C.2   1 <1>   0.5440 
 11 O       -2.1260    -4.8230     0.7320 O.2   1 <1>  -0.5700 
 12 N       -4.2040    -4.5760    -0.0730 N.am  1 <1>  -0.6600 
 13 C       -5.4530    -3.7560    -0.1130 C.3   1 <1>   0.2200 
 14 C       -4.3060    -6.0360    -0.3770 C.3   1 <1>   0.0600 
 15 C       -6.6360    -4.3710     0.6310 C.3   1 <1>  -0.1600 
 16 C       -5.9750    -3.5270    -1.5280 C.3   1 <1>  -0.1600 
 17 C       -7.8610    -3.6510     0.0520 C.3   1 <1>  -0.0800 
 18 C       -7.4420    -3.1220    -1.3320 C.3   1 <1>  -0.0800 
 19 C       -8.2950    -2.4260     0.8710 C.3   1 <1>  -0.1600 
 20 C       -7.6530    -1.6000    -1.2970 C.3   1 <1>  -0.1600 
 21 C       -8.6480    -1.3760    -0.1700 C.3   1 <1>   0.2000 
 22 O       -8.4950    -0.1130     0.3570 O.3   1 <1>  -0.6800 
 23 H       -3.1040    -2.2160    -1.5750 H     1 <1>   0.1500 
 24 H       -2.0240    -0.2510     2.8030 H     1 <1>   0.1500 
 25 H       -1.9930     3.4190     0.4520 H     1 <1>   0.0800 
 26 H       -3.1880     2.5020    -0.4560 H     1 <1>   0.0800 
 27 H       -1.4570     2.2430    -0.7420 H     1 <1>   0.0800 
 28 H       -2.3540    -2.6790     2.5860 H     1 <1>   0.1500 
 29 H       -5.2750    -2.7920     0.3310 H     1 <1>   0.0800 
 30 H       -5.0250    -6.2180    -1.1540 H     1 <1>   0.0800 
 31 H       -4.5980    -6.5680     0.5110 H     1 <1>   0.0800 
 32 H       -3.3520    -6.4140    -0.7040 H     1 <1>   0.0800 
 33 H       -6.7290    -5.4170     0.4060 H     1 <1>   0.0800 
 34 H       -6.5470    -4.2450     1.6960 H     1 <1>   0.0800 
 35 H       -5.4110    -2.7770    -2.0510 H     1 <1>   0.0800 
 36 H       -5.9440    -4.4430    -2.0890 H     1 <1>   0.0800 
 37 H       -8.6910    -4.3320    -0.0460 H     1 <1>   0.0800 
 38 H       -8.0620    -3.5560    -2.0990 H     1 <1>   0.0800 
 39 H       -7.4780    -2.0760     1.4780 H     1 <1>   0.0800 
 40 H       -9.1390    -2.6520     1.4980 H     1 <1>   0.0800 
 41 H       -8.0390    -1.2360    -2.2330 H     1 <1>   0.0800 
 42 H       -6.7280    -1.1000    -1.0700 H     1 <1>   0.0800 
 43 H       -9.6620    -1.4950    -0.5150 H     1 <1>   0.0800 
 44 H       -7.5810     0.0080     0.6730 H     1 <1>   0.4000 
@<TRIPOS>BOND
  1   1   2  1   
  2   2   3  ar  
  3   2   4  ar  
  4   3   5  1   
  5   3   6  ar  
  6   4   7  ar  
  7   4  23  1   
  8   5   8  1   
  9   6   9  ar  
 10   6  24  1   
 11   7   9  ar  
 12   7  10  1   
 13   8  25  1   
 14   8  26  1   
 15   8  27  1   
 16   9  28  1   
 17  10  11  2   
 18  10  12  am  
 19  12  13  1   
 20  12  14  1   
 21  13  15  1   
 22  13  16  1   
 23  13  29  1   
 24  14  30  1   
 25  14  31  1   
 26  14  32  1   
 27  15  17  1   
 28  15  33  1   
 29  15  34  1   
 30  16  18  1   
 31  16  35  1   
 32  16  36  1   
 33  17  18  1   
 34  17  19  1   
 35  17  37  1   
 36  18  20  1   
 37  18  38  1   
 38  19  21  1   
 39  19  39  1   
 40  19  40  1   
 41  20  21  1   
 42  20  41  1   
 43  20  42  1   
 44  21  22  1   
 45  21  43  1   
 46  22  44  1   
@<TRIPOS>SUBSTRUCTURE
  1 ****  13 GROUP 4 **** **** 0

# MOE 2024.06 (io_trps.svl 2023.06)
