@<TRIPOS>MOLECULE
NONAME
47 50 1 0 0 
SMALL
USER_CHARGES


@<TRIPOS>ATOM
  1 O       -1.7740     0.5820    -1.9140 O.2   1 <1>  -0.5700 
  2 C       -1.6630     0.6870    -0.7070 C.2   1 <1>   0.5440 
  3 N       -1.7070    -0.4580     0.0360 N.am  1 <1>  -0.7300 
  4 C       -1.4990     1.9860    -0.0780 C.ar  1 <1>   0.0860 
  5 C       -1.8600    -1.8290    -0.5050 C.3   1 <1>   0.2200 
  6 C       -1.0710     3.0900    -0.8210 C.ar  1 <1>  -0.1500 
  7 C       -1.7580     2.1950     1.2810 C.ar  1 <1>  -0.1500 
  8 C       -3.2790    -2.3460    -0.3070 C.3   1 <1>  -0.0800 
  9 C       -1.0880    -2.7940     0.3830 C.3   1 <1>   0.1200 
 10 C       -0.9010     4.3390    -0.2520 C.ar  1 <1>  -0.1430 
 11 C       -1.5930     3.4380     1.8630 C.ar  1 <1>  -0.1500 
 12 C       -3.2530    -2.8840     1.1280 C.3   1 <1>   0.1200 
 13 C       -4.4080    -1.3370    -0.5870 C.3   1 <1>  -0.0160 
 14 O       -1.9070    -2.9980     1.4950 O.3   1 <1>  -0.5600 
 15 C       -1.1680     4.5130     1.1030 C.ar  1 <1>   0.0820 
 16 C       -0.4270     5.5080    -1.0990 C.3   1 <1>  -0.0170 
 17 C       -5.7720    -1.9930    -0.4350 C.ar  1 <1>  -0.1430 
 18 O       -1.0190     5.7070     1.7170 O.3   1 <1>  -0.3630 
 19 C        0.1230     6.6220    -0.2060 C.3   1 <1>  -0.1600 
 20 C       -6.3190    -2.7680    -1.4370 C.ar  1 <1>  -0.1500 
 21 C       -6.5320    -1.8510     0.7090 C.ar  1 <1>  -0.1500 
 22 C       -0.8440     6.8840     0.9520 C.3   1 <1>   0.1200 
 23 C       -7.5610    -3.3520    -1.2510 C.ar  1 <1>   0.1600 
 24 C       -7.7640    -2.4780     0.7940 C.ar  1 <1>   0.1600 
 25 N       -8.2950    -3.2280    -0.1580 N.ar  1 <1>  -0.6200 
 26 H       -1.5850    -0.4280     1.0500 H     1 <1>   0.3700 
 27 H       -1.5390    -1.8730    -1.5330 H     1 <1>   0.0800 
 28 H       -0.8700     2.9530    -1.8700 H     1 <1>   0.1500 
 29 H       -2.1000     1.3830     1.8940 H     1 <1>   0.1500 
 30 H       -3.4140    -3.1880    -0.9620 H     1 <1>   0.0800 
 31 H       -0.1360    -2.4040     0.6970 H     1 <1>   0.0800 
 32 H       -0.9540    -3.7420    -0.1080 H     1 <1>   0.0800 
 33 H       -1.7930     3.5880     2.9090 H     1 <1>   0.1500 
 34 H       -3.7190    -3.8520     1.2000 H     1 <1>   0.0800 
 35 H       -3.7200    -2.2030     1.8180 H     1 <1>   0.0800 
 36 H       -4.3050    -0.9550    -1.5880 H     1 <1>   0.0800 
 37 H       -4.3410    -0.4990     0.0840 H     1 <1>   0.0800 
 38 H        0.3350     5.1850    -1.7870 H     1 <1>   0.0800 
 39 H       -1.2610     5.8800    -1.6680 H     1 <1>   0.0800 
 40 H        0.2580     7.5200    -0.7810 H     1 <1>   0.0800 
 41 H        1.0790     6.3340     0.1960 H     1 <1>   0.0800 
 42 H       -5.7910    -2.9220    -2.3610 H     1 <1>   0.1500 
 43 H       -6.1800    -1.2580     1.5330 H     1 <1>   0.1500 
 44 H       -1.8100     7.1820     0.5850 H     1 <1>   0.0800 
 45 H       -0.4620     7.6460     1.6080 H     1 <1>   0.0800 
 46 H       -7.9710    -3.9540    -2.0440 H     1 <1>   0.1500 
 47 H       -8.3430    -2.3570     1.6930 H     1 <1>   0.1500 
@<TRIPOS>BOND
  1   1   2  2   
  2   2   3  am  
  3   2   4  1   
  4   3   5  1   
  5   3  26  1   
  6   4   6  ar  
  7   4   7  ar  
  8   5   8  1   
  9   5   9  1   
 10   5  27  1   
 11   6  10  ar  
 12   6  28  1   
 13   7  11  ar  
 14   7  29  1   
 15   8  12  1   
 16   8  13  1   
 17   8  30  1   
 18   9  14  1   
 19   9  31  1   
 20   9  32  1   
 21  10  15  ar  
 22  10  16  1   
 23  11  15  ar  
 24  11  33  1   
 25  12  14  1   
 26  12  34  1   
 27  12  35  1   
 28  13  17  1   
 29  13  36  1   
 30  13  37  1   
 31  15  18  1   
 32  16  19  1   
 33  16  38  1   
 34  16  39  1   
 35  17  20  ar  
 36  17  21  ar  
 37  18  22  1   
 38  19  22  1   
 39  19  40  1   
 40  19  41  1   
 41  20  23  ar  
 42  20  42  1   
 43  21  24  ar  
 44  21  43  1   
 45  22  44  1   
 46  22  45  1   
 47  23  25  ar  
 48  23  46  1   
 49  24  25  ar  
 50  24  47  1   
@<TRIPOS>SUBSTRUCTURE
  1 ****   2 GROUP 4 **** **** 0

# MOE 2024.06 (io_trps.svl 2023.06)
