@<TRIPOS>MOLECULE
NONAME
50 52 1 0 0 
SMALL
USER_CHARGES


@<TRIPOS>ATOM
  1 O       -0.5880    -3.1160     1.1480 O.2   1 <1>  -0.5700 
  2 C        0.2660    -2.6210     0.4340 C.2   1 <1>   0.6900 
  3 N        1.4730    -2.2220     0.9440 N.am  1 <1>  -0.6600 
  4 N        0.0370    -2.5160    -0.8960 N.am  1 <1>  -0.7300 
  5 C        1.8740    -2.5790     2.3330 C.3   1 <1>   0.0600 
  6 C        2.4090    -1.3030     0.2400 C.3   1 <1>   0.0600 
  7 C       -1.1800    -3.0630    -1.5760 C.3   1 <1>   0.2010 
  8 C       -1.1690    -4.5870    -1.7130 C.2   1 <1>   0.5690 
  9 O       -1.3310    -5.0870    -2.8010 O.2   1 <1>  -0.5700 
 10 N       -0.9820    -5.3410    -0.6020 N.am  1 <1>  -0.7300 
 11 C       -0.8330    -6.8130    -0.5530 C.3   1 <1>   0.2200 
 12 C       -1.9950    -7.4630     0.1820 C.3   1 <1>  -0.0800 
 13 C        0.3300    -7.1690     0.3660 C.3   1 <1>   0.1200 
 14 C       -1.5870    -7.2630     1.6440 C.3   1 <1>   0.1200 
 15 C       -3.3890    -6.9080    -0.1800 C.3   1 <1>  -0.0170 
 16 O       -0.1900    -7.2360     1.6630 O.3   1 <1>  -0.5600 
 17 C       -4.6000    -7.6590     0.3900 C.ar  1 <1>  -0.1440 
 18 C       -5.9040    -7.1470     0.1750 C.ar  1 <1>   0.0000 
 19 C       -4.5050    -8.8240     1.1000 C.ar  1 <1>  -0.1500 
 20 C       -7.0000    -7.8600     0.7200 C.ar  1 <1>   0.3100 
 21 C       -6.1860    -5.9680    -0.5570 C.ar  1 <1>  -0.1500 
 22 C       -5.6550    -9.4520     1.5940 C.ar  1 <1>   0.1600 
 23 N       -6.8590    -9.0090     1.4270 N.ar  1 <1>  -0.6200 
 24 C       -8.3000    -7.3690     0.5230 C.ar  1 <1>  -0.1500 
 25 C       -7.4660    -5.5170    -0.7320 C.ar  1 <1>  -0.1500 
 26 C       -8.5400    -6.2240    -0.1850 C.ar  1 <1>  -0.1500 
 27 H        0.8610    -2.4060    -1.4820 H     1 <1>   0.3700 
 28 H        2.9040    -2.8880     2.3490 H     1 <1>   0.0800 
 29 H        1.2700    -3.3880     2.7070 H     1 <1>   0.0800 
 30 H        1.7470    -1.7260     2.9770 H     1 <1>   0.0800 
 31 H        2.7910    -0.5730     0.9330 H     1 <1>   0.0800 
 32 H        1.9070    -0.7790    -0.5540 H     1 <1>   0.0800 
 33 H        3.2310    -1.8650    -0.1660 H     1 <1>   0.0800 
 34 H       -2.0520    -2.7820    -1.0120 H     1 <1>   0.0800 
 35 H       -1.2630    -2.6260    -2.5550 H     1 <1>   0.0800 
 36 H       -0.8300    -4.8460     0.2930 H     1 <1>   0.3700 
 37 H       -0.6990    -7.2090    -1.5460 H     1 <1>   0.0800 
 38 H       -1.9650    -8.5130    -0.0430 H     1 <1>   0.0800 
 39 H        1.1220    -6.4420     0.3330 H     1 <1>   0.0800 
 40 H        0.7170    -8.1430     0.1230 H     1 <1>   0.0800 
 41 H       -1.9310    -8.0530     2.2870 H     1 <1>   0.0800 
 42 H       -1.9330    -6.3140     2.0170 H     1 <1>   0.0800 
 43 H       -3.4760    -6.9050    -1.2530 H     1 <1>   0.0800 
 44 H       -3.4450    -5.8870     0.1520 H     1 <1>   0.0800 
 45 H       -3.5700    -9.3050     1.3080 H     1 <1>   0.1500 
 46 H       -5.3800    -5.4080    -0.9910 H     1 <1>   0.1500 
 47 H       -5.5270   -10.3650     2.1500 H     1 <1>   0.1500 
 48 H       -9.1090    -7.9310     0.9520 H     1 <1>   0.1500 
 49 H       -7.6640    -4.6180    -1.2910 H     1 <1>   0.1500 
 50 H       -9.5420    -5.8600    -0.3280 H     1 <1>   0.1500 
@<TRIPOS>BOND
  1   1   2  2   
  2   2   3  am  
  3   2   4  am  
  4   3   5  1   
  5   3   6  1   
  6   4   7  1   
  7   4  27  1   
  8   5  28  1   
  9   5  29  1   
 10   5  30  1   
 11   6  31  1   
 12   6  32  1   
 13   6  33  1   
 14   7   8  1   
 15   7  34  1   
 16   7  35  1   
 17   8   9  2   
 18   8  10  am  
 19  10  11  1   
 20  10  36  1   
 21  11  12  1   
 22  11  13  1   
 23  11  37  1   
 24  12  14  1   
 25  12  15  1   
 26  12  38  1   
 27  13  16  1   
 28  13  39  1   
 29  13  40  1   
 30  14  16  1   
 31  14  41  1   
 32  14  42  1   
 33  15  17  1   
 34  15  43  1   
 35  15  44  1   
 36  17  18  ar  
 37  17  19  ar  
 38  18  20  ar  
 39  18  21  ar  
 40  19  22  ar  
 41  19  45  1   
 42  20  23  ar  
 43  20  24  ar  
 44  21  25  ar  
 45  21  46  1   
 46  22  23  ar  
 47  22  47  1   
 48  24  26  ar  
 49  24  48  1   
 50  25  26  ar  
 51  25  49  1   
 52  26  50  1   
@<TRIPOS>SUBSTRUCTURE
  1 ****  15 GROUP 4 **** **** 0

# MOE 2024.06 (io_trps.svl 2023.06)
