@<TRIPOS>MOLECULE
NONAME
56 59 1 0 0 
SMALL
USER_CHARGES


@<TRIPOS>ATOM
  1 O        0.4160     0.0920    -1.3630 O.2   1 <1>  -0.5700 
  2 C        1.2850    -0.7320    -1.1490 C.2   1 <1>   0.5440 
  3 N        2.5210    -0.3150    -0.6980 N.am  1 <1>  -0.6600 
  4 C        0.9820    -2.1310    -1.3700 C.ar  1 <1>   0.0860 
  5 C        2.8780     1.1300    -0.6210 C.3   1 <1>   0.1400 
  6 C        3.5150    -1.2200    -0.0540 C.3   1 <1>   0.1400 
  7 C       -0.0730    -2.7600    -0.7400 C.ar  1 <1>  -0.1500 
  8 C        1.7180    -2.9340    -2.2310 C.ar  1 <1>  -0.1500 
  9 C        3.0450     1.5430     0.8450 C.3   1 <1>  -0.1600 
 10 C        3.6910    -0.8280     1.4170 C.3   1 <1>  -0.1600 
 11 C       -0.3460    -4.1020    -0.9650 C.ar  1 <1>   0.4100 
 12 C        1.3810    -4.2620    -2.3910 C.ar  1 <1>   0.1600 
 13 C        4.0640     0.6540     1.5710 C.3   1 <1>  -0.1600 
 14 N        0.3780    -4.8630    -1.7770 N.ar  1 <1>  -0.6200 
 15 N       -1.4230    -4.6920    -0.3300 N.pl3 1 <1>  -0.8380 
 16 C       -1.3930    -6.1680    -0.0870 C.3   1 <1>   0.2090 
 17 C       -2.7830    -4.2240    -0.7280 C.3   1 <1>   0.2090 
 18 C       -2.4430    -6.5850     0.9590 C.3   1 <1>   0.2090 
 19 C       -3.8550    -4.6340     0.3030 C.3   1 <1>   0.2090 
 20 N       -3.8300    -6.1120     0.5960 N.pl3 1 <1>  -0.8380 
 21 C       -4.8850    -6.9560     0.4530 C.ar  1 <1>   0.4100 
 22 N       -4.6300    -8.2210     0.1740 N.ar  1 <1>  -0.6200 
 23 C       -6.2110    -6.4980     0.6050 C.ar  1 <1>  -0.1500 
 24 C       -5.6510    -9.0330     0.0140 C.ar  1 <1>   0.7710 
 25 C       -7.2420    -7.3610     0.4370 C.ar  1 <1>   0.2180 
 26 N       -6.9320    -8.6440     0.1310 N.ar  1 <1>  -0.1790 
 27 N       -5.3590   -10.2980    -0.2780 N.pl3 1 <1>  -0.9000 
 28 C       -8.7030    -6.9690     0.5790 C.3   1 <1>  -0.0970 
 29 H        2.1190     1.7370    -1.0850 H     1 <1>   0.0800 
 30 H        3.8000     1.2910    -1.1540 H     1 <1>   0.0800 
 31 H        4.4560    -1.1300    -0.5700 H     1 <1>   0.0800 
 32 H        3.2000    -2.2460    -0.1070 H     1 <1>   0.0800 
 33 H       -0.6920    -2.2050    -0.0630 H     1 <1>   0.1500 
 34 H        2.5460    -2.5130    -2.7710 H     1 <1>   0.1500 
 35 H        2.0870     1.4730     1.3310 H     1 <1>   0.0800 
 36 H        3.3610     2.5700     0.8900 H     1 <1>   0.0800 
 37 H        4.4560    -1.4400     1.8600 H     1 <1>   0.0800 
 38 H        2.7700    -1.0240     1.9390 H     1 <1>   0.0800 
 39 H        1.9660    -4.8680    -3.0620 H     1 <1>   0.1500 
 40 H        4.0960     0.9150     2.6140 H     1 <1>   0.0800 
 41 H        5.0430     0.8200     1.1540 H     1 <1>   0.0800 
 42 H       -0.4140    -6.4530     0.2590 H     1 <1>   0.0800 
 43 H       -1.5840    -6.6880    -1.0090 H     1 <1>   0.0800 
 44 H       -3.0320    -4.6500    -1.6840 H     1 <1>   0.0800 
 45 H       -2.7850    -3.1540    -0.8340 H     1 <1>   0.0800 
 46 H       -2.1670    -6.1540     1.9060 H     1 <1>   0.0800 
 47 H       -2.4140    -7.6530     1.0750 H     1 <1>   0.0800 
 48 H       -4.8130    -4.3380    -0.0820 H     1 <1>   0.0800 
 49 H       -3.6790    -4.0920     1.2160 H     1 <1>   0.0800 
 50 H       -6.3780    -5.4720     0.8690 H     1 <1>   0.1500 
 51 H       -7.6450    -9.3500    -0.0100 H     1 <1>   0.4570 
 52 H       -5.9880   -11.0850    -0.4430 H     1 <1>   0.4000 
 53 H       -4.3660   -10.5390    -0.3620 H     1 <1>   0.4000 
 54 H       -8.7900    -5.9250     0.8260 H     1 <1>   0.0800 
 55 H       -9.1710    -7.5380     1.3640 H     1 <1>   0.0800 
 56 H       -9.2310    -7.1400    -0.3420 H     1 <1>   0.0800 
@<TRIPOS>BOND
  1   1   2  2   
  2   2   3  am  
  3   2   4  1   
  4   3   5  1   
  5   3   6  1   
  6   4   7  ar  
  7   4   8  ar  
  8   5   9  1   
  9   5  29  1   
 10   5  30  1   
 11   6  10  1   
 12   6  31  1   
 13   6  32  1   
 14   7  11  ar  
 15   7  33  1   
 16   8  12  ar  
 17   8  34  1   
 18   9  13  1   
 19   9  35  1   
 20   9  36  1   
 21  10  13  1   
 22  10  37  1   
 23  10  38  1   
 24  11  14  ar  
 25  11  15  1   
 26  12  14  ar  
 27  12  39  1   
 28  13  40  1   
 29  13  41  1   
 30  15  16  1   
 31  15  17  1   
 32  16  18  1   
 33  16  42  1   
 34  16  43  1   
 35  17  19  1   
 36  17  44  1   
 37  17  45  1   
 38  18  20  1   
 39  18  46  1   
 40  18  47  1   
 41  19  20  1   
 42  19  48  1   
 43  19  49  1   
 44  20  21  1   
 45  21  22  ar  
 46  21  23  ar  
 47  22  24  ar  
 48  23  25  ar  
 49  23  50  1   
 50  24  26  ar  
 51  24  27  1   
 52  25  26  ar  
 53  25  28  1   
 54  26  51  1   
 55  27  52  1   
 56  27  53  1   
 57  28  54  1   
 58  28  55  1   
 59  28  56  1   
@<TRIPOS>SUBSTRUCTURE
  1 ****  15 GROUP 4 **** **** 0

# MOE 2024.06 (io_trps.svl 2023.06)
