@<TRIPOS>MOLECULE
NONAME
49 51 1 0 0 
SMALL
USER_CHARGES


@<TRIPOS>ATOM
  1 S       -1.6620    -0.4540    -1.8360 S.3   1 <1>  -0.0800 
  2 C       -1.6070    -0.9420    -0.1450 C.2   1 <1>  -0.1400 
  3 C       -1.6760     1.2430    -1.3950 C.2   1 <1>  -0.1100 
  4 C       -1.5990     0.1440     0.6530 C.2   1 <1>  -0.1500 
  5 C       -1.5780    -2.4260     0.1810 C.3   1 <1>   0.3800 
  6 C       -1.6400     1.3860    -0.0580 C.2   1 <1>  -0.1500 
  7 O       -0.4240    -2.9450    -0.3610 O.3   1 <1>  -0.6800 
  8 C       -2.7860    -3.2070    -0.3830 C.3   1 <1>  -0.0800 
  9 C       -4.1290    -2.6220     0.0970 C.3   1 <1>  -0.1600 
 10 C       -2.7300    -4.7070    -0.0250 C.3   1 <1>  -0.1600 
 11 C       -5.3170    -3.4060    -0.4610 C.3   1 <1>   0.3430 
 12 C       -3.9340    -5.4690    -0.5740 C.3   1 <1>   0.3430 
 13 N       -5.1950    -4.8410    -0.0830 N.4   1 <1>  -0.9590 
 14 C       -6.4090    -5.6510    -0.4820 C.3   1 <1>   0.4040 
 15 C       -6.5430    -6.9690     0.3050 C.2   1 <1>   0.5690 
 16 O       -5.8810    -7.0890     1.3100 O.2   1 <1>  -0.5700 
 17 N       -7.3770    -7.9530    -0.1190 N.am  1 <1>  -0.7300 
 18 C       -7.7000    -9.1510     0.6830 C.3   1 <1>   0.2840 
 19 C       -9.0750    -9.6360     0.2630 C.ar  1 <1>  -0.1430 
 20 C      -10.2270    -9.0080     0.7160 C.ar  1 <1>   0.1900 
 21 C       -9.2190   -10.7210    -0.5890 C.ar  1 <1>  -0.1500 
 22 F      -10.1240    -7.9750     1.5100 F     1 <1>  -0.1900 
 23 C      -11.4930    -9.4250     0.3510 C.ar  1 <1>  -0.1500 
 24 C      -10.4820   -11.1530    -0.9670 C.ar  1 <1>  -0.1500 
 25 C      -11.6180   -10.5090    -0.4990 C.ar  1 <1>  -0.1500 
 26 H       -1.7100     1.9630    -2.1940 H     1 <1>   0.1500 
 27 H       -1.5650     0.1350     1.7290 H     1 <1>   0.1500 
 28 H       -1.5170    -2.5530     1.2490 H     1 <1>   0.0800 
 29 H       -1.6390     2.3250     0.4690 H     1 <1>   0.1500 
 30 H        0.2420    -2.2310    -0.4090 H     1 <1>   0.4000 
 31 H       -2.7530    -3.1160    -1.4560 H     1 <1>   0.0800 
 32 H       -4.2200    -1.6010    -0.2320 H     1 <1>   0.0800 
 33 H       -4.1740    -2.6190     1.1720 H     1 <1>   0.0800 
 34 H       -2.6800    -4.8360     1.0420 H     1 <1>   0.0800 
 35 H       -1.8370    -5.1430    -0.4410 H     1 <1>   0.0800 
 36 H       -5.3340    -3.3110    -1.5350 H     1 <1>   0.0800 
 37 H       -6.2330    -2.9940    -0.0670 H     1 <1>   0.0800 
 38 H       -3.8820    -6.4970    -0.2480 H     1 <1>   0.0800 
 39 H       -3.9090    -5.4500    -1.6520 H     1 <1>   0.0800 
 40 H       -5.1560    -4.9160     0.9480 H     1 <1>   0.4500 
 41 H       -6.3710    -5.8730    -1.5340 H     1 <1>   0.0800 
 42 H       -7.2980    -5.0760    -0.2920 H     1 <1>   0.0800 
 43 H       -7.9800    -7.8600    -0.9410 H     1 <1>   0.3700 
 44 H       -7.6930    -8.9100     1.7330 H     1 <1>   0.0800 
 45 H       -6.9620    -9.9140     0.5050 H     1 <1>   0.0800 
 46 H       -8.3530   -11.2400    -0.9650 H     1 <1>   0.1500 
 47 H      -12.3600    -8.9100     0.7270 H     1 <1>   0.1500 
 48 H      -10.5830   -11.9970    -1.6280 H     1 <1>   0.1500 
 49 H      -12.5940   -10.8530    -0.7970 H     1 <1>   0.1500 
@<TRIPOS>BOND
  1   1   2  1   
  2   1   3  1   
  3   2   4  2   
  4   2   5  1   
  5   3   6  2   
  6   3  26  1   
  7   4   6  1   
  8   4  27  1   
  9   5   7  1   
 10   5   8  1   
 11   5  28  1   
 12   6  29  1   
 13   7  30  1   
 14   8   9  1   
 15   8  10  1   
 16   8  31  1   
 17   9  11  1   
 18   9  32  1   
 19   9  33  1   
 20  10  12  1   
 21  10  34  1   
 22  10  35  1   
 23  11  13  1   
 24  11  36  1   
 25  11  37  1   
 26  12  13  1   
 27  12  38  1   
 28  12  39  1   
 29  13  14  1   
 30  13  40  1   
 31  14  15  1   
 32  14  41  1   
 33  14  42  1   
 34  15  16  2   
 35  15  17  am  
 36  17  18  1   
 37  17  43  1   
 38  18  19  1   
 39  18  44  1   
 40  18  45  1   
 41  19  20  ar  
 42  19  21  ar  
 43  20  22  1   
 44  20  23  ar  
 45  21  24  ar  
 46  21  46  1   
 47  23  25  ar  
 48  23  47  1   
 49  24  25  ar  
 50  24  48  1   
 51  25  49  1   
@<TRIPOS>SUBSTRUCTURE
  1 ****  13 GROUP 4 **** **** 0

# MOE 2024.06 (io_trps.svl 2023.06)
