@<TRIPOS>MOLECULE
NONAME
43 45 1 0 0 
SMALL
USER_CHARGES


@<TRIPOS>ATOM
  1 F        0.7540     1.6610     0.2580 F     1 <1>  -0.1900 
  2 C        1.9210     2.0090     0.7290 C.ar  1 <1>   0.1900 
  3 C        2.3040     1.5800     1.9870 C.ar  1 <1>   0.1600 
  4 C        2.7420     2.7980    -0.0410 C.ar  1 <1>  -0.1500 
  5 N        3.4740     1.8920     2.5310 N.ar  1 <1>  -0.6200 
  6 C        3.9720     3.1460     0.5090 C.ar  1 <1>   0.0860 
  7 C        4.2650     2.6490     1.7830 C.ar  1 <1>   0.1600 
  8 C        4.9270     3.9850    -0.1890 C.2   1 <1>   0.5440 
  9 O        6.0920     4.0460     0.1600 O.2   1 <1>  -0.5700 
 10 N        4.5650     4.8100    -1.2280 N.am  1 <1>  -0.6600 
 11 C        5.4350     4.9050    -2.4480 C.3   1 <1>   0.1400 
 12 C        3.6540     5.9610    -0.9910 C.3   1 <1>   0.1400 
 13 C        6.4360     6.0800    -2.3940 C.3   1 <1>   0.3430 
 14 C        4.3400     7.0030    -0.0910 C.3   1 <1>  -0.1600 
 15 N        6.6270     6.5540    -0.9860 N.4   1 <1>  -0.9590 
 16 C        5.6380     7.6150    -0.6360 C.3   1 <1>   0.3430 
 17 C        8.0520     6.8840    -0.6790 C.3   1 <1>   0.3430 
 18 C        8.3330     6.7910     0.8260 C.3   1 <1>   0.0960 
 19 N        9.7780     6.9450     1.0450 N.pl3 1 <1>   0.0480 
 20 C       10.4890     8.0650     1.1880 C.2   1 <1>   0.0360 
 21 C       10.7140     5.9960     1.0900 C.2   1 <1>   0.0370 
 22 N       11.7460     7.8190     1.2970 N.2   1 <1>  -0.3380 
 23 N       11.8900     6.4940     1.2340 N.2   1 <1>  -0.3380 
 24 H        1.6300     0.9650     2.5580 H     1 <1>   0.1500 
 25 H        2.4350     3.1170    -1.0200 H     1 <1>   0.1500 
 26 H        5.2210     2.8970     2.2130 H     1 <1>   0.1500 
 27 H        4.8200     4.9900    -3.3280 H     1 <1>   0.0800 
 28 H        5.9930     3.9880    -2.5450 H     1 <1>   0.0800 
 29 H        2.7550     5.6120    -0.5100 H     1 <1>   0.0800 
 30 H        3.3680     6.4040    -1.9310 H     1 <1>   0.0800 
 31 H        6.0780     6.8880    -3.0100 H     1 <1>   0.0800 
 32 H        7.3730     5.7450    -2.8090 H     1 <1>   0.0800 
 33 H        4.5280     6.5730     0.8770 H     1 <1>   0.0800 
 34 H        3.6430     7.8070     0.0690 H     1 <1>   0.0800 
 35 H        6.3720     5.7070    -0.4280 H     1 <1>   0.4500 
 36 H        6.0500     8.2650     0.1190 H     1 <1>   0.0800 
 37 H        5.4230     8.2160    -1.5050 H     1 <1>   0.0800 
 38 H        8.2890     7.8710    -1.0400 H     1 <1>   0.0800 
 39 H        8.6910     6.1750    -1.1810 H     1 <1>   0.0800 
 40 H        8.0330     5.8290     1.2030 H     1 <1>   0.0800 
 41 H        7.8160     7.5640     1.3630 H     1 <1>   0.0800 
 42 H       10.0620     9.0520     1.2070 H     1 <1>   0.1500 
 43 H       10.5060     4.9430     1.0120 H     1 <1>   0.1500 
@<TRIPOS>BOND
  1   1   2  1   
  2   2   3  ar  
  3   2   4  ar  
  4   3   5  ar  
  5   3  24  1   
  6   4   6  ar  
  7   4  25  1   
  8   5   7  ar  
  9   6   7  ar  
 10   6   8  1   
 11   7  26  1   
 12   8   9  2   
 13   8  10  am  
 14  10  11  1   
 15  10  12  1   
 16  11  13  1   
 17  11  27  1   
 18  11  28  1   
 19  12  14  1   
 20  12  29  1   
 21  12  30  1   
 22  13  15  1   
 23  13  31  1   
 24  13  32  1   
 25  14  16  1   
 26  14  33  1   
 27  14  34  1   
 28  15  16  1   
 29  15  17  1   
 30  15  35  1   
 31  16  36  1   
 32  16  37  1   
 33  17  18  1   
 34  17  38  1   
 35  17  39  1   
 36  18  19  1   
 37  18  40  1   
 38  18  41  1   
 39  19  20  1   
 40  19  21  1   
 41  20  22  2   
 42  20  42  1   
 43  21  23  2   
 44  21  43  1   
 45  22  23  1   
@<TRIPOS>SUBSTRUCTURE
  1 ****   9 GROUP 4 **** **** 0

# MOE 2024.06 (io_trps.svl 2023.06)
