@<TRIPOS>MOLECULE
NONAME
49 53 1 0 0 
SMALL
USER_CHARGES


@<TRIPOS>ATOM
  1 O       -0.5270     0.3360    -0.3500 O.2   1 <1>  -0.5700 
  2 C       -1.5860     0.9440    -0.3850 C.2   1 <1>   0.7160 
  3 N       -2.7420     0.1860    -0.4740 N.am  1 <1>  -0.6600 
  4 C       -1.5730     2.4080    -0.3340 C.2   1 <1>   0.2030 
  5 C       -4.1280     0.7130    -0.5230 C.3   1 <1>   0.1400 
  6 C       -2.7450    -1.2950    -0.4870 C.3   1 <1>   0.1400 
  7 N       -2.6060     3.2400    -0.3310 N.2   1 <1>  -0.7070 
  8 C       -0.3810     3.1470    -0.2760 C.2   1 <1>  -0.1500 
  9 C       -5.0250    -0.5240    -0.5990 C.3   1 <1>   0.2000 
 10 C       -4.1710    -1.6870    -0.0970 C.3   1 <1>  -0.0800 
 11 N       -2.0780     4.4710    -0.2730 N.pl3 1 <1>   0.3000 
 12 C       -0.7340     4.4450    -0.2380 C.2   1 <1>  -0.2370 
 13 O       -6.1510    -0.3900     0.1990 O.3   1 <1>  -0.6800 
 14 C       -4.6200    -3.0440    -0.6620 C.3   1 <1>  -0.0170 
 15 C        0.1230     5.6920    -0.1710 C.3   1 <1>  -0.0150 
 16 C       -3.7320    -4.1690    -0.1610 C.ar  1 <1>   0.1670 
 17 C        1.4350     5.6630     0.5440 C.3   1 <1>  -0.2000 
 18 C        0.2730     6.4100     1.1310 C.3   1 <1>  -0.2000 
 19 N       -2.6760    -4.4540    -0.8600 N.ar  1 <1>  -0.6200 
 20 C       -4.0810    -4.8330     1.0260 C.ar  1 <1>  -0.1500 
 21 C       -1.8650    -5.4430    -0.4070 C.ar  1 <1>   0.3100 
 22 C       -3.2880    -5.8330     1.5010 C.ar  1 <1>  -0.1500 
 23 C       -2.1320    -6.1660     0.7760 C.ar  1 <1>   0.0000 
 24 C       -0.7100    -5.7620    -1.1390 C.ar  1 <1>  -0.1500 
 25 C       -1.2360    -7.1770     1.1780 C.ar  1 <1>  -0.1500 
 26 C        0.1490    -6.7480    -0.7310 C.ar  1 <1>  -0.1500 
 27 C       -0.1190    -7.4630     0.4400 C.ar  1 <1>  -0.1500 
 28 H       -4.3240     1.2820     0.3690 H     1 <1>   0.0800 
 29 H       -4.2590     1.3330    -1.3920 H     1 <1>   0.0800 
 30 H       -2.5080    -1.6380    -1.4800 H     1 <1>   0.0800 
 31 H       -2.0220    -1.6950     0.2050 H     1 <1>   0.0800 
 32 H        0.6060     2.7190    -0.2660 H     1 <1>   0.1500 
 33 H       -5.3440    -0.6820    -1.6150 H     1 <1>   0.0800 
 34 H       -4.2050    -1.7200     0.9780 H     1 <1>   0.0800 
 35 H       -2.6510     5.3230    -0.2530 H     1 <1>   0.2700 
 36 H       -5.8900    -0.1850     1.1170 H     1 <1>   0.4000 
 37 H       -4.5840    -3.0230    -1.7370 H     1 <1>   0.0800 
 38 H       -5.6390    -3.2330    -0.3760 H     1 <1>   0.0800 
 39 H        0.0710     6.2850    -1.0690 H     1 <1>   0.1000 
 40 H        1.7500     4.7490     1.0170 H     1 <1>   0.1000 
 41 H        2.2570     6.2190     0.1300 H     1 <1>   0.1000 
 42 H        0.2980     7.4860     1.1310 H     1 <1>   0.1000 
 43 H       -0.2010     6.0050     2.0080 H     1 <1>   0.1000 
 44 H       -4.9730    -4.5400     1.5490 H     1 <1>   0.1500 
 45 H       -3.5220    -6.3650     2.4060 H     1 <1>   0.1500 
 46 H       -0.5220    -5.2000    -2.0350 H     1 <1>   0.1500 
 47 H       -1.4470    -7.7230     2.0800 H     1 <1>   0.1500 
 48 H        1.0310    -6.9820    -1.3020 H     1 <1>   0.1500 
 49 H        0.5640    -8.2360     0.7490 H     1 <1>   0.1500 
@<TRIPOS>BOND
  1   1   2  2   
  2   2   3  am  
  3   2   4  1   
  4   3   5  1   
  5   3   6  1   
  6   4   7  2   
  7   4   8  1   
  8   5   9  1   
  9   5  28  1   
 10   5  29  1   
 11   6  10  1   
 12   6  30  1   
 13   6  31  1   
 14   7  11  1   
 15   8  12  2   
 16   8  32  1   
 17   9  10  1   
 18   9  13  1   
 19   9  33  1   
 20  10  14  1   
 21  10  34  1   
 22  11  12  1   
 23  11  35  1   
 24  12  15  1   
 25  13  36  1   
 26  14  16  1   
 27  14  37  1   
 28  14  38  1   
 29  15  17  1   
 30  15  18  1   
 31  15  39  1   
 32  16  19  ar  
 33  16  20  ar  
 34  17  18  1   
 35  17  40  1   
 36  17  41  1   
 37  18  42  1   
 38  18  43  1   
 39  19  21  ar  
 40  20  22  ar  
 41  20  44  1   
 42  21  23  ar  
 43  21  24  ar  
 44  22  23  ar  
 45  22  45  1   
 46  23  25  ar  
 47  24  26  ar  
 48  24  46  1   
 49  25  27  ar  
 50  25  47  1   
 51  26  27  ar  
 52  26  48  1   
 53  27  49  1   
@<TRIPOS>SUBSTRUCTURE
  1 ****   6 GROUP 4 **** **** 0

# MOE 2024.06 (io_trps.svl 2023.06)
