@<TRIPOS>MOLECULE
NONAME
52 54 1 0 0 
SMALL
USER_CHARGES


@<TRIPOS>ATOM
  1 S        0.6180    -1.1810     0.9170 S.o2  1 <1>   1.4470 
  2 O       -0.1470    -1.7270     2.0150 O.2   1 <1>  -0.6500 
  3 O        2.0610    -1.2330     0.9600 O.2   1 <1>  -0.6500 
  4 N        0.2120    -2.0830    -0.4410 N.am  1 <1>  -0.9140 
  5 C        0.0520     0.4910     0.4990 C.ar  1 <1>  -0.0090 
  6 C       -1.1900    -2.4420    -0.5710 C.3   1 <1>   0.1960 
  7 C        0.6910     1.2380    -0.4830 C.ar  1 <1>  -0.1500 
  8 C       -1.0470     1.0600     1.1330 C.ar  1 <1>  -0.1500 
  9 C       -1.4350    -3.8370     0.0040 C.3   1 <1>  -0.1600 
 10 C        0.2510     2.5060    -0.8220 C.ar  1 <1>  -0.1500 
 11 C       -1.4920     2.3270     0.7990 C.ar  1 <1>  -0.1500 
 12 C       -2.9050    -4.2140    -0.1450 C.3   1 <1>   0.2090 
 13 C       -0.8450     3.0570    -0.1830 C.ar  1 <1>  -0.1430 
 14 N       -3.1230    -5.5360     0.4640 N.pl3 1 <1>  -0.8690 
 15 C       -1.3270     4.4490    -0.5500 C.3   1 <1>  -0.0970 
 16 C       -4.3330    -6.1380     0.5380 C.ar  1 <1>   0.7200 
 17 N       -4.2670    -7.4350     0.7860 N.ar  1 <1>  -0.6200 
 18 N       -5.4130    -5.3850     0.3490 N.ar  1 <1>  -0.6200 
 19 C       -5.4210    -8.0690     0.8800 C.ar  1 <1>   0.4100 
 20 C       -6.5620    -6.0260     0.4440 C.ar  1 <1>   0.1600 
 21 N       -5.3720    -9.4330     1.1430 N.pl3 1 <1>  -0.8380 
 22 C       -6.6110    -7.3660     0.7070 C.ar  1 <1>   0.1900 
 23 C       -5.9520   -10.3910     0.1560 C.3   1 <1>   0.2090 
 24 C       -4.2300   -10.0240     1.9080 C.3   1 <1>   0.2090 
 25 F       -7.7830    -7.9620     0.7930 F     1 <1>  -0.1900 
 26 C       -4.8450   -11.0460    -0.6910 C.3   1 <1>   0.1200 
 27 C       -3.2200   -10.6920     0.9590 C.3   1 <1>   0.1200 
 28 O       -3.8560   -11.6190     0.1200 O.3   1 <1>  -0.5600 
 29 H        0.7680    -2.9290    -0.3490 H     1 <1>   0.4200 
 30 H       -1.4430    -2.4460    -1.6180 H     1 <1>   0.0800 
 31 H       -1.8160    -1.7110    -0.0830 H     1 <1>   0.0800 
 32 H        1.5450     0.8190    -0.9890 H     1 <1>   0.1500 
 33 H       -1.5610     0.5060     1.9010 H     1 <1>   0.1500 
 34 H       -1.1840    -3.8540     1.0500 H     1 <1>   0.0800 
 35 H       -0.8320    -4.5540    -0.5230 H     1 <1>   0.0800 
 36 H        0.7690     3.0620    -1.5840 H     1 <1>   0.1500 
 37 H       -2.3440     2.7420     1.3090 H     1 <1>   0.1500 
 38 H       -3.1850    -4.2500    -1.1850 H     1 <1>   0.0800 
 39 H       -3.5260    -3.4890     0.3560 H     1 <1>   0.0800 
 40 H       -2.3590    -6.2080     0.4210 H     1 <1>   0.4000 
 41 H       -1.1440     4.6470    -1.5910 H     1 <1>   0.0800 
 42 H       -0.8060     5.1820     0.0390 H     1 <1>   0.0800 
 43 H       -2.3830     4.5440    -0.3680 H     1 <1>   0.0800 
 44 H       -7.4730    -5.4700     0.3090 H     1 <1>   0.1500 
 45 H       -6.6410    -9.8840    -0.4970 H     1 <1>   0.0800 
 46 H       -6.4970   -11.1550     0.6820 H     1 <1>   0.0800 
 47 H       -4.6100   -10.7600     2.5940 H     1 <1>   0.0800 
 48 H       -3.7350    -9.2630     2.4870 H     1 <1>   0.0800 
 49 H       -4.3820   -10.3140    -1.3300 H     1 <1>   0.0800 
 50 H       -5.2590   -11.8270    -1.3030 H     1 <1>   0.0800 
 51 H       -2.4720   -11.2170     1.5240 H     1 <1>   0.0800 
 52 H       -2.7370    -9.9480     0.3490 H     1 <1>   0.0800 
@<TRIPOS>BOND
  1   1   2  2   
  2   1   3  2   
  3   1   4  am  
  4   1   5  1   
  5   4   6  1   
  6   4  29  1   
  7   5   7  ar  
  8   5   8  ar  
  9   6   9  1   
 10   6  30  1   
 11   6  31  1   
 12   7  10  ar  
 13   7  32  1   
 14   8  11  ar  
 15   8  33  1   
 16   9  12  1   
 17   9  34  1   
 18   9  35  1   
 19  10  13  ar  
 20  10  36  1   
 21  11  13  ar  
 22  11  37  1   
 23  12  14  1   
 24  12  38  1   
 25  12  39  1   
 26  13  15  1   
 27  14  16  1   
 28  14  40  1   
 29  15  41  1   
 30  15  42  1   
 31  15  43  1   
 32  16  17  ar  
 33  16  18  ar  
 34  17  19  ar  
 35  18  20  ar  
 36  19  21  1   
 37  19  22  ar  
 38  20  22  ar  
 39  20  44  1   
 40  21  23  1   
 41  21  24  1   
 42  22  25  1   
 43  23  26  1   
 44  23  45  1   
 45  23  46  1   
 46  24  27  1   
 47  24  47  1   
 48  24  48  1   
 49  26  28  1   
 50  26  49  1   
 51  26  50  1   
 52  27  28  1   
 53  27  51  1   
 54  27  52  1   
@<TRIPOS>SUBSTRUCTURE
  1 ****  12 GROUP 4 **** **** 0

# MOE 2024.06 (io_trps.svl 2023.06)
