@<TRIPOS>MOLECULE
NONAME
56 58 1 0 0 
SMALL
USER_CHARGES


@<TRIPOS>ATOM
  1 O        2.7890     0.2280    -1.2790 O.2   1 <1>  -0.5700 
  2 C        3.0210     1.0400    -0.3850 C.2   1 <1>   0.5410 
  3 C        2.5070     2.3750    -0.4530 C.2   1 <1>  -0.1240 
  4 C        3.8260     0.6850     0.7370 C.2   1 <1>  -0.1240 
  5 C        2.8040     3.2730     0.5370 C.2   1 <1>  -0.0380 
  6 C        1.6430     2.6980    -1.6770 C.3   1 <1>  -0.1020 
  7 C        4.0800     1.6020     1.7040 C.2   1 <1>  -0.0500 
  8 C        4.3830    -0.7320     0.8280 C.3   1 <1>  -0.1020 
  9 N        3.5780     2.8770     1.6140 N.pl3 1 <1>  -0.6000 
 10 C        2.3600     4.7300     0.5340 C.3   1 <1>   0.4810 
 11 N        3.5520     5.5790     0.2620 N.4   1 <1>  -0.9590 
 12 C        3.4020     6.9340     0.8600 C.3   1 <1>   0.4230 
 13 C        3.9520     5.5200    -1.1750 C.3   1 <1>   0.4860 
 14 C        2.3610     7.7970     0.1270 C.3   1 <1>  -0.1600 
 15 C        4.7480     7.6590     0.9510 C.3   1 <1>  -0.1600 
 16 C        5.4420     5.2500    -1.2510 C.ar  1 <1>  -0.1430 
 17 C        2.1890     9.1460     0.8400 C.3   1 <1>  -0.1600 
 18 C        4.5850     9.0020     1.6780 C.3   1 <1>  -0.1600 
 19 C        5.9600     4.0380    -0.8150 C.ar  1 <1>  -0.1500 
 20 C        6.3030     6.2060    -1.7690 C.ar  1 <1>  -0.1500 
 21 C        3.5310     9.8770     0.9860 C.3   1 <1>  -0.1600 
 22 C        7.3210     3.7910    -0.8640 C.ar  1 <1>  -0.1430 
 23 C        7.6640     5.9630    -1.8210 C.ar  1 <1>  -0.1500 
 24 C        8.1710     4.7600    -1.3660 C.ar  1 <1>  -0.1500 
 25 C        7.8810     2.4630    -0.3850 C.3   1 <1>  -0.0970 
 26 H        0.8130     2.0130    -1.7160 H     1 <1>   0.0800 
 27 H        2.2220     2.5570    -2.5740 H     1 <1>   0.0800 
 28 H        1.2460     3.6930    -1.6830 H     1 <1>   0.0800 
 29 H        4.6760     1.3610     2.5710 H     1 <1>   0.1500 
 30 H        5.0040    -0.9360    -0.0260 H     1 <1>   0.0800 
 31 H        3.5740    -1.4420     0.8370 H     1 <1>   0.0800 
 32 H        4.9670    -0.8650     1.7200 H     1 <1>   0.0800 
 33 H        3.7450     3.4960     2.4200 H     1 <1>   0.4000 
 34 H        1.9500     4.9640     1.5030 H     1 <1>   0.0800 
 35 H        1.5960     4.9110    -0.2010 H     1 <1>   0.0800 
 36 H        4.3370     5.1150     0.7380 H     1 <1>   0.4500 
 37 H        3.0540     6.8120     1.8740 H     1 <1>   0.0800 
 38 H        3.7170     6.4400    -1.6810 H     1 <1>   0.0800 
 39 H        3.4380     4.7160    -1.6750 H     1 <1>   0.0800 
 40 H        1.4060     7.3030     0.1020 H     1 <1>   0.0800 
 41 H        2.6750     7.9940    -0.8830 H     1 <1>   0.0800 
 42 H        5.1310     7.8650    -0.0300 H     1 <1>   0.0800 
 43 H        5.4630     7.0560     1.4830 H     1 <1>   0.0800 
 44 H        1.7630     8.9910     1.8180 H     1 <1>   0.0800 
 45 H        1.5050     9.7670     0.2840 H     1 <1>   0.0800 
 46 H        5.5290     9.5230     1.6910 H     1 <1>   0.0800 
 47 H        4.2940     8.8320     2.7010 H     1 <1>   0.0800 
 48 H        5.3160     3.2630    -0.4420 H     1 <1>   0.1500 
 49 H        5.9340     7.1470    -2.1390 H     1 <1>   0.1500 
 50 H        3.3870    10.7810     1.5540 H     1 <1>   0.0800 
 51 H        3.8900    10.1650     0.0110 H     1 <1>   0.0800 
 52 H        8.3320     6.7080    -2.2190 H     1 <1>   0.1500 
 53 H        9.2320     4.5790    -1.4120 H     1 <1>   0.1500 
 54 H        7.1910     1.9710     0.2770 H     1 <1>   0.0800 
 55 H        8.8060     2.6160     0.1410 H     1 <1>   0.0800 
 56 H        8.0650     1.8220    -1.2290 H     1 <1>   0.0800 
@<TRIPOS>BOND
  1   1   2  2   
  2   2   3  1   
  3   2   4  1   
  4   3   5  2   
  5   3   6  1   
  6   4   7  2   
  7   4   8  1   
  8   5   9  1   
  9   5  10  1   
 10   6  26  1   
 11   6  27  1   
 12   6  28  1   
 13   7   9  1   
 14   7  29  1   
 15   8  30  1   
 16   8  31  1   
 17   8  32  1   
 18   9  33  1   
 19  10  11  1   
 20  10  34  1   
 21  10  35  1   
 22  11  12  1   
 23  11  13  1   
 24  11  36  1   
 25  12  14  1   
 26  12  15  1   
 27  12  37  1   
 28  13  16  1   
 29  13  38  1   
 30  13  39  1   
 31  14  17  1   
 32  14  40  1   
 33  14  41  1   
 34  15  18  1   
 35  15  42  1   
 36  15  43  1   
 37  16  19  ar  
 38  16  20  ar  
 39  17  21  1   
 40  17  44  1   
 41  17  45  1   
 42  18  21  1   
 43  18  46  1   
 44  18  47  1   
 45  19  22  ar  
 46  19  48  1   
 47  20  23  ar  
 48  20  49  1   
 49  21  50  1   
 50  21  51  1   
 51  22  24  ar  
 52  22  25  1   
 53  23  24  ar  
 54  23  52  1   
 55  24  53  1   
 56  25  54  1   
 57  25  55  1   
 58  25  56  1   
@<TRIPOS>SUBSTRUCTURE
  1 ****  11 GROUP 4 **** **** 0

# MOE 2024.06 (io_trps.svl 2023.06)
