@<TRIPOS>MOLECULE
NONAME
57 61 1 0 0 
SMALL
USER_CHARGES


@<TRIPOS>ATOM
  1 O       -3.3210     1.6680     0.6080 O.2   1 <1>  -0.5700 
  2 C       -3.2630     2.0170    -0.5590 C.2   1 <1>   0.5440 
  3 N       -4.2070     1.4790    -1.3990 N.am  1 <1>  -0.6600 
  4 C       -2.2100     2.8940    -1.0480 C.ar  1 <1>   0.0860 
  5 C       -5.6440     1.5150    -0.9730 C.3   1 <1>   0.1400 
  6 C       -3.8470     0.1970    -2.0790 C.3   1 <1>   0.1400 
  7 C       -1.0780     3.1600    -0.2780 C.ar  1 <1>  -0.1500 
  8 C       -2.2860     3.5010    -2.3040 C.ar  1 <1>  -0.1500 
  9 C       -6.0070     0.3310    -0.0370 C.3   1 <1>   0.4230 
 10 C       -4.2940    -1.0360    -1.2520 C.3   1 <1>   0.3430 
 11 C       -0.0570     3.9930    -0.7230 C.ar  1 <1>  -0.0230 
 12 C       -1.2770     4.3240    -2.7690 C.ar  1 <1>  -0.1500 
 13 N       -4.8690    -0.6520     0.0870 N.4   1 <1>  -0.9590 
 14 C       -7.3040    -0.3860    -0.4760 C.3   1 <1>   0.1200 
 15 N        1.0850     4.2570     0.0850 N.pl3 1 <1>   0.5930 
 16 C       -0.1670     4.5660    -1.9830 C.ar  1 <1>  -0.1500 
 17 C       -5.2600    -1.7830     0.9780 C.3   1 <1>   0.5180 
 18 O       -7.5970    -1.4520     0.3860 O.3   1 <1>  -0.5600 
 19 N        2.3460     3.9700    -0.3220 N.2   1 <1>  -0.7070 
 20 C        1.1170     4.8320     1.3210 C.2   1 <1>  -0.3320 
 21 C       -4.1170    -2.8020     1.0570 C.3   1 <1>  -0.1950 
 22 C       -6.5890    -2.4230     0.5170 C.3   1 <1>   0.1200 
 23 C        3.1190     4.3480     0.6410 C.2   1 <1>   0.1080 
 24 C        2.4090     4.8980     1.7000 C.2   1 <1>  -0.1500 
 25 C       -0.1050     5.3130     2.0880 C.3   1 <1>  -0.0600 
 26 C       -3.7760    -3.4470     2.3650 C.3   1 <1>  -0.2000 
 27 C       -2.8240    -2.4700     1.7390 C.3   1 <1>  -0.2000 
 28 C        4.6210     4.1960     0.5820 C.3   1 <1>  -0.0590 
 29 H       -5.8380     2.4390    -0.4540 H     1 <1>   0.0800 
 30 H       -6.2690     1.5080    -1.8490 H     1 <1>   0.0800 
 31 H       -4.3020     0.1660    -3.0540 H     1 <1>   0.0800 
 32 H       -2.7800     0.1540    -2.2240 H     1 <1>   0.0800 
 33 H       -0.9880     2.7030     0.6920 H     1 <1>   0.1500 
 34 H       -3.1440     3.3300    -2.9290 H     1 <1>   0.1500 
 35 H       -6.1990     0.7500     0.9380 H     1 <1>   0.0800 
 36 H       -3.4390    -1.6780    -1.1120 H     1 <1>   0.0800 
 37 H       -5.0240    -1.5910    -1.8170 H     1 <1>   0.0800 
 38 H       -1.3510     4.7780    -3.7430 H     1 <1>   0.1500 
 39 H       -4.1230    -0.1020     0.5600 H     1 <1>   0.4500 
 40 H       -7.2220    -0.7680    -1.4790 H     1 <1>   0.0800 
 41 H       -8.1360     0.2960    -0.4370 H     1 <1>   0.0800 
 42 H        0.6260     5.2000    -2.3450 H     1 <1>   0.1500 
 43 H       -5.4180    -1.3920     1.9700 H     1 <1>   0.0800 
 44 H       -4.0800    -3.4560     0.2030 H     1 <1>   0.1000 
 45 H       -6.9210    -3.1400     1.2470 H     1 <1>   0.0800 
 46 H       -6.4720    -2.9260    -0.4260 H     1 <1>   0.0800 
 47 H        2.8300     5.2870     2.6100 H     1 <1>   0.1500 
 48 H        0.1970     5.8130     2.9910 H     1 <1>   0.0800 
 49 H       -0.7350     4.4840     2.3540 H     1 <1>   0.0800 
 50 H       -0.6720     6.0050     1.4890 H     1 <1>   0.0800 
 51 H       -4.2820    -3.1500     3.2690 H     1 <1>   0.1000 
 52 H       -3.4970    -4.4880     2.3820 H     1 <1>   0.1000 
 53 H       -1.9000    -2.8510     1.3360 H     1 <1>   0.1000 
 54 H       -2.6920    -1.5160     2.2240 H     1 <1>   0.1000 
 55 H        5.0720     4.5560     1.4870 H     1 <1>   0.0800 
 56 H        5.0050     4.7550    -0.2510 H     1 <1>   0.0800 
 57 H        4.8710     3.1590     0.4500 H     1 <1>   0.0800 
@<TRIPOS>BOND
  1   1   2  2   
  2   2   3  am  
  3   2   4  1   
  4   3   5  1   
  5   3   6  1   
  6   4   7  ar  
  7   4   8  ar  
  8   5   9  1   
  9   5  29  1   
 10   5  30  1   
 11   6  10  1   
 12   6  31  1   
 13   6  32  1   
 14   7  11  ar  
 15   7  33  1   
 16   8  12  ar  
 17   8  34  1   
 18   9  13  1   
 19   9  14  1   
 20   9  35  1   
 21  10  13  1   
 22  10  36  1   
 23  10  37  1   
 24  11  15  1   
 25  11  16  ar  
 26  12  16  ar  
 27  12  38  1   
 28  13  17  1   
 29  13  39  1   
 30  14  18  1   
 31  14  40  1   
 32  14  41  1   
 33  15  19  1   
 34  15  20  1   
 35  16  42  1   
 36  17  21  1   
 37  17  22  1   
 38  17  43  1   
 39  18  22  1   
 40  19  23  2   
 41  20  24  2   
 42  20  25  1   
 43  21  26  1   
 44  21  27  1   
 45  21  44  1   
 46  22  45  1   
 47  22  46  1   
 48  23  24  1   
 49  23  28  1   
 50  24  47  1   
 51  25  48  1   
 52  25  49  1   
 53  25  50  1   
 54  26  27  1   
 55  26  51  1   
 56  26  52  1   
 57  27  53  1   
 58  27  54  1   
 59  28  55  1   
 60  28  56  1   
 61  28  57  1   
@<TRIPOS>SUBSTRUCTURE
  1 ****   2 GROUP 4 **** **** 0

# MOE 2024.06 (io_trps.svl 2023.06)
