@<TRIPOS>MOLECULE
NONAME
44 46 1 0 0 
SMALL
USER_CHARGES


@<TRIPOS>ATOM
  1 O       -0.5330     0.6340    -0.9590 O.2   1 <1>  -0.5700 
  2 C       -0.3680     1.7510    -0.5370 C.2   1 <1>   0.5690 
  3 N       -1.4060     2.4610    -0.0450 N.am  1 <1>  -0.7300 
  4 C        1.0200     2.3960    -0.5920 C.3   1 <1>   0.1810 
  5 C       -1.2800     3.8400     0.4870 C.3   1 <1>   0.3640 
  6 O        1.1450     3.5210     0.2510 O.3   1 <1>  -0.5600 
  7 C       -2.4190     4.6870    -0.0760 C.ar  1 <1>  -0.1440 
  8 C        0.0940     4.4700     0.1390 C.3   1 <1>   0.2610 
  9 C       -3.1040     5.5590     0.7580 C.ar  1 <1>  -0.1500 
 10 C       -2.7830     4.6160    -1.4160 C.ar  1 <1>  -0.1500 
 11 C        0.3810     5.7100     1.0030 C.2   1 <1>   0.5690 
 12 C       -4.1340     6.3430     0.2670 C.ar  1 <1>  -0.1500 
 13 C       -3.8120     5.3990    -1.9090 C.ar  1 <1>  -0.1500 
 14 O       -0.1680     5.8290     2.0780 O.2   1 <1>  -0.5700 
 15 N        1.2430     6.6760     0.5530 N.am  1 <1>  -0.6600 
 16 C       -4.4890     6.2630    -1.0670 C.ar  1 <1>  -0.1500 
 17 C        2.1400     6.5680    -0.6230 C.3   1 <1>   0.1400 
 18 C        1.5680     7.8790     1.3470 C.3   1 <1>   0.1400 
 19 C        3.2660     7.5790    -0.3670 C.3   1 <1>   0.0000 
 20 C        2.5890     8.6410     0.5070 C.3   1 <1>  -0.1600 
 21 C        4.4170     6.9100     0.4050 C.3   1 <1>  -0.2400 
 22 C        3.8080     8.1840    -1.6700 C.3   1 <1>  -0.2400 
 23 H       -2.3320     2.0330    -0.0120 H     1 <1>   0.3700 
 24 H        1.2310     2.7020    -1.6000 H     1 <1>   0.0800 
 25 H        1.7570     1.6760    -0.2870 H     1 <1>   0.0800 
 26 H       -1.3780     3.7830     1.5580 H     1 <1>   0.0800 
 27 H        0.0630     4.7910    -0.8850 H     1 <1>   0.0800 
 28 H       -2.8360     5.6390     1.7990 H     1 <1>   0.1500 
 29 H       -2.2700     3.9480    -2.0870 H     1 <1>   0.1500 
 30 H       -4.6560     7.0160     0.9240 H     1 <1>   0.1500 
 31 H       -4.0880     5.3350    -2.9470 H     1 <1>   0.1500 
 32 H       -5.2900     6.8720    -1.4490 H     1 <1>   0.1500 
 33 H        2.5260     5.5690    -0.7320 H     1 <1>   0.0800 
 34 H        1.5860     6.8390    -1.5050 H     1 <1>   0.0800 
 35 H        0.6830     8.4650     1.5310 H     1 <1>   0.0800 
 36 H        1.9990     7.5740     2.2860 H     1 <1>   0.0800 
 37 H        2.0570     9.3460    -0.1080 H     1 <1>   0.0800 
 38 H        3.2840     9.1830     1.1220 H     1 <1>   0.0800 
 39 H        5.1740     7.6320     0.6570 H     1 <1>   0.0800 
 40 H        4.8710     6.1370    -0.1910 H     1 <1>   0.0800 
 41 H        4.0580     6.4620     1.3160 H     1 <1>   0.0800 
 42 H        4.5590     8.9230    -1.4540 H     1 <1>   0.0800 
 43 H        3.0190     8.6560    -2.2280 H     1 <1>   0.0800 
 44 H        4.2490     7.4180    -2.2840 H     1 <1>   0.0800 
@<TRIPOS>BOND
  1   1   2  2   
  2   2   3  am  
  3   2   4  1   
  4   3   5  1   
  5   3  23  1   
  6   4   6  1   
  7   4  24  1   
  8   4  25  1   
  9   5   7  1   
 10   5   8  1   
 11   5  26  1   
 12   6   8  1   
 13   7   9  ar  
 14   7  10  ar  
 15   8  11  1   
 16   8  27  1   
 17   9  12  ar  
 18   9  28  1   
 19  10  13  ar  
 20  10  29  1   
 21  11  14  2   
 22  11  15  am  
 23  12  16  ar  
 24  12  30  1   
 25  13  16  ar  
 26  13  31  1   
 27  15  17  1   
 28  15  18  1   
 29  16  32  1   
 30  17  19  1   
 31  17  33  1   
 32  17  34  1   
 33  18  20  1   
 34  18  35  1   
 35  18  36  1   
 36  19  20  1   
 37  19  21  1   
 38  19  22  1   
 39  20  37  1   
 40  20  38  1   
 41  21  39  1   
 42  21  40  1   
 43  21  41  1   
 44  22  42  1   
 45  22  43  1   
 46  22  44  1   
@<TRIPOS>SUBSTRUCTURE
  1 ****   8 GROUP 4 **** **** 0

# MOE 2024.06 (io_trps.svl 2023.06)
