@<TRIPOS>MOLECULE
NONAME
57 60 1 0 0 
SMALL
USER_CHARGES


@<TRIPOS>ATOM
  1 O       -0.5270     0.4190    -0.1990 O.2   1 <1>  -0.5700 
  2 C       -1.5720     1.0010    -0.4400 C.2   1 <1>   0.7150 
  3 N       -2.7080     0.2520    -0.6670 N.am  1 <1>  -0.6600 
  4 C       -1.5810     2.4500    -0.4730 C.2   1 <1>   0.0550 
  5 C       -4.0960     0.7550    -0.5120 C.3   1 <1>   0.1400 
  6 C       -2.7090    -1.2340    -0.6540 C.3   1 <1>   0.1400 
  7 O       -0.6860     3.1270     0.2400 O.3   1 <1>  -0.2800 
  8 C       -2.3480     3.3580    -1.1420 C.2   1 <1>  -0.1500 
  9 C       -4.9520    -0.4760    -0.1970 C.3   1 <1>   0.2000 
 10 C       -3.9770    -1.6130     0.1100 C.3   1 <1>  -0.0800 
 11 C       -0.8390     4.4140     0.0400 C.2   1 <1>  -0.0400 
 12 C       -1.8690     4.6260    -0.8080 C.2   1 <1>  -0.1500 
 13 O       -5.7660    -0.2540     0.9020 O.3   1 <1>  -0.6800 
 14 C       -4.5460    -2.9940    -0.2550 C.3   1 <1>  -0.0170 
 15 C        0.1080     5.3770     0.7340 C.3   1 <1>   0.5230 
 16 C       -3.5620    -4.1100     0.0550 C.ar  1 <1>   0.1660 
 17 N        1.5060     5.1130     0.2810 N.4   1 <1>  -0.9590 
 18 N       -2.6550    -4.3720    -0.8730 N.ar  1 <1>  -0.6200 
 19 C       -3.6430    -4.7940     1.2670 C.ar  1 <1>   0.1600 
 20 C        2.0940     3.9170     0.9610 C.3   1 <1>   0.3430 
 21 C        2.3690     6.3170     0.4220 C.3   1 <1>   0.3430 
 22 C       -1.8410    -5.3480    -0.5090 C.ar  1 <1>   0.1600 
 23 N       -2.8300    -5.7710     1.6320 N.ar  1 <1>  -0.6200 
 24 C        3.4640     3.6050     0.3590 C.3   1 <1>  -0.1600 
 25 C        3.7420     6.0430    -0.1940 C.3   1 <1>  -0.1600 
 26 C       -1.9250    -6.0250     0.7020 C.ar  1 <1>   0.1600 
 27 C        4.4090     4.8120     0.4350 C.3   1 <1>  -0.0800 
 28 C        5.7370     4.5010    -0.2630 C.3   1 <1>  -0.2400 
 29 H       -4.1440     1.4750     0.2860 H     1 <1>   0.0800 
 30 H       -4.4270     1.2000    -1.4340 H     1 <1>   0.0800 
 31 H       -2.7500    -1.5940    -1.6690 H     1 <1>   0.0800 
 32 H       -1.8320    -1.6380    -0.1750 H     1 <1>   0.0800 
 33 H       -3.1620     3.1650    -1.8190 H     1 <1>   0.1500 
 34 H       -5.5800    -0.7090    -1.0400 H     1 <1>   0.0800 
 35 H       -3.7250    -1.5990     1.1560 H     1 <1>   0.0800 
 36 H       -2.2690     5.5540    -1.1830 H     1 <1>   0.1500 
 37 H       -5.2270    -0.0740     1.6970 H     1 <1>   0.4000 
 38 H       -4.7910    -3.0270    -1.3030 H     1 <1>   0.0800 
 39 H       -5.4570    -3.1560     0.2940 H     1 <1>   0.0800 
 40 H        0.0320     5.2610     1.8020 H     1 <1>   0.0800 
 41 H       -0.1770     6.3830     0.4770 H     1 <1>   0.0800 
 42 H        1.4420     4.8710    -0.7160 H     1 <1>   0.4500 
 43 H       -4.4120    -4.5190     1.9670 H     1 <1>   0.1500 
 44 H        2.2000     4.1090     2.0170 H     1 <1>   0.0800 
 45 H        1.4570     3.0560     0.8380 H     1 <1>   0.0800 
 46 H        1.9170     7.1600    -0.0770 H     1 <1>   0.0800 
 47 H        2.4890     6.5610     1.4650 H     1 <1>   0.0800 
 48 H       -1.0680    -5.6280    -1.2030 H     1 <1>   0.1500 
 49 H        3.8950     2.7770     0.8950 H     1 <1>   0.0800 
 50 H        3.3350     3.2920    -0.6630 H     1 <1>   0.0800 
 51 H        3.6330     5.9050    -1.2560 H     1 <1>   0.0800 
 52 H        4.3690     6.9050    -0.0440 H     1 <1>   0.0800 
 53 H       -1.2150    -6.8060     0.9080 H     1 <1>   0.1500 
 54 H        4.6170     5.0230     1.4730 H     1 <1>   0.0800 
 55 H        5.5840     4.2800    -1.3050 H     1 <1>   0.0800 
 56 H        6.2140     3.6530     0.1980 H     1 <1>   0.0800 
 57 H        6.4070     5.3400    -0.1870 H     1 <1>   0.0800 
@<TRIPOS>BOND
  1   1   2  2   
  2   2   3  am  
  3   2   4  1   
  4   3   5  1   
  5   3   6  1   
  6   4   7  1   
  7   4   8  2   
  8   5   9  1   
  9   5  29  1   
 10   5  30  1   
 11   6  10  1   
 12   6  31  1   
 13   6  32  1   
 14   7  11  1   
 15   8  12  1   
 16   8  33  1   
 17   9  10  1   
 18   9  13  1   
 19   9  34  1   
 20  10  14  1   
 21  10  35  1   
 22  11  12  2   
 23  11  15  1   
 24  12  36  1   
 25  13  37  1   
 26  14  16  1   
 27  14  38  1   
 28  14  39  1   
 29  15  17  1   
 30  15  40  1   
 31  15  41  1   
 32  16  18  ar  
 33  16  19  ar  
 34  17  20  1   
 35  17  21  1   
 36  17  42  1   
 37  18  22  ar  
 38  19  23  ar  
 39  19  43  1   
 40  20  24  1   
 41  20  44  1   
 42  20  45  1   
 43  21  25  1   
 44  21  46  1   
 45  21  47  1   
 46  22  26  ar  
 47  22  48  1   
 48  23  26  ar  
 49  24  27  1   
 50  24  49  1   
 51  24  50  1   
 52  25  27  1   
 53  25  51  1   
 54  25  52  1   
 55  26  53  1   
 56  27  28  1   
 57  27  54  1   
 58  28  55  1   
 59  28  56  1   
 60  28  57  1   
@<TRIPOS>SUBSTRUCTURE
  1 ****   2 GROUP 4 **** **** 0

# MOE 2024.06 (io_trps.svl 2023.06)
