@<TRIPOS>MOLECULE
NONAME
43 44 1 0 0 
SMALL
USER_CHARGES


@<TRIPOS>ATOM
  1 O       -0.8820     1.5620     1.6520 O.2   1 <1>  -0.5700 
  2 C       -1.2720     1.2540     0.5490 C.2   1 <1>   0.5690 
  3 N       -1.8550     0.0480     0.3120 N.am  1 <1>  -0.7300 
  4 C       -1.0620     2.2790    -0.5970 C.3   1 <1>   0.4840 
  5 C       -2.1490    -0.9540     1.3490 C.3   1 <1>   0.2780 
  6 N        0.1520     3.1470    -0.3500 N.4   1 <1>  -0.9590 
  7 C       -2.3190     3.1460    -0.7440 C.3   1 <1>  -0.2400 
  8 C       -3.4900    -1.5550     0.9980 C.2   1 <1>  -0.2880 
  9 C        0.2930     4.3500    -1.2220 C.3   1 <1>   0.4860 
 10 C        1.4090     2.3270    -0.3200 C.3   1 <1>   0.2630 
 11 C       -3.6910    -2.8120     0.5900 C.2   1 <1>  -0.3000 
 12 C        1.4350     5.2020    -0.7010 C.ar  1 <1>  -0.1440 
 13 C        1.3020     5.9390     0.4500 C.ar  1 <1>  -0.1500 
 14 C        2.6510     5.2300    -1.4000 C.ar  1 <1>  -0.1500 
 15 C        2.3690     6.7100     0.9530 C.ar  1 <1>   0.0000 
 16 C        3.6980     5.9740    -0.9260 C.ar  1 <1>  -0.1500 
 17 C        3.5960     6.7240     0.2550 C.ar  1 <1>   0.3100 
 18 C        2.2750     7.4720     2.1310 C.ar  1 <1>  -0.1500 
 19 N        4.6750     7.4270     0.6780 N.ar  1 <1>  -0.6200 
 20 C        3.3710     8.1730     2.5330 C.ar  1 <1>  -0.1500 
 21 C        4.5460     8.1160     1.7710 C.ar  1 <1>   0.1600 
 22 H       -2.2210    -0.2280    -0.6030 H     1 <1>   0.3700 
 23 H       -0.9190     1.7250    -1.5090 H     1 <1>   0.0800 
 24 H       -2.1830    -0.5000     2.3270 H     1 <1>   0.0800 
 25 H       -1.3840    -1.7120     1.3440 H     1 <1>   0.0800 
 26 H        0.0300     3.4840     0.6200 H     1 <1>   0.4500 
 27 H       -2.4450     3.7850     0.1120 H     1 <1>   0.0800 
 28 H       -3.1850     2.5090    -0.8050 H     1 <1>   0.0800 
 29 H       -2.2960     3.7310    -1.6440 H     1 <1>   0.0800 
 30 H       -4.2970    -0.8510     1.1150 H     1 <1>   0.1500 
 31 H       -0.6090     4.9380    -1.2000 H     1 <1>   0.0800 
 32 H        0.4860     4.0550    -2.2400 H     1 <1>   0.0800 
 33 H        1.6140     1.9110    -1.2930 H     1 <1>   0.0800 
 34 H        1.3150     1.5200     0.3900 H     1 <1>   0.0800 
 35 H        2.2480     2.9350    -0.0220 H     1 <1>   0.0800 
 36 H       -4.6610    -3.2160     0.3490 H     1 <1>   0.1500 
 37 H       -2.9140    -3.5470     0.4640 H     1 <1>   0.1500 
 38 H        0.3800     5.9510     1.0050 H     1 <1>   0.1500 
 39 H        2.7690     4.6710    -2.3140 H     1 <1>   0.1500 
 40 H        4.6380     6.0090    -1.4470 H     1 <1>   0.1500 
 41 H        1.3560     7.4910     2.6900 H     1 <1>   0.1500 
 42 H        3.3590     8.7730     3.4250 H     1 <1>   0.1500 
 43 H        5.3960     8.6810     2.1150 H     1 <1>   0.1500 
@<TRIPOS>BOND
  1   1   2  2   
  2   2   3  am  
  3   2   4  1   
  4   3   5  1   
  5   3  22  1   
  6   4   6  1   
  7   4   7  1   
  8   4  23  1   
  9   5   8  1   
 10   5  24  1   
 11   5  25  1   
 12   6   9  1   
 13   6  10  1   
 14   6  26  1   
 15   7  27  1   
 16   7  28  1   
 17   7  29  1   
 18   8  11  2   
 19   8  30  1   
 20   9  12  1   
 21   9  31  1   
 22   9  32  1   
 23  10  33  1   
 24  10  34  1   
 25  10  35  1   
 26  11  36  1   
 27  11  37  1   
 28  12  13  ar  
 29  12  14  ar  
 30  13  15  ar  
 31  13  38  1   
 32  14  16  ar  
 33  14  39  1   
 34  15  17  ar  
 35  15  18  ar  
 36  16  17  ar  
 37  16  40  1   
 38  17  19  ar  
 39  18  20  ar  
 40  18  41  1   
 41  19  21  ar  
 42  20  21  ar  
 43  20  42  1   
 44  21  43  1   
@<TRIPOS>SUBSTRUCTURE
  1 ****   6 GROUP 4 **** **** 0

# MOE 2024.06 (io_trps.svl 2023.06)
