@<TRIPOS>MOLECULE
NONAME
49 51 1 0 0 
SMALL
USER_CHARGES


@<TRIPOS>ATOM
  1 F       -0.3350    -1.5570     2.7260 F     1 <1>  -0.1900 
  2 C       -1.2410    -1.6990     1.7960 C.ar  1 <1>   0.1900 
  3 C       -1.6540    -2.9710     1.4600 C.ar  1 <1>  -0.1500 
  4 C       -1.7490    -0.5690     1.1890 C.ar  1 <1>  -0.1500 
  5 C       -2.6250    -3.1470     0.4750 C.ar  1 <1>   0.0860 
  6 C       -2.7080    -0.7220     0.2020 C.ar  1 <1>  -0.1440 
  7 C       -3.0850    -4.4770     0.1110 C.2   1 <1>   0.5440 
  8 C       -3.1290    -1.9980    -0.1450 C.ar  1 <1>  -0.1500 
  9 C       -3.2820     0.4990    -0.4960 C.3   1 <1>  -0.0960 
 10 O       -2.3530    -5.4440     0.2250 O.2   1 <1>  -0.5700 
 11 N       -4.3750    -4.7090    -0.3170 N.am  1 <1>  -0.6600 
 12 C       -4.6380    -5.9540    -1.0980 C.3   1 <1>   0.1400 
 13 C       -5.4930    -4.2350     0.5680 C.3   1 <1>   0.1400 
 14 C       -5.1710    -6.9590    -0.0760 C.3   1 <1>   0.4230 
 15 C       -6.7880    -5.0560     0.3920 C.3   1 <1>  -0.1600 
 16 N       -4.9120    -8.4260    -0.3260 N.4   1 <1>  -0.9590 
 17 C       -6.6220    -6.6120     0.3370 C.3   1 <1>   0.0000 
 18 C       -5.6750    -9.3120     0.6200 C.3   1 <1>   0.3430 
 19 C       -5.0630    -8.8690    -1.7490 C.3   1 <1>   0.2630 
 20 C       -6.8340    -7.2660     1.7290 C.3   1 <1>  -0.1600 
 21 C       -7.6540    -7.1630    -0.6870 C.3   1 <1>   0.1200 
 22 C       -6.0330    -8.5800     1.9260 C.3   1 <1>  -0.1600 
 23 O       -8.9340    -6.7140    -0.4060 O.3   1 <1>  -0.6800 
 24 H       -1.2230    -3.8220     1.9580 H     1 <1>   0.1500 
 25 H       -1.3950     0.4030     1.4840 H     1 <1>   0.1500 
 26 H       -3.8630    -2.1130    -0.9230 H     1 <1>   0.1500 
 27 H       -4.2490     0.2820    -0.9110 H     1 <1>   0.0800 
 28 H       -2.6250     0.8070    -1.2900 H     1 <1>   0.0800 
 29 H       -3.3870     1.3130     0.2000 H     1 <1>   0.0800 
 30 H       -5.3530    -5.7540    -1.8760 H     1 <1>   0.0800 
 31 H       -3.7250    -6.3070    -1.5450 H     1 <1>   0.0800 
 32 H       -5.1750    -4.2990     1.5960 H     1 <1>   0.0800 
 33 H       -5.7000    -3.1990     0.3550 H     1 <1>   0.0800 
 34 H       -4.5860    -6.7360     0.8020 H     1 <1>   0.0800 
 35 H       -7.4870    -4.7840     1.1630 H     1 <1>   0.0800 
 36 H       -7.2270    -4.7100    -0.5290 H     1 <1>   0.0800 
 37 H       -3.9130    -8.5360    -0.0850 H     1 <1>   0.4500 
 38 H       -6.5890    -9.6400     0.1530 H     1 <1>   0.0800 
 39 H       -5.0930   -10.1920     0.8450 H     1 <1>   0.0800 
 40 H       -6.0810    -8.7530    -2.0780 H     1 <1>   0.0800 
 41 H       -4.7880    -9.9070    -1.8460 H     1 <1>   0.0800 
 42 H       -4.4230    -8.2890    -2.3940 H     1 <1>   0.0800 
 43 H       -6.5240    -6.5790     2.5000 H     1 <1>   0.0800 
 44 H       -7.8800    -7.4540     1.8950 H     1 <1>   0.0800 
 45 H       -7.6930    -8.2360    -0.6970 H     1 <1>   0.0800 
 46 H       -7.4190    -6.8210    -1.6810 H     1 <1>   0.0800 
 47 H       -6.5970    -9.2450     2.5570 H     1 <1>   0.0800 
 48 H       -5.1170    -8.3640     2.4510 H     1 <1>   0.0800 
 49 H       -9.2630    -7.0410     0.4540 H     1 <1>   0.4000 
@<TRIPOS>BOND
  1   1   2  1   
  2   2   3  ar  
  3   2   4  ar  
  4   3   5  ar  
  5   3  24  1   
  6   4   6  ar  
  7   4  25  1   
  8   5   7  1   
  9   5   8  ar  
 10   6   8  ar  
 11   6   9  1   
 12   7  10  2   
 13   7  11  am  
 14   8  26  1   
 15   9  27  1   
 16   9  28  1   
 17   9  29  1   
 18  11  12  1   
 19  11  13  1   
 20  12  14  1   
 21  12  30  1   
 22  12  31  1   
 23  13  15  1   
 24  13  32  1   
 25  13  33  1   
 26  14  16  1   
 27  14  17  1   
 28  14  34  1   
 29  15  17  1   
 30  15  35  1   
 31  15  36  1   
 32  16  18  1   
 33  16  19  1   
 34  16  37  1   
 35  17  20  1   
 36  17  21  1   
 37  18  22  1   
 38  18  38  1   
 39  18  39  1   
 40  19  40  1   
 41  19  41  1   
 42  19  42  1   
 43  20  22  1   
 44  20  43  1   
 45  20  44  1   
 46  21  23  1   
 47  21  45  1   
 48  21  46  1   
 49  22  47  1   
 50  22  48  1   
 51  23  49  1   
@<TRIPOS>SUBSTRUCTURE
  1 ****  11 GROUP 4 **** **** 0

# MOE 2024.06 (io_trps.svl 2023.06)
