@<TRIPOS>MOLECULE
NONAME
22 22 1 0 0 
SMALL
USER_CHARGES


@<TRIPOS>ATOM
  1 S        5.5200    -1.7670    -1.0700 S.3   1 <1>  -0.0800 
  2 C        6.5770    -0.6340    -0.2370 C.2   1 <1>  -0.1400 
  3 C        6.2430    -3.1270    -0.2340 C.2   1 <1>  -0.1100 
  4 C        7.4040    -1.2910     0.5970 C.2   1 <1>  -0.1500 
  5 C        6.4330     0.8420    -0.5630 C.3   1 <1>   0.0200 
  6 C        7.2110    -2.7090     0.6010 C.2   1 <1>  -0.1500 
  7 C        5.3190     1.4960     0.2680 C.3   1 <1>   0.4230 
  8 N        4.0330     0.7700     0.1340 N.4   1 <1>  -0.8530 
  9 C        5.0970     2.9790    -0.0990 C.3   1 <1>   0.1200 
 10 O        3.8260     3.3730     0.3270 O.3   1 <1>  -0.6800 
 11 H        5.8680    -4.1110    -0.4600 H     1 <1>   0.1500 
 12 H        8.1630    -0.8490     1.2220 H     1 <1>   0.1500 
 13 H        6.2520     0.9650    -1.6170 H     1 <1>   0.0800 
 14 H        7.3630     1.3340    -0.3380 H     1 <1>   0.0800 
 15 H        7.8120    -3.3480     1.2280 H     1 <1>   0.1500 
 16 H        5.6180     1.4620     1.3040 H     1 <1>   0.0800 
 17 H        3.8230     0.5580    -0.8440 H     1 <1>   0.4500 
 18 H        3.3060     1.4150     0.4840 H     1 <1>   0.4500 
 19 H        4.0390    -0.1050     0.6690 H     1 <1>   0.4500 
 20 H        5.1530     3.1280    -1.1650 H     1 <1>   0.0800 
 21 H        5.8340     3.6010     0.3810 H     1 <1>   0.0800 
 22 H        3.6900     4.3400     0.1960 H     1 <1>   0.4000 
@<TRIPOS>BOND
  1   1   2  1   
  2   1   3  1   
  3   2   4  2   
  4   2   5  1   
  5   3   6  2   
  6   3  11  1   
  7   4   6  1   
  8   4  12  1   
  9   5   7  1   
 10   5  13  1   
 11   5  14  1   
 12   6  15  1   
 13   7   8  1   
 14   7   9  1   
 15   7  16  1   
 16   8  17  1   
 17   8  18  1   
 18   8  19  1   
 19   9  10  1   
 20   9  20  1   
 21   9  21  1   
 22  10  22  1   
@<TRIPOS>SUBSTRUCTURE
  1 ****   2 GROUP 4 **** **** 0

# MOE 2024.06 (io_trps.svl 2023.06)
