@<TRIPOS>MOLECULE
NONAME
39 41 1 0 0 
SMALL
USER_CHARGES


@<TRIPOS>ATOM
  1 F       -0.0230     0.0620    -0.1370 F     1 <1>  -0.3400 
  2 C        1.0890     0.6390    -0.5880 C.3   1 <1>   1.1640 
  3 F        0.9540     0.6910    -1.9100 F     1 <1>  -0.3400 
  4 F        2.0650    -0.2320    -0.3470 F     1 <1>  -0.3400 
  5 C        1.3480     2.0310     0.0490 C.ar  1 <1>   0.1660 
  6 N        2.4450     2.7060    -0.2670 N.ar  1 <1>  -0.6200 
  7 C        0.4440     2.5730     0.9440 C.ar  1 <1>  -0.1500 
  8 C        2.6190     3.8960     0.2990 C.ar  1 <1>   0.7200 
  9 C        0.7220     3.8040     1.4830 C.ar  1 <1>   0.1600 
 10 N        1.8040     4.4700     1.1740 N.ar  1 <1>  -0.6200 
 11 N        3.7450     4.5870    -0.0560 N.pl3 1 <1>  -0.8380 
 12 C        4.0610     5.9350     0.4930 C.3   1 <1>   0.4690 
 13 C        4.9420     3.9440    -0.6380 C.3   1 <1>   0.2090 
 14 C        3.1510     7.0630    -0.0090 C.2   1 <1>   0.2980 
 15 C        5.5190     6.1690     0.0870 C.3   1 <1>  -0.1600 
 16 C        6.1090     4.7760    -0.1230 C.3   1 <1>  -0.1600 
 17 O        2.7760     7.0600    -1.2660 O.3   1 <1>  -0.0190 
 18 N        2.7300     8.0510     0.6820 N.2   1 <1>  -0.5650 
 19 N        2.0540     8.1330    -1.3820 N.2   1 <1>  -0.4100 
 20 C        2.0280     8.6970    -0.2390 C.2   1 <1>   0.3350 
 21 C        1.2940     9.9940     0.1080 C.3   1 <1>   0.1010 
 22 C        0.0760    10.2420    -0.7950 C.3   1 <1>  -0.2400 
 23 C        2.2520    11.1920     0.0390 C.3   1 <1>  -0.2400 
 24 H       -0.4600     2.0620     1.2260 H     1 <1>   0.1500 
 25 H        0.0390     4.2540     2.1840 H     1 <1>   0.1500 
 26 H        3.9980     5.8920     1.5660 H     1 <1>   0.0800 
 27 H        5.0290     2.9140    -0.3320 H     1 <1>   0.0800 
 28 H        4.8790     3.9970    -1.7120 H     1 <1>   0.0800 
 29 H        5.5480     6.7130    -0.8400 H     1 <1>   0.0800 
 30 H        6.0470     6.7320     0.8350 H     1 <1>   0.0800 
 31 H        6.4370     4.3680     0.8180 H     1 <1>   0.0800 
 32 H        6.9330     4.7760    -0.8130 H     1 <1>   0.0800 
 33 H        0.9410     9.9000     1.1200 H     1 <1>   0.0800 
 34 H        0.3850    10.3630    -1.8190 H     1 <1>   0.0800 
 35 H       -0.4510    11.1260    -0.4840 H     1 <1>   0.0800 
 36 H       -0.5960     9.4040    -0.7400 H     1 <1>   0.0800 
 37 H        2.6320    11.3050    -0.9600 H     1 <1>   0.0800 
 38 H        3.0820    11.0340     0.7060 H     1 <1>   0.0800 
 39 H        1.7470    12.0960     0.3270 H     1 <1>   0.0800 
@<TRIPOS>BOND
  1   1   2  1   
  2   2   3  1   
  3   2   4  1   
  4   2   5  1   
  5   5   6  ar  
  6   5   7  ar  
  7   6   8  ar  
  8   7   9  ar  
  9   7  24  1   
 10   8  10  ar  
 11   8  11  1   
 12   9  10  ar  
 13   9  25  1   
 14  11  12  1   
 15  11  13  1   
 16  12  14  1   
 17  12  15  1   
 18  12  26  1   
 19  13  16  1   
 20  13  27  1   
 21  13  28  1   
 22  14  17  1   
 23  14  18  2   
 24  15  16  1   
 25  15  29  1   
 26  15  30  1   
 27  16  31  1   
 28  16  32  1   
 29  17  19  1   
 30  18  20  1   
 31  19  20  2   
 32  20  21  1   
 33  21  22  1   
 34  21  23  1   
 35  21  33  1   
 36  22  34  1   
 37  22  35  1   
 38  22  36  1   
 39  23  37  1   
 40  23  38  1   
 41  23  39  1   
@<TRIPOS>SUBSTRUCTURE
  1 ****   8 GROUP 4 **** **** 0

# MOE 2024.06 (io_trps.svl 2023.06)
