@<TRIPOS>MOLECULE
NONAME
43 45 1 0 0 
SMALL
USER_CHARGES


@<TRIPOS>ATOM
  1 O       -0.5780    -0.5030     0.2280 O.3   1 <1>  -0.6800 
  2 C       -1.6680    -1.3430     0.3980 C.3   1 <1>   0.2000 
  3 C       -1.4540    -2.6410    -0.4020 C.3   1 <1>   0.2090 
  4 C       -2.9130    -0.5940    -0.0870 C.3   1 <1>  -0.1600 
  5 N       -2.6790    -3.5100    -0.3360 N.pl3 1 <1>  -0.8380 
  6 C       -4.1390    -1.5220    -0.0800 C.3   1 <1>  -0.1600 
  7 C       -2.6830    -4.8230     0.0130 C.ar  1 <1>   0.4100 
  8 C       -3.8920    -2.8140    -0.8710 C.3   1 <1>   0.2090 
  9 N       -3.5950    -5.6040    -0.5380 N.ar  1 <1>  -0.6200 
 10 C       -1.7490    -5.3380     0.9350 C.ar  1 <1>  -0.1500 
 11 C       -3.5880    -6.8820    -0.2300 C.ar  1 <1>   0.7710 
 12 C       -1.7690    -6.6590     1.2340 C.ar  1 <1>   0.2110 
 13 N       -2.7070    -7.4260     0.6280 N.ar  1 <1>  -0.1790 
 14 N       -4.5240    -7.6300    -0.8260 N.pl3 1 <1>  -0.8690 
 15 C       -4.8550    -9.0820    -0.7550 C.3   1 <1>   0.2090 
 16 C       -6.2960    -9.2860    -0.2810 C.3   1 <1>   0.0960 
 17 N       -6.4600   -10.6930     0.1100 N.pl3 1 <1>   0.0480 
 18 C       -6.4100   -11.1850     1.3770 C.2   1 <1>  -0.3020 
 19 C       -6.5800   -11.7560    -0.7290 C.2   1 <1>  -0.3020 
 20 C       -6.5000   -12.5400     1.3410 C.2   1 <1>  -0.1500 
 21 C       -6.6080   -12.9040    -0.0040 C.2   1 <1>  -0.1500 
 22 H        0.1930    -0.8170     0.7360 H     1 <1>   0.4000 
 23 H       -1.7570    -1.5660     1.4470 H     1 <1>   0.0800 
 24 H       -0.5890    -3.1590    -0.0350 H     1 <1>   0.0800 
 25 H       -1.2760    -2.3850    -1.4320 H     1 <1>   0.0800 
 26 H       -2.7460    -0.2390    -1.0900 H     1 <1>   0.0800 
 27 H       -3.0960     0.2530     0.5500 H     1 <1>   0.0800 
 28 H       -4.9810    -1.0050    -0.5050 H     1 <1>   0.0800 
 29 H       -4.3930    -1.7810     0.9330 H     1 <1>   0.0800 
 30 H       -4.7640    -3.4410    -0.7930 H     1 <1>   0.0800 
 31 H       -3.7390    -2.5830    -1.9120 H     1 <1>   0.0800 
 32 H       -1.0440    -4.6740     1.3970 H     1 <1>   0.1500 
 33 H       -1.0810    -7.1130     1.9300 H     1 <1>   0.1500 
 34 H       -2.7870    -8.4240     0.7910 H     1 <1>   0.4570 
 35 H       -5.1050    -7.0940    -1.4850 H     1 <1>   0.4000 
 36 H       -4.1880    -9.5850    -0.0770 H     1 <1>   0.0800 
 37 H       -4.7380    -9.5220    -1.7320 H     1 <1>   0.0800 
 38 H       -6.9920    -9.0570    -1.0670 H     1 <1>   0.0800 
 39 H       -6.5050    -8.6690     0.5740 H     1 <1>   0.0800 
 40 H       -6.3200   -10.5550     2.2440 H     1 <1>   0.1500 
 41 H       -6.6420   -11.6510    -1.7980 H     1 <1>   0.1500 
 42 H       -6.4960   -13.2280     2.1690 H     1 <1>   0.1500 
 43 H       -6.6990   -13.9150    -0.3660 H     1 <1>   0.1500 
@<TRIPOS>BOND
  1   1   2  1   
  2   1  22  1   
  3   2   3  1   
  4   2   4  1   
  5   2  23  1   
  6   3   5  1   
  7   3  24  1   
  8   3  25  1   
  9   4   6  1   
 10   4  26  1   
 11   4  27  1   
 12   5   7  1   
 13   5   8  1   
 14   6   8  1   
 15   6  28  1   
 16   6  29  1   
 17   7   9  ar  
 18   7  10  ar  
 19   8  30  1   
 20   8  31  1   
 21   9  11  ar  
 22  10  12  ar  
 23  10  32  1   
 24  11  13  ar  
 25  11  14  1   
 26  12  13  ar  
 27  12  33  1   
 28  13  34  1   
 29  14  15  1   
 30  14  35  1   
 31  15  16  1   
 32  15  36  1   
 33  15  37  1   
 34  16  17  1   
 35  16  38  1   
 36  16  39  1   
 37  17  18  1   
 38  17  19  1   
 39  18  20  2   
 40  18  40  1   
 41  19  21  2   
 42  19  41  1   
 43  20  21  1   
 44  20  42  1   
 45  21  43  1   
@<TRIPOS>SUBSTRUCTURE
  1 ****  11 GROUP 4 **** **** 0

# MOE 2024.06 (io_trps.svl 2023.06)
