@<TRIPOS>MOLECULE
NONAME
45 47 1 0 0 
SMALL
USER_CHARGES


@<TRIPOS>ATOM
  1 O       -0.2600     0.0870     0.9470 O.2   1 <1>  -0.5700 
  2 C       -1.2830     0.7370     0.8510 C.2   1 <1>   0.5440 
  3 N       -2.4570     0.0820     0.5580 N.am  1 <1>  -0.6600 
  4 C       -1.2470     2.1750     1.0340 C.ar  1 <1>   0.0860 
  5 C       -3.6940     0.7390     0.0660 C.3   1 <1>   0.1400 
  6 C       -2.5140    -1.3820     0.3310 C.3   1 <1>   0.1400 
  7 C       -0.4010     2.9710     0.2680 C.ar  1 <1>  -0.1500 
  8 C       -2.0560     2.8100     1.9760 C.ar  1 <1>  -0.1500 
  9 C       -4.5010    -0.3830    -0.5880 C.3   1 <1>   0.2000 
 10 C       -3.9840    -1.6800     0.0310 C.3   1 <1>  -0.0800 
 11 C       -0.3670     4.3470     0.4140 C.ar  1 <1>   0.0830 
 12 C       -2.0320     4.1840     2.1350 C.ar  1 <1>  -0.1500 
 13 O       -5.8590    -0.2490    -0.3380 O.3   1 <1>  -0.6800 
 14 C       -4.2090    -2.9000    -0.8770 C.3   1 <1>  -0.0170 
 15 O        0.4890     5.0240    -0.3900 O.3   1 <1>  -0.3630 
 16 C       -1.1910     4.9570     1.3550 C.ar  1 <1>  -0.1500 
 17 C       -3.7320    -4.1860    -0.2210 C.ar  1 <1>   0.1670 
 18 C        0.6620     6.4170    -0.2730 C.3   1 <1>   0.1200 
 19 N       -2.4440    -4.4650    -0.3350 N.ar  1 <1>  -0.6200 
 20 C       -4.6370    -4.9980     0.4600 C.ar  1 <1>   0.1600 
 21 C        1.7180     6.8470    -1.2870 C.3   1 <1>  -0.2400 
 22 C       -2.1230    -5.5940     0.2730 C.ar  1 <1>   0.1600 
 23 N       -4.3190    -6.1280     1.0700 N.ar  1 <1>  -0.6200 
 24 C       -3.0300    -6.3980     0.9530 C.ar  1 <1>   0.1600 
 25 H       -4.2270     1.1600     0.9000 H     1 <1>   0.0800 
 26 H       -3.4550     1.5050    -0.6500 H     1 <1>   0.0800 
 27 H       -1.8880    -1.6310    -0.5110 H     1 <1>   0.0800 
 28 H       -2.1650    -1.9180     1.1970 H     1 <1>   0.0800 
 29 H        0.2460     2.5060    -0.4540 H     1 <1>   0.1500 
 30 H       -2.7040     2.2120     2.5930 H     1 <1>   0.1500 
 31 H       -4.3470    -0.3680    -1.6540 H     1 <1>   0.0800 
 32 H       -4.4710    -1.8430     0.9770 H     1 <1>   0.0800 
 33 H       -2.6660     4.6530     2.8690 H     1 <1>   0.1500 
 34 H       -6.0300    -0.2530     0.6230 H     1 <1>   0.4000 
 35 H       -3.6870    -2.7670    -1.8090 H     1 <1>   0.0800 
 36 H       -5.2570    -2.9830    -1.1050 H     1 <1>   0.0800 
 37 H       -1.1910     6.0210     1.4930 H     1 <1>   0.1500 
 38 H       -0.2790     6.8960    -0.4780 H     1 <1>   0.0800 
 39 H        0.9860     6.6370     0.7300 H     1 <1>   0.0800 
 40 H       -5.6690    -4.7000     0.5050 H     1 <1>   0.1500 
 41 H        1.3930     6.6070    -2.2830 H     1 <1>   0.0800 
 42 H        2.6490     6.3480    -1.0840 H     1 <1>   0.0800 
 43 H        1.8760     7.9080    -1.2220 H     1 <1>   0.0800 
 44 H       -1.0920    -5.8990     0.2320 H     1 <1>   0.1500 
 45 H       -2.6730    -7.3010     1.4170 H     1 <1>   0.1500 
@<TRIPOS>BOND
  1   1   2  2   
  2   2   3  am  
  3   2   4  1   
  4   3   5  1   
  5   3   6  1   
  6   4   7  ar  
  7   4   8  ar  
  8   5   9  1   
  9   5  25  1   
 10   5  26  1   
 11   6  10  1   
 12   6  27  1   
 13   6  28  1   
 14   7  11  ar  
 15   7  29  1   
 16   8  12  ar  
 17   8  30  1   
 18   9  10  1   
 19   9  13  1   
 20   9  31  1   
 21  10  14  1   
 22  10  32  1   
 23  11  15  1   
 24  11  16  ar  
 25  12  16  ar  
 26  12  33  1   
 27  13  34  1   
 28  14  17  1   
 29  14  35  1   
 30  14  36  1   
 31  15  18  1   
 32  16  37  1   
 33  17  19  ar  
 34  17  20  ar  
 35  18  21  1   
 36  18  38  1   
 37  18  39  1   
 38  19  22  ar  
 39  20  23  ar  
 40  20  40  1   
 41  21  41  1   
 42  21  42  1   
 43  21  43  1   
 44  22  24  ar  
 45  22  44  1   
 46  23  24  ar  
 47  24  45  1   
@<TRIPOS>SUBSTRUCTURE
  1 ****   3 GROUP 4 **** **** 0

# MOE 2024.06 (io_trps.svl 2023.06)
