@<TRIPOS>MOLECULE
NONAME
30 31 1 0 0 
SMALL
USER_CHARGES


@<TRIPOS>ATOM
  1 S        0.3340     0.4460    -0.0580 S.3   1 <1>  -0.0800 
  2 C       -1.2460     1.2120    -0.0550 C.2   1 <1>  -0.0450 
  3 C       -0.4210    -1.1170    -0.1880 C.2   1 <1>   0.2280 
  4 C       -2.1620     0.2140    -0.1520 C.2   1 <1>   0.0460 
  5 C       -1.3190     2.6490     0.0410 C.2   1 <1>   0.7150 
  6 N       -1.6900    -1.0800    -0.2250 N.2   1 <1>  -0.5650 
  7 C       -3.6740     0.3440    -0.1910 C.3   1 <1>  -0.0590 
  8 O       -2.3910     3.2190     0.0520 O.2   1 <1>  -0.5700 
  9 N       -0.1570     3.3720     0.1250 N.am  1 <1>  -0.4940 
 10 C        0.0550     4.7530     0.1840 C.2   1 <1>   0.2040 
 11 O       -0.9220     5.6240     0.0920 O.3   1 <1>  -0.0190 
 12 C        1.2040     5.4430     0.3220 C.2   1 <1>  -0.1810 
 13 N       -0.4840     6.8560     0.1580 N.2   1 <1>  -0.4100 
 14 C        0.7900     6.7740     0.2950 C.2   1 <1>   0.1080 
 15 C        2.6250     4.9240     0.4710 C.3   1 <1>   0.0210 
 16 C        1.6880     7.9860     0.4130 C.3   1 <1>  -0.0590 
 17 C        3.3170     4.8530    -0.8910 C.3   1 <1>  -0.2400 
 18 H        0.2220    -1.9790    -0.2270 H     1 <1>   0.1500 
 19 H       -3.9940     1.3660    -0.1320 H     1 <1>   0.0800 
 20 H       -4.1010    -0.1960     0.6340 H     1 <1>   0.0800 
 21 H       -4.0460    -0.0790    -1.1060 H     1 <1>   0.0800 
 22 H        0.6860     2.8050     0.1270 H     1 <1>   0.3700 
 23 H        2.6050     3.9440     0.9150 H     1 <1>   0.0800 
 24 H        3.1790     5.5680     1.1310 H     1 <1>   0.0800 
 25 H        2.4140     7.9840    -0.3790 H     1 <1>   0.0800 
 26 H        2.1930     7.9780     1.3610 H     1 <1>   0.0800 
 27 H        1.1020     8.8850     0.3410 H     1 <1>   0.0800 
 28 H        2.7740     4.2000    -1.5520 H     1 <1>   0.0800 
 29 H        4.3190     4.4770    -0.7790 H     1 <1>   0.0800 
 30 H        3.3640     5.8290    -1.3380 H     1 <1>   0.0800 
@<TRIPOS>BOND
  1   1   2  1   
  2   1   3  1   
  3   2   4  2   
  4   2   5  1   
  5   3   6  2   
  6   3  18  1   
  7   4   6  1   
  8   4   7  1   
  9   5   8  2   
 10   5   9  am  
 11   7  19  1   
 12   7  20  1   
 13   7  21  1   
 14   9  10  1   
 15   9  22  1   
 16  10  11  1   
 17  10  12  2   
 18  11  13  1   
 19  12  14  1   
 20  12  15  1   
 21  13  14  2   
 22  14  16  1   
 23  15  17  1   
 24  15  23  1   
 25  15  24  1   
 26  16  25  1   
 27  16  26  1   
 28  16  27  1   
 29  17  28  1   
 30  17  29  1   
 31  17  30  1   
@<TRIPOS>SUBSTRUCTURE
  1 ****   9 GROUP 4 **** **** 0

# MOE 2024.06 (io_trps.svl 2023.06)
