@<TRIPOS>MOLECULE
NONAME
51 55 1 0 0 
SMALL
USER_CHARGES


@<TRIPOS>ATOM
  1 O        0.1870     0.2540    -0.2650 O.3   1 <1>  -0.5600 
  2 C        1.3870    -0.3320    -0.6890 C.3   1 <1>   0.3440 
  3 C        0.0650     1.6200    -0.5220 C.3   1 <1>   0.2950 
  4 C        1.3830    -1.8150    -0.3510 C.ar  1 <1>  -0.1440 
  5 C        2.5790     0.3460     0.0260 C.3   1 <1>   0.3430 
  6 C       -1.3140     2.0590    -0.0300 C.3   1 <1>  -0.1950 
  7 C        1.1840     2.3950     0.2120 C.3   1 <1>   0.3430 
  8 C        2.0170    -2.7140    -1.2000 C.ar  1 <1>  -0.1500 
  9 C        0.7760    -2.2910     0.8040 C.ar  1 <1>  -0.1500 
 10 N        2.5700     1.8560    -0.0840 N.4   1 <1>  -0.9590 
 11 C       -2.5320     1.8700    -0.8780 C.3   1 <1>  -0.2000 
 12 C       -2.0010     3.2520    -0.6190 C.3   1 <1>  -0.2000 
 13 C        2.0520    -4.0620    -0.8920 C.ar  1 <1>  -0.1500 
 14 C        0.8120    -3.6390     1.1110 C.ar  1 <1>  -0.1500 
 15 C        3.6140     2.4700     0.7900 C.3   1 <1>   0.4860 
 16 C        1.4510    -4.5260     0.2640 C.ar  1 <1>  -0.1500 
 17 C        3.6200     3.9680     0.5860 C.ar  1 <1>  -0.1440 
 18 C        3.0790     4.8240     1.5160 C.ar  1 <1>   0.1600 
 19 C        4.1570     4.5390    -0.5430 C.ar  1 <1>   0.1600 
 20 N        3.0400     6.1180     1.3300 N.ar  1 <1>  -0.6200 
 21 N        4.1260     5.8280    -0.7490 N.ar  1 <1>  -0.6200 
 22 C        3.5680     6.5960     0.1950 C.ar  1 <1>   0.6730 
 23 C        3.5180     8.0300    -0.0090 C.2   1 <1>   0.0870 
 24 O        3.9430     8.5910    -1.1410 O.3   1 <1>  -0.2800 
 25 C        3.0730     9.0230     0.8130 C.2   1 <1>  -0.1500 
 26 C        3.7830     9.8930    -1.0600 C.2   1 <1>  -0.0100 
 27 C        3.2460    10.2290     0.1310 C.2   1 <1>  -0.1500 
 28 H        1.4600    -0.2090    -1.7560 H     1 <1>   0.0800 
 29 H        0.1320     1.7750    -1.5860 H     1 <1>   0.0800 
 30 H        3.4950    -0.0520    -0.3790 H     1 <1>   0.0800 
 31 H        2.5340     0.0570     1.0630 H     1 <1>   0.0800 
 32 H       -1.4410     1.8960     1.0270 H     1 <1>   0.1000 
 33 H        0.9860     2.3280     1.2690 H     1 <1>   0.0800 
 34 H        1.1230     3.4350    -0.0650 H     1 <1>   0.0800 
 35 H        2.4870    -2.3820    -2.1090 H     1 <1>   0.1500 
 36 H        0.2630    -1.6190     1.4710 H     1 <1>   0.1500 
 37 H        2.7880     2.1080    -1.0570 H     1 <1>   0.4500 
 38 H       -2.4260     1.4460    -1.8630 H     1 <1>   0.1000 
 39 H       -3.4490     1.5670    -0.4020 H     1 <1>   0.1000 
 40 H       -2.5760     3.8990     0.0230 H     1 <1>   0.1000 
 41 H       -1.5730     3.7820    -1.4520 H     1 <1>   0.1000 
 42 H        2.5430    -4.7560    -1.5530 H     1 <1>   0.1500 
 43 H        0.3370    -4.0020     2.0070 H     1 <1>   0.1500 
 44 H        3.4100     2.2440     1.8250 H     1 <1>   0.0800 
 45 H        4.5860     2.0720     0.5440 H     1 <1>   0.0800 
 46 H        1.4770    -5.5760     0.5030 H     1 <1>   0.1500 
 47 H        2.6590     4.4500     2.4360 H     1 <1>   0.1500 
 48 H        4.6230     3.9360    -1.3050 H     1 <1>   0.1500 
 49 H        2.6640     8.9170     1.8020 H     1 <1>   0.1500 
 50 H        4.0780    10.5080    -1.8930 H     1 <1>   0.1500 
 51 H        2.9940    11.2060     0.5040 H     1 <1>   0.1500 
@<TRIPOS>BOND
  1   1   2  1   
  2   1   3  1   
  3   2   4  1   
  4   2   5  1   
  5   2  28  1   
  6   3   6  1   
  7   3   7  1   
  8   3  29  1   
  9   4   8  ar  
 10   4   9  ar  
 11   5  10  1   
 12   5  30  1   
 13   5  31  1   
 14   6  11  1   
 15   6  12  1   
 16   6  32  1   
 17   7  10  1   
 18   7  33  1   
 19   7  34  1   
 20   8  13  ar  
 21   8  35  1   
 22   9  14  ar  
 23   9  36  1   
 24  10  15  1   
 25  10  37  1   
 26  11  12  1   
 27  11  38  1   
 28  11  39  1   
 29  12  40  1   
 30  12  41  1   
 31  13  16  ar  
 32  13  42  1   
 33  14  16  ar  
 34  14  43  1   
 35  15  17  1   
 36  15  44  1   
 37  15  45  1   
 38  16  46  1   
 39  17  18  ar  
 40  17  19  ar  
 41  18  20  ar  
 42  18  47  1   
 43  19  21  ar  
 44  19  48  1   
 45  20  22  ar  
 46  21  22  ar  
 47  22  23  1   
 48  23  24  1   
 49  23  25  2   
 50  24  26  1   
 51  25  27  1   
 52  25  49  1   
 53  26  27  2   
 54  26  50  1   
 55  27  51  1   
@<TRIPOS>SUBSTRUCTURE
  1 ****   7 GROUP 4 **** **** 0

# MOE 2024.06 (io_trps.svl 2023.06)
