@<TRIPOS>MOLECULE
NONAME
46 48 1 0 0 
SMALL
USER_CHARGES


@<TRIPOS>ATOM
  1 CL      -1.1860    -1.6220     3.5760 Cl    1 <1>  -0.1230 
  2 C       -1.8760    -2.6730     2.3530 C.2   1 <1>   0.1230 
  3 C       -1.2470    -3.0910     1.1910 C.2   1 <1>   0.1390 
  4 C       -3.1000    -3.2300     2.3460 C.2   1 <1>  -0.3020 
  5 N       -2.0260    -3.8680     0.4910 N.2   1 <1>  -0.7070 
  6 N       -3.1700    -3.9500     1.2070 N.pl3 1 <1>   0.3140 
  7 C       -4.3180    -4.7420     0.7350 C.3   1 <1>   0.0960 
  8 C       -3.8140    -5.8070    -0.2480 C.3   1 <1>   0.3430 
  9 N       -4.9090    -6.6590    -0.8250 N.4   1 <1>  -0.9590 
 10 C       -4.3400    -7.8670    -1.5040 C.3   1 <1>   0.3430 
 11 C       -5.7950    -5.9190    -1.7650 C.3   1 <1>   0.3430 
 12 C       -5.2040    -9.1170    -1.2280 C.3   1 <1>   0.2090 
 13 C       -7.2130    -6.4900    -1.7140 C.3   1 <1>  -0.1600 
 14 N       -6.6550    -8.7990    -0.9460 N.pl3 1 <1>  -0.8380 
 15 C       -7.3180    -7.9890    -2.0190 C.3   1 <1>   0.2090 
 16 C       -7.4060    -9.5150    -0.0510 C.ar  1 <1>   0.1000 
 17 C       -8.6080    -9.0100     0.4750 C.ar  1 <1>  -0.1500 
 18 C       -7.0480   -10.8050     0.3770 C.ar  1 <1>  -0.1500 
 19 C       -9.3800    -9.7360     1.3490 C.ar  1 <1>   0.2180 
 20 C       -7.8330   -11.5110     1.2520 C.ar  1 <1>   0.2110 
 21 N       -8.9830   -10.9740     1.7270 N.ar  1 <1>  -0.1790 
 22 C      -10.6820    -9.1950     1.9150 C.3   1 <1>  -0.0970 
 23 H       -0.2470    -2.8100     0.9060 H     1 <1>   0.1500 
 24 H       -3.8900    -3.1470     3.0700 H     1 <1>   0.1500 
 25 H       -5.0040    -4.0700     0.2570 H     1 <1>   0.0800 
 26 H       -4.7850    -5.2040     1.5850 H     1 <1>   0.0800 
 27 H       -3.1100    -6.4340     0.2760 H     1 <1>   0.0800 
 28 H       -3.2820    -5.3170    -1.0490 H     1 <1>   0.0800 
 29 H       -5.5250    -7.0520    -0.0910 H     1 <1>   0.4500 
 30 H       -3.3390    -8.0600    -1.1540 H     1 <1>   0.0800 
 31 H       -4.2830    -7.7000    -2.5670 H     1 <1>   0.0800 
 32 H       -5.4050    -5.9820    -2.7690 H     1 <1>   0.0800 
 33 H       -5.8370    -4.8770    -1.4940 H     1 <1>   0.0800 
 34 H       -4.7760    -9.6160    -0.3750 H     1 <1>   0.0800 
 35 H       -5.1340    -9.7920    -2.0640 H     1 <1>   0.0800 
 36 H       -7.8000    -5.9640    -2.4460 H     1 <1>   0.0800 
 37 H       -7.6530    -6.2810    -0.7570 H     1 <1>   0.0800 
 38 H       -6.8740    -8.2080    -2.9770 H     1 <1>   0.0800 
 39 H       -8.3580    -8.2650    -2.0900 H     1 <1>   0.0800 
 40 H       -8.9260    -8.0280     0.1820 H     1 <1>   0.1500 
 41 H       -6.1530   -11.2640     0.0010 H     1 <1>   0.1500 
 42 H       -7.5550   -12.5030     1.5720 H     1 <1>   0.1500 
 43 H       -9.5670   -11.5130     2.3780 H     1 <1>   0.4570 
 44 H      -10.8840    -8.2090     1.5350 H     1 <1>   0.0800 
 45 H      -10.6310    -9.1350     2.9880 H     1 <1>   0.0800 
 46 H      -11.5050    -9.8310     1.6390 H     1 <1>   0.0800 
@<TRIPOS>BOND
  1   1   2  1   
  2   2   3  1   
  3   2   4  2   
  4   3   5  2   
  5   3  23  1   
  6   4   6  1   
  7   4  24  1   
  8   5   6  1   
  9   6   7  1   
 10   7   8  1   
 11   7  25  1   
 12   7  26  1   
 13   8   9  1   
 14   8  27  1   
 15   8  28  1   
 16   9  10  1   
 17   9  11  1   
 18   9  29  1   
 19  10  12  1   
 20  10  30  1   
 21  10  31  1   
 22  11  13  1   
 23  11  32  1   
 24  11  33  1   
 25  12  14  1   
 26  12  34  1   
 27  12  35  1   
 28  13  15  1   
 29  13  36  1   
 30  13  37  1   
 31  14  15  1   
 32  14  16  1   
 33  15  38  1   
 34  15  39  1   
 35  16  17  ar  
 36  16  18  ar  
 37  17  19  ar  
 38  17  40  1   
 39  18  20  ar  
 40  18  41  1   
 41  19  21  ar  
 42  19  22  1   
 43  20  21  ar  
 44  20  42  1   
 45  21  43  1   
 46  22  44  1   
 47  22  45  1   
 48  22  46  1   
@<TRIPOS>SUBSTRUCTURE
  1 ****   9 GROUP 4 **** **** 0

# MOE 2024.06 (io_trps.svl 2023.06)
