@<TRIPOS>MOLECULE
NONAME
42 44 1 0 0 
SMALL
USER_CHARGES


@<TRIPOS>ATOM
  1 O       -0.3290     0.4930     1.5910 O.3   1 <1>  -0.0190 
  2 N        0.5110     1.4120     1.2250 N.2   1 <1>  -0.4100 
  3 C       -1.5010     0.6480     1.0400 C.2   1 <1>  -0.0400 
  4 C       -0.1270     2.2030     0.4100 C.2   1 <1>   0.2350 
  5 C       -1.4420     1.7370     0.2640 C.2   1 <1>  -0.1500 
  6 C       -2.6310    -0.3230     1.3480 C.3   1 <1>   0.3890 
  7 C        0.4220     3.3800    -0.2460 C.ar  1 <1>   0.3640 
  8 N       -2.5640    -1.5610     0.5160 N.pl3 1 <1>  -0.8380 
  9 N       -0.3920     4.1260    -1.0040 N.ar  1 <1>  -0.6200 
 10 C        1.7680     3.7120    -0.0760 C.ar  1 <1>  -0.1500 
 11 C       -3.7170    -2.1780     0.0850 C.ar  1 <1>   0.7200 
 12 C       -1.2140    -2.1570     0.2820 C.3   1 <1>   0.1290 
 13 C        0.1360     5.1900    -1.5840 C.ar  1 <1>   0.1600 
 14 C        2.3080     4.8220    -0.6860 C.ar  1 <1>  -0.1500 
 15 N       -4.8460    -1.8570     0.7150 N.ar  1 <1>  -0.6200 
 16 N       -3.6030    -3.0420    -0.9210 N.ar  1 <1>  -0.6200 
 17 C        1.4580     5.5780    -1.4610 C.ar  1 <1>  -0.1500 
 18 C       -5.9350    -2.4550     0.2950 C.ar  1 <1>   0.1600 
 19 C       -4.7090    -3.6210    -1.3190 C.ar  1 <1>   0.1600 
 20 C       -5.9280    -3.3620    -0.7380 C.ar  1 <1>  -0.1430 
 21 C       -7.2010    -4.0460    -1.2110 C.3   1 <1>  -0.0170 
 22 C       -7.4340    -5.3450    -0.4320 C.3   1 <1>  -0.1600 
 23 C       -8.7130    -6.0530    -0.8910 C.3   1 <1>  -0.2400 
 24 H       -2.1980     2.1900    -0.3500 H     1 <1>   0.1500 
 25 H       -3.5590     0.1890     1.1630 H     1 <1>   0.0800 
 26 H       -2.6030    -0.5930     2.3890 H     1 <1>   0.0800 
 27 H        2.3900     3.0880     0.5400 H     1 <1>   0.1500 
 28 H       -0.6370    -2.1280     1.1900 H     1 <1>   0.0800 
 29 H       -0.7000    -1.5990    -0.4820 H     1 <1>   0.0800 
 30 H       -1.2910    -3.1830    -0.0310 H     1 <1>   0.0800 
 31 H       -0.5200     5.7880    -2.1930 H     1 <1>   0.1500 
 32 H        3.3440     5.0870    -0.5620 H     1 <1>   0.1500 
 33 H        1.8130     6.4590    -1.9660 H     1 <1>   0.1500 
 34 H       -6.8590    -2.2140     0.7910 H     1 <1>   0.1500 
 35 H       -4.6390    -4.3240    -2.1310 H     1 <1>   0.1500 
 36 H       -7.1260    -4.2610    -2.2630 H     1 <1>   0.0800 
 37 H       -8.0390    -3.3840    -1.0720 H     1 <1>   0.0800 
 38 H       -7.5070    -5.1260     0.6200 H     1 <1>   0.0800 
 39 H       -6.5930    -6.0040    -0.5730 H     1 <1>   0.0800 
 40 H       -9.5710    -5.4230    -0.7350 H     1 <1>   0.0800 
 41 H       -8.8510    -6.9610    -0.3290 H     1 <1>   0.0800 
 42 H       -8.6520    -6.3060    -1.9350 H     1 <1>   0.0800 
@<TRIPOS>BOND
  1   1   2  1   
  2   1   3  1   
  3   2   4  2   
  4   3   5  2   
  5   3   6  1   
  6   4   5  1   
  7   4   7  1   
  8   5  24  1   
  9   6   8  1   
 10   6  25  1   
 11   6  26  1   
 12   7   9  ar  
 13   7  10  ar  
 14   8  11  1   
 15   8  12  1   
 16   9  13  ar  
 17  10  14  ar  
 18  10  27  1   
 19  11  15  ar  
 20  11  16  ar  
 21  12  28  1   
 22  12  29  1   
 23  12  30  1   
 24  13  17  ar  
 25  13  31  1   
 26  14  17  ar  
 27  14  32  1   
 28  15  18  ar  
 29  16  19  ar  
 30  17  33  1   
 31  18  20  ar  
 32  18  34  1   
 33  19  20  ar  
 34  19  35  1   
 35  20  21  1   
 36  21  22  1   
 37  21  36  1   
 38  21  37  1   
 39  22  23  1   
 40  22  38  1   
 41  22  39  1   
 42  23  40  1   
 43  23  41  1   
 44  23  42  1   
@<TRIPOS>SUBSTRUCTURE
  1 ****   6 GROUP 4 **** **** 0

# MOE 2024.06 (io_trps.svl 2023.06)
