@<TRIPOS>MOLECULE
NONAME
50 52 1 0 0 
SMALL
USER_CHARGES


@<TRIPOS>ATOM
  1 O       -0.5960     0.4990     3.0160 O.3   1 <1>  -0.5600 
  2 C        0.6080     0.5080     2.3120 C.3   1 <1>   0.1200 
  3 C       -1.6770     0.6140     2.1370 C.3   1 <1>   0.1200 
  4 C        0.3360     1.3180     1.0490 C.3   1 <1>   0.2890 
  5 C       -1.0930     0.8840     0.7460 C.3   1 <1>  -0.0800 
  6 N        0.3970     2.7640     1.3880 N.pl3 1 <1>  -0.8690 
  7 C       -1.9350     1.8540    -0.1040 C.3   1 <1>  -0.0170 
  8 C        1.0570     3.7880     0.8290 C.ar  1 <1>   0.4100 
  9 C       -3.3130     1.2720    -0.3820 C.ar  1 <1>  -0.1430 
 10 N        1.0190     4.9040     1.5170 N.ar  1 <1>  -0.6200 
 11 C        1.7410     3.6860    -0.3960 C.ar  1 <1>  -0.1500 
 12 C       -4.4290     1.6610     0.3330 C.ar  1 <1>  -0.1500 
 13 C       -3.5200     0.3200    -1.3600 C.ar  1 <1>  -0.1500 
 14 C        1.6630     5.9600     1.0360 C.ar  1 <1>   0.7710 
 15 C        2.3970     4.7730    -0.8710 C.ar  1 <1>   0.2180 
 16 C       -5.6590     1.0930     0.0460 C.ar  1 <1>   0.1600 
 17 C       -4.7930    -0.1850    -1.5680 C.ar  1 <1>   0.1600 
 18 N        2.3420     5.9010    -0.1230 N.ar  1 <1>  -0.1790 
 19 N        1.6420     7.1330     1.7280 N.pl3 1 <1>  -0.8380 
 20 C        3.1790     4.7870    -2.1790 C.3   1 <1>  -0.0170 
 21 N       -5.8680     0.1770    -0.8860 N.ar  1 <1>  -0.6200 
 22 C        1.0350     7.2100     3.1000 C.3   1 <1>   0.1290 
 23 C        2.1220     8.4700     1.2540 C.3   1 <1>   0.1290 
 24 C        2.5810     5.7640    -3.2010 C.3   1 <1>  -0.2400 
 25 H        1.3820     0.9380     2.9250 H     1 <1>   0.0800 
 26 H        0.8540    -0.5110     2.0690 H     1 <1>   0.0800 
 27 H       -2.2490    -0.2980     2.1620 H     1 <1>   0.0800 
 28 H       -2.2850     1.4320     2.4800 H     1 <1>   0.0800 
 29 H        1.0240     1.0660     0.2620 H     1 <1>   0.0800 
 30 H       -1.0480    -0.0600     0.2330 H     1 <1>   0.0800 
 31 H       -0.0570     2.9580     2.2890 H     1 <1>   0.4000 
 32 H       -1.4360     2.0410    -1.0380 H     1 <1>   0.0800 
 33 H       -2.0430     2.7980     0.4010 H     1 <1>   0.0800 
 34 H        1.7270     2.7560    -0.9280 H     1 <1>   0.1500 
 35 H       -4.3560     2.4000     1.1090 H     1 <1>   0.1500 
 36 H       -2.7060    -0.0350    -1.9650 H     1 <1>   0.1500 
 37 H       -6.5170     1.4090     0.6140 H     1 <1>   0.1500 
 38 H       -4.9350    -0.9260    -2.3350 H     1 <1>   0.1500 
 39 H        2.8180     6.7510    -0.3920 H     1 <1>   0.4570 
 40 H        4.2060     5.0470    -1.9860 H     1 <1>   0.0800 
 41 H        3.1770     3.7980    -2.6070 H     1 <1>   0.0800 
 42 H        1.5930     7.8950     3.7170 H     1 <1>   0.0800 
 43 H        1.0410     6.2510     3.5900 H     1 <1>   0.0800 
 44 H        0.0170     7.5540     3.0300 H     1 <1>   0.0800 
 45 H        1.4130     9.2310     1.5360 H     1 <1>   0.0800 
 46 H        2.2260     8.5050     0.1850 H     1 <1>   0.0800 
 47 H        3.0690     8.7030     1.7140 H     1 <1>   0.0800 
 48 H        2.6310     6.7800    -2.8540 H     1 <1>   0.0800 
 49 H        1.5530     5.5150    -3.4040 H     1 <1>   0.0800 
 50 H        3.1280     5.7010    -4.1270 H     1 <1>   0.0800 
@<TRIPOS>BOND
  1   1   2  1   
  2   1   3  1   
  3   2   4  1   
  4   2  25  1   
  5   2  26  1   
  6   3   5  1   
  7   3  27  1   
  8   3  28  1   
  9   4   5  1   
 10   4   6  1   
 11   4  29  1   
 12   5   7  1   
 13   5  30  1   
 14   6   8  1   
 15   6  31  1   
 16   7   9  1   
 17   7  32  1   
 18   7  33  1   
 19   8  10  ar  
 20   8  11  ar  
 21   9  12  ar  
 22   9  13  ar  
 23  10  14  ar  
 24  11  15  ar  
 25  11  34  1   
 26  12  16  ar  
 27  12  35  1   
 28  13  17  ar  
 29  13  36  1   
 30  14  18  ar  
 31  14  19  1   
 32  15  18  ar  
 33  15  20  1   
 34  16  21  ar  
 35  16  37  1   
 36  17  21  ar  
 37  17  38  1   
 38  18  39  1   
 39  19  22  1   
 40  19  23  1   
 41  20  24  1   
 42  20  40  1   
 43  20  41  1   
 44  22  42  1   
 45  22  43  1   
 46  22  44  1   
 47  23  45  1   
 48  23  46  1   
 49  23  47  1   
 50  24  48  1   
 51  24  49  1   
 52  24  50  1   
@<TRIPOS>SUBSTRUCTURE
  1 ****   6 GROUP 4 **** **** 0

# MOE 2024.06 (io_trps.svl 2023.06)
