@<TRIPOS>MOLECULE
NONAME
46 48 1 0 0 
SMALL
USER_CHARGES


@<TRIPOS>ATOM
  1 S        0.1780    -0.0010    -1.6360 S.o2  1 <1>   1.4470 
  2 O       -0.7660    -0.9610    -2.1650 O.2   1 <1>  -0.6500 
  3 O        1.0410     0.6780    -2.5800 O.2   1 <1>  -0.6500 
  4 N       -0.7320     1.1910    -0.8450 N.am  1 <1>  -0.8490 
  5 C        1.1470    -0.7410    -0.3030 C.ar  1 <1>  -0.0090 
  6 C       -1.6850     0.6760     0.1670 C.3   1 <1>   0.1960 
  7 C       -1.2390     2.2260    -1.7440 C.3   1 <1>   0.1960 
  8 C        2.1690    -0.0410     0.3150 C.ar  1 <1>   0.1900 
  9 C        0.8820    -2.0170     0.1780 C.ar  1 <1>  -0.1500 
 10 C       -3.1800     0.9990    -0.1120 C.3   1 <1>   0.0000 
 11 C       -2.1380     3.2010    -0.9810 C.3   1 <1>  -0.1600 
 12 F        2.4580     1.1710    -0.0740 F     1 <1>  -0.1900 
 13 C        2.9140    -0.5660     1.3530 C.ar  1 <1>  -0.1500 
 14 C        1.5990    -2.5940     1.2310 C.ar  1 <1>  -0.1790 
 15 C       -4.0680     0.5010     1.0450 C.3   1 <1>   0.2000 
 16 C       -3.3640     2.5200    -0.3430 C.3   1 <1>  -0.1600 
 17 C       -3.7310     0.1470    -1.2730 C.3   1 <1>  -0.1600 
 18 C        2.6250    -1.8380     1.8030 C.ar  1 <1>  -0.1500 
 19 C        1.2830    -3.9310     1.7200 C.2   1 <1>   0.9790 
 20 O       -3.4960     0.7810     2.2880 O.3   1 <1>  -0.5600 
 21 C       -4.2340    -1.0070     0.8260 C.3   1 <1>  -0.1600 
 22 C       -4.0150    -1.2340    -0.6750 C.3   1 <1>  -0.1600 
 23 O        1.9890    -4.4690     2.5910 O.co2 1 <1>  -0.9000 
 24 O        0.3000    -4.5480     1.2750 O.co2 1 <1>  -0.9000 
 25 C       -4.3310     0.5800     3.3840 C.3   1 <1>   0.0400 
 26 H       -1.5610    -0.3860     0.2960 H     1 <1>   0.0800 
 27 H       -1.4130     1.1290     1.1040 H     1 <1>   0.0800 
 28 H       -0.4050     2.7630    -2.1650 H     1 <1>   0.0800 
 29 H       -1.7850     1.7780    -2.5570 H     1 <1>   0.0800 
 30 H        0.0890    -2.5980    -0.2700 H     1 <1>   0.1500 
 31 H       -1.5430     3.6600    -0.2100 H     1 <1>   0.0800 
 32 H       -2.4630     3.9820    -1.6440 H     1 <1>   0.0800 
 33 H        3.7020     0.0120     1.8000 H     1 <1>   0.1500 
 34 H       -5.0280     0.9870     0.9860 H     1 <1>   0.0800 
 35 H       -4.2320     2.6940    -0.9540 H     1 <1>   0.0800 
 36 H       -3.5450     3.0010     0.6030 H     1 <1>   0.0800 
 37 H       -4.6620     0.5620    -1.6200 H     1 <1>   0.0800 
 38 H       -3.0670     0.0750    -2.1130 H     1 <1>   0.0800 
 39 H        3.1910    -2.2700     2.6140 H     1 <1>   0.1500 
 40 H       -3.4890    -1.5510     1.3810 H     1 <1>   0.0800 
 41 H       -5.2160    -1.3290     1.1230 H     1 <1>   0.0800 
 42 H       -3.1620    -1.8770    -0.8230 H     1 <1>   0.0800 
 43 H       -4.8720    -1.6890    -1.1400 H     1 <1>   0.0800 
 44 H       -3.7930     0.8690     4.2690 H     1 <1>   0.0800 
 45 H       -4.5950    -0.4610     3.4490 H     1 <1>   0.0800 
 46 H       -5.2110     1.1910     3.2790 H     1 <1>   0.0800 
@<TRIPOS>BOND
  1   1   2  2   
  2   1   3  2   
  3   1   4  am  
  4   1   5  1   
  5   4   6  1   
  6   4   7  1   
  7   5   8  ar  
  8   5   9  ar  
  9   6  10  1   
 10   6  26  1   
 11   6  27  1   
 12   7  11  1   
 13   7  28  1   
 14   7  29  1   
 15   8  12  1   
 16   8  13  ar  
 17   9  14  ar  
 18   9  30  1   
 19  10  15  1   
 20  10  16  1   
 21  10  17  1   
 22  11  16  1   
 23  11  31  1   
 24  11  32  1   
 25  13  18  ar  
 26  13  33  1   
 27  14  18  ar  
 28  14  19  1   
 29  15  20  1   
 30  15  21  1   
 31  15  34  1   
 32  16  35  1   
 33  16  36  1   
 34  17  22  1   
 35  17  37  1   
 36  17  38  1   
 37  18  39  1   
 38  19  23  ar  
 39  19  24  ar  
 40  20  25  1   
 41  21  22  1   
 42  21  40  1   
 43  21  41  1   
 44  22  42  1   
 45  22  43  1   
 46  25  44  1   
 47  25  45  1   
 48  25  46  1   
@<TRIPOS>SUBSTRUCTURE
  1 ****   6 GROUP 4 **** **** 0

# MOE 2024.06 (io_trps.svl 2023.06)
