@<TRIPOS>MOLECULE
NONAME
45 46 1 0 0 
SMALL
USER_CHARGES


@<TRIPOS>ATOM
  1 S       -0.0610     0.1110    -0.9380 S.o2  1 <1>   1.3330 
  2 O        0.5260    -1.1630    -1.2670 O.2   1 <1>  -0.6500 
  3 O       -0.5800     0.9750    -1.9690 O.2   1 <1>  -0.6500 
  4 N        1.2130     0.9310    -0.1250 N.am  1 <1>  -0.7570 
  5 C       -1.2910    -0.1590     0.3490 C.3   1 <1>  -0.0550 
  6 C        1.4100     2.2730     0.1570 C.ar  1 <1>   0.1990 
  7 C       -1.9200     1.1080     0.9580 C.3   1 <1>  -0.2400 
  8 C        2.5530     2.6440     0.8560 C.ar  1 <1>  -0.1500 
  9 C        0.5250     3.2820    -0.2150 C.ar  1 <1>  -0.1500 
 10 C        2.8050     3.9660     1.1680 C.ar  1 <1>  -0.1500 
 11 C        0.7770     4.6030     0.1000 C.ar  1 <1>  -0.1500 
 12 C        1.9280     4.9820     0.7910 C.ar  1 <1>   0.0860 
 13 C        2.2060     6.3660     1.1170 C.2   1 <1>   0.5440 
 14 O        2.4870     6.6550     2.2660 O.2   1 <1>  -0.5700 
 15 N        2.1690     7.3700     0.1690 N.am  1 <1>  -0.6600 
 16 C        2.1820     8.8060     0.5740 C.3   1 <1>   0.3210 
 17 C        2.2120     7.1190    -1.3040 C.3   1 <1>   0.0600 
 18 C        3.4100     9.5130     0.0290 C.2   1 <1>  -0.1810 
 19 C        3.5160    10.4660    -0.9120 C.2   1 <1>  -0.0400 
 20 C        4.7330     9.3010     0.4180 C.2   1 <1>   0.1080 
 21 O        4.7800    10.7610    -1.0440 O.3   1 <1>  -0.0190 
 22 C        2.4970    11.1870    -1.7700 C.3   1 <1>  -0.0600 
 23 N        5.5290    10.0610    -0.2440 N.2   1 <1>  -0.4100 
 24 C        5.1980     8.3170     1.4710 C.3   1 <1>  -0.0590 
 25 H        1.9950     0.2930    -0.0090 H     1 <1>   0.4200 
 26 H       -0.8430    -0.7300     1.1400 H     1 <1>   0.0800 
 27 H       -2.0800    -0.7580    -0.0630 H     1 <1>   0.0800 
 28 H       -1.1740     1.6940     1.4640 H     1 <1>   0.0800 
 29 H       -2.6790     0.8370     1.6700 H     1 <1>   0.0800 
 30 H       -2.3710     1.7070     0.1860 H     1 <1>   0.0800 
 31 H        3.2530     1.8870     1.1620 H     1 <1>   0.1500 
 32 H       -0.3710     3.0470    -0.7570 H     1 <1>   0.1500 
 33 H        3.6930     4.2300     1.7180 H     1 <1>   0.1500 
 34 H        0.0730     5.3620    -0.1920 H     1 <1>   0.1500 
 35 H        2.1640     8.9060     1.6450 H     1 <1>   0.0800 
 36 H        1.2930     9.2770     0.1940 H     1 <1>   0.0800 
 37 H        2.3560     6.0750    -1.5170 H     1 <1>   0.0800 
 38 H        3.0300     7.6590    -1.7480 H     1 <1>   0.0800 
 39 H        1.2910     7.4440    -1.7550 H     1 <1>   0.0800 
 40 H        1.5050    10.8360    -1.5620 H     1 <1>   0.0800 
 41 H        2.7170    11.0190    -2.8090 H     1 <1>   0.0800 
 42 H        2.5430    12.2430    -1.5730 H     1 <1>   0.0800 
 43 H        4.6210     8.4360     2.3690 H     1 <1>   0.0800 
 44 H        6.2350     8.4830     1.6980 H     1 <1>   0.0800 
 45 H        5.0770     7.3140     1.1070 H     1 <1>   0.0800 
@<TRIPOS>BOND
  1   1   2  2   
  2   1   3  2   
  3   1   4  am  
  4   1   5  1   
  5   4   6  1   
  6   4  25  1   
  7   5   7  1   
  8   5  26  1   
  9   5  27  1   
 10   6   8  ar  
 11   6   9  ar  
 12   7  28  1   
 13   7  29  1   
 14   7  30  1   
 15   8  10  ar  
 16   8  31  1   
 17   9  11  ar  
 18   9  32  1   
 19  10  12  ar  
 20  10  33  1   
 21  11  12  ar  
 22  11  34  1   
 23  12  13  1   
 24  13  14  2   
 25  13  15  am  
 26  15  16  1   
 27  15  17  1   
 28  16  18  1   
 29  16  35  1   
 30  16  36  1   
 31  17  37  1   
 32  17  38  1   
 33  17  39  1   
 34  18  19  2   
 35  18  20  1   
 36  19  21  1   
 37  19  22  1   
 38  20  23  2   
 39  20  24  1   
 40  21  23  1   
 41  22  40  1   
 42  22  41  1   
 43  22  42  1   
 44  24  43  1   
 45  24  44  1   
 46  24  45  1   
@<TRIPOS>SUBSTRUCTURE
  1 ****  12 GROUP 4 **** **** 0

# MOE 2024.06 (io_trps.svl 2023.06)
