@<TRIPOS>MOLECULE
NONAME
47 48 1 0 0 
SMALL
USER_CHARGES


@<TRIPOS>ATOM
  1 O        1.2580    -0.9530    -2.2840 O.2   1 <1>  -0.5700 
  2 C        1.7250    -1.2160    -1.2010 C.2   1 <1>   0.5690 
  3 N        2.0890    -0.2420    -0.3350 N.am  1 <1>  -0.7300 
  4 C        1.8980    -2.6860    -0.7910 C.3   1 <1>   0.1710 
  5 C        2.0050     1.2070    -0.5730 C.3   1 <1>   0.3640 
  6 N        0.7770    -3.2800    -0.0080 N.3   1 <1>  -0.8100 
  7 C        3.1480     1.8930     0.1890 C.ar  1 <1>   0.1670 
  8 C        0.6230     1.6920    -0.1090 C.3   1 <1>  -0.1600 
  9 C       -0.4810    -3.2320    -0.7790 C.3   1 <1>   0.2530 
 10 C        0.6320    -2.6540     1.3160 C.3   1 <1>   0.0300 
 11 N        3.3780     1.4980     1.4420 N.ar  1 <1>  -0.6200 
 12 C        3.8870     2.8760    -0.4540 C.ar  1 <1>  -0.1500 
 13 C        0.3840     3.1850    -0.3800 C.3   1 <1>  -0.2400 
 14 C       -1.5730    -4.0500    -0.1080 C.ar  1 <1>  -0.1440 
 15 C        4.3690     2.1160     2.0630 C.ar  1 <1>   0.1600 
 16 C        4.9200     3.5100     0.2050 C.ar  1 <1>  -0.1440 
 17 C       -1.3120    -5.3350     0.3440 C.ar  1 <1>   0.1600 
 18 C       -2.8440    -3.5330     0.0580 C.ar  1 <1>  -0.1500 
 19 C        5.1540     3.1080     1.5020 C.ar  1 <1>  -0.1500 
 20 C        5.7480     4.5920    -0.4620 C.3   1 <1>  -0.0970 
 21 N       -2.1950    -6.1290     0.9320 N.ar  1 <1>  -0.6200 
 22 C       -3.7750    -4.3450     0.6690 C.ar  1 <1>  -0.1500 
 23 C       -3.4040    -5.6140     1.0800 C.ar  1 <1>   0.1600 
 24 H        2.5130    -0.4460     0.5750 H     1 <1>   0.3700 
 25 H        2.8060    -2.7760    -0.2210 H     1 <1>   0.0800 
 26 H        2.0330    -3.2630    -1.6880 H     1 <1>   0.0800 
 27 H        2.1090     1.3920    -1.6290 H     1 <1>   0.0800 
 28 H        0.5210     1.5070     0.9470 H     1 <1>   0.0800 
 29 H       -0.1310     1.1260    -0.6270 H     1 <1>   0.0800 
 30 H       -0.3110    -3.6350    -1.7630 H     1 <1>   0.0800 
 31 H       -0.8020    -2.2100    -0.8920 H     1 <1>   0.0800 
 32 H        1.5730    -2.6730     1.8380 H     1 <1>   0.0800 
 33 H       -0.0850    -3.1980     1.9060 H     1 <1>   0.0800 
 34 H        0.2990    -1.6340     1.2240 H     1 <1>   0.0800 
 35 H        3.6530     3.1470    -1.4670 H     1 <1>   0.1500 
 36 H        1.0820     3.7890     0.1740 H     1 <1>   0.0800 
 37 H       -0.6110     3.4580    -0.0750 H     1 <1>   0.0800 
 38 H        0.4900     3.4000    -1.4290 H     1 <1>   0.0800 
 39 H        4.5690     1.8170     3.0770 H     1 <1>   0.1500 
 40 H       -0.3160    -5.7250     0.2160 H     1 <1>   0.1500 
 41 H       -3.1000    -2.5420    -0.2740 H     1 <1>   0.1500 
 42 H        5.9400     3.5570     2.0820 H     1 <1>   0.1500 
 43 H        5.8540     4.3890    -1.5130 H     1 <1>   0.0800 
 44 H        6.7290     4.6390    -0.0250 H     1 <1>   0.0800 
 45 H        5.2680     5.5470    -0.3390 H     1 <1>   0.0800 
 46 H       -4.7810    -4.0010     0.8260 H     1 <1>   0.1500 
 47 H       -4.1410    -6.2390     1.5550 H     1 <1>   0.1500 
@<TRIPOS>BOND
  1   1   2  2   
  2   2   3  am  
  3   2   4  1   
  4   3   5  1   
  5   3  24  1   
  6   4   6  1   
  7   4  25  1   
  8   4  26  1   
  9   5   7  1   
 10   5   8  1   
 11   5  27  1   
 12   6   9  1   
 13   6  10  1   
 14   7  11  ar  
 15   7  12  ar  
 16   8  13  1   
 17   8  28  1   
 18   8  29  1   
 19   9  14  1   
 20   9  30  1   
 21   9  31  1   
 22  10  32  1   
 23  10  33  1   
 24  10  34  1   
 25  11  15  ar  
 26  12  16  ar  
 27  12  35  1   
 28  13  36  1   
 29  13  37  1   
 30  13  38  1   
 31  14  17  ar  
 32  14  18  ar  
 33  15  19  ar  
 34  15  39  1   
 35  16  19  ar  
 36  16  20  1   
 37  17  21  ar  
 38  17  40  1   
 39  18  22  ar  
 40  18  41  1   
 41  19  42  1   
 42  20  43  1   
 43  20  44  1   
 44  20  45  1   
 45  21  23  ar  
 46  22  23  ar  
 47  22  46  1   
 48  23  47  1   
@<TRIPOS>SUBSTRUCTURE
  1 ****   3 GROUP 4 **** **** 0

# MOE 2024.06 (io_trps.svl 2023.06)
