@<TRIPOS>MOLECULE
NONAME
53 56 1 0 0 
SMALL
USER_CHARGES


@<TRIPOS>ATOM
  1 CL      -1.9660     0.2570    -0.2290 Cl    1 <1>  -0.1770 
  2 C       -1.4270    -1.3900    -0.4390 C.ar  1 <1>   0.1770 
  3 C       -2.3020    -2.4260    -0.1860 C.ar  1 <1>  -0.1500 
  4 C       -0.1300    -1.6270    -0.8570 C.ar  1 <1>  -0.1500 
  5 C       -1.8860    -3.7400    -0.3500 C.ar  1 <1>   0.1000 
  6 C        0.2950    -2.9350    -1.0200 C.ar  1 <1>  -0.1500 
  7 N       -2.7740    -4.7790    -0.0870 N.pl3 1 <1>  -0.8380 
  8 C       -0.5780    -3.9800    -0.7670 C.ar  1 <1>  -0.1500 
  9 C       -2.9180    -5.1830     1.3260 C.3   1 <1>   0.2090 
 10 C       -2.8930    -5.8680    -1.0780 C.3   1 <1>   0.2090 
 11 C       -4.3230    -5.7520     1.4970 C.3   1 <1>  -0.1600 
 12 C       -4.2980    -6.4520    -0.9520 C.3   1 <1>  -0.1600 
 13 C       -4.5730    -6.8810     0.4940 C.3   1 <1>   0.4230 
 14 N       -5.9830    -7.3010     0.6300 N.4   1 <1>  -0.9060 
 15 C       -6.3530    -8.5840    -0.0290 C.3   1 <1>   0.4230 
 16 C       -7.8600    -8.7780     0.1190 C.3   1 <1>  -0.0800 
 17 C       -5.8370    -9.7350     0.8260 C.3   1 <1>   0.1200 
 18 C       -7.9870    -9.4670     1.4910 C.3   1 <1>   0.1200 
 19 C       -8.4380    -9.6440    -1.0190 C.3   1 <1>  -0.0170 
 20 O       -6.6780    -9.6930     1.9280 O.3   1 <1>  -0.5600 
 21 C       -9.9400    -9.8180    -0.8600 C.ar  1 <1>  -0.1430 
 22 C      -10.8280    -8.8120    -1.1870 C.ar  1 <1>  -0.1500 
 23 C      -10.4960   -10.9890    -0.3840 C.ar  1 <1>  -0.1500 
 24 C      -12.1870    -9.0150    -1.0160 C.ar  1 <1>   0.1600 
 25 C      -11.8710   -11.0900    -0.2510 C.ar  1 <1>   0.1600 
 26 N      -12.7280   -10.1280    -0.5510 N.ar  1 <1>  -0.6200 
 27 H       -3.3050    -2.2180     0.1330 H     1 <1>   0.1500 
 28 H        0.5310    -0.8010    -1.0480 H     1 <1>   0.1500 
 29 H        1.3010    -3.1380    -1.3430 H     1 <1>   0.1500 
 30 H       -0.2390    -4.9910    -0.8880 H     1 <1>   0.1500 
 31 H       -2.1680    -5.9160     1.5720 H     1 <1>   0.0800 
 32 H       -2.7810    -4.3270     1.9670 H     1 <1>   0.0800 
 33 H       -2.7410    -5.4730    -2.0700 H     1 <1>   0.0800 
 34 H       -2.1440    -6.6180    -0.8870 H     1 <1>   0.0800 
 35 H       -5.0240    -4.9490     1.3470 H     1 <1>   0.0800 
 36 H       -4.4240    -6.1170     2.5040 H     1 <1>   0.0800 
 37 H       -4.3730    -7.2890    -1.6210 H     1 <1>   0.0800 
 38 H       -4.9970    -5.6950    -1.2610 H     1 <1>   0.0800 
 39 H       -3.9190    -7.7020     0.7440 H     1 <1>   0.0800 
 40 H       -6.5880    -6.5380     0.3120 H     1 <1>   0.4500 
 41 H       -6.1840    -7.4540     1.6310 H     1 <1>   0.4500 
 42 H       -6.0190    -8.6240    -1.0530 H     1 <1>   0.0800 
 43 H       -8.3840    -7.8390     0.1220 H     1 <1>   0.0800 
 44 H       -4.8150    -9.6240     1.1440 H     1 <1>   0.0800 
 45 H       -5.9640   -10.6860     0.3370 H     1 <1>   0.0800 
 46 H       -8.4900   -10.4170     1.4350 H     1 <1>   0.0800 
 47 H       -8.4860    -8.8450     2.2150 H     1 <1>   0.0800 
 48 H       -7.9680   -10.6130    -1.0380 H     1 <1>   0.0800 
 49 H       -8.2500    -9.1750    -1.9700 H     1 <1>   0.0800 
 50 H      -10.4850    -7.8710    -1.5770 H     1 <1>   0.1500 
 51 H       -9.8830   -11.8300    -0.1160 H     1 <1>   0.1500 
 52 H      -12.8680    -8.2210    -1.2770 H     1 <1>   0.1500 
 53 H      -12.2890   -12.0090     0.1230 H     1 <1>   0.1500 
@<TRIPOS>BOND
  1   1   2  1   
  2   2   3  ar  
  3   2   4  ar  
  4   3   5  ar  
  5   3  27  1   
  6   4   6  ar  
  7   4  28  1   
  8   5   7  1   
  9   5   8  ar  
 10   6   8  ar  
 11   6  29  1   
 12   7   9  1   
 13   7  10  1   
 14   8  30  1   
 15   9  11  1   
 16   9  31  1   
 17   9  32  1   
 18  10  12  1   
 19  10  33  1   
 20  10  34  1   
 21  11  13  1   
 22  11  35  1   
 23  11  36  1   
 24  12  13  1   
 25  12  37  1   
 26  12  38  1   
 27  13  14  1   
 28  13  39  1   
 29  14  15  1   
 30  14  40  1   
 31  14  41  1   
 32  15  16  1   
 33  15  17  1   
 34  15  42  1   
 35  16  18  1   
 36  16  19  1   
 37  16  43  1   
 38  17  20  1   
 39  17  44  1   
 40  17  45  1   
 41  18  20  1   
 42  18  46  1   
 43  18  47  1   
 44  19  21  1   
 45  19  48  1   
 46  19  49  1   
 47  21  22  ar  
 48  21  23  ar  
 49  22  24  ar  
 50  22  50  1   
 51  23  25  ar  
 52  23  51  1   
 53  24  26  ar  
 54  24  52  1   
 55  25  26  ar  
 56  25  53  1   
@<TRIPOS>SUBSTRUCTURE
  1 ****  14 GROUP 4 **** **** 0

# MOE 2024.06 (io_trps.svl 2023.06)
