@<TRIPOS>MOLECULE
NONAME
63 66 1 0 0 
SMALL
USER_CHARGES


@<TRIPOS>ATOM
  1 O       -0.4480     0.3540    -0.2500 O.2   1 <1>  -0.5700 
  2 C       -1.5370     0.8740    -0.3020 C.2   1 <1>   0.5690 
  3 N       -2.6840     0.1370    -0.3780 N.am  1 <1>  -0.6600 
  4 C       -1.6180     2.3970    -0.2870 C.3   1 <1>  -0.0990 
  5 C       -4.0760     0.6510    -0.4160 C.3   1 <1>   0.1400 
  6 C       -2.6770    -1.3470    -0.3900 C.3   1 <1>   0.1400 
  7 C       -0.2350     3.0760    -0.1980 C.3   1 <1>  -0.1600 
  8 C       -4.9630    -0.5940    -0.4720 C.3   1 <1>   0.2000 
  9 C       -4.0940    -1.7500     0.0190 C.3   1 <1>  -0.0800 
 10 C       -0.3390     4.6000    -0.2040 C.3   1 <1>   0.3430 
 11 O       -6.0770    -0.4590     0.3420 O.3   1 <1>  -0.6800 
 12 C       -4.5430    -3.1100    -0.5420 C.3   1 <1>  -0.0170 
 13 N        1.0120     5.1970    -0.0320 N.4   1 <1>  -0.9590 
 14 C       -3.6490    -4.2340    -0.0490 C.ar  1 <1>   0.1670 
 15 C        0.9240     6.6280     0.3650 C.3   1 <1>   0.3430 
 16 C        1.8570     5.0560    -1.2480 C.3   1 <1>   0.3430 
 17 N       -2.5930    -4.5090    -0.7520 N.ar  1 <1>  -0.6200 
 18 C       -3.9940    -4.9100     1.1320 C.ar  1 <1>  -0.1500 
 19 C        2.1630     7.0590     1.1550 C.3   1 <1>  -0.1600 
 20 C        3.2710     4.6250    -0.8600 C.3   1 <1>  -0.1600 
 21 C       -1.7790    -5.5020    -0.3100 C.ar  1 <1>   0.3100 
 22 C       -3.1980    -5.9120     1.5970 C.ar  1 <1>  -0.1500 
 23 C        3.5240     6.8270     0.4710 C.3   1 <1>  -0.1600 
 24 C        3.8940     5.3400     0.3540 C.3   1 <1>  -0.1600 
 25 C       -2.0430    -6.2360     0.8670 C.ar  1 <1>   0.0000 
 26 C       -0.6250    -5.8130    -1.0470 C.ar  1 <1>  -0.1500 
 27 C       -1.1460    -7.2510     1.2570 C.ar  1 <1>  -0.1500 
 28 C        0.2350    -6.8030    -0.6500 C.ar  1 <1>  -0.1500 
 29 C       -0.0300    -7.5290     0.5150 C.ar  1 <1>  -0.1500 
 30 H       -2.1160     2.7100    -1.1870 H     1 <1>   0.0800 
 31 H       -2.2170     2.6900     0.5560 H     1 <1>   0.0800 
 32 H       -4.2730     1.2210     0.4750 H     1 <1>   0.0800 
 33 H       -4.2270     1.2580    -1.2910 H     1 <1>   0.0800 
 34 H       -2.4520    -1.6900    -1.3870 H     1 <1>   0.0800 
 35 H       -1.9400    -1.7410     0.2900 H     1 <1>   0.0800 
 36 H        0.3570     2.7410    -1.0320 H     1 <1>   0.0800 
 37 H        0.2450     2.7520     0.7100 H     1 <1>   0.0800 
 38 H       -5.2990    -0.7560    -1.4820 H     1 <1>   0.0800 
 39 H       -4.1120    -1.7850     1.0950 H     1 <1>   0.0800 
 40 H       -0.9750     4.9060     0.6120 H     1 <1>   0.0800 
 41 H       -0.7830     4.9400    -1.1260 H     1 <1>   0.0800 
 42 H       -5.8080    -0.3850     1.2780 H     1 <1>   0.4000 
 43 H       -4.5160    -3.0890    -1.6180 H     1 <1>   0.0800 
 44 H       -5.5590    -3.3030    -0.2480 H     1 <1>   0.0800 
 45 H        1.4960     4.6970     0.7260 H     1 <1>   0.4500 
 46 H        0.8160     7.2460    -0.5120 H     1 <1>   0.0800 
 47 H        0.0570     6.7810     0.9870 H     1 <1>   0.0800 
 48 H        1.4400     4.3240    -1.9200 H     1 <1>   0.0800 
 49 H        1.9010     5.9980    -1.7710 H     1 <1>   0.0800 
 50 H       -4.8870    -4.6250     1.6590 H     1 <1>   0.1500 
 51 H        2.0670     8.1130     1.3500 H     1 <1>   0.0800 
 52 H        2.1550     6.5720     2.1150 H     1 <1>   0.0800 
 53 H        3.2800     3.5630    -0.6830 H     1 <1>   0.0800 
 54 H        3.9010     4.7950    -1.7160 H     1 <1>   0.0800 
 55 H       -3.4300    -6.4520     2.4970 H     1 <1>   0.1500 
 56 H        3.5580     7.3060    -0.4930 H     1 <1>   0.0800 
 57 H        4.2760     7.3030     1.0800 H     1 <1>   0.0800 
 58 H        3.6230     4.8290     1.2630 H     1 <1>   0.0800 
 59 H        4.9650     5.2590     0.2690 H     1 <1>   0.0800 
 60 H       -0.4390    -5.2420    -1.9370 H     1 <1>   0.1500 
 61 H       -1.3550    -7.8050     2.1540 H     1 <1>   0.1500 
 62 H        1.1160    -7.0300    -1.2250 H     1 <1>   0.1500 
 63 H        0.6540    -8.3040     0.8150 H     1 <1>   0.1500 
@<TRIPOS>BOND
  1   1   2  2   
  2   2   3  am  
  3   2   4  1   
  4   3   5  1   
  5   3   6  1   
  6   4   7  1   
  7   4  30  1   
  8   4  31  1   
  9   5   8  1   
 10   5  32  1   
 11   5  33  1   
 12   6   9  1   
 13   6  34  1   
 14   6  35  1   
 15   7  10  1   
 16   7  36  1   
 17   7  37  1   
 18   8   9  1   
 19   8  11  1   
 20   8  38  1   
 21   9  12  1   
 22   9  39  1   
 23  10  13  1   
 24  10  40  1   
 25  10  41  1   
 26  11  42  1   
 27  12  14  1   
 28  12  43  1   
 29  12  44  1   
 30  13  15  1   
 31  13  16  1   
 32  13  45  1   
 33  14  17  ar  
 34  14  18  ar  
 35  15  19  1   
 36  15  46  1   
 37  15  47  1   
 38  16  20  1   
 39  16  48  1   
 40  16  49  1   
 41  17  21  ar  
 42  18  22  ar  
 43  18  50  1   
 44  19  23  1   
 45  19  51  1   
 46  19  52  1   
 47  20  24  1   
 48  20  53  1   
 49  20  54  1   
 50  21  25  ar  
 51  21  26  ar  
 52  22  25  ar  
 53  22  55  1   
 54  23  24  1   
 55  23  56  1   
 56  23  57  1   
 57  24  58  1   
 58  24  59  1   
 59  25  27  ar  
 60  26  28  ar  
 61  26  60  1   
 62  27  29  ar  
 63  27  61  1   
 64  28  29  ar  
 65  28  62  1   
 66  29  63  1   
@<TRIPOS>SUBSTRUCTURE
  1 ****   1 GROUP 4 **** **** 0

# MOE 2024.06 (io_trps.svl 2023.06)
