@<TRIPOS>MOLECULE
NONAME
34 36 1 0 0 
SMALL
USER_CHARGES


@<TRIPOS>ATOM
  1 F       -1.5960    -1.1760     1.8430 F     1 <1>  -0.1900 
  2 C       -2.5210    -1.5930     1.0190 C.ar  1 <1>   0.1900 
  3 C       -2.1430    -2.3040    -0.1030 C.ar  1 <1>  -0.1500 
  4 C       -3.8430    -1.3070     1.3010 C.ar  1 <1>  -0.1500 
  5 C       -3.1280    -2.7400    -0.9730 C.ar  1 <1>  -0.1500 
  6 C       -4.8190    -1.7460     0.4220 C.ar  1 <1>  -0.1500 
  7 C       -4.4650    -2.4600    -0.7170 C.ar  1 <1>  -0.1430 
  8 C       -5.5300    -2.9480    -1.6950 C.3   1 <1>   0.0440 
  9 C       -5.7130    -4.4590    -1.6570 C.2   1 <1>   0.5690 
 10 O       -5.2230    -5.0990    -2.5620 O.2   1 <1>  -0.5700 
 11 N       -6.4140    -5.0490    -0.6470 N.am  1 <1>  -0.6600 
 12 C       -7.0860    -4.3640     0.4930 C.3   1 <1>   0.2350 
 13 C       -6.7020    -6.5090    -0.5840 C.3   1 <1>   0.2350 
 14 C       -8.2180    -5.2850     0.9040 C.3   1 <1>  -0.2420 
 15 C       -7.9660    -6.6240     0.2530 C.3   1 <1>  -0.2420 
 16 C       -8.7700    -4.8610     2.2700 C.2   1 <1>   0.9470 
 17 C       -9.1890    -5.8270    -0.1160 C.3   1 <1>  -0.2000 
 18 C       -8.1300    -8.0450     0.7970 C.2   1 <1>   0.9470 
 19 O       -9.9810    -4.6350     2.3990 O.co2 1 <1>  -0.9000 
 20 O       -7.9700    -4.5670     3.1690 O.co2 1 <1>  -0.9000 
 21 O       -7.1990    -8.5500     1.4390 O.co2 1 <1>  -0.9000 
 22 O       -9.1130    -8.7170     0.4590 O.co2 1 <1>  -0.9000 
 23 H       -1.1050    -2.5130    -0.2870 H     1 <1>   0.1500 
 24 H       -4.1010    -0.7590     2.1890 H     1 <1>   0.1500 
 25 H       -2.8570    -3.3060    -1.8480 H     1 <1>   0.1500 
 26 H       -5.8520    -1.5330     0.6360 H     1 <1>   0.1500 
 27 H       -5.2370    -2.6700    -2.6900 H     1 <1>   0.0800 
 28 H       -6.4710    -2.4700    -1.5040 H     1 <1>   0.0800 
 29 H       -6.3830    -4.2550     1.3020 H     1 <1>   0.0800 
 30 H       -7.4800    -3.4040     0.2180 H     1 <1>   0.0800 
 31 H       -6.8490    -6.9230    -1.5660 H     1 <1>   0.0800 
 32 H       -5.8840    -7.0110    -0.0950 H     1 <1>   0.0800 
 33 H       -9.2530    -5.3710    -1.0860 H     1 <1>   0.1000 
 34 H      -10.1420    -6.1890     0.2340 H     1 <1>   0.1000 
@<TRIPOS>BOND
  1   1   2  1   
  2   2   3  ar  
  3   2   4  ar  
  4   3   5  ar  
  5   3  23  1   
  6   4   6  ar  
  7   4  24  1   
  8   5   7  ar  
  9   5  25  1   
 10   6   7  ar  
 11   6  26  1   
 12   7   8  1   
 13   8   9  1   
 14   8  27  1   
 15   8  28  1   
 16   9  10  2   
 17   9  11  am  
 18  11  12  1   
 19  11  13  1   
 20  12  14  1   
 21  12  29  1   
 22  12  30  1   
 23  13  15  1   
 24  13  31  1   
 25  13  32  1   
 26  14  15  1   
 27  14  16  1   
 28  14  17  1   
 29  15  17  1   
 30  15  18  1   
 31  16  19  ar  
 32  16  20  ar  
 33  17  33  1   
 34  17  34  1   
 35  18  21  ar  
 36  18  22  ar  
@<TRIPOS>SUBSTRUCTURE
  1 ****  12 GROUP 4 **** **** 0

# MOE 2024.06 (io_trps.svl 2023.06)
