@<TRIPOS>MOLECULE
NONAME
52 56 1 0 0 
SMALL
USER_CHARGES


@<TRIPOS>ATOM
  1 O        0.3430     1.7890     1.0720 O.2   1 <1>  -0.5700 
  2 C       -0.5540     2.3380     0.4770 C.2   1 <1>   0.6300 
  3 N       -1.8460     2.3060     0.9440 N.am  1 <1>  -0.6600 
  4 C       -0.2050     3.0520    -0.8300 C.3   1 <1>  -0.0950 
  5 C       -3.0060     2.9880     0.2740 C.3   1 <1>   0.1400 
  6 C       -2.1450     1.5890     2.2230 C.3   1 <1>   0.1400 
  7 C        1.0620     3.8650    -0.8800 C.3   1 <1>  -0.2000 
  8 C       -0.2670     4.5580    -0.8890 C.3   1 <1>  -0.2000 
  9 C       -0.5720     2.1480    -2.0190 C.3   1 <1>   0.2150 
 10 C       -4.0170     3.5350     1.2980 C.3   1 <1>   0.1440 
 11 C       -3.6220     1.1850     2.3060 C.3   1 <1>  -0.1600 
 12 O       -0.2980     2.7690    -3.2280 O.3   1 <1>  -0.6800 
 13 C       -5.0940     4.2900     0.5350 C.ar  1 <1>   0.1670 
 14 C       -4.5940     2.3720     2.1480 C.3   1 <1>  -0.1600 
 15 C       -3.3850     4.6570     2.1760 C.3   1 <1>  -0.1600 
 16 N       -6.0110     3.7400    -0.2250 N.ar  1 <1>  -0.6200 
 17 C       -4.9860     5.6350     0.7010 C.ar  1 <1>  -0.1440 
 18 C       -3.8270     6.0080     1.5880 C.3   1 <1>  -0.0170 
 19 C       -6.8660     4.5830    -0.8200 C.ar  1 <1>   0.6200 
 20 C       -5.8950     6.4340     0.0570 C.ar  1 <1>   0.1600 
 21 N       -6.8350     5.9190    -0.7010 N.ar  1 <1>  -0.6200 
 22 C       -7.9050     4.0040    -1.6630 C.ar  1 <1>   0.0000 
 23 C       -9.1200     4.6600    -1.8850 C.ar  1 <1>  -0.1500 
 24 C       -7.7370     2.7660    -2.2910 C.ar  1 <1>  -0.1500 
 25 C      -10.1080     4.1150    -2.6860 C.ar  1 <1>  -0.1500 
 26 C       -8.7200     2.2140    -3.0920 C.ar  1 <1>  -0.1500 
 27 C       -9.9100     2.8890    -3.2920 C.ar  1 <1>  -0.1500 
 28 H       -3.5060     2.2770    -0.3600 H     1 <1>   0.0800 
 29 H       -2.6700     3.7980    -0.3450 H     1 <1>   0.0800 
 30 H       -1.8960     2.2330     3.0490 H     1 <1>   0.0800 
 31 H       -1.5300     0.7070     2.2950 H     1 <1>   0.0800 
 32 H        1.6540     3.8510    -1.7790 H     1 <1>   0.1000 
 33 H        1.6720     3.9110     0.0060 H     1 <1>   0.1000 
 34 H       -0.5490     5.1040    -0.0040 H     1 <1>   0.1000 
 35 H       -0.5700     5.0610    -1.7900 H     1 <1>   0.1000 
 36 H       -1.6210     1.9110    -2.0030 H     1 <1>   0.0800 
 37 H       -0.0080     1.2320    -1.9820 H     1 <1>   0.0800 
 38 H       -3.8060     0.6910     3.2440 H     1 <1>   0.0800 
 39 H       -3.8100     0.4650     1.5280 H     1 <1>   0.0800 
 40 H       -0.5890     3.6990    -3.1940 H     1 <1>   0.4000 
 41 H       -5.4860     1.9920     1.6790 H     1 <1>   0.0800 
 42 H       -4.8930     2.7300     3.1160 H     1 <1>   0.0800 
 43 H       -2.3120     4.5920     2.2220 H     1 <1>   0.0800 
 44 H       -3.7600     4.5980     3.1810 H     1 <1>   0.0800 
 45 H       -3.0410     6.4420     0.9960 H     1 <1>   0.0800 
 46 H       -4.1250     6.6960     2.3610 H     1 <1>   0.0800 
 47 H       -5.8510     7.5050     0.1610 H     1 <1>   0.1500 
 48 H       -9.2950     5.6150    -1.4220 H     1 <1>   0.1500 
 49 H       -6.8180     2.2240    -2.1490 H     1 <1>   0.1500 
 50 H      -11.0310     4.6460    -2.8360 H     1 <1>   0.1500 
 51 H       -8.5590     1.2590    -3.5610 H     1 <1>   0.1500 
 52 H      -10.6770     2.4620    -3.9150 H     1 <1>   0.1500 
@<TRIPOS>BOND
  1   1   2  2   
  2   2   3  am  
  3   2   4  1   
  4   3   5  1   
  5   3   6  1   
  6   4   7  1   
  7   4   8  1   
  8   4   9  1   
  9   5  10  1   
 10   5  28  1   
 11   5  29  1   
 12   6  11  1   
 13   6  30  1   
 14   6  31  1   
 15   7   8  1   
 16   7  32  1   
 17   7  33  1   
 18   8  34  1   
 19   8  35  1   
 20   9  12  1   
 21   9  36  1   
 22   9  37  1   
 23  10  13  1   
 24  10  14  1   
 25  10  15  1   
 26  11  14  1   
 27  11  38  1   
 28  11  39  1   
 29  12  40  1   
 30  13  16  ar  
 31  13  17  ar  
 32  14  41  1   
 33  14  42  1   
 34  15  18  1   
 35  15  43  1   
 36  15  44  1   
 37  16  19  ar  
 38  17  18  1   
 39  17  20  ar  
 40  18  45  1   
 41  18  46  1   
 42  19  21  ar  
 43  19  22  1   
 44  20  21  ar  
 45  20  47  1   
 46  22  23  ar  
 47  22  24  ar  
 48  23  25  ar  
 49  23  48  1   
 50  24  26  ar  
 51  24  49  1   
 52  25  27  ar  
 53  25  50  1   
 54  26  27  ar  
 55  26  51  1   
 56  27  52  1   
@<TRIPOS>SUBSTRUCTURE
  1 ****  13 GROUP 4 **** **** 0

# MOE 2024.06 (io_trps.svl 2023.06)
