@<TRIPOS>MOLECULE
NONAME
44 47 1 0 0 
SMALL
USER_CHARGES


@<TRIPOS>ATOM
  1 CL      -2.9550    -2.3170     3.3770 Cl    1 <1>  -0.1770 
  2 C       -2.9630    -3.6800     2.2830 C.ar  1 <1>   0.1770 
  3 C       -1.8190    -4.0010     1.5910 C.ar  1 <1>  -0.1500 
  4 C       -4.1470    -4.4120     2.1420 C.ar  1 <1>  -0.1500 
  5 C       -1.8590    -5.0920     0.7270 C.ar  1 <1>   0.2270 
  6 C       -4.1890    -5.4920     1.2880 C.ar  1 <1>  -0.1500 
  7 N       -0.8770    -5.6080    -0.0640 N.2   1 <1>  -0.5650 
  8 C       -3.0270    -5.8190     0.5840 C.ar  1 <1>  -0.1520 
  9 C       -1.4310    -6.6070    -0.6580 C.2   1 <1>   0.0060 
 10 N       -2.7330    -6.7920    -0.3140 N.pl3 1 <1>   0.0330 
 11 C       -0.6840    -7.4820    -1.6550 C.3   1 <1>   0.0200 
 12 C       -1.5750    -8.3510    -2.5530 C.3   1 <1>   0.1400 
 13 N       -2.0650    -9.5570    -1.8360 N.am  1 <1>  -0.7300 
 14 C       -3.3490    -9.8440    -1.4680 C.2   1 <1>   0.7160 
 15 O       -4.1720    -8.9430    -1.5020 O.2   1 <1>  -0.5700 
 16 C       -3.6860   -11.1890    -1.0260 C.2   1 <1>   0.2030 
 17 N       -2.8360   -12.2010    -0.9460 N.2   1 <1>  -0.7070 
 18 C       -4.9550   -11.5990    -0.6260 C.2   1 <1>  -0.1500 
 19 N       -3.5570   -13.2370    -0.5060 N.pl3 1 <1>   0.3140 
 20 C       -4.8530   -12.9070    -0.2800 C.2   1 <1>  -0.2370 
 21 C       -2.9840   -14.6000    -0.4360 C.3   1 <1>   0.0960 
 22 C       -5.8330   -13.8130     0.2410 C.2   1 <1>   0.7150 
 23 C       -3.0080   -15.2020     0.9810 C.3   1 <1>   0.2000 
 24 O       -7.0090   -13.7120    -0.0250 O.2   1 <1>  -0.5700 
 25 N       -5.4700   -14.8010     1.0960 N.am  1 <1>  -0.7300 
 26 O       -3.0660   -16.5810     0.8440 O.3   1 <1>  -0.6800 
 27 C       -4.1960   -14.7710     1.8610 C.3   1 <1>   0.1400 
 28 H       -0.9110    -3.4400     1.6970 H     1 <1>   0.1500 
 29 H       -5.0120    -4.1160     2.7080 H     1 <1>   0.1500 
 30 H       -5.0840    -6.0760     1.1570 H     1 <1>   0.1500 
 31 H       -3.3730    -7.5100    -0.6800 H     1 <1>   0.2700 
 32 H        0.0190    -8.1010    -1.1280 H     1 <1>   0.0800 
 33 H       -0.1160    -6.8230    -2.2870 H     1 <1>   0.0800 
 34 H       -1.0030    -8.6770    -3.4050 H     1 <1>   0.0800 
 35 H       -2.4050    -7.7700    -2.9210 H     1 <1>   0.0800 
 36 H       -1.4180   -10.3490    -1.7600 H     1 <1>   0.3700 
 37 H       -5.8340   -10.9780    -0.5980 H     1 <1>   0.1500 
 38 H       -1.9710   -14.5630    -0.7910 H     1 <1>   0.0800 
 39 H       -3.5550   -15.2160    -1.1050 H     1 <1>   0.0800 
 40 H       -2.0850   -14.9740     1.4860 H     1 <1>   0.0800 
 41 H       -6.2560   -15.3060     1.5130 H     1 <1>   0.3700 
 42 H       -3.9600   -16.8480     0.5460 H     1 <1>   0.4000 
 43 H       -4.0270   -13.7680     2.2160 H     1 <1>   0.0800 
 44 H       -4.2650   -15.4120     2.7240 H     1 <1>   0.0800 
@<TRIPOS>BOND
  1   1   2  1   
  2   2   3  ar  
  3   2   4  ar  
  4   3   5  ar  
  5   3  28  1   
  6   4   6  ar  
  7   4  29  1   
  8   5   7  1   
  9   5   8  ar  
 10   6   8  ar  
 11   6  30  1   
 12   7   9  2   
 13   8  10  1   
 14   9  10  1   
 15   9  11  1   
 16  10  31  1   
 17  11  12  1   
 18  11  32  1   
 19  11  33  1   
 20  12  13  1   
 21  12  34  1   
 22  12  35  1   
 23  13  14  am  
 24  13  36  1   
 25  14  15  2   
 26  14  16  1   
 27  16  17  2   
 28  16  18  1   
 29  17  19  1   
 30  18  20  2   
 31  18  37  1   
 32  19  20  1   
 33  19  21  1   
 34  20  22  1   
 35  21  23  1   
 36  21  38  1   
 37  21  39  1   
 38  22  24  2   
 39  22  25  am  
 40  23  26  1   
 41  23  27  1   
 42  23  40  1   
 43  25  27  1   
 44  25  41  1   
 45  26  42  1   
 46  27  43  1   
 47  27  44  1   
@<TRIPOS>SUBSTRUCTURE
  1 ****  14 GROUP 4 **** **** 0

# MOE 2024.06 (io_trps.svl 2023.06)
