@<TRIPOS>MOLECULE
NONAME
57 60 1 0 0 
SMALL
USER_CHARGES


@<TRIPOS>ATOM
  1 O       -1.9720     0.0420     1.2060 O.2   1 <1>  -0.5700 
  2 C       -1.7520     0.2290     0.0310 C.2   1 <1>   0.5690 
  3 N       -1.8330    -0.8080    -0.8630 N.am  1 <1>  -0.7300 
  4 C       -1.3780     1.6750    -0.4690 C.3   1 <1>   0.3310 
  5 C       -1.9970    -2.2760    -0.6190 C.3   1 <1>   0.2200 
  6 N       -2.5100     2.6530    -0.3320 N.3   1 <1>  -0.8100 
  7 C       -0.8900     1.6510    -1.9350 C.3   1 <1>  -0.2400 
  8 C       -0.2140     2.1800     0.4030 C.3   1 <1>  -0.2400 
  9 C       -3.4380    -2.7820    -0.4990 C.3   1 <1>  -0.0800 
 10 C       -1.3370    -2.8400     0.6340 C.3   1 <1>   0.1200 
 11 C       -2.2870     4.0390    -0.8150 C.3   1 <1>   0.1100 
 12 C       -3.8220     2.1610    -0.8090 C.3   1 <1>   0.1100 
 13 C       -3.2920    -3.9890     0.4450 C.3   1 <1>   0.1200 
 14 C       -4.4290    -1.7500     0.0770 C.3   1 <1>  -0.0170 
 15 O       -1.9460    -4.0780     0.7960 O.3   1 <1>  -0.5600 
 16 C       -3.4760     4.9500    -0.4650 C.3   1 <1>   0.1200 
 17 C       -4.9540     3.1490    -0.4750 C.3   1 <1>   0.1200 
 18 C       -5.8930    -2.1800     0.2160 C.ar  1 <1>  -0.1430 
 19 O       -4.6630     4.4200    -0.9780 O.3   1 <1>  -0.5600 
 20 C       -6.8000    -1.3370     0.9040 C.ar  1 <1>   0.0000 
 21 C       -6.3950    -3.3370    -0.3100 C.ar  1 <1>  -0.1500 
 22 C       -8.1510    -1.7520     0.9970 C.ar  1 <1>   0.3100 
 23 C       -6.4480    -0.1010     1.5000 C.ar  1 <1>  -0.1500 
 24 C       -7.7490    -3.6570    -0.1530 C.ar  1 <1>   0.1600 
 25 N       -8.6080    -2.9150     0.4690 N.ar  1 <1>  -0.6200 
 26 C       -9.0740    -0.9260     1.6600 C.ar  1 <1>  -0.1500 
 27 C       -7.3720     0.6800     2.1390 C.ar  1 <1>  -0.1500 
 28 C       -8.7030     0.2650     2.2200 C.ar  1 <1>  -0.1500 
 29 H       -1.7050    -0.5730    -1.8470 H     1 <1>   0.3700 
 30 H       -1.5380    -2.7890    -1.4470 H     1 <1>   0.0800 
 31 H       -0.0950     0.9350    -2.0450 H     1 <1>   0.0800 
 32 H       -0.4930     2.6050    -2.2310 H     1 <1>   0.0800 
 33 H       -1.6880     1.3860    -2.6020 H     1 <1>   0.0800 
 34 H        0.5620     1.4380     0.4390 H     1 <1>   0.0800 
 35 H       -0.5600     2.3480     1.4070 H     1 <1>   0.0800 
 36 H        0.2160     3.0850     0.0200 H     1 <1>   0.0800 
 37 H       -3.7770    -3.1080    -1.4650 H     1 <1>   0.0800 
 38 H       -1.5490    -2.2620     1.5150 H     1 <1>   0.0800 
 39 H       -0.2780    -2.9800     0.5160 H     1 <1>   0.0800 
 40 H       -1.4060     4.4550    -0.3630 H     1 <1>   0.0800 
 41 H       -2.1600     4.0480    -1.8830 H     1 <1>   0.0800 
 42 H       -3.7980     2.0030    -1.8730 H     1 <1>   0.0800 
 43 H       -4.0580     1.2320    -0.3290 H     1 <1>   0.0800 
 44 H       -3.5750    -4.9110    -0.0320 H     1 <1>   0.0800 
 45 H       -3.8610    -3.8620     1.3510 H     1 <1>   0.0800 
 46 H       -4.4250    -0.8860    -0.5580 H     1 <1>   0.0800 
 47 H       -4.0670    -1.4560     1.0460 H     1 <1>   0.0800 
 48 H       -3.3380     5.9250    -0.8970 H     1 <1>   0.0800 
 49 H       -3.5730     5.0510     0.6020 H     1 <1>   0.0800 
 50 H       -5.0860     3.2210     0.5900 H     1 <1>   0.0800 
 51 H       -5.8770     2.8220    -0.9180 H     1 <1>   0.0800 
 52 H       -5.7930    -4.0340    -0.8580 H     1 <1>   0.1500 
 53 H       -5.4300     0.2420     1.4590 H     1 <1>   0.1500 
 54 H       -8.0990    -4.5830    -0.5790 H     1 <1>   0.1500 
 55 H      -10.0910    -1.2670     1.7110 H     1 <1>   0.1500 
 56 H       -7.0870     1.6160     2.5880 H     1 <1>   0.1500 
 57 H       -9.4210     0.8880     2.7250 H     1 <1>   0.1500 
@<TRIPOS>BOND
  1   1   2  2   
  2   2   3  am  
  3   2   4  1   
  4   3   5  1   
  5   3  29  1   
  6   4   6  1   
  7   4   7  1   
  8   4   8  1   
  9   5   9  1   
 10   5  10  1   
 11   5  30  1   
 12   6  11  1   
 13   6  12  1   
 14   7  31  1   
 15   7  32  1   
 16   7  33  1   
 17   8  34  1   
 18   8  35  1   
 19   8  36  1   
 20   9  13  1   
 21   9  14  1   
 22   9  37  1   
 23  10  15  1   
 24  10  38  1   
 25  10  39  1   
 26  11  16  1   
 27  11  40  1   
 28  11  41  1   
 29  12  17  1   
 30  12  42  1   
 31  12  43  1   
 32  13  15  1   
 33  13  44  1   
 34  13  45  1   
 35  14  18  1   
 36  14  46  1   
 37  14  47  1   
 38  16  19  1   
 39  16  48  1   
 40  16  49  1   
 41  17  19  1   
 42  17  50  1   
 43  17  51  1   
 44  18  20  ar  
 45  18  21  ar  
 46  20  22  ar  
 47  20  23  ar  
 48  21  24  ar  
 49  21  52  1   
 50  22  25  ar  
 51  22  26  ar  
 52  23  27  ar  
 53  23  53  1   
 54  24  25  ar  
 55  24  54  1   
 56  26  28  ar  
 57  26  55  1   
 58  27  28  ar  
 59  27  56  1   
 60  28  57  1   
@<TRIPOS>SUBSTRUCTURE
  1 ****  14 GROUP 4 **** **** 0

# MOE 2024.06 (io_trps.svl 2023.06)
