@<TRIPOS>MOLECULE
NONAME
41 42 1 0 0 
SMALL
USER_CHARGES


@<TRIPOS>ATOM
  1 S        0.3590    -0.2190    -1.0210 S.o2  1 <1>   1.3330 
  2 O       -0.3830    -1.0400    -1.9500 O.2   1 <1>  -0.6500 
  3 O        1.8030    -0.2760    -1.0140 O.2   1 <1>  -0.6500 
  4 N       -0.1890    -0.5850     0.5440 N.am  1 <1>  -0.8490 
  5 C       -0.1260     1.4940    -1.2420 C.3   1 <1>  -0.0550 
  6 C       -1.6180    -0.9130     0.5960 C.3   1 <1>   0.1160 
  7 C        0.5900    -1.6620     1.1620 C.3   1 <1>   0.1160 
  8 C        0.4030     2.4510    -0.1580 C.3   1 <1>  -0.0800 
  9 C       -0.1520     3.8630    -0.3270 C.3   1 <1>   0.2000 
 10 C        1.9210     2.6450    -0.1620 C.3   1 <1>   0.1400 
 11 O       -1.3990     3.9500     0.2710 O.3   1 <1>  -0.6800 
 12 C        0.8640     4.7920     0.3370 C.3   1 <1>   0.1400 
 13 N        2.1340     4.0220     0.3410 N.am  1 <1>  -0.6600 
 14 C        3.3710     4.4960     0.6930 C.2   1 <1>   0.5690 
 15 O        4.3520     3.7930     0.6300 O.2   1 <1>  -0.5700 
 16 C        3.5430     5.9260     1.1910 C.3   1 <1>   0.0820 
 17 C        3.3680     6.9820     0.1030 C.2   1 <1>  -0.1810 
 18 C        3.3930     6.7680    -1.2270 C.2   1 <1>  -0.1100 
 19 C        3.1550     8.3560     0.4500 C.2   1 <1>  -0.1500 
 20 S        3.1370     8.2620    -2.1090 S.3   1 <1>  -0.0800 
 21 C        3.0110     9.1690    -0.6130 C.2   1 <1>  -0.1100 
 22 H        0.2090     1.8290    -2.2040 H     1 <1>   0.0800 
 23 H       -1.1980     1.5460    -1.2420 H     1 <1>   0.0800 
 24 H       -1.9280    -1.0560     1.6170 H     1 <1>   0.0800 
 25 H       -1.8180    -1.8150     0.0400 H     1 <1>   0.0800 
 26 H       -2.2000    -0.1110     0.1740 H     1 <1>   0.0800 
 27 H        0.2280    -1.8640     2.1560 H     1 <1>   0.0800 
 28 H        1.6260    -1.3740     1.2350 H     1 <1>   0.0800 
 29 H        0.5230    -2.5600     0.5700 H     1 <1>   0.0800 
 30 H        0.1350     2.0810     0.8170 H     1 <1>   0.0800 
 31 H       -0.2540     4.1240    -1.3670 H     1 <1>   0.0800 
 32 H        2.3220     2.5710    -1.1590 H     1 <1>   0.0800 
 33 H        2.4170     1.9250     0.4690 H     1 <1>   0.0800 
 34 H       -1.3440     3.7070     1.2160 H     1 <1>   0.4000 
 35 H        0.5780     5.0140     1.3500 H     1 <1>   0.0800 
 36 H        0.9680     5.7000    -0.2300 H     1 <1>   0.0800 
 37 H        2.8310     6.0960     1.9760 H     1 <1>   0.0800 
 38 H        4.5250     6.0270     1.6160 H     1 <1>   0.0800 
 39 H        3.5370     5.8720    -1.8070 H     1 <1>   0.1500 
 40 H        3.1210     8.6750     1.4770 H     1 <1>   0.1500 
 41 H        2.8430    10.2280    -0.6910 H     1 <1>   0.1500 
@<TRIPOS>BOND
  1   1   2  2   
  2   1   3  2   
  3   1   4  am  
  4   1   5  1   
  5   4   6  1   
  6   4   7  1   
  7   5   8  1   
  8   5  22  1   
  9   5  23  1   
 10   6  24  1   
 11   6  25  1   
 12   6  26  1   
 13   7  27  1   
 14   7  28  1   
 15   7  29  1   
 16   8   9  1   
 17   8  10  1   
 18   8  30  1   
 19   9  11  1   
 20   9  12  1   
 21   9  31  1   
 22  10  13  1   
 23  10  32  1   
 24  10  33  1   
 25  11  34  1   
 26  12  13  1   
 27  12  35  1   
 28  12  36  1   
 29  13  14  am  
 30  14  15  2   
 31  14  16  1   
 32  16  17  1   
 33  16  37  1   
 34  16  38  1   
 35  17  18  2   
 36  17  19  1   
 37  18  20  1   
 38  18  39  1   
 39  19  21  2   
 40  19  40  1   
 41  20  21  1   
 42  21  41  1   
@<TRIPOS>SUBSTRUCTURE
  1 ****  10 GROUP 4 **** **** 0

# MOE 2024.06 (io_trps.svl 2023.06)
