@<TRIPOS>MOLECULE
NONAME
51 54 1 0 0 
SMALL
USER_CHARGES


@<TRIPOS>ATOM
  1 S       -0.5220    -1.3530     0.7480 S.3   1 <1>  -0.0800 
  2 C       -0.4490    -2.0400    -0.8450 C.2   1 <1>   0.4420 
  3 C       -0.2570     0.1930     0.0150 C.2   1 <1>   0.1980 
  4 N       -0.2460    -1.1530    -1.7470 N.2   1 <1>  -0.3380 
  5 N       -0.6020    -3.3890    -1.0790 N.am  1 <1>  -0.4940 
  6 N       -0.1360     0.1160    -1.2520 N.2   1 <1>  -0.3380 
  7 C       -0.1990     1.4050     0.9470 C.3   1 <1>   0.3800 
  8 C       -0.8010    -4.4460    -0.2350 C.2   1 <1>   0.5690 
  9 O       -1.4650     1.6460     1.4790 O.3   1 <1>  -0.5600 
 10 C        0.1510     2.7180     0.2500 C.3   1 <1>  -0.1600 
 11 O       -0.8490    -4.3410     0.9650 O.2   1 <1>  -0.5700 
 12 C       -0.9820    -5.8380    -0.8550 C.3   1 <1>   0.1710 
 13 C       -2.2110     2.4350     0.6070 C.3   1 <1>   0.1200 
 14 C       -1.2020     3.2610    -0.1880 C.3   1 <1>  -0.1600 
 15 N       -2.3880    -6.2300    -1.1490 N.3   1 <1>  -0.8100 
 16 C       -3.1920    -6.3120     0.1060 C.3   1 <1>   0.2900 
 17 C       -3.0170    -5.3900    -2.1790 C.3   1 <1>   0.0300 
 18 C       -4.5480    -6.9990    -0.0530 C.2   1 <1>   0.2980 
 19 O       -5.5380    -6.3150    -0.5660 O.3   1 <1>  -0.0190 
 20 N       -4.8340    -8.1880     0.2920 N.2   1 <1>  -0.5650 
 21 N       -6.5350    -7.1420    -0.5560 N.2   1 <1>  -0.4100 
 22 C       -6.1240    -8.2520    -0.0530 C.2   1 <1>   0.4620 
 23 C       -6.9320    -9.4470     0.1380 C.ar  1 <1>   0.0540 
 24 C       -6.3920   -10.6250     0.6590 C.ar  1 <1>  -0.1500 
 25 C       -8.2880    -9.4640    -0.1940 C.ar  1 <1>  -0.1500 
 26 C       -7.1570   -11.7640     0.8450 C.ar  1 <1>  -0.1440 
 27 C       -9.0620   -10.5950    -0.0150 C.ar  1 <1>  -0.1500 
 28 C       -8.4980   -11.7460     0.5040 C.ar  1 <1>  -0.1500 
 29 C       -6.5310   -13.0240     1.4130 C.3   1 <1>  -0.0970 
 30 H       -0.5740    -3.6130    -2.0700 H     1 <1>   0.3700 
 31 H        0.4780     1.2050     1.7580 H     1 <1>   0.0800 
 32 H        0.8310     2.5790    -0.5710 H     1 <1>   0.0800 
 33 H        0.6000     3.3810     0.9670 H     1 <1>   0.0800 
 34 H       -0.5600    -6.5580    -0.1760 H     1 <1>   0.0800 
 35 H       -0.4080    -5.8950    -1.7620 H     1 <1>   0.0800 
 36 H       -2.8800     3.0500     1.1840 H     1 <1>   0.0800 
 37 H       -2.7730     1.7820    -0.0390 H     1 <1>   0.0800 
 38 H       -1.3590     3.1060    -1.2420 H     1 <1>   0.0800 
 39 H       -1.2980     4.3100     0.0310 H     1 <1>   0.0800 
 40 H       -3.3500    -5.3260     0.5080 H     1 <1>   0.0800 
 41 H       -2.6360    -6.8740     0.8370 H     1 <1>   0.0800 
 42 H       -2.3760    -5.3180    -3.0410 H     1 <1>   0.0800 
 43 H       -3.2180    -4.4020    -1.8000 H     1 <1>   0.0800 
 44 H       -3.9440    -5.8340    -2.5000 H     1 <1>   0.0800 
 45 H       -5.3480   -10.6450     0.9220 H     1 <1>   0.1500 
 46 H       -8.7430    -8.5770    -0.6000 H     1 <1>   0.1500 
 47 H      -10.1050   -10.5810    -0.2800 H     1 <1>   0.1500 
 48 H       -9.1060   -12.6230     0.6400 H     1 <1>   0.1500 
 49 H       -5.7050   -12.7780     2.0570 H     1 <1>   0.0800 
 50 H       -6.1720   -13.6440     0.6120 H     1 <1>   0.0800 
 51 H       -7.2530   -13.5780     1.9860 H     1 <1>   0.0800 
@<TRIPOS>BOND
  1   1   2  1   
  2   1   3  1   
  3   2   4  2   
  4   2   5  1   
  5   3   6  2   
  6   3   7  1   
  7   4   6  1   
  8   5   8  am  
  9   5  30  1   
 10   7   9  1   
 11   7  10  1   
 12   7  31  1   
 13   8  11  2   
 14   8  12  1   
 15   9  13  1   
 16  10  14  1   
 17  10  32  1   
 18  10  33  1   
 19  12  15  1   
 20  12  34  1   
 21  12  35  1   
 22  13  14  1   
 23  13  36  1   
 24  13  37  1   
 25  14  38  1   
 26  14  39  1   
 27  15  16  1   
 28  15  17  1   
 29  16  18  1   
 30  16  40  1   
 31  16  41  1   
 32  17  42  1   
 33  17  43  1   
 34  17  44  1   
 35  18  19  1   
 36  18  20  2   
 37  19  21  1   
 38  20  22  1   
 39  21  22  2   
 40  22  23  1   
 41  23  24  ar  
 42  23  25  ar  
 43  24  26  ar  
 44  24  45  1   
 45  25  27  ar  
 46  25  46  1   
 47  26  28  ar  
 48  26  29  1   
 49  27  28  ar  
 50  27  47  1   
 51  28  48  1   
 52  29  49  1   
 53  29  50  1   
 54  29  51  1   
@<TRIPOS>SUBSTRUCTURE
  1 ****  16 GROUP 4 **** **** 0

# MOE 2024.06 (io_trps.svl 2023.06)
