@<TRIPOS>MOLECULE
NONAME
39 41 1 0 0 
SMALL
USER_CHARGES


@<TRIPOS>ATOM
  1 S       -2.5240     0.9330     1.1280 S.3   1 <1>  -0.0800 
  2 C       -1.9120     0.7770    -0.5120 C.2   1 <1>  -0.1400 
  3 C       -1.0280     1.6740     1.6660 C.2   1 <1>  -0.1100 
  4 C       -0.6610     1.2670    -0.5930 C.2   1 <1>  -0.1500 
  5 C       -2.8200     0.1570    -1.5640 C.3   1 <1>   0.0810 
  6 C       -0.1570     1.7770     0.6460 C.2   1 <1>  -0.1500 
  7 C       -2.8970    -1.3620    -1.4590 C.2   1 <1>   0.5690 
  8 O       -2.0600    -2.0060    -2.0470 O.2   1 <1>  -0.5700 
  9 N       -3.8960    -1.9860    -0.7560 N.am  1 <1>  -0.6600 
 10 C       -5.0340    -1.3520    -0.0440 C.3   1 <1>   0.1400 
 11 C       -3.9370    -3.4600    -0.6000 C.3   1 <1>   0.1400 
 12 C       -5.9170    -2.5180     0.3960 C.3   1 <1>   0.2000 
 13 C       -4.9850    -3.7240     0.4820 C.3   1 <1>  -0.0800 
 14 O       -6.5060    -2.2780     1.6270 O.3   1 <1>  -0.6800 
 15 C       -5.7200    -5.0620     0.3150 C.3   1 <1>   0.0200 
 16 C       -4.7480    -6.2250     0.3340 C.2   1 <1>  -0.0400 
 17 O       -4.0460    -6.4730     1.4080 O.3   1 <1>  -0.0190 
 18 C       -4.4150    -7.1340    -0.5940 C.2   1 <1>  -0.1500 
 19 N       -3.2600    -7.4970     1.2470 N.2   1 <1>  -0.4100 
 20 C       -3.4610    -7.9160     0.0490 C.2   1 <1>   0.1080 
 21 C       -2.7490    -9.0990    -0.5680 C.3   1 <1>  -0.0590 
 22 H       -0.9580     1.9560     2.7010 H     1 <1>   0.1500 
 23 H       -0.0560     1.2910    -1.4830 H     1 <1>   0.1500 
 24 H       -3.7970     0.5920    -1.5030 H     1 <1>   0.0800 
 25 H       -2.4260     0.3930    -2.5340 H     1 <1>   0.0800 
 26 H        0.8340     2.1930     0.7080 H     1 <1>   0.1500 
 27 H       -4.6660    -0.8170     0.8120 H     1 <1>   0.0800 
 28 H       -5.5760    -0.6920    -0.6980 H     1 <1>   0.0800 
 29 H       -4.2270    -3.9010    -1.5390 H     1 <1>   0.0800 
 30 H       -2.9710    -3.8430    -0.3140 H     1 <1>   0.0800 
 31 H       -6.6980    -2.6750    -0.3290 H     1 <1>   0.0800 
 32 H       -4.4710    -3.7140     1.4280 H     1 <1>   0.0800 
 33 H       -5.8230    -2.1960     2.3210 H     1 <1>   0.4000 
 34 H       -6.2620    -5.0710    -0.6140 H     1 <1>   0.0800 
 35 H       -6.4290    -5.1860     1.1160 H     1 <1>   0.0800 
 36 H       -4.7730    -7.2590    -1.5990 H     1 <1>   0.1500 
 37 H       -3.4670    -9.8380    -0.8730 H     1 <1>   0.0800 
 38 H       -2.0790    -9.5390     0.1490 H     1 <1>   0.0800 
 39 H       -2.1830    -8.7780    -1.4220 H     1 <1>   0.0800 
@<TRIPOS>BOND
  1   1   2  1   
  2   1   3  1   
  3   2   4  2   
  4   2   5  1   
  5   3   6  2   
  6   3  22  1   
  7   4   6  1   
  8   4  23  1   
  9   5   7  1   
 10   5  24  1   
 11   5  25  1   
 12   6  26  1   
 13   7   8  2   
 14   7   9  am  
 15   9  10  1   
 16   9  11  1   
 17  10  12  1   
 18  10  27  1   
 19  10  28  1   
 20  11  13  1   
 21  11  29  1   
 22  11  30  1   
 23  12  13  1   
 24  12  14  1   
 25  12  31  1   
 26  13  15  1   
 27  13  32  1   
 28  14  33  1   
 29  15  16  1   
 30  15  34  1   
 31  15  35  1   
 32  16  17  1   
 33  16  18  2   
 34  17  19  1   
 35  18  20  1   
 36  18  36  1   
 37  19  20  2   
 38  20  21  1   
 39  21  37  1   
 40  21  38  1   
 41  21  39  1   
@<TRIPOS>SUBSTRUCTURE
  1 ****  11 GROUP 4 **** **** 0

# MOE 2024.06 (io_trps.svl 2023.06)
