@<TRIPOS>MOLECULE
NONAME
64 68 1 0 0 
SMALL
USER_CHARGES


@<TRIPOS>ATOM
  1 O       -0.1930    -0.6700     0.7900 O.2   1 <1>  -0.5700 
  2 C       -0.0830    -1.7690     0.2930 C.2   1 <1>   0.5690 
  3 N        0.8970    -2.0580    -0.6200 N.am  1 <1>  -0.6600 
  4 C       -1.1020    -2.8310     0.7530 C.3   1 <1>   0.4040 
  5 C        1.1230    -3.3780    -1.2940 C.3   1 <1>   0.1400 
  6 C        1.9280    -1.0360    -1.0050 C.3   1 <1>   0.1400 
  7 N       -2.2280    -2.2450     1.5740 N.4   1 <1>  -0.9590 
  8 C        1.3710    -3.1970    -2.8070 C.3   1 <1>   0.2000 
  9 C        2.1410    -0.9980    -2.5320 C.3   1 <1>   0.2000 
 10 C       -3.1890    -1.4740     0.7120 C.3   1 <1>   0.3430 
 11 C       -2.9230    -3.2420     2.4340 C.3   1 <1>   0.3430 
 12 O        2.4010    -2.2820    -3.0120 O.3   1 <1>  -0.5600 
 13 C        1.7970    -4.5000    -3.4780 C.3   1 <1>  -0.2400 
 14 C        3.3330    -0.1290    -2.9220 C.3   1 <1>  -0.2400 
 15 C       -4.2170    -0.7050     1.5590 C.3   1 <1>   0.1430 
 16 C       -3.9250    -2.5210     3.3410 C.3   1 <1>  -0.1600 
 17 C       -5.2310    -0.0680     0.6380 C.ar  1 <1>   0.1660 
 18 C       -4.9240    -1.6630     2.5420 C.3   1 <1>  -0.1600 
 19 C       -3.5970     0.5230     2.2800 C.3   1 <1>  -0.1600 
 20 N       -5.8390    -0.6890    -0.3420 N.ar  1 <1>  -0.6200 
 21 C       -5.4420     1.2390     0.9440 C.ar  1 <1>  -0.1440 
 22 C       -4.5940     1.6860     2.1090 C.3   1 <1>  -0.0170 
 23 C       -6.7250     0.0500    -1.0300 C.ar  1 <1>   0.6200 
 24 C       -6.3510     1.9290     0.1860 C.ar  1 <1>   0.1600 
 25 N       -6.9950     1.3420    -0.7970 N.ar  1 <1>  -0.6200 
 26 C       -7.4470    -0.6020    -2.1140 C.ar  1 <1>   0.0000 
 27 C       -8.7550    -0.2350    -2.4410 C.ar  1 <1>  -0.1500 
 28 C       -6.8690    -1.6220    -2.8750 C.ar  1 <1>  -0.1500 
 29 C       -9.4500    -0.8510    -3.4670 C.ar  1 <1>  -0.1500 
 30 C       -7.5570    -2.2430    -3.9010 C.ar  1 <1>  -0.1500 
 31 C       -8.8510    -1.8590    -4.2000 C.ar  1 <1>  -0.1500 
 32 H       -0.5670    -3.5530     1.3430 H     1 <1>   0.0800 
 33 H       -1.5030    -3.3310    -0.1120 H     1 <1>   0.0800 
 34 H        1.9880    -3.8490    -0.8580 H     1 <1>   0.0800 
 35 H        0.2830    -4.0330    -1.1570 H     1 <1>   0.0800 
 36 H        1.6370    -0.0560    -0.6690 H     1 <1>   0.0800 
 37 H        2.8600    -1.2810    -0.5270 H     1 <1>   0.0800 
 38 H       -1.7690    -1.5390     2.1760 H     1 <1>   0.4500 
 39 H        0.4840    -2.8200    -3.2880 H     1 <1>   0.0800 
 40 H        1.2550    -0.6260    -3.0180 H     1 <1>   0.0800 
 41 H       -2.6540    -0.7710     0.0940 H     1 <1>   0.0800 
 42 H       -3.7210    -2.1520     0.0630 H     1 <1>   0.0800 
 43 H       -3.4470    -3.9550     1.8170 H     1 <1>   0.0800 
 44 H       -2.2080    -3.7740     3.0410 H     1 <1>   0.0800 
 45 H        2.7050    -4.8700    -3.0360 H     1 <1>   0.0800 
 46 H        1.9620    -4.3300    -4.5270 H     1 <1>   0.0800 
 47 H        1.0300    -5.2450    -3.3720 H     1 <1>   0.0800 
 48 H        4.2350    -0.5080    -2.4760 H     1 <1>   0.0800 
 49 H        3.1800     0.8820    -2.5900 H     1 <1>   0.0800 
 50 H        3.4440    -0.1230    -3.9920 H     1 <1>   0.0800 
 51 H       -4.4710    -3.2560     3.9080 H     1 <1>   0.0800 
 52 H       -3.3910    -1.9130     4.0490 H     1 <1>   0.0800 
 53 H       -5.5520    -1.1030     3.2150 H     1 <1>   0.0800 
 54 H       -5.5700    -2.3190     1.9820 H     1 <1>   0.0800 
 55 H       -3.3900     0.3440     3.3200 H     1 <1>   0.0800 
 56 H       -2.6770     0.8030     1.7940 H     1 <1>   0.0800 
 57 H       -4.0910     2.6160     1.9030 H     1 <1>   0.0800 
 58 H       -5.2120     1.7930     2.9850 H     1 <1>   0.0800 
 59 H       -6.5560     2.9680     0.3850 H     1 <1>   0.1500 
 60 H       -9.2370     0.5480    -1.8810 H     1 <1>   0.1500 
 61 H       -5.8630    -1.9330    -2.6600 H     1 <1>   0.1500 
 62 H      -10.4560    -0.5460    -3.6940 H     1 <1>   0.1500 
 63 H       -7.0880    -3.0260    -4.4710 H     1 <1>   0.1500 
 64 H       -9.3890    -2.3390    -4.9990 H     1 <1>   0.1500 
@<TRIPOS>BOND
  1   1   2  2   
  2   2   3  am  
  3   2   4  1   
  4   3   5  1   
  5   3   6  1   
  6   4   7  1   
  7   4  32  1   
  8   4  33  1   
  9   5   8  1   
 10   5  34  1   
 11   5  35  1   
 12   6   9  1   
 13   6  36  1   
 14   6  37  1   
 15   7  10  1   
 16   7  11  1   
 17   7  38  1   
 18   8  12  1   
 19   8  13  1   
 20   8  39  1   
 21   9  12  1   
 22   9  14  1   
 23   9  40  1   
 24  10  15  1   
 25  10  41  1   
 26  10  42  1   
 27  11  16  1   
 28  11  43  1   
 29  11  44  1   
 30  13  45  1   
 31  13  46  1   
 32  13  47  1   
 33  14  48  1   
 34  14  49  1   
 35  14  50  1   
 36  15  17  1   
 37  15  18  1   
 38  15  19  1   
 39  16  18  1   
 40  16  51  1   
 41  16  52  1   
 42  17  20  ar  
 43  17  21  ar  
 44  18  53  1   
 45  18  54  1   
 46  19  22  1   
 47  19  55  1   
 48  19  56  1   
 49  20  23  ar  
 50  21  22  1   
 51  21  24  ar  
 52  22  57  1   
 53  22  58  1   
 54  23  25  ar  
 55  23  26  1   
 56  24  25  ar  
 57  24  59  1   
 58  26  27  ar  
 59  26  28  ar  
 60  27  29  ar  
 61  27  60  1   
 62  28  30  ar  
 63  28  61  1   
 64  29  31  ar  
 65  29  62  1   
 66  30  31  ar  
 67  30  63  1   
 68  31  64  1   
@<TRIPOS>SUBSTRUCTURE
  1 ****  10 GROUP 4 **** **** 0

# MOE 2024.06 (io_trps.svl 2023.06)
