@<TRIPOS>MOLECULE
NONAME
47 48 1 0 0 
SMALL
USER_CHARGES


@<TRIPOS>ATOM
  1 O       -2.5820    -0.4360    -1.9680 O.2   1 <1>  -0.5700 
  2 C       -2.6800     0.6080    -1.3450 C.2   1 <1>   0.7670 
  3 N       -3.1880     0.5770    -0.0730 N.2   1 <1>  -0.6610 
  4 C       -2.2720     1.8350    -1.9310 C.2   1 <1>  -0.1360 
  5 C       -3.2710     1.6860     0.5610 C.2   1 <1>   0.4390 
  6 C       -2.3800     2.9860    -1.2320 C.2   1 <1>  -0.0380 
  7 N       -2.8880     2.8850     0.0360 N.pl3 1 <1>  -0.5500 
  8 C       -3.8130     1.7060     1.9680 C.3   1 <1>  -0.1790 
  9 C       -1.9800     4.3630    -1.7530 C.3   1 <1>   0.2480 
 10 N       -1.2040     5.1300    -0.7460 N.3   1 <1>  -0.8100 
 11 C       -0.9910     6.5150    -1.2040 C.3   1 <1>   0.1100 
 12 C        0.0760     4.4460    -0.4590 C.3   1 <1>   0.0300 
 13 C       -0.5730     7.4220    -0.0310 C.3   1 <1>   0.3430 
 14 N       -0.3470     8.8500    -0.4480 N.4   1 <1>  -0.9590 
 15 C        0.3910     9.6020     0.6090 C.3   1 <1>   0.4230 
 16 C       -1.6500     9.5150    -0.7880 C.3   1 <1>   0.2630 
 17 C        0.6180    11.0630     0.2120 C.3   1 <1>  -0.1600 
 18 C        1.7970     9.0230     0.8430 C.3   1 <1>  -0.1600 
 19 C        1.9490    11.4480     0.8480 C.3   1 <1>  -0.1600 
 20 C        2.7900    10.1840     0.7320 C.3   1 <1>  -0.1600 
 21 H       -1.8880     1.7800    -2.9300 H     1 <1>   0.1500 
 22 H       -2.9210     3.7270     0.6170 H     1 <1>   0.4000 
 23 H       -4.6830     2.3340     2.0170 H     1 <1>   0.0800 
 24 H       -3.0640     2.0720     2.6450 H     1 <1>   0.0800 
 25 H       -4.0910     0.7110     2.2680 H     1 <1>   0.0800 
 26 H       -2.8840     4.8980    -1.9870 H     1 <1>   0.0800 
 27 H       -1.4090     4.2590    -2.6610 H     1 <1>   0.0800 
 28 H       -1.9130     6.8870    -1.6130 H     1 <1>   0.0800 
 29 H       -0.2390     6.5290    -1.9740 H     1 <1>   0.0800 
 30 H       -0.1040     3.4530    -0.0840 H     1 <1>   0.0800 
 31 H        0.6340     4.9750     0.2930 H     1 <1>   0.0800 
 32 H        0.6760     4.3690    -1.3510 H     1 <1>   0.0800 
 33 H        0.3320     7.0220     0.3900 H     1 <1>   0.0800 
 34 H       -1.3370     7.3830     0.7270 H     1 <1>   0.0800 
 35 H        0.2630     8.8630    -1.2770 H     1 <1>   0.4500 
 36 H       -0.1550     9.5740     1.5390 H     1 <1>   0.0800 
 37 H       -2.2920     9.5420     0.0770 H     1 <1>   0.0800 
 38 H       -2.1540     8.9800    -1.5750 H     1 <1>   0.0800 
 39 H       -1.4830    10.5260    -1.1220 H     1 <1>   0.0800 
 40 H       -0.1720    11.7030     0.5650 H     1 <1>   0.0800 
 41 H        0.7160    11.1580    -0.8550 H     1 <1>   0.0800 
 42 H        2.0650     8.2580     0.1360 H     1 <1>   0.0800 
 43 H        1.8430     8.6150     1.8370 H     1 <1>   0.0800 
 44 H        1.8030    11.6910     1.8880 H     1 <1>   0.0800 
 45 H        2.4110    12.2880     0.3550 H     1 <1>   0.0800 
 46 H        3.2680    10.1630    -0.2350 H     1 <1>   0.0800 
 47 H        3.5530    10.1410     1.4920 H     1 <1>   0.0800 
@<TRIPOS>BOND
  1   1   2  2   
  2   2   3  1   
  3   2   4  1   
  4   3   5  2   
  5   4   6  2   
  6   4  21  1   
  7   5   7  1   
  8   5   8  1   
  9   6   7  1   
 10   6   9  1   
 11   7  22  1   
 12   8  23  1   
 13   8  24  1   
 14   8  25  1   
 15   9  10  1   
 16   9  26  1   
 17   9  27  1   
 18  10  11  1   
 19  10  12  1   
 20  11  13  1   
 21  11  28  1   
 22  11  29  1   
 23  12  30  1   
 24  12  31  1   
 25  12  32  1   
 26  13  14  1   
 27  13  33  1   
 28  13  34  1   
 29  14  15  1   
 30  14  16  1   
 31  14  35  1   
 32  15  17  1   
 33  15  18  1   
 34  15  36  1   
 35  16  37  1   
 36  16  38  1   
 37  16  39  1   
 38  17  19  1   
 39  17  40  1   
 40  17  41  1   
 41  18  20  1   
 42  18  42  1   
 43  18  43  1   
 44  19  20  1   
 45  19  44  1   
 46  19  45  1   
 47  20  46  1   
 48  20  47  1   
@<TRIPOS>SUBSTRUCTURE
  1 ****  10 GROUP 4 **** **** 0

# MOE 2024.06 (io_trps.svl 2023.06)
