@<TRIPOS>MOLECULE
NONAME
39 40 1 0 0 
SMALL
USER_CHARGES


@<TRIPOS>ATOM
  1 O       -0.4700     0.3160     1.6470 O.2   1 <1>  -0.5700 
  2 C       -1.3400     0.8210     0.9620 C.2   1 <1>   0.5440 
  3 N       -2.2140     0.0020     0.2840 N.am  1 <1>  -0.6600 
  4 C       -1.4300     2.2670     0.8840 C.ar  1 <1>   0.0860 
  5 C       -2.3190    -1.4620     0.6100 C.3   1 <1>   0.1400 
  6 C       -3.1150     0.4530    -0.8120 C.3   1 <1>   0.1400 
  7 C       -0.3470     3.0320     0.4620 C.ar  1 <1>  -0.1500 
  8 C       -2.6000     2.9400     1.2370 C.ar  1 <1>  -0.1500 
  9 C       -3.7170    -2.0540     0.3260 C.3   1 <1>   0.2000 
 10 C       -4.5870     0.2360    -0.4250 C.3   1 <1>  -0.1600 
 11 C       -0.4200     4.4120     0.3760 C.ar  1 <1>   0.0820 
 12 C       -2.6880     4.3190     1.1570 C.ar  1 <1>  -0.1500 
 13 O       -3.7740    -2.5390    -0.9720 O.3   1 <1>  -0.6800 
 14 C       -4.8180    -0.9960     0.4890 C.3   1 <1>  -0.1860 
 15 O        0.6930     5.0570    -0.0540 O.3   1 <1>  -0.3630 
 16 C       -1.6020     5.0590     0.7260 C.ar  1 <1>  -0.1500 
 17 C       -6.1860    -1.6160     0.2940 C.2   1 <1>   0.9060 
 18 C        0.7510     6.4620    -0.1170 C.3   1 <1>   0.1200 
 19 O       -7.0460    -1.4390     1.1600 O.co2 1 <1>  -0.9000 
 20 O       -6.3900    -2.2870    -0.7280 O.co2 1 <1>  -0.9000 
 21 C        2.1420     6.8550    -0.6030 C.3   1 <1>  -0.2400 
 22 H       -1.5730    -2.0100     0.0620 H     1 <1>   0.0800 
 23 H       -2.1150    -1.5850     1.6590 H     1 <1>   0.0800 
 24 H       -2.9420     1.4820    -1.0690 H     1 <1>   0.0800 
 25 H       -2.8950    -0.1400    -1.6850 H     1 <1>   0.0800 
 26 H        0.5700     2.5370     0.1970 H     1 <1>   0.1500 
 27 H       -3.4440     2.3660     1.5790 H     1 <1>   0.1500 
 28 H       -3.9040    -2.8890     0.9800 H     1 <1>   0.0800 
 29 H       -4.9720     1.1120     0.0640 H     1 <1>   0.0800 
 30 H       -5.1490     0.1120    -1.3350 H     1 <1>   0.0800 
 31 H       -3.6030     4.8140     1.4330 H     1 <1>   0.1500 
 32 H       -4.7530    -2.6220    -1.1770 H     1 <1>   0.4000 
 33 H       -4.7760    -0.6600     1.5080 H     1 <1>   0.0800 
 34 H       -1.6930     6.1270     0.6710 H     1 <1>   0.1500 
 35 H       -0.0030     6.8040    -0.8060 H     1 <1>   0.0800 
 36 H        0.5660     6.8560     0.8670 H     1 <1>   0.0800 
 37 H        2.3230     6.4420    -1.5790 H     1 <1>   0.0800 
 38 H        2.8870     6.4920     0.0830 H     1 <1>   0.0800 
 39 H        2.2200     7.9250    -0.6610 H     1 <1>   0.0800 
@<TRIPOS>BOND
  1   1   2  2   
  2   2   3  am  
  3   2   4  1   
  4   3   5  1   
  5   3   6  1   
  6   4   7  ar  
  7   4   8  ar  
  8   5   9  1   
  9   5  22  1   
 10   5  23  1   
 11   6  10  1   
 12   6  24  1   
 13   6  25  1   
 14   7  11  ar  
 15   7  26  1   
 16   8  12  ar  
 17   8  27  1   
 18   9  13  1   
 19   9  14  1   
 20   9  28  1   
 21  10  14  1   
 22  10  29  1   
 23  10  30  1   
 24  11  15  1   
 25  11  16  ar  
 26  12  16  ar  
 27  12  31  1   
 28  13  32  1   
 29  14  17  1   
 30  14  33  1   
 31  15  18  1   
 32  16  34  1   
 33  17  19  ar  
 34  17  20  ar  
 35  18  21  1   
 36  18  35  1   
 37  18  36  1   
 38  21  37  1   
 39  21  38  1   
 40  21  39  1   
@<TRIPOS>SUBSTRUCTURE
  1 ****   2 GROUP 4 **** **** 0

# MOE 2024.06 (io_trps.svl 2023.06)
