@<TRIPOS>MOLECULE
NONAME
46 48 1 0 0 
SMALL
USER_CHARGES


@<TRIPOS>ATOM
  1 S        0.6090    -0.9260     0.8140 S.3   1 <1>  -0.0800 
  2 C       -0.9300    -1.6000     0.4130 C.2   1 <1>   0.1980 
  3 C        0.0790    -0.9150     2.4600 C.2   1 <1>   0.1980 
  4 N       -1.6790    -1.7640     1.4290 N.2   1 <1>  -0.3380 
  5 C       -1.2130    -1.9110    -1.0520 C.3   1 <1>   0.5230 
  6 N       -1.1010    -1.3690     2.6010 N.2   1 <1>  -0.3380 
  7 C        1.0270    -0.3910     3.5150 C.3   1 <1>  -0.0600 
  8 N       -2.6070    -2.4170    -1.2660 N.4   1 <1>  -0.9590 
  9 C       -2.7950    -3.1050    -2.5800 C.3   1 <1>   0.3430 
 10 C       -3.6800    -1.4340    -0.9310 C.3   1 <1>   0.3430 
 11 C       -4.0460    -4.0120    -2.5890 C.3   1 <1>   0.1400 
 12 C       -4.7620    -2.0860    -0.0610 C.3   1 <1>  -0.1600 
 13 N       -4.5950    -4.2710    -1.2160 N.am  1 <1>  -0.6600 
 14 C       -5.5380    -3.2390    -0.7140 C.3   1 <1>   0.1400 
 15 C       -3.9400    -5.1110    -0.3440 C.2   1 <1>   0.5440 
 16 O       -2.7270    -5.1560    -0.4350 O.2   1 <1>  -0.5700 
 17 C       -4.6360    -5.8440     0.6970 C.ar  1 <1>   0.0860 
 18 C       -5.9220    -6.3350     0.5420 C.ar  1 <1>  -0.1500 
 19 C       -4.0560    -6.1080     1.9310 C.ar  1 <1>  -0.1500 
 20 C       -6.5470    -7.0130     1.5720 C.ar  1 <1>   0.3930 
 21 C       -4.7580    -6.7970     2.9000 C.ar  1 <1>   0.1600 
 22 O       -7.8020    -7.4480     1.3400 O.3   1 <1>  -0.3630 
 23 N       -5.9900    -7.2510     2.7540 N.ar  1 <1>  -0.6200 
 24 C       -8.5160    -8.1690     2.3260 C.3   1 <1>   0.0400 
 25 H       -0.5090    -2.6610    -1.3720 H     1 <1>   0.0800 
 26 H       -1.0510    -1.0230    -1.6390 H     1 <1>   0.0800 
 27 H        1.2770     0.6330     3.3080 H     1 <1>   0.0800 
 28 H        1.9250    -0.9810     3.5270 H     1 <1>   0.0800 
 29 H        0.5620    -0.4470     4.4830 H     1 <1>   0.0800 
 30 H       -2.7150    -3.1960    -0.5810 H     1 <1>   0.4500 
 31 H       -1.9420    -3.7360    -2.7690 H     1 <1>   0.0800 
 32 H       -2.8570    -2.3880    -3.3820 H     1 <1>   0.0800 
 33 H       -4.1170    -1.0370    -1.8330 H     1 <1>   0.0800 
 34 H       -3.2570    -0.6120    -0.3750 H     1 <1>   0.0800 
 35 H       -3.7860    -4.9530    -3.0440 H     1 <1>   0.0800 
 36 H       -4.8080    -3.5670    -3.2040 H     1 <1>   0.0800 
 37 H       -5.4720    -1.3250     0.2090 H     1 <1>   0.0800 
 38 H       -4.3240    -2.4280     0.8610 H     1 <1>   0.0800 
 39 H       -6.1420    -2.8700    -1.5260 H     1 <1>   0.0800 
 40 H       -6.2060    -3.6730     0.0120 H     1 <1>   0.0800 
 41 H       -6.4510    -6.1990    -0.3810 H     1 <1>   0.1500 
 42 H       -3.0530    -5.7740     2.1330 H     1 <1>   0.1500 
 43 H       -4.2820    -6.9860     3.8480 H     1 <1>   0.1500 
 44 H       -9.4840    -8.4180     1.9300 H     1 <1>   0.0800 
 45 H       -8.6210    -7.5510     3.2010 H     1 <1>   0.0800 
 46 H       -7.9710    -9.0660     2.5630 H     1 <1>   0.0800 
@<TRIPOS>BOND
  1   1   2  1   
  2   1   3  1   
  3   2   4  2   
  4   2   5  1   
  5   3   6  2   
  6   3   7  1   
  7   4   6  1   
  8   5   8  1   
  9   5  25  1   
 10   5  26  1   
 11   7  27  1   
 12   7  28  1   
 13   7  29  1   
 14   8   9  1   
 15   8  10  1   
 16   8  30  1   
 17   9  11  1   
 18   9  31  1   
 19   9  32  1   
 20  10  12  1   
 21  10  33  1   
 22  10  34  1   
 23  11  13  1   
 24  11  35  1   
 25  11  36  1   
 26  12  14  1   
 27  12  37  1   
 28  12  38  1   
 29  13  14  1   
 30  13  15  am  
 31  14  39  1   
 32  14  40  1   
 33  15  16  2   
 34  15  17  1   
 35  17  18  ar  
 36  17  19  ar  
 37  18  20  ar  
 38  18  41  1   
 39  19  21  ar  
 40  19  42  1   
 41  20  22  1   
 42  20  23  ar  
 43  21  23  ar  
 44  21  43  1   
 45  22  24  1   
 46  24  44  1   
 47  24  45  1   
 48  24  46  1   
@<TRIPOS>SUBSTRUCTURE
  1 ****  15 GROUP 4 **** **** 0

# MOE 2024.06 (io_trps.svl 2023.06)
