@<TRIPOS>MOLECULE
NONAME
45 46 1 0 0 
SMALL
USER_CHARGES


@<TRIPOS>ATOM
  1 CL      -0.1030    -0.2520    -0.2410 Cl    1 <1>  -0.1770 
  2 C       -0.3300    -1.9840    -0.2880 C.ar  1 <1>   0.1770 
  3 C        0.5750    -2.8240     0.3440 C.ar  1 <1>  -0.1440 
  4 C       -1.4270    -2.4800    -0.9660 C.ar  1 <1>  -0.1500 
  5 C        0.3530    -4.1900     0.2810 C.ar  1 <1>  -0.1500 
  6 C        1.7810    -2.2720     1.0870 C.3   1 <1>  -0.0960 
  7 C       -1.6570    -3.8480    -1.0320 C.ar  1 <1>  -0.0090 
  8 C       -0.7480    -4.6890    -0.3980 C.ar  1 <1>  -0.1500 
  9 S       -3.0900    -4.5210    -1.9190 S.o2  1 <1>   1.4470 
 10 O       -2.6080    -5.3560    -2.9990 O.2   1 <1>  -0.6500 
 11 O       -4.0270    -3.4580    -2.2120 O.2   1 <1>  -0.6500 
 12 N       -3.7980    -5.5430    -0.7700 N.am  1 <1>  -0.8490 
 13 C       -4.6450    -6.5830    -1.4030 C.3   1 <1>   0.1960 
 14 C       -4.4490    -4.8390     0.3590 C.3   1 <1>   0.1960 
 15 C       -5.6260    -7.1860    -0.3910 C.3   1 <1>   0.2000 
 16 C       -5.9650    -4.7390     0.1610 C.3   1 <1>  -0.1600 
 17 O       -6.2740    -8.2930    -0.9150 O.3   1 <1>  -0.6800 
 18 C       -6.6520    -6.1420     0.1240 C.3   1 <1>  -0.1060 
 19 C       -7.0160    -6.6730     1.5170 C.2   1 <1>   0.9060 
 20 C       -7.9250    -6.0340    -0.7760 C.3   1 <1>  -0.1600 
 21 O       -6.6950    -6.0380     2.5290 O.co2 1 <1>  -0.9000 
 22 O       -7.5670    -7.7830     1.5870 O.co2 1 <1>  -0.9000 
 23 C       -8.9590    -5.0060    -0.2820 C.3   1 <1>  -0.1600 
 24 C      -10.2000    -5.0030    -1.1790 C.3   1 <1>  -0.2400 
 25 H       -2.1050    -1.7940    -1.4430 H     1 <1>   0.1500 
 26 H        1.0330    -4.8750     0.7590 H     1 <1>   0.1500 
 27 H        2.3730    -3.0640     1.5090 H     1 <1>   0.0800 
 28 H        1.4580    -1.6260     1.8840 H     1 <1>   0.0800 
 29 H        2.4000    -1.7060     0.4140 H     1 <1>   0.0800 
 30 H       -0.9100    -5.7540    -0.4380 H     1 <1>   0.1500 
 31 H       -5.2120    -6.1520    -2.2110 H     1 <1>   0.0800 
 32 H       -4.0130    -7.3590    -1.8000 H     1 <1>   0.0800 
 33 H       -4.2620    -5.3860     1.2690 H     1 <1>   0.0800 
 34 H       -4.0310    -3.8540     0.4850 H     1 <1>   0.0800 
 35 H       -5.0410    -7.5530     0.4370 H     1 <1>   0.0800 
 36 H       -6.3850    -4.1460     0.9540 H     1 <1>   0.0800 
 37 H       -6.1420    -4.2050    -0.7550 H     1 <1>   0.0800 
 38 H       -6.9240    -8.5640    -0.2170 H     1 <1>   0.4000 
 39 H       -7.6320    -5.7910    -1.7820 H     1 <1>   0.0800 
 40 H       -8.4160    -6.9920    -0.8080 H     1 <1>   0.0800 
 41 H       -9.2520    -5.2500     0.7260 H     1 <1>   0.0800 
 42 H       -8.5340    -4.0180    -0.2730 H     1 <1>   0.0800 
 43 H      -10.6620    -5.9740    -1.1750 H     1 <1>   0.0800 
 44 H       -9.9320    -4.7480    -2.1890 H     1 <1>   0.0800 
 45 H      -10.9110    -4.2830    -0.8170 H     1 <1>   0.0800 
@<TRIPOS>BOND
  1   1   2  1   
  2   2   3  ar  
  3   2   4  ar  
  4   3   5  ar  
  5   3   6  1   
  6   4   7  ar  
  7   4  25  1   
  8   5   8  ar  
  9   5  26  1   
 10   6  27  1   
 11   6  28  1   
 12   6  29  1   
 13   7   8  ar  
 14   7   9  1   
 15   8  30  1   
 16   9  10  2   
 17   9  11  2   
 18   9  12  am  
 19  12  13  1   
 20  12  14  1   
 21  13  15  1   
 22  13  31  1   
 23  13  32  1   
 24  14  16  1   
 25  14  33  1   
 26  14  34  1   
 27  15  17  1   
 28  15  18  1   
 29  15  35  1   
 30  16  18  1   
 31  16  36  1   
 32  16  37  1   
 33  17  38  1   
 34  18  19  1   
 35  18  20  1   
 36  19  21  ar  
 37  19  22  ar  
 38  20  23  1   
 39  20  39  1   
 40  20  40  1   
 41  23  24  1   
 42  23  41  1   
 43  23  42  1   
 44  24  43  1   
 45  24  44  1   
 46  24  45  1   
@<TRIPOS>SUBSTRUCTURE
  1 ****  14 GROUP 4 **** **** 0

# MOE 2024.06 (io_trps.svl 2023.06)
