@<TRIPOS>MOLECULE
NONAME
44 46 1 0 0 
SMALL
USER_CHARGES


@<TRIPOS>ATOM
  1 S       -0.3030    -0.5840    -2.0210 S.3   1 <1>  -0.0800 
  2 C        0.6180    -1.4110    -0.7740 C.2   1 <1>  -0.1400 
  3 C        0.7130     0.8380    -1.8870 C.2   1 <1>  -0.1100 
  4 C        1.6140    -0.6200    -0.3300 C.2   1 <1>  -0.1500 
  5 C        0.2060    -2.8190    -0.3990 C.3   1 <1>   0.5230 
  6 C        1.6750     0.6690    -0.9580 C.2   1 <1>   0.0190 
  7 N       -0.9580    -2.7450     0.5310 N.4   1 <1>  -0.9590 
  8 C        2.6760     1.6250    -0.5940 C.1   1 <1>  -0.0190 
  9 C       -2.2490    -2.4670    -0.1860 C.3   1 <1>   0.3430 
 10 C       -1.1290    -4.0340     1.2650 C.3   1 <1>   0.3430 
 11 C        3.5150     2.4130    -0.2920 C.1   1 <1>  -0.2000 
 12 C       -3.2320    -3.5660     0.2420 C.3   1 <1>   0.2000 
 13 C       -2.3330    -4.7360     0.6290 C.3   1 <1>  -0.0800 
 14 C        4.5750     3.3910     0.0750 C.3   1 <1>   0.3200 
 15 O       -3.9470    -3.1550     1.3600 O.3   1 <1>  -0.6800 
 16 C       -1.9680    -5.5750    -0.6190 C.3   1 <1>  -0.0170 
 17 O        4.1090     4.1270     1.1430 O.3   1 <1>  -0.6800 
 18 C       -0.7420    -6.4490    -0.4090 C.ar  1 <1>   0.1670 
 19 N        0.4310    -5.8620    -0.6070 N.ar  1 <1>  -0.6200 
 20 C       -0.8990    -7.7760    -0.0380 C.ar  1 <1>  -0.1500 
 21 C        1.4910    -6.6440    -0.4450 C.ar  1 <1>   0.1600 
 22 C        0.2140    -8.5680     0.1400 C.ar  1 <1>  -0.1500 
 23 C        1.4390    -7.9760    -0.0760 C.ar  1 <1>  -0.1500 
 24 H        0.4900     1.6740    -2.5270 H     1 <1>   0.1500 
 25 H        2.3390    -0.8730     0.4250 H     1 <1>   0.1500 
 26 H        1.0320    -3.3020     0.0950 H     1 <1>   0.0800 
 27 H       -0.0370    -3.3930    -1.2790 H     1 <1>   0.0800 
 28 H       -0.7550    -1.9800     1.1880 H     1 <1>   0.4500 
 29 H       -2.6390    -1.4890     0.0480 H     1 <1>   0.0800 
 30 H       -2.0940    -2.5340    -1.2500 H     1 <1>   0.0800 
 31 H       -0.2380    -4.6390     1.2410 H     1 <1>   0.0800 
 32 H       -1.3610    -3.8240     2.2970 H     1 <1>   0.0800 
 33 H       -3.9430    -3.8050    -0.5320 H     1 <1>   0.0800 
 34 H       -2.8100    -5.3840     1.3450 H     1 <1>   0.0800 
 35 H        4.7770     4.0620    -0.7410 H     1 <1>   0.0800 
 36 H        5.4810     2.8940     0.3750 H     1 <1>   0.0800 
 37 H       -3.3830    -2.9270     2.1240 H     1 <1>   0.4000 
 38 H       -1.7760    -4.9420    -1.4670 H     1 <1>   0.0800 
 39 H       -2.8060    -6.1960    -0.8820 H     1 <1>   0.0800 
 40 H        3.1720     4.3520     0.9880 H     1 <1>   0.4000 
 41 H       -1.8790    -8.1950     0.1090 H     1 <1>   0.1500 
 42 H        2.4600    -6.2040    -0.6160 H     1 <1>   0.1500 
 43 H        0.1310    -9.6030     0.4270 H     1 <1>   0.1500 
 44 H        2.3450    -8.5440     0.0380 H     1 <1>   0.1500 
@<TRIPOS>BOND
  1   1   2  1   
  2   1   3  1   
  3   2   4  2   
  4   2   5  1   
  5   3   6  2   
  6   3  24  1   
  7   4   6  1   
  8   4  25  1   
  9   5   7  1   
 10   5  26  1   
 11   5  27  1   
 12   6   8  1   
 13   7   9  1   
 14   7  10  1   
 15   7  28  1   
 16   8  11  3   
 17   9  12  1   
 18   9  29  1   
 19   9  30  1   
 20  10  13  1   
 21  10  31  1   
 22  10  32  1   
 23  11  14  1   
 24  12  13  1   
 25  12  15  1   
 26  12  33  1   
 27  13  16  1   
 28  13  34  1   
 29  14  17  1   
 30  14  35  1   
 31  14  36  1   
 32  15  37  1   
 33  16  18  1   
 34  16  38  1   
 35  16  39  1   
 36  17  40  1   
 37  18  19  ar  
 38  18  20  ar  
 39  19  21  ar  
 40  20  22  ar  
 41  20  41  1   
 42  21  23  ar  
 43  21  42  1   
 44  22  23  ar  
 45  22  43  1   
 46  23  44  1   
@<TRIPOS>SUBSTRUCTURE
  1 ****   5 GROUP 4 **** **** 0

# MOE 2024.06 (io_trps.svl 2023.06)
