@<TRIPOS>MOLECULE
NONAME
40 41 1 0 0 
SMALL
USER_CHARGES


@<TRIPOS>ATOM
  1 O        0.2620    -0.3220    -1.7250 O.3   1 <1>  -0.0190 
  2 N        0.5070     0.7360    -1.0170 N.2   1 <1>  -0.4100 
  3 C       -1.0360    -0.4580    -1.6450 C.2   1 <1>   0.2980 
  4 C       -0.6040     1.1630    -0.5650 C.2   1 <1>   0.3350 
  5 N       -1.6420     0.4170    -0.9350 N.2   1 <1>  -0.5650 
  6 C       -1.6910    -1.6230    -2.3820 C.3   1 <1>   0.3890 
  7 C       -0.7990     2.3880     0.3110 C.3   1 <1>   0.0210 
  8 N       -2.1550    -2.7130    -1.4410 N.pl3 1 <1>  -0.8380 
  9 C        0.5090     3.1260     0.5940 C.3   1 <1>   0.1200 
 10 C       -3.2810    -2.6280    -0.6680 C.ar  1 <1>   0.4610 
 11 C       -1.3100    -3.9490    -1.4850 C.3   1 <1>   0.1290 
 12 O        0.2140     4.2080     1.4150 O.3   1 <1>  -0.5600 
 13 N       -3.6630    -1.4410    -0.1720 N.ar  1 <1>  -0.1790 
 14 C       -4.0800    -3.6980    -0.3280 C.ar  1 <1>  -0.1500 
 15 C        1.3230     4.9770     1.7530 C.3   1 <1>   0.0400 
 16 C       -4.7520    -1.2980     0.6030 C.ar  1 <1>   0.7710 
 17 C       -5.1880    -3.4890     0.4670 C.ar  1 <1>   0.3930 
 18 N       -5.5360    -2.2930     0.9370 N.ar  1 <1>  -0.6200 
 19 N       -5.0750    -0.0920     1.0730 N.pl3 1 <1>  -0.9000 
 20 O       -5.9380    -4.5460     0.7700 O.3   1 <1>  -0.3620 
 21 C       -7.1010    -4.4690     1.5730 C.3   1 <1>   0.0400 
 22 H       -0.9950    -2.0230    -3.1000 H     1 <1>   0.0800 
 23 H       -2.5370    -1.2480    -2.9320 H     1 <1>   0.0800 
 24 H       -1.2310     2.0800     1.2440 H     1 <1>   0.0800 
 25 H       -1.4750     3.0610    -0.1830 H     1 <1>   0.0800 
 26 H        0.9460     3.4900    -0.3210 H     1 <1>   0.0800 
 27 H        1.2070     2.4820     1.1030 H     1 <1>   0.0800 
 28 H       -0.2670    -3.6870    -1.4120 H     1 <1>   0.0800 
 29 H       -1.4720    -4.4770    -2.4100 H     1 <1>   0.0800 
 30 H       -1.5440    -4.6060    -0.6650 H     1 <1>   0.0800 
 31 H       -3.0640    -0.6310    -0.3220 H     1 <1>   0.4570 
 32 H       -3.8650    -4.6890    -0.6770 H     1 <1>   0.1500 
 33 H        0.9920     5.7820     2.3860 H     1 <1>   0.0800 
 34 H        1.7650     5.3790     0.8580 H     1 <1>   0.0800 
 35 H        2.0320     4.3660     2.2860 H     1 <1>   0.0800 
 36 H       -5.9080    -0.0150     1.6650 H     1 <1>   0.4000 
 37 H       -4.5950     0.7940     0.9070 H     1 <1>   0.4000 
 38 H       -7.5170    -5.4570     1.6630 H     1 <1>   0.0800 
 39 H       -7.8100    -3.8130     1.1000 H     1 <1>   0.0800 
 40 H       -6.8310    -4.0940     2.5450 H     1 <1>   0.0800 
@<TRIPOS>BOND
  1   1   2  1   
  2   1   3  1   
  3   2   4  2   
  4   3   5  2   
  5   3   6  1   
  6   4   5  1   
  7   4   7  1   
  8   6   8  1   
  9   6  22  1   
 10   6  23  1   
 11   7   9  1   
 12   7  24  1   
 13   7  25  1   
 14   8  10  1   
 15   8  11  1   
 16   9  12  1   
 17   9  26  1   
 18   9  27  1   
 19  10  13  ar  
 20  10  14  ar  
 21  11  28  1   
 22  11  29  1   
 23  11  30  1   
 24  12  15  1   
 25  13  16  ar  
 26  13  31  1   
 27  14  17  ar  
 28  14  32  1   
 29  15  33  1   
 30  15  34  1   
 31  15  35  1   
 32  16  18  ar  
 33  16  19  1   
 34  17  18  ar  
 35  17  20  1   
 36  19  36  1   
 37  19  37  1   
 38  20  21  1   
 39  21  38  1   
 40  21  39  1   
 41  21  40  1   
@<TRIPOS>SUBSTRUCTURE
  1 ****  13 GROUP 4 **** **** 0

# MOE 2024.06 (io_trps.svl 2023.06)
