@<TRIPOS>MOLECULE
NONAME
46 48 1 0 0 
SMALL
USER_CHARGES


@<TRIPOS>ATOM
  1 O        1.6970    -1.0160     2.3300 O.2   1 <1>  -0.5700 
  2 C        1.5300    -0.9910     1.1250 C.2   1 <1>   0.5440 
  3 N        0.2620    -0.7890     0.6550 N.am  1 <1>  -0.7300 
  4 C        2.6490    -1.1430     0.2200 C.ar  1 <1>   0.0860 
  5 C       -0.9500    -0.4850     1.4530 C.3   1 <1>   0.0600 
  6 C        2.5320    -1.7240    -1.0630 C.ar  1 <1>   0.4100 
  7 C        3.9050    -0.6860     0.6010 C.ar  1 <1>  -0.1500 
  8 N        3.5400    -1.8080    -1.9310 N.ar  1 <1>  -0.6200 
  9 N        1.3500    -2.2930    -1.5070 N.pl3 1 <1>  -0.8380 
 10 C        4.9460    -0.7930    -0.2910 C.ar  1 <1>  -0.1500 
 11 C        4.7080    -1.3500    -1.5330 C.ar  1 <1>   0.1600 
 12 C        0.9550    -3.5990    -0.9000 C.3   1 <1>   0.2090 
 13 C        0.9570    -2.1740    -2.9380 C.3   1 <1>   0.2090 
 14 C       -0.5720    -3.7780    -0.9770 C.3   1 <1>   0.2000 
 15 C       -0.5640    -2.3350    -3.0590 C.3   1 <1>  -0.1600 
 16 O       -0.9370    -5.0460    -0.5250 O.3   1 <1>  -0.5600 
 17 C       -1.0600    -3.6480    -2.4250 C.3   1 <1>  -0.1600 
 18 C       -1.0220    -5.1830     0.8620 C.3   1 <1>   0.2630 
 19 C       -1.4480    -6.6010     1.2030 C.ar  1 <1>  -0.1430 
 20 C       -1.0020    -7.6810     0.4530 C.ar  1 <1>   0.1600 
 21 C       -2.2810    -6.8410     2.2780 C.ar  1 <1>  -0.1500 
 22 N       -1.3070    -8.9490     0.6890 N.ar  1 <1>  -0.6200 
 23 C       -2.6130    -8.1540     2.5350 C.ar  1 <1>  -0.1500 
 24 C       -2.1060    -9.1540     1.7220 C.ar  1 <1>   0.1600 
 25 H        0.1450    -0.9500    -0.3560 H     1 <1>   0.3700 
 26 H       -0.6900    -0.3510     2.4900 H     1 <1>   0.0800 
 27 H       -1.6540    -1.2930     1.3720 H     1 <1>   0.0800 
 28 H       -1.4030     0.4210     1.0910 H     1 <1>   0.0800 
 29 H        4.0510    -0.2520     1.5760 H     1 <1>   0.1500 
 30 H        5.9300    -0.4470    -0.0320 H     1 <1>   0.1500 
 31 H        5.5250    -1.4220    -2.2320 H     1 <1>   0.1500 
 32 H        1.2800    -3.6330     0.1250 H     1 <1>   0.0800 
 33 H        1.4380    -4.3950    -1.4410 H     1 <1>   0.0800 
 34 H        1.4600    -2.9380    -3.5090 H     1 <1>   0.0800 
 35 H        1.2600    -1.2130    -3.3200 H     1 <1>   0.0800 
 36 H       -1.0590    -3.0370    -0.3670 H     1 <1>   0.0800 
 37 H       -0.8370    -2.3130    -4.0990 H     1 <1>   0.0800 
 38 H       -1.0380    -1.4970    -2.5800 H     1 <1>   0.0800 
 39 H       -2.1350    -3.6790    -2.4460 H     1 <1>   0.0800 
 40 H       -0.6830    -4.4780    -2.9970 H     1 <1>   0.0800 
 41 H       -1.7460    -4.4770     1.2310 H     1 <1>   0.0800 
 42 H       -0.0600    -4.9780     1.2980 H     1 <1>   0.0800 
 43 H       -0.3580    -7.4910    -0.3880 H     1 <1>   0.1500 
 44 H       -2.6590    -6.0440     2.8950 H     1 <1>   0.1500 
 45 H       -3.2590    -8.4050     3.3560 H     1 <1>   0.1500 
 46 H       -2.3720   -10.1750     1.9330 H     1 <1>   0.1500 
@<TRIPOS>BOND
  1   1   2  2   
  2   2   3  am  
  3   2   4  1   
  4   3   5  1   
  5   3  25  1   
  6   4   6  ar  
  7   4   7  ar  
  8   5  26  1   
  9   5  27  1   
 10   5  28  1   
 11   6   8  ar  
 12   6   9  1   
 13   7  10  ar  
 14   7  29  1   
 15   8  11  ar  
 16   9  12  1   
 17   9  13  1   
 18  10  11  ar  
 19  10  30  1   
 20  11  31  1   
 21  12  14  1   
 22  12  32  1   
 23  12  33  1   
 24  13  15  1   
 25  13  34  1   
 26  13  35  1   
 27  14  16  1   
 28  14  17  1   
 29  14  36  1   
 30  15  17  1   
 31  15  37  1   
 32  15  38  1   
 33  16  18  1   
 34  17  39  1   
 35  17  40  1   
 36  18  19  1   
 37  18  41  1   
 38  18  42  1   
 39  19  20  ar  
 40  19  21  ar  
 41  20  22  ar  
 42  20  43  1   
 43  21  23  ar  
 44  21  44  1   
 45  22  24  ar  
 46  23  24  ar  
 47  23  45  1   
 48  24  46  1   
@<TRIPOS>SUBSTRUCTURE
  1 ****  12 GROUP 4 **** **** 0

# MOE 2024.06 (io_trps.svl 2023.06)
