@<TRIPOS>MOLECULE
NONAME
46 48 1 0 0 
SMALL
USER_CHARGES


@<TRIPOS>ATOM
  1 S       -0.3120     0.1720     0.0350 S.o2  1 <1>   1.2040 
  2 O        0.8380    -0.6020    -0.3690 O.2   1 <1>  -0.6500 
  3 O       -0.1450     1.3250     0.8920 O.2   1 <1>  -0.6500 
  4 C       -1.5730    -0.9250     0.7350 C.ar  1 <1>  -0.0090 
  5 C       -1.1060     0.7430    -1.4540 C.3   1 <1>  -0.1350 
  6 C       -1.8270    -2.1720     0.1800 C.ar  1 <1>  -0.1500 
  7 C       -2.3300    -0.5400     1.8340 C.ar  1 <1>  -0.1500 
  8 C       -2.8080    -3.0320     0.6720 C.ar  1 <1>   0.0860 
  9 C       -3.2990    -1.3740     2.3610 C.ar  1 <1>  -0.1500 
 10 C       -3.0500    -4.3200     0.0420 C.2   1 <1>   0.5440 
 11 C       -3.5300    -2.6090     1.7860 C.ar  1 <1>  -0.1500 
 12 O       -2.0940    -4.9850    -0.3090 O.2   1 <1>  -0.5700 
 13 N       -4.3180    -4.8290    -0.1700 N.am  1 <1>  -0.6600 
 14 C       -5.5420    -3.9840    -0.3760 C.3   1 <1>   0.2200 
 15 C       -4.4970    -6.3140    -0.1710 C.3   1 <1>   0.0600 
 16 C       -6.6570    -4.6940    -1.1530 C.3   1 <1>  -0.1600 
 17 C       -5.2780    -2.7410    -1.2330 C.3   1 <1>  -0.1600 
 18 C       -7.5340    -3.5770    -1.7280 C.3   1 <1>  -0.0800 
 19 C       -6.6480    -2.3250    -1.7830 C.3   1 <1>  -0.0800 
 20 C       -8.7400    -3.2210    -0.8470 C.3   1 <1>  -0.1600 
 21 C       -7.3540    -1.2580    -0.9320 C.3   1 <1>  -0.1600 
 22 C       -8.8080    -1.7030    -0.8940 C.3   1 <1>   0.2000 
 23 O       -9.4300    -1.2170     0.2330 O.3   1 <1>  -0.6800 
 24 H       -1.3280    -0.0830    -2.1020 H     1 <1>   0.0800 
 25 H       -0.4580     1.4200    -1.9760 H     1 <1>   0.0800 
 26 H       -2.0180     1.2570    -1.2200 H     1 <1>   0.0800 
 27 H       -1.2400    -2.5030    -0.6620 H     1 <1>   0.1500 
 28 H       -2.1550     0.4220     2.2900 H     1 <1>   0.1500 
 29 H       -3.8680    -1.0620     3.2210 H     1 <1>   0.1500 
 30 H       -4.2730    -3.2630     2.2080 H     1 <1>   0.1500 
 31 H       -5.9320    -3.6810     0.5800 H     1 <1>   0.0800 
 32 H       -5.3640    -6.5870     0.4040 H     1 <1>   0.0800 
 33 H       -3.6400    -6.7970     0.2680 H     1 <1>   0.0800 
 34 H       -4.6040    -6.6690    -1.1800 H     1 <1>   0.0800 
 35 H       -6.2300    -5.2320    -1.9810 H     1 <1>   0.0800 
 36 H       -7.2190    -5.3710    -0.5350 H     1 <1>   0.0800 
 37 H       -4.8240    -1.9410    -0.6800 H     1 <1>   0.0800 
 38 H       -4.6430    -3.0130    -2.0580 H     1 <1>   0.0800 
 39 H       -7.8740    -3.8340    -2.7180 H     1 <1>   0.0800 
 40 H       -6.5590    -1.9780    -2.7990 H     1 <1>   0.0800 
 41 H       -8.5710    -3.5470     0.1650 H     1 <1>   0.0800 
 42 H       -9.6450    -3.6630    -1.2230 H     1 <1>   0.0800 
 43 H       -7.2590    -0.2800    -1.3690 H     1 <1>   0.0800 
 44 H       -6.9520    -1.2500     0.0660 H     1 <1>   0.0800 
 45 H       -9.3410    -1.3630    -1.7670 H     1 <1>   0.0800 
 46 H       -8.9920    -1.5590     1.0330 H     1 <1>   0.4000 
@<TRIPOS>BOND
  1   1   2  2   
  2   1   3  2   
  3   1   4  1   
  4   1   5  1   
  5   4   6  ar  
  6   4   7  ar  
  7   5  24  1   
  8   5  25  1   
  9   5  26  1   
 10   6   8  ar  
 11   6  27  1   
 12   7   9  ar  
 13   7  28  1   
 14   8  10  1   
 15   8  11  ar  
 16   9  11  ar  
 17   9  29  1   
 18  10  12  2   
 19  10  13  am  
 20  11  30  1   
 21  13  14  1   
 22  13  15  1   
 23  14  16  1   
 24  14  17  1   
 25  14  31  1   
 26  15  32  1   
 27  15  33  1   
 28  15  34  1   
 29  16  18  1   
 30  16  35  1   
 31  16  36  1   
 32  17  19  1   
 33  17  37  1   
 34  17  38  1   
 35  18  19  1   
 36  18  20  1   
 37  18  39  1   
 38  19  21  1   
 39  19  40  1   
 40  20  22  1   
 41  20  41  1   
 42  20  42  1   
 43  21  22  1   
 44  21  43  1   
 45  21  44  1   
 46  22  23  1   
 47  22  45  1   
 48  23  46  1   
@<TRIPOS>SUBSTRUCTURE
  1 ****  17 GROUP 4 **** **** 0

# MOE 2024.06 (io_trps.svl 2023.06)
