@<TRIPOS>MOLECULE
NONAME
43 44 1 0 0 
SMALL
USER_CHARGES


@<TRIPOS>ATOM
  1 CL      -0.3980    -0.2110     1.3490 Cl    1 <1>  -0.1770 
  2 C        0.9180    -1.3200     0.9940 C.ar  1 <1>   0.1770 
  3 C        0.8180    -2.3050     0.0120 C.ar  1 <1>   0.4100 
  4 C        2.0760    -1.2390     1.7160 C.ar  1 <1>   0.1600 
  5 N        1.8210    -3.1480    -0.1820 N.ar  1 <1>  -0.6200 
  6 N       -0.3040    -2.4730    -0.7910 N.pl3 1 <1>  -0.8380 
  7 N        3.0870    -2.0650     1.5110 N.ar  1 <1>  -0.6200 
  8 C        2.8950    -2.9700     0.5670 C.ar  1 <1>   0.4770 
  9 C       -0.6820    -3.8220    -1.2860 C.3   1 <1>   0.2090 
 10 C       -0.7660    -1.3360    -1.6370 C.3   1 <1>   0.1290 
 11 C        4.0460    -3.9150     0.3230 C.3   1 <1>  -0.0960 
 12 C       -1.1110    -4.7150    -0.1100 C.3   1 <1>  -0.0800 
 13 C       -1.2810    -6.1650    -0.5940 C.3   1 <1>   0.3430 
 14 C       -2.3770    -4.1910     0.5950 C.3   1 <1>  -0.1600 
 15 N       -2.3040    -6.9290     0.1980 N.4   1 <1>  -0.9590 
 16 C       -2.7550    -5.0940     1.7840 C.3   1 <1>  -0.1600 
 17 C       -2.2760    -6.5440     1.6390 C.3   1 <1>   0.3430 
 18 C       -2.1500    -8.3900    -0.0140 C.3   1 <1>   0.3430 
 19 C       -3.4300    -9.1070     0.3980 C.3   1 <1>  -0.2400 
 20 H        2.1800    -0.4880     2.4790 H     1 <1>   0.1500 
 21 H        0.1610    -4.2550    -1.8010 H     1 <1>   0.0800 
 22 H       -1.4930    -3.7350    -1.9900 H     1 <1>   0.0800 
 23 H       -0.1810    -0.4540    -1.4390 H     1 <1>   0.0800 
 24 H       -1.7990    -1.1210    -1.4230 H     1 <1>   0.0800 
 25 H       -0.6620    -1.5820    -2.6790 H     1 <1>   0.0800 
 26 H        3.9300    -4.4160    -0.6200 H     1 <1>   0.0800 
 27 H        4.0820    -4.6440     1.1100 H     1 <1>   0.0800 
 28 H        4.9700    -3.3660     0.3120 H     1 <1>   0.0800 
 29 H       -0.3050    -4.7200     0.6020 H     1 <1>   0.0800 
 30 H       -0.3230    -6.6570    -0.5300 H     1 <1>   0.0800 
 31 H       -1.5780    -6.1600    -1.6300 H     1 <1>   0.0800 
 32 H       -3.1900    -4.1600    -0.1100 H     1 <1>   0.0800 
 33 H       -2.2210    -3.1840     0.9480 H     1 <1>   0.0800 
 34 H       -3.2290    -6.6510    -0.1530 H     1 <1>   0.4500 
 35 H       -3.8230    -5.0780     1.9200 H     1 <1>   0.0800 
 36 H       -2.3210    -4.6940     2.6840 H     1 <1>   0.0800 
 37 H       -1.2670    -6.6280     2.0110 H     1 <1>   0.0800 
 38 H       -2.9080    -7.1910     2.2250 H     1 <1>   0.0800 
 39 H       -1.3120    -8.7640     0.5530 H     1 <1>   0.0800 
 40 H       -1.9650    -8.5870    -1.0590 H     1 <1>   0.0800 
 41 H       -3.6120    -9.0170     1.4540 H     1 <1>   0.0800 
 42 H       -3.3320   -10.1540     0.1740 H     1 <1>   0.0800 
 43 H       -4.2750    -8.7290    -0.1500 H     1 <1>   0.0800 
@<TRIPOS>BOND
  1   1   2  1   
  2   2   3  ar  
  3   2   4  ar  
  4   3   5  ar  
  5   3   6  1   
  6   4   7  ar  
  7   4  20  1   
  8   5   8  ar  
  9   6   9  1   
 10   6  10  1   
 11   7   8  ar  
 12   8  11  1   
 13   9  12  1   
 14   9  21  1   
 15   9  22  1   
 16  10  23  1   
 17  10  24  1   
 18  10  25  1   
 19  11  26  1   
 20  11  27  1   
 21  11  28  1   
 22  12  13  1   
 23  12  14  1   
 24  12  29  1   
 25  13  15  1   
 26  13  30  1   
 27  13  31  1   
 28  14  16  1   
 29  14  32  1   
 30  14  33  1   
 31  15  17  1   
 32  15  18  1   
 33  15  34  1   
 34  16  17  1   
 35  16  35  1   
 36  16  36  1   
 37  17  37  1   
 38  17  38  1   
 39  18  19  1   
 40  18  39  1   
 41  18  40  1   
 42  19  41  1   
 43  19  42  1   
 44  19  43  1   
@<TRIPOS>SUBSTRUCTURE
  1 ****  12 GROUP 4 **** **** 0

# MOE 2024.06 (io_trps.svl 2023.06)
