@<TRIPOS>MOLECULE
NONAME
51 54 1 0 0 
SMALL
USER_CHARGES


@<TRIPOS>ATOM
  1 O       -0.4520    -0.1120     1.3960 O.3   1 <1>  -0.5600 
  2 C        0.1680     0.2670     0.2070 C.3   1 <1>   0.1200 
  3 C       -1.7690     0.3520     1.4280 C.3   1 <1>   0.1200 
  4 C       -0.5010     1.5770    -0.1970 C.3   1 <1>   0.2890 
  5 C       -1.9370     1.3000     0.2350 C.3   1 <1>  -0.0800 
  6 N        0.0940     2.6820     0.5990 N.pl3 1 <1>  -0.8690 
  7 C       -2.8070     2.5350     0.5420 C.3   1 <1>  -0.0170 
  8 C        0.5770     3.8720     0.2460 C.ar  1 <1>   0.4100 
  9 C       -4.2360     2.1260     0.8870 C.ar  1 <1>  -0.1430 
 10 N        1.1030     4.5710     1.2500 N.ar  1 <1>  -0.6200 
 11 C        0.5620     4.3820    -1.0570 C.ar  1 <1>  -0.1500 
 12 C       -5.1790     1.7460    -0.0990 C.ar  1 <1>   0.0000 
 13 C       -4.6460     2.1100     2.1880 C.ar  1 <1>  -0.1500 
 14 C        1.6150     5.7370     0.9880 C.ar  1 <1>   0.5280 
 15 C        1.1050     5.6090    -1.2990 C.ar  1 <1>   0.2180 
 16 C       -6.4690     1.3570     0.3400 C.ar  1 <1>   0.3100 
 17 C       -4.9220     1.7310    -1.4900 C.ar  1 <1>  -0.1500 
 18 C       -5.9490     1.7160     2.5140 C.ar  1 <1>   0.1600 
 19 N        1.6340     6.2740    -0.2510 N.ar  1 <1>  -0.1790 
 20 C        2.2270     6.5360     2.1330 C.3   1 <1>  -0.0170 
 21 C        1.1380     6.2470    -2.6780 C.3   1 <1>  -0.0970 
 22 N       -6.8370     1.3470     1.6460 N.ar  1 <1>  -0.6200 
 23 C       -7.4210     0.9620    -0.6130 C.ar  1 <1>  -0.1500 
 24 C       -5.8740     1.3420    -2.3930 C.ar  1 <1>  -0.1500 
 25 C        1.5620     7.9070     2.3440 C.3   1 <1>  -0.2400 
 26 C       -7.1390     0.9500    -1.9510 C.ar  1 <1>  -0.1500 
 27 H        1.2260     0.3720     0.3680 H     1 <1>   0.0800 
 28 H       -0.0210    -0.5010    -0.5220 H     1 <1>   0.0800 
 29 H       -2.4390    -0.4890     1.3670 H     1 <1>   0.0800 
 30 H       -1.9100     0.8590     2.3670 H     1 <1>   0.0800 
 31 H       -0.4130     1.7580    -1.2530 H     1 <1>   0.0800 
 32 H       -2.4090     0.7340    -0.5480 H     1 <1>   0.0800 
 33 H        0.1990     2.4170     1.5860 H     1 <1>   0.4000 
 34 H       -2.8110     3.2070    -0.2960 H     1 <1>   0.0800 
 35 H       -2.3870     3.0760     1.3720 H     1 <1>   0.0800 
 36 H        0.1230     3.8000    -1.8440 H     1 <1>   0.1500 
 37 H       -3.9900     2.3910     2.9910 H     1 <1>   0.1500 
 38 H       -3.9590     2.0320    -1.8530 H     1 <1>   0.1500 
 39 H       -6.2290     1.7180     3.5540 H     1 <1>   0.1500 
 40 H        2.0520     7.1970    -0.3740 H     1 <1>   0.4570 
 41 H        2.1280     5.9650     3.0420 H     1 <1>   0.0800 
 42 H        3.2800     6.6640     1.9550 H     1 <1>   0.0800 
 43 H        0.6820     5.5980    -3.4050 H     1 <1>   0.0800 
 44 H        2.1530     6.4300    -2.9840 H     1 <1>   0.0800 
 45 H        0.5990     7.1780    -2.6750 H     1 <1>   0.0800 
 46 H       -8.3880     0.6670    -0.2500 H     1 <1>   0.1500 
 47 H       -5.6650     1.3330    -3.4490 H     1 <1>   0.1500 
 48 H        0.5070     7.7870     2.5230 H     1 <1>   0.0800 
 49 H        1.7030     8.5550     1.4980 H     1 <1>   0.0800 
 50 H        1.9910     8.3870     3.2070 H     1 <1>   0.0800 
 51 H       -7.8800     0.6450    -2.6700 H     1 <1>   0.1500 
@<TRIPOS>BOND
  1   1   2  1   
  2   1   3  1   
  3   2   4  1   
  4   2  27  1   
  5   2  28  1   
  6   3   5  1   
  7   3  29  1   
  8   3  30  1   
  9   4   5  1   
 10   4   6  1   
 11   4  31  1   
 12   5   7  1   
 13   5  32  1   
 14   6   8  1   
 15   6  33  1   
 16   7   9  1   
 17   7  34  1   
 18   7  35  1   
 19   8  10  ar  
 20   8  11  ar  
 21   9  12  ar  
 22   9  13  ar  
 23  10  14  ar  
 24  11  15  ar  
 25  11  36  1   
 26  12  16  ar  
 27  12  17  ar  
 28  13  18  ar  
 29  13  37  1   
 30  14  19  ar  
 31  14  20  1   
 32  15  19  ar  
 33  15  21  1   
 34  16  22  ar  
 35  16  23  ar  
 36  17  24  ar  
 37  17  38  1   
 38  18  22  ar  
 39  18  39  1   
 40  19  40  1   
 41  20  25  1   
 42  20  41  1   
 43  20  42  1   
 44  21  43  1   
 45  21  44  1   
 46  21  45  1   
 47  23  26  ar  
 48  23  46  1   
 49  24  26  ar  
 50  24  47  1   
 51  25  48  1   
 52  25  49  1   
 53  25  50  1   
 54  26  51  1   
@<TRIPOS>SUBSTRUCTURE
  1 ****   7 GROUP 4 **** **** 0

# MOE 2024.06 (io_trps.svl 2023.06)
