@<TRIPOS>MOLECULE
NONAME
47 49 1 0 0 
SMALL
USER_CHARGES


@<TRIPOS>ATOM
  1 O        0.9830    -0.8220    -0.4860 O.3   1 <1>  -0.3570 
  2 C        0.4460    -2.0640    -0.2440 C.2   1 <1>   0.0910 
  3 C        2.2770    -0.7330    -1.0440 C.3   1 <1>   0.0400 
  4 C        0.6200    -3.1920    -1.1220 C.2   1 <1>   0.5410 
  5 C       -0.2960    -2.2030     0.8890 C.2   1 <1>  -0.0500 
  6 O        1.2570    -3.1620    -2.1770 O.2   1 <1>  -0.5700 
  7 C        0.0030    -4.4060    -0.7280 C.2   1 <1>  -0.1360 
  8 N       -0.8790    -3.4100     1.2220 N.pl3 1 <1>  -0.6000 
  9 C       -0.7330    -4.5130     0.4140 C.2   1 <1>  -0.0380 
 10 C       -1.4050    -5.8140     0.8560 C.3   1 <1>   0.2480 
 11 N       -1.7480    -6.6890    -0.2850 N.3   1 <1>  -0.8100 
 12 C       -2.0540    -8.0560     0.1760 C.3   1 <1>   0.1100 
 13 C       -2.8600    -6.1150    -1.0650 C.3   1 <1>   0.0300 
 14 C       -1.9480    -9.0610    -0.9730 C.3   1 <1>   0.0960 
 15 N       -2.1750   -10.4230    -0.4510 N.pl3 1 <1>   0.0480 
 16 C       -3.4110   -10.9850    -0.2240 C.ar  1 <1>  -0.1520 
 17 C       -1.2240   -11.3190    -0.0310 C.2   1 <1>  -0.3320 
 18 C       -3.2250   -12.2430     0.3390 C.ar  1 <1>   0.0000 
 19 C       -4.7020   -10.4990    -0.4610 C.ar  1 <1>  -0.1500 
 20 C       -1.8330   -12.4290     0.4490 C.2   1 <1>  -0.1500 
 21 C        0.2700   -11.0560    -0.1110 C.3   1 <1>  -0.0600 
 22 C       -4.3320   -13.0300     0.6700 C.ar  1 <1>  -0.1500 
 23 C       -5.7840   -11.2810    -0.1290 C.ar  1 <1>  -0.1500 
 24 C       -5.5990   -12.5480     0.4370 C.ar  1 <1>  -0.1500 
 25 H        2.6560     0.2550    -0.8570 H     1 <1>   0.0800 
 26 H        2.2130    -0.8990    -2.1050 H     1 <1>   0.0800 
 27 H        2.9150    -1.4670    -0.5840 H     1 <1>   0.0800 
 28 H       -0.4460    -1.3700     1.5550 H     1 <1>   0.1500 
 29 H        0.1460    -5.2440    -1.3830 H     1 <1>   0.1500 
 30 H       -1.4330    -3.4720     2.0870 H     1 <1>   0.4000 
 31 H       -2.3000    -5.5920     1.4130 H     1 <1>   0.0800 
 32 H       -0.7230    -6.3250     1.5140 H     1 <1>   0.0800 
 33 H       -3.0390    -8.0900     0.6110 H     1 <1>   0.0800 
 34 H       -1.3400    -8.3460     0.9280 H     1 <1>   0.0800 
 35 H       -2.6190    -5.1150    -1.3810 H     1 <1>   0.0800 
 36 H       -3.7600    -6.0820    -0.4740 H     1 <1>   0.0800 
 37 H       -3.0420    -6.7010    -1.9480 H     1 <1>   0.0800 
 38 H       -0.9710    -9.0090    -1.4150 H     1 <1>   0.0800 
 39 H       -2.6830    -8.8590    -1.7270 H     1 <1>   0.0800 
 40 H       -4.8420    -9.5270    -0.8970 H     1 <1>   0.1500 
 41 H       -1.3800   -13.3160     0.8520 H     1 <1>   0.1500 
 42 H        0.5260   -10.1760     0.4510 H     1 <1>   0.0800 
 43 H        0.5690   -10.9210    -1.1350 H     1 <1>   0.0800 
 44 H        0.8140   -11.8910     0.2950 H     1 <1>   0.0800 
 45 H       -4.1730   -14.0000     1.1040 H     1 <1>   0.1500 
 46 H       -6.7850   -10.9280    -0.3030 H     1 <1>   0.1500 
 47 H       -6.4610   -13.1420     0.6860 H     1 <1>   0.1500 
@<TRIPOS>BOND
  1   1   2  1   
  2   1   3  1   
  3   2   4  1   
  4   2   5  2   
  5   3  25  1   
  6   3  26  1   
  7   3  27  1   
  8   4   6  2   
  9   4   7  1   
 10   5   8  1   
 11   5  28  1   
 12   7   9  2   
 13   7  29  1   
 14   8   9  1   
 15   8  30  1   
 16   9  10  1   
 17  10  11  1   
 18  10  31  1   
 19  10  32  1   
 20  11  12  1   
 21  11  13  1   
 22  12  14  1   
 23  12  33  1   
 24  12  34  1   
 25  13  35  1   
 26  13  36  1   
 27  13  37  1   
 28  14  15  1   
 29  14  38  1   
 30  14  39  1   
 31  15  16  1   
 32  15  17  1   
 33  16  18  ar  
 34  16  19  ar  
 35  17  20  2   
 36  17  21  1   
 37  18  20  1   
 38  18  22  ar  
 39  19  23  ar  
 40  19  40  1   
 41  20  41  1   
 42  21  42  1   
 43  21  43  1   
 44  21  44  1   
 45  22  24  ar  
 46  22  45  1   
 47  23  24  ar  
 48  23  46  1   
 49  24  47  1   
@<TRIPOS>SUBSTRUCTURE
  1 ****  11 GROUP 4 **** **** 0

# MOE 2024.06 (io_trps.svl 2023.06)
