@<TRIPOS>MOLECULE
NONAME
41 43 1 0 0 
SMALL
USER_CHARGES


@<TRIPOS>ATOM
  1 O       -0.3350     0.4190     0.3160 O.co2 1 <1>  -0.9000 
  2 C       -1.2520     1.2590     0.4250 C.2   1 <1>   0.9790 
  3 O       -2.3980     0.8210     0.6700 O.co2 1 <1>  -0.9000 
  4 C       -1.0320     2.7130     0.2940 C.ar  1 <1>   0.1310 
  5 N        0.1300     3.2510    -0.0960 N.ar  1 <1>  -0.6200 
  6 C       -2.0740     3.5780     0.5910 C.ar  1 <1>  -0.1500 
  7 C        0.2230     4.5710    -0.1700 C.ar  1 <1>   0.7200 
  8 C       -1.8840     4.9320     0.4830 C.ar  1 <1>   0.1660 
  9 N       -0.7430     5.4470     0.1070 N.ar  1 <1>  -0.6200 
 10 N        1.4390     5.0930    -0.5670 N.pl3 1 <1>  -0.8380 
 11 C       -3.0020     5.9010     0.8000 C.3   1 <1>  -0.0970 
 12 C        1.5380     6.4650    -1.1400 C.3   1 <1>   0.2090 
 13 C        2.6680     4.2480    -0.5660 C.3   1 <1>   0.2090 
 14 C        1.9130     7.4860    -0.0550 C.3   1 <1>   0.1400 
 15 C        3.9390     5.0300    -0.2110 C.3   1 <1>  -0.1600 
 16 N        3.3410     7.3670     0.3910 N.am  1 <1>  -0.6600 
 17 C        3.7420     6.0350     0.9290 C.3   1 <1>   0.1400 
 18 C        4.2770     8.3670     0.2000 C.2   1 <1>   0.7150 
 19 O        5.4560     8.0560     0.1630 O.2   1 <1>  -0.5700 
 20 C        3.8890     9.7560     0.0640 C.2   1 <1>   0.0550 
 21 O        4.4830    10.5550    -0.8200 O.3   1 <1>  -0.2800 
 22 C        2.9450    10.4850     0.7260 C.2   1 <1>  -0.1500 
 23 C        3.9520    11.7530    -0.7400 C.2   1 <1>  -0.0100 
 24 C        2.9860    11.7780     0.2030 C.2   1 <1>  -0.1500 
 25 H       -3.0190     3.1730     0.9020 H     1 <1>   0.1500 
 26 H       -3.8910     5.3760     1.0980 H     1 <1>   0.0800 
 27 H       -3.2200     6.4930    -0.0690 H     1 <1>   0.0800 
 28 H       -2.6960     6.5520     1.5990 H     1 <1>   0.0800 
 29 H        0.5900     6.7410    -1.5670 H     1 <1>   0.0800 
 30 H        2.2630     6.4870    -1.9340 H     1 <1>   0.0800 
 31 H        2.7770     3.7810    -1.5300 H     1 <1>   0.0800 
 32 H        2.5540     3.4600     0.1610 H     1 <1>   0.0800 
 33 H        1.2590     7.3560     0.7890 H     1 <1>   0.0800 
 34 H        1.7340     8.4640    -0.4630 H     1 <1>   0.0800 
 35 H        4.3300     5.5280    -1.0800 H     1 <1>   0.0800 
 36 H        4.6770     4.3120     0.0940 H     1 <1>   0.0800 
 37 H        4.6680     6.1380     1.4710 H     1 <1>   0.0800 
 38 H        2.9970     5.6790     1.6210 H     1 <1>   0.0800 
 39 H        2.2900    10.1490     1.5100 H     1 <1>   0.1500 
 40 H        4.3180    12.5310    -1.3870 H     1 <1>   0.1500 
 41 H        2.3690    12.6050     0.5090 H     1 <1>   0.1500 
@<TRIPOS>BOND
  1   1   2  ar  
  2   2   3  ar  
  3   2   4  1   
  4   4   5  ar  
  5   4   6  ar  
  6   5   7  ar  
  7   6   8  ar  
  8   6  25  1   
  9   7   9  ar  
 10   7  10  1   
 11   8   9  ar  
 12   8  11  1   
 13  10  12  1   
 14  10  13  1   
 15  11  26  1   
 16  11  27  1   
 17  11  28  1   
 18  12  14  1   
 19  12  29  1   
 20  12  30  1   
 21  13  15  1   
 22  13  31  1   
 23  13  32  1   
 24  14  16  1   
 25  14  33  1   
 26  14  34  1   
 27  15  17  1   
 28  15  35  1   
 29  15  36  1   
 30  16  17  1   
 31  16  18  am  
 32  17  37  1   
 33  17  38  1   
 34  18  19  2   
 35  18  20  1   
 36  20  21  1   
 37  20  22  2   
 38  21  23  1   
 39  22  24  1   
 40  22  39  1   
 41  23  24  2   
 42  23  40  1   
 43  24  41  1   
@<TRIPOS>SUBSTRUCTURE
  1 ****  10 GROUP 4 **** **** 0

# MOE 2024.06 (io_trps.svl 2023.06)
