@<TRIPOS>MOLECULE
NONAME
54 57 1 0 0 
SMALL
USER_CHARGES


@<TRIPOS>ATOM
  1 O        0.6100     0.0580     0.2070 O.3   1 <1>  -0.6800 
  2 C        1.8510    -0.1020    -0.3940 C.3   1 <1>   0.2000 
  3 C        2.5170    -1.3860     0.0890 C.3   1 <1>  -0.0800 
  4 C        2.8170     1.0090     0.0180 C.3   1 <1>   0.2090 
  5 C        4.0110    -1.1080    -0.0860 C.3   1 <1>   0.2090 
  6 C        2.0450    -2.6510    -0.6470 C.3   1 <1>  -0.0170 
  7 N        4.1640     0.3640     0.0570 N.pl3 1 <1>  -0.8380 
  8 C        2.8380    -3.8680    -0.2010 C.ar  1 <1>   0.1660 
  9 C        5.3180     1.0370     0.2280 C.ar  1 <1>   0.4100 
 10 N        3.9220    -4.1470    -0.8590 N.ar  1 <1>  -0.6200 
 11 C        2.3780    -4.6150     0.8950 C.ar  1 <1>  -0.1500 
 12 N        5.2370     2.3650     0.3840 N.ar  1 <1>  -0.6200 
 13 C        6.5650     0.4000     0.2460 C.ar  1 <1>  -0.1500 
 14 C        4.6390    -5.2320    -0.4650 C.ar  1 <1>   0.3100 
 15 C        3.0840    -5.7000     1.3190 C.ar  1 <1>  -0.1500 
 16 C        6.3330     3.0380     0.5600 C.ar  1 <1>   0.5280 
 17 C        7.6970     1.1360     0.4330 C.ar  1 <1>   0.2180 
 18 C        4.2610    -6.0380     0.6310 C.ar  1 <1>   0.0000 
 19 C        5.8060    -5.5680    -1.1700 C.ar  1 <1>  -0.1500 
 20 N        7.5550     2.4670     0.5910 N.ar  1 <1>  -0.1790 
 21 C        6.2340     4.5460     0.7390 C.3   1 <1>  -0.0170 
 22 C        9.0870     0.5250     0.4680 C.3   1 <1>  -0.0970 
 23 C        5.0700    -7.1360     0.9850 C.ar  1 <1>  -0.1500 
 24 C        6.5770    -6.6420    -0.8120 C.ar  1 <1>  -0.1500 
 25 C        6.7890     5.3190    -0.4700 C.3   1 <1>  -0.1600 
 26 C        6.2050    -7.4320     0.2800 C.ar  1 <1>  -0.1500 
 27 C        6.6620     6.8320    -0.2660 C.3   1 <1>  -0.2400 
 28 H       -0.0190    -0.6160    -0.1120 H     1 <1>   0.4000 
 29 H        1.7270    -0.0940    -1.4640 H     1 <1>   0.0800 
 30 H        2.3390    -1.4960     1.1450 H     1 <1>   0.0800 
 31 H        2.5720     1.3730     1.0010 H     1 <1>   0.0800 
 32 H        2.8010     1.8170    -0.6920 H     1 <1>   0.0800 
 33 H        4.3360    -1.4020    -1.0710 H     1 <1>   0.0800 
 34 H        4.5850    -1.6390     0.6550 H     1 <1>   0.0800 
 35 H        2.1690    -2.5260    -1.7080 H     1 <1>   0.0800 
 36 H        1.0000    -2.8140    -0.4580 H     1 <1>   0.0800 
 37 H        1.4720    -4.3200     1.3920 H     1 <1>   0.1500 
 38 H        6.6120    -0.6630     0.1120 H     1 <1>   0.1500 
 39 H        2.7650    -6.2960     2.1560 H     1 <1>   0.1500 
 40 H        6.0730    -4.9510    -2.0080 H     1 <1>   0.1500 
 41 H        8.3690     3.0640     0.7320 H     1 <1>   0.4570 
 42 H        5.1980     4.8100     0.8750 H     1 <1>   0.0800 
 43 H        6.7540     4.8350     1.6350 H     1 <1>   0.0800 
 44 H        9.0330    -0.5400     0.3230 H     1 <1>   0.0800 
 45 H        9.5560     0.7090     1.4190 H     1 <1>   0.0800 
 46 H        9.7000     0.9370    -0.3140 H     1 <1>   0.0800 
 47 H        4.7770    -7.7420     1.8240 H     1 <1>   0.1500 
 48 H        7.4690    -6.8900    -1.3610 H     1 <1>   0.1500 
 49 H        7.8250     5.0780    -0.6340 H     1 <1>   0.0800 
 50 H        6.2380     5.0400    -1.3540 H     1 <1>   0.0800 
 51 H        6.8210    -8.2730     0.5520 H     1 <1>   0.1500 
 52 H        7.2180     7.1530     0.5980 H     1 <1>   0.0800 
 53 H        5.6300     7.1120    -0.1360 H     1 <1>   0.0800 
 54 H        7.0450     7.3530    -1.1270 H     1 <1>   0.0800 
@<TRIPOS>BOND
  1   1   2  1   
  2   1  28  1   
  3   2   3  1   
  4   2   4  1   
  5   2  29  1   
  6   3   5  1   
  7   3   6  1   
  8   3  30  1   
  9   4   7  1   
 10   4  31  1   
 11   4  32  1   
 12   5   7  1   
 13   5  33  1   
 14   5  34  1   
 15   6   8  1   
 16   6  35  1   
 17   6  36  1   
 18   7   9  1   
 19   8  10  ar  
 20   8  11  ar  
 21   9  12  ar  
 22   9  13  ar  
 23  10  14  ar  
 24  11  15  ar  
 25  11  37  1   
 26  12  16  ar  
 27  13  17  ar  
 28  13  38  1   
 29  14  18  ar  
 30  14  19  ar  
 31  15  18  ar  
 32  15  39  1   
 33  16  20  ar  
 34  16  21  1   
 35  17  20  ar  
 36  17  22  1   
 37  18  23  ar  
 38  19  24  ar  
 39  19  40  1   
 40  20  41  1   
 41  21  25  1   
 42  21  42  1   
 43  21  43  1   
 44  22  44  1   
 45  22  45  1   
 46  22  46  1   
 47  23  26  ar  
 48  23  47  1   
 49  24  26  ar  
 50  24  48  1   
 51  25  27  1   
 52  25  49  1   
 53  25  50  1   
 54  26  51  1   
 55  27  52  1   
 56  27  53  1   
 57  27  54  1   
@<TRIPOS>SUBSTRUCTURE
  1 ****   5 GROUP 4 **** **** 0

# MOE 2024.06 (io_trps.svl 2023.06)
