@<TRIPOS>MOLECULE
NONAME
55 59 1 0 0 
SMALL
USER_CHARGES


@<TRIPOS>ATOM
  1 O       -0.6760     0.3160     0.5600 O.2   1 <1>  -0.5700 
  2 C       -1.7130     0.9400     0.6770 C.2   1 <1>   0.5440 
  3 N       -2.8480     0.2700     1.0710 N.am  1 <1>  -0.6600 
  4 C       -1.7190     2.3670     0.4180 C.ar  1 <1>   0.0860 
  5 C       -4.1770     0.8620     1.3230 C.3   1 <1>   0.1400 
  6 C       -2.9360    -1.1970     1.1830 C.3   1 <1>   0.1400 
  7 C       -2.4650     2.9220    -0.6220 C.ar  1 <1>  -0.1500 
  8 C       -0.9680     3.2370     1.2040 C.ar  1 <1>  -0.1500 
  9 C       -5.1730    -0.2250     0.9050 C.3   1 <1>  -0.0800 
 10 C       -4.3600    -1.5350     0.7320 C.3   1 <1>  -0.0800 
 11 C       -2.4760     4.2840    -0.8540 C.ar  1 <1>  -0.1500 
 12 C       -0.9730     4.6010     0.9780 C.ar  1 <1>  -0.1500 
 13 C       -6.0440     0.1860    -0.3080 C.3   1 <1>   0.4240 
 14 C       -4.3630    -2.1000    -0.7020 C.3   1 <1>  -0.1600 
 15 C       -1.7310     5.1350    -0.0530 C.ar  1 <1>  -0.1440 
 16 O       -5.2160     0.6620    -1.3110 O.3   1 <1>  -0.6800 
 17 C       -7.0550     1.2860     0.0850 C.ar  1 <1>  -0.1440 
 18 C       -6.7350    -1.0600    -0.8850 C.3   1 <1>  -0.1600 
 19 C       -5.7720    -2.1890    -1.3180 C.3   1 <1>  -0.1600 
 20 C       -1.7380     6.6370    -0.3080 C.3   1 <1>   0.2390 
 21 C       -8.0720     1.0020     0.9920 C.ar  1 <1>  -0.1500 
 22 C       -6.9880     2.5790    -0.4300 C.ar  1 <1>  -0.1500 
 23 N       -0.6810     7.0410    -1.2560 N.pl3 1 <1>   0.3140 
 24 C       -8.9870     1.9680     1.3710 C.ar  1 <1>  -0.1500 
 25 C       -7.9010     3.5480    -0.0530 C.ar  1 <1>  -0.1500 
 26 N       -0.5190     8.2890    -1.6390 N.2   1 <1>  -0.4180 
 27 C        0.2420     6.3200    -1.8660 C.2   1 <1>   0.0360 
 28 C       -8.9030     3.2450     0.8490 C.ar  1 <1>  -0.1500 
 29 N        0.4750     8.2940    -2.4540 N.2   1 <1>   0.0000 
 30 N        0.9640     7.0680    -2.6080 N.2   1 <1>  -0.3380 
 31 H       -4.2740     1.0660     2.3750 H     1 <1>   0.0800 
 32 H       -4.3240     1.7780     0.7800 H     1 <1>   0.0800 
 33 H       -2.1880    -1.6820     0.5780 H     1 <1>   0.0800 
 34 H       -2.7900    -1.4750     2.2130 H     1 <1>   0.0800 
 35 H       -3.0440     2.2680    -1.2520 H     1 <1>   0.1500 
 36 H       -0.3730     2.8240     2.0020 H     1 <1>   0.1500 
 37 H       -5.8360    -0.3750     1.7370 H     1 <1>   0.0800 
 38 H       -4.7600    -2.2930     1.3830 H     1 <1>   0.0800 
 39 H       -3.0700     4.6720    -1.6660 H     1 <1>   0.1500 
 40 H       -0.3790     5.2400     1.6110 H     1 <1>   0.1500 
 41 H       -3.7390    -1.4840    -1.3260 H     1 <1>   0.0800 
 42 H       -3.9160    -3.0800    -0.7020 H     1 <1>   0.0800 
 43 H       -4.5850    -0.0510    -1.5180 H     1 <1>   0.4000 
 44 H       -7.3890    -1.4600    -0.1320 H     1 <1>   0.0800 
 45 H       -7.3590    -0.7680    -1.7120 H     1 <1>   0.0800 
 46 H       -6.2150    -3.1340    -1.0500 H     1 <1>   0.0800 
 47 H       -5.6760    -2.1800    -2.3900 H     1 <1>   0.0800 
 48 H       -1.5840     7.1700     0.6130 H     1 <1>   0.0800 
 49 H       -2.6860     6.9380    -0.7140 H     1 <1>   0.0800 
 50 H       -8.1660     0.0200     1.4190 H     1 <1>   0.1500 
 51 H       -6.2230     2.8500    -1.1360 H     1 <1>   0.1500 
 52 H       -9.7670     1.7280     2.0730 H     1 <1>   0.1500 
 53 H       -7.8330     4.5390    -0.4660 H     1 <1>   0.1500 
 54 H        0.3550     5.2580    -1.7450 H     1 <1>   0.1500 
 55 H       -9.6140     3.9970     1.1410 H     1 <1>   0.1500 
@<TRIPOS>BOND
  1   1   2  2   
  2   2   3  am  
  3   2   4  1   
  4   3   5  1   
  5   3   6  1   
  6   4   7  ar  
  7   4   8  ar  
  8   5   9  1   
  9   5  31  1   
 10   5  32  1   
 11   6  10  1   
 12   6  33  1   
 13   6  34  1   
 14   7  11  ar  
 15   7  35  1   
 16   8  12  ar  
 17   8  36  1   
 18   9  10  1   
 19   9  13  1   
 20   9  37  1   
 21  10  14  1   
 22  10  38  1   
 23  11  15  ar  
 24  11  39  1   
 25  12  15  ar  
 26  12  40  1   
 27  13  16  1   
 28  13  17  1   
 29  13  18  1   
 30  14  19  1   
 31  14  41  1   
 32  14  42  1   
 33  15  20  1   
 34  16  43  1   
 35  17  21  ar  
 36  17  22  ar  
 37  18  19  1   
 38  18  44  1   
 39  18  45  1   
 40  19  46  1   
 41  19  47  1   
 42  20  23  1   
 43  20  48  1   
 44  20  49  1   
 45  21  24  ar  
 46  21  50  1   
 47  22  25  ar  
 48  22  51  1   
 49  23  26  1   
 50  23  27  1   
 51  24  28  ar  
 52  24  52  1   
 53  25  28  ar  
 54  25  53  1   
 55  26  29  2   
 56  27  30  2   
 57  27  54  1   
 58  28  55  1   
 59  29  30  1   
@<TRIPOS>SUBSTRUCTURE
  1 ****   7 GROUP 4 **** **** 0

# MOE 2024.06 (io_trps.svl 2023.06)
