@<TRIPOS>MOLECULE
NONAME
42 43 1 0 0 
SMALL
USER_CHARGES


@<TRIPOS>ATOM
  1 S        0.4270     0.7580     0.5690 S.3   1 <1>  -0.3310 
  2 C        0.0810     2.4930     0.2390 C.ar  1 <1>   0.1020 
  3 C       -1.1250    -0.1750     0.2010 C.3   1 <1>  -0.0100 
  4 C        1.1010     3.3860     0.5020 C.ar  1 <1>  -0.1500 
  5 C       -1.1370     2.9280    -0.2570 C.ar  1 <1>  -0.1500 
  6 C        0.9150     4.7400     0.2600 C.ar  1 <1>  -0.1430 
  7 C       -1.3270     4.2790    -0.4880 C.ar  1 <1>  -0.1500 
  8 C       -0.3070     5.1810    -0.2310 C.ar  1 <1>  -0.1500 
  9 C        2.0390     5.7210     0.5240 C.3   1 <1>   0.4860 
 10 N        3.0980     5.5150    -0.5060 N.4   1 <1>  -0.9590 
 11 C        4.3680     6.2390    -0.1720 C.3   1 <1>   0.4810 
 12 C        2.5860     5.8810    -1.8670 C.3   1 <1>   0.2630 
 13 C        4.1160     7.7340     0.0380 C.2   1 <1>  -0.0380 
 14 N        3.7820     8.1950     1.2950 N.pl3 1 <1>  -0.6000 
 15 C        4.2100     8.6220    -0.9910 C.2   1 <1>  -0.1360 
 16 C        3.5190     9.5360     1.5050 C.2   1 <1>  -0.0500 
 17 C        3.9430    10.0060    -0.8280 C.2   1 <1>   0.5410 
 18 C        3.5880    10.4460     0.4940 C.2   1 <1>   0.0910 
 19 O        4.0060    10.7270    -1.8220 O.2   1 <1>  -0.5700 
 20 O        3.2930    11.7480     0.8140 O.3   1 <1>  -0.3570 
 21 C        3.9750    12.7990     0.1600 C.3   1 <1>   0.0400 
 22 H       -0.9380    -1.2120     0.4180 H     1 <1>   0.0800 
 23 H       -1.3570    -0.0410    -0.8400 H     1 <1>   0.0800 
 24 H       -1.9040     0.2110     0.8320 H     1 <1>   0.0800 
 25 H        2.0240     3.0010     0.8970 H     1 <1>   0.1500 
 26 H       -1.9340     2.2400    -0.4620 H     1 <1>   0.1500 
 27 H       -2.2730     4.6270    -0.8680 H     1 <1>   0.1500 
 28 H       -0.4840     6.2280    -0.4170 H     1 <1>   0.1500 
 29 H        2.4370     5.5420     1.5090 H     1 <1>   0.0800 
 30 H        1.6690     6.7330     0.4830 H     1 <1>   0.0800 
 31 H        3.2880     4.5040    -0.5160 H     1 <1>   0.4500 
 32 H        5.0750     6.1100    -0.9760 H     1 <1>   0.0800 
 33 H        4.8070     5.8260     0.7210 H     1 <1>   0.0800 
 34 H        2.3040     6.9220    -1.8960 H     1 <1>   0.0800 
 35 H        1.7210     5.2860    -2.1130 H     1 <1>   0.0800 
 36 H        3.3420     5.7060    -2.6150 H     1 <1>   0.0800 
 37 H        3.8030     7.5920     2.1310 H     1 <1>   0.4000 
 38 H        4.4850     8.3280    -1.9860 H     1 <1>   0.1500 
 39 H        3.2600     9.8520     2.5040 H     1 <1>   0.1500 
 40 H        3.8420    13.6960     0.7370 H     1 <1>   0.0800 
 41 H        3.5510    12.9370    -0.8200 H     1 <1>   0.0800 
 42 H        5.0210    12.5580     0.0900 H     1 <1>   0.0800 
@<TRIPOS>BOND
  1   1   2  1   
  2   1   3  1   
  3   2   4  ar  
  4   2   5  ar  
  5   3  22  1   
  6   3  23  1   
  7   3  24  1   
  8   4   6  ar  
  9   4  25  1   
 10   5   7  ar  
 11   5  26  1   
 12   6   8  ar  
 13   6   9  1   
 14   7   8  ar  
 15   7  27  1   
 16   8  28  1   
 17   9  10  1   
 18   9  29  1   
 19   9  30  1   
 20  10  11  1   
 21  10  12  1   
 22  10  31  1   
 23  11  13  1   
 24  11  32  1   
 25  11  33  1   
 26  12  34  1   
 27  12  35  1   
 28  12  36  1   
 29  13  14  1   
 30  13  15  2   
 31  14  16  1   
 32  14  37  1   
 33  15  17  1   
 34  15  38  1   
 35  16  18  2   
 36  16  39  1   
 37  17  18  1   
 38  17  19  2   
 39  18  20  1   
 40  20  21  1   
 41  21  40  1   
 42  21  41  1   
 43  21  42  1   
@<TRIPOS>SUBSTRUCTURE
  1 ****   9 GROUP 4 **** **** 0

# MOE 2024.06 (io_trps.svl 2023.06)
