@<TRIPOS>MOLECULE
NONAME
45 47 1 0 0 
SMALL
USER_CHARGES


@<TRIPOS>ATOM
  1 S        0.0850    -0.3090     1.4720 S.o2  1 <1>   1.5010 
  2 O       -0.6640     0.6300     2.2750 O.2   1 <1>  -0.6500 
  3 O        0.8300    -1.3660     2.1230 O.2   1 <1>  -0.6500 
  4 N       -1.0200    -1.0860     0.4460 N.am  1 <1>  -0.8490 
  5 C        1.1690     0.5740     0.3410 C.2   1 <1>  -0.0630 
  6 C       -1.8280    -2.0700     1.1890 C.3   1 <1>   0.1960 
  7 C       -1.8980    -0.1420    -0.2620 C.3   1 <1>   0.1960 
  8 C        1.2780     1.9570     0.2920 C.2   1 <1>   0.1390 
  9 C        2.0250     0.1500    -0.6230 C.2   1 <1>  -0.3020 
 10 C       -2.6860    -2.9140     0.2120 C.3   1 <1>   0.4230 
 11 C       -2.7560    -0.9120    -1.2770 C.3   1 <1>  -0.1600 
 12 N        2.1180     2.3640    -0.6120 N.2   1 <1>  -0.7070 
 13 N        2.5830     1.2410    -1.1780 N.pl3 1 <1>   0.3140 
 14 N       -3.4640    -4.0350     0.8480 N.4   1 <1>  -0.9590 
 15 C       -3.6300    -1.9930    -0.5840 C.3   1 <1>  -0.1060 
 16 C        3.5810     1.2800    -2.2520 C.3   1 <1>   0.0160 
 17 C       -4.1490    -4.8810    -0.1630 C.3   1 <1>   0.3430 
 18 C       -2.7330    -4.8350     1.8670 C.3   1 <1>   0.2630 
 19 C       -4.6280    -1.3360     0.3890 C.2   1 <1>   0.9060 
 20 C       -4.3740    -2.8220    -1.6570 C.3   1 <1>  -0.1600 
 21 C       -5.0840    -4.0330    -1.0310 C.3   1 <1>  -0.1600 
 22 O       -5.0690    -0.2180     0.1350 O.co2 1 <1>  -0.9000 
 23 O       -4.9600    -1.9510     1.4150 O.co2 1 <1>  -0.9000 
 24 H       -1.1630    -2.7270     1.7190 H     1 <1>   0.0800 
 25 H       -2.4530    -1.5630     1.9080 H     1 <1>   0.0800 
 26 H       -2.5280     0.3880     0.4370 H     1 <1>   0.0800 
 27 H       -1.3070     0.5870    -0.7910 H     1 <1>   0.0800 
 28 H        0.7270     2.6270     0.9340 H     1 <1>   0.1500 
 29 H        2.2560    -0.8540    -0.9270 H     1 <1>   0.1500 
 30 H       -1.9960    -3.3540    -0.4870 H     1 <1>   0.0800 
 31 H       -3.3910    -0.2110    -1.7910 H     1 <1>   0.0800 
 32 H       -2.1080    -1.3570    -2.0110 H     1 <1>   0.0800 
 33 H       -4.2280    -3.4880     1.3330 H     1 <1>   0.4500 
 34 H        3.7020     0.3000    -2.6720 H     1 <1>   0.0800 
 35 H        4.5150     1.6220    -1.8460 H     1 <1>   0.0800 
 36 H        3.2490     1.9640    -3.0110 H     1 <1>   0.0800 
 37 H       -3.4150    -5.3600    -0.7890 H     1 <1>   0.0800 
 38 H       -4.7270    -5.6440     0.3320 H     1 <1>   0.0800 
 39 H       -1.8860    -5.3270     1.4190 H     1 <1>   0.0800 
 40 H       -3.3880    -5.5790     2.2900 H     1 <1>   0.0800 
 41 H       -2.3890    -4.1970     2.6640 H     1 <1>   0.0800 
 42 H       -5.1000    -2.1950    -2.1500 H     1 <1>   0.0800 
 43 H       -3.6770    -3.1670    -2.4010 H     1 <1>   0.0800 
 44 H       -5.4960    -4.6470    -1.8120 H     1 <1>   0.0800 
 45 H       -5.9100    -3.6960    -0.4270 H     1 <1>   0.0800 
@<TRIPOS>BOND
  1   1   2  2   
  2   1   3  2   
  3   1   4  am  
  4   1   5  1   
  5   4   6  1   
  6   4   7  1   
  7   5   8  1   
  8   5   9  2   
  9   6  10  1   
 10   6  24  1   
 11   6  25  1   
 12   7  11  1   
 13   7  26  1   
 14   7  27  1   
 15   8  12  2   
 16   8  28  1   
 17   9  13  1   
 18   9  29  1   
 19  10  14  1   
 20  10  15  1   
 21  10  30  1   
 22  11  15  1   
 23  11  31  1   
 24  11  32  1   
 25  12  13  1   
 26  13  16  1   
 27  14  17  1   
 28  14  18  1   
 29  14  33  1   
 30  15  19  1   
 31  15  20  1   
 32  16  34  1   
 33  16  35  1   
 34  16  36  1   
 35  17  21  1   
 36  17  37  1   
 37  17  38  1   
 38  18  39  1   
 39  18  40  1   
 40  18  41  1   
 41  19  22  ar  
 42  19  23  ar  
 43  20  21  1   
 44  20  42  1   
 45  20  43  1   
 46  21  44  1   
 47  21  45  1   
@<TRIPOS>SUBSTRUCTURE
  1 ****   4 GROUP 4 **** **** 0

# MOE 2024.06 (io_trps.svl 2023.06)
