@<TRIPOS>MOLECULE
NONAME
54 58 1 0 0 
SMALL
USER_CHARGES


@<TRIPOS>ATOM
  1 O        0.0900     1.0940     0.0150 O.2   1 <1>  -0.5700 
  2 C       -0.7380     1.8740     0.4300 C.2   1 <1>   0.5690 
  3 N       -2.0520     1.8290     0.0380 N.am  1 <1>  -0.6600 
  4 C       -0.2170     2.9210     1.4260 C.3   1 <1>   0.4040 
  5 C       -3.1460     2.7330     0.5320 C.3   1 <1>   0.1400 
  6 C       -2.5460     0.7420    -0.8650 C.3   1 <1>   0.1400 
  7 N        1.2790     3.0700     1.3490 N.4   1 <1>  -0.7990 
  8 C       -3.9290     3.3690    -0.6350 C.3   1 <1>   0.1430 
  9 C       -3.3170     1.3390    -2.0470 C.3   1 <1>  -0.1600 
 10 C        1.7010     3.8680     0.1940 C.3   1 <1>   0.2960 
 11 C       -5.0610     4.1950    -0.0550 C.ar  1 <1>   0.1670 
 12 C       -4.4530     2.2620    -1.5740 C.3   1 <1>  -0.1600 
 13 C       -3.0880     4.4260    -1.4070 C.3   1 <1>  -0.1600 
 14 C        3.0160     4.5600     0.2740 C.3   1 <1>  -0.2000 
 15 C        1.7410     5.3500     0.3390 C.3   1 <1>  -0.2000 
 16 N       -6.0900     3.7070     0.5950 N.ar  1 <1>  -0.6200 
 17 C       -4.8820     5.5260    -0.2650 C.ar  1 <1>  -0.1440 
 18 C       -3.6040     5.8210    -1.0060 C.3   1 <1>  -0.0170 
 19 C       -6.9900     4.6020     1.0260 C.ar  1 <1>   0.6200 
 20 C       -5.8420     6.3810     0.2130 C.ar  1 <1>   0.1600 
 21 N       -6.8940     5.9290     0.8560 N.ar  1 <1>  -0.6200 
 22 C       -8.1590     4.0940     1.7360 C.ar  1 <1>   0.0000 
 23 C       -9.3620     4.8070     1.7730 C.ar  1 <1>  -0.1500 
 24 C       -8.1350     2.8710     2.4140 C.ar  1 <1>  -0.1500 
 25 C      -10.4730     4.3300     2.4450 C.ar  1 <1>  -0.1500 
 26 C       -9.2410     2.3870     3.0880 C.ar  1 <1>  -0.1500 
 27 C      -10.4150     3.1170     3.1050 C.ar  1 <1>  -0.1500 
 28 H       -0.4960     2.5980     2.4140 H     1 <1>   0.0800 
 29 H       -0.6890     3.8680     1.2300 H     1 <1>   0.0800 
 30 H       -2.7620     3.5120     1.1640 H     1 <1>   0.0800 
 31 H       -3.8320     2.1460     1.1220 H     1 <1>   0.0800 
 32 H       -3.1950     0.0900    -0.3040 H     1 <1>   0.0800 
 33 H       -1.7280     0.1490    -1.2390 H     1 <1>   0.0800 
 34 H        1.6470     2.1140     1.2070 H     1 <1>   0.4500 
 35 H        1.6790     3.4490     2.2120 H     1 <1>   0.4500 
 36 H       -3.7310     0.5380    -2.6340 H     1 <1>   0.0800 
 37 H       -2.6330     1.8780    -2.6780 H     1 <1>   0.0800 
 38 H        1.4110     3.4420    -0.7570 H     1 <1>   0.1000 
 39 H       -4.9540     2.6990    -2.4210 H     1 <1>   0.0800 
 40 H       -5.1820     1.6710    -1.0460 H     1 <1>   0.0800 
 41 H       -3.2410     4.3090    -2.4660 H     1 <1>   0.0800 
 42 H       -2.0350     4.3290    -1.2150 H     1 <1>   0.0800 
 43 H        3.6140     4.6470    -0.6190 H     1 <1>   0.1000 
 44 H        3.6200     4.4820     1.1610 H     1 <1>   0.1000 
 45 H        1.4850     5.8190     1.2730 H     1 <1>   0.1000 
 46 H        1.5010     5.9690    -0.5100 H     1 <1>   0.1000 
 47 H       -3.7920     6.4330    -1.8720 H     1 <1>   0.0800 
 48 H       -2.9100     6.3200    -0.3530 H     1 <1>   0.0800 
 49 H       -5.7490     7.4440     0.0700 H     1 <1>   0.1500 
 50 H       -9.4280     5.7530     1.2650 H     1 <1>   0.1500 
 51 H       -7.2320     2.2850     2.4140 H     1 <1>   0.1500 
 52 H      -11.3830     4.9050     2.4540 H     1 <1>   0.1500 
 53 H       -9.1900     1.4420     3.5990 H     1 <1>   0.1500 
 54 H      -11.2780     2.7440     3.6290 H     1 <1>   0.1500 
@<TRIPOS>BOND
  1   1   2  2   
  2   2   3  am  
  3   2   4  1   
  4   3   5  1   
  5   3   6  1   
  6   4   7  1   
  7   4  28  1   
  8   4  29  1   
  9   5   8  1   
 10   5  30  1   
 11   5  31  1   
 12   6   9  1   
 13   6  32  1   
 14   6  33  1   
 15   7  10  1   
 16   7  34  1   
 17   7  35  1   
 18   8  11  1   
 19   8  12  1   
 20   8  13  1   
 21   9  12  1   
 22   9  36  1   
 23   9  37  1   
 24  10  14  1   
 25  10  15  1   
 26  10  38  1   
 27  11  16  ar  
 28  11  17  ar  
 29  12  39  1   
 30  12  40  1   
 31  13  18  1   
 32  13  41  1   
 33  13  42  1   
 34  14  15  1   
 35  14  43  1   
 36  14  44  1   
 37  15  45  1   
 38  15  46  1   
 39  16  19  ar  
 40  17  18  1   
 41  17  20  ar  
 42  18  47  1   
 43  18  48  1   
 44  19  21  ar  
 45  19  22  1   
 46  20  21  ar  
 47  20  49  1   
 48  22  23  ar  
 49  22  24  ar  
 50  23  25  ar  
 51  23  50  1   
 52  24  26  ar  
 53  24  51  1   
 54  25  27  ar  
 55  25  52  1   
 56  26  27  ar  
 57  26  53  1   
 58  27  54  1   
@<TRIPOS>SUBSTRUCTURE
  1 ****   8 GROUP 4 **** **** 0

# MOE 2024.06 (io_trps.svl 2023.06)
