@<TRIPOS>MOLECULE
NONAME
60 62 1 0 0 
SMALL
USER_CHARGES


@<TRIPOS>ATOM
  1 O       -0.6170     0.9630    -1.6120 O.2   1 <1>  -0.5700 
  2 C       -0.5140     2.1190    -1.2620 C.2   1 <1>   0.5440 
  3 N        0.6550     2.7370    -1.5890 N.am  1 <1>  -0.7300 
  4 C       -1.5980     2.7760    -0.5540 C.ar  1 <1>   0.0860 
  5 C        0.9060     4.1980    -1.7000 C.3   1 <1>   0.1400 
  6 C       -2.9190     2.6240    -0.9690 C.ar  1 <1>  -0.1500 
  7 C       -1.3690     3.5700     0.5680 C.ar  1 <1>  -0.1500 
  8 C        2.0760     4.6250    -0.8050 C.3   1 <1>   0.1400 
  9 C       -3.9620     3.2480    -0.3100 C.ar  1 <1>   0.0830 
 10 C       -2.3950     4.2100     1.2400 C.ar  1 <1>   0.0830 
 11 N        1.9770     6.0830    -0.5030 N.am  1 <1>  -0.6600 
 12 O       -5.2150     3.0370    -0.7800 O.3   1 <1>  -0.3630 
 13 C       -3.7150     4.0740     0.7910 C.ar  1 <1>   0.0830 
 14 O       -2.0180     4.9670     2.3060 O.3   1 <1>  -0.3630 
 15 C        2.2120     7.0030    -1.4990 C.2   1 <1>   0.5690 
 16 C        1.5020     6.3920     0.8800 C.3   1 <1>   0.0600 
 17 C       -6.0340     2.2020     0.0070 C.3   1 <1>   0.0400 
 18 O       -4.7370     4.7430     1.3950 O.3   1 <1>  -0.3630 
 19 C       -2.7680     4.8980     3.5000 C.3   1 <1>   0.0400 
 20 O        2.7030     6.6760    -2.5530 O.2   1 <1>  -0.5700 
 21 C        1.7840     8.4570    -1.3520 C.3   1 <1>  -0.0990 
 22 C       -5.3370     5.8070     0.6820 C.3   1 <1>   0.1200 
 23 C        0.2510     8.5550    -1.4080 C.3   1 <1>  -0.1600 
 24 C       -4.4050     7.0200     0.7310 C.3   1 <1>  -0.1600 
 25 C       -0.3220     9.9480    -1.1000 C.3   1 <1>   0.0210 
 26 C       -4.8790     8.1730    -0.1700 C.3   1 <1>   0.0960 
 27 C       -1.7950     9.8240    -0.7410 C.2   1 <1>   0.0460 
 28 N       -3.7590     9.1080    -0.3880 N.pl3 1 <1>   0.3140 
 29 N       -2.4400    10.7360    -0.0050 N.2   1 <1>  -0.2270 
 30 C       -2.6260     8.8100    -1.0170 C.2   1 <1>  -0.3020 
 31 N       -3.6300    10.2910     0.2200 N.2   1 <1>  -0.4180 
 32 H        1.3160     2.1370    -2.0880 H     1 <1>   0.3700 
 33 H        0.0210     4.7400    -1.4160 H     1 <1>   0.0800 
 34 H        1.1330     4.4430    -2.7240 H     1 <1>   0.0800 
 35 H       -3.1320     2.0010    -1.8200 H     1 <1>   0.1500 
 36 H       -0.3640     3.6840     0.9310 H     1 <1>   0.1500 
 37 H        3.0070     4.4260    -1.3080 H     1 <1>   0.0800 
 38 H        2.0560     4.0650     0.1130 H     1 <1>   0.0800 
 39 H        2.1150     5.8730     1.5970 H     1 <1>   0.0800 
 40 H        0.4810     6.0710     0.9960 H     1 <1>   0.0800 
 41 H        1.5590     7.4430     1.0930 H     1 <1>   0.0800 
 42 H       -6.9750     2.0780    -0.4990 H     1 <1>   0.0800 
 43 H       -6.1910     2.6610     0.9670 H     1 <1>   0.0800 
 44 H       -5.5500     1.2490     0.1230 H     1 <1>   0.0800 
 45 H       -2.1340     5.2010     4.3130 H     1 <1>   0.0800 
 46 H       -3.1020     3.8860     3.6510 H     1 <1>   0.0800 
 47 H       -3.6060     5.5660     3.4280 H     1 <1>   0.0800 
 48 H        2.2100     9.0300    -2.1570 H     1 <1>   0.0800 
 49 H        2.1670     8.8550    -0.4320 H     1 <1>   0.0800 
 50 H       -6.2780     6.0280     1.1540 H     1 <1>   0.0800 
 51 H       -5.5160     5.4900    -0.3310 H     1 <1>   0.0800 
 52 H       -0.1510     7.8650    -0.6880 H     1 <1>   0.0800 
 53 H       -0.0880     8.2380    -2.3790 H     1 <1>   0.0800 
 54 H       -3.4300     6.7040     0.4060 H     1 <1>   0.0800 
 55 H       -4.3280     7.3720     1.7450 H     1 <1>   0.0800 
 56 H       -0.2010    10.6100    -1.9390 H     1 <1>   0.0800 
 57 H        0.1910    10.3720    -0.2560 H     1 <1>   0.0800 
 58 H       -5.6960     8.7030     0.2840 H     1 <1>   0.0800 
 59 H       -5.1910     7.8010    -1.1290 H     1 <1>   0.0800 
 60 H       -2.4750     7.9030    -1.5720 H     1 <1>   0.1500 
@<TRIPOS>BOND
  1   1   2  2   
  2   2   3  am  
  3   2   4  1   
  4   3   5  1   
  5   3  32  1   
  6   4   6  ar  
  7   4   7  ar  
  8   5   8  1   
  9   5  33  1   
 10   5  34  1   
 11   6   9  ar  
 12   6  35  1   
 13   7  10  ar  
 14   7  36  1   
 15   8  11  1   
 16   8  37  1   
 17   8  38  1   
 18   9  12  1   
 19   9  13  ar  
 20  10  13  ar  
 21  10  14  1   
 22  11  15  am  
 23  11  16  1   
 24  12  17  1   
 25  13  18  1   
 26  14  19  1   
 27  15  20  2   
 28  15  21  1   
 29  16  39  1   
 30  16  40  1   
 31  16  41  1   
 32  17  42  1   
 33  17  43  1   
 34  17  44  1   
 35  18  22  1   
 36  19  45  1   
 37  19  46  1   
 38  19  47  1   
 39  21  23  1   
 40  21  48  1   
 41  21  49  1   
 42  22  24  1   
 43  22  50  1   
 44  22  51  1   
 45  23  25  1   
 46  23  52  1   
 47  23  53  1   
 48  24  26  1   
 49  24  54  1   
 50  24  55  1   
 51  25  27  1   
 52  25  56  1   
 53  25  57  1   
 54  26  28  1   
 55  26  58  1   
 56  26  59  1   
 57  27  29  1   
 58  27  30  2   
 59  28  30  1   
 60  28  31  1   
 61  29  31  2   
 62  30  60  1   
@<TRIPOS>SUBSTRUCTURE
  1 ****  10 GROUP 4 **** **** 0

# MOE 2024.06 (io_trps.svl 2023.06)
