@<TRIPOS>MOLECULE
NONAME
53 55 1 0 0 
SMALL
USER_CHARGES


@<TRIPOS>ATOM
  1 O        4.7620     0.0170    -2.8510 O.2   1 <1>  -0.5700 
  2 C        4.2220    -0.6850    -2.0260 C.2   1 <1>   0.9370 
  3 N        3.0530    -0.2390    -1.3970 N.pl3 1 <1>  -0.5760 
  4 C        4.7630    -1.9490    -1.6850 C.2   1 <1>  -0.1360 
  5 C        2.4390    -1.0430    -0.4910 C.cat 1 <1>   0.7390 
  6 C        2.5180     0.9960    -1.6810 C.2   1 <1>   0.1910 
  7 C        4.1410    -2.7310    -0.7860 C.2   1 <1>   0.2030 
  8 N        2.9740    -2.2560    -0.2310 N.pl3 1 <1>  -0.6450 
  9 C        1.2780    -0.5920     0.1540 C.2   1 <1>  -0.1800 
 10 C        1.3810     1.4480    -1.0660 C.2   1 <1>  -0.1380 
 11 C        4.6760    -4.1010    -0.3430 C.3   1 <1>   0.2480 
 12 C        0.7430     0.6370    -0.1220 C.2   1 <1>  -0.1500 
 13 C        0.7860     2.8130    -1.3770 C.3   1 <1>  -0.1020 
 14 N        3.7550    -4.8140     0.5690 N.3   1 <1>  -0.8100 
 15 C        2.6050    -5.4130    -0.1320 C.3   1 <1>   0.1100 
 16 C        4.4880    -5.8500     1.3420 C.3   1 <1>   0.1100 
 17 C        1.5010    -5.7710     0.9000 C.3   1 <1>   0.0000 
 18 C        3.5670    -6.9540     1.8970 C.3   1 <1>  -0.1600 
 19 C        2.1710    -6.3970     2.1670 C.3   1 <1>   0.2000 
 20 C        0.8230    -4.4730     1.4050 C.3   1 <1>   0.1200 
 21 C        0.4190    -6.6670     0.2200 C.3   1 <1>  -0.1600 
 22 O        1.3890    -7.3790     2.7460 O.3   1 <1>  -0.6800 
 23 O        0.3880    -3.6700     0.3540 O.3   1 <1>  -0.6800 
 24 C        0.9010    -8.0140    -0.3570 C.3   1 <1>  -0.1600 
 25 C       -0.2870    -8.8450    -0.8480 C.3   1 <1>  -0.2400 
 26 H        5.6750    -2.2260    -2.1770 H     1 <1>   0.1500 
 27 H        3.0180     1.6170    -2.4110 H     1 <1>   0.1500 
 28 H        2.4500    -2.9130     0.3740 H     1 <1>   0.4500 
 29 H        0.8090    -1.2290     0.8790 H     1 <1>   0.1500 
 30 H        5.6070    -3.9310     0.1710 H     1 <1>   0.0800 
 31 H        4.8840    -4.7130    -1.2050 H     1 <1>   0.0800 
 32 H       -0.1520     0.9840     0.3710 H     1 <1>   0.1500 
 33 H       -0.2160     2.7020    -1.7510 H     1 <1>   0.0800 
 34 H        1.3690     3.3330    -2.1160 H     1 <1>   0.0800 
 35 H        0.7550     3.4140    -0.4840 H     1 <1>   0.0800 
 36 H        2.2130    -4.7460    -0.8800 H     1 <1>   0.0800 
 37 H        2.9430    -6.2930    -0.6510 H     1 <1>   0.0800 
 38 H        5.2420    -6.3150     0.7280 H     1 <1>   0.0800 
 39 H        4.9870    -5.3650     2.1650 H     1 <1>   0.0800 
 40 H        3.9920    -7.3410     2.8070 H     1 <1>   0.0800 
 41 H        3.5160    -7.7590     1.1870 H     1 <1>   0.0800 
 42 H        2.2940    -5.6400     2.9240 H     1 <1>   0.0800 
 43 H        1.5190    -3.8880     1.9820 H     1 <1>   0.0800 
 44 H       -0.0230    -4.7030     2.0330 H     1 <1>   0.0800 
 45 H       -0.3680    -6.8580     0.9300 H     1 <1>   0.0800 
 46 H       -0.0290    -6.1180    -0.5890 H     1 <1>   0.0800 
 47 H        1.1740    -8.0660     2.0880 H     1 <1>   0.4000 
 48 H       -0.4090    -4.0710    -0.0550 H     1 <1>   0.4000 
 49 H        1.5620    -7.8520    -1.1900 H     1 <1>   0.0800 
 50 H        1.4330    -8.5860     0.3810 H     1 <1>   0.0800 
 51 H       -0.8280    -8.3170    -1.6130 H     1 <1>   0.0800 
 52 H       -0.9590    -9.0650    -0.0370 H     1 <1>   0.0800 
 53 H        0.0610    -9.7770    -1.2610 H     1 <1>   0.0800 
@<TRIPOS>BOND
  1   1   2  2   
  2   2   3  1   
  3   2   4  1   
  4   3   5  ar  
  5   3   6  1   
  6   4   7  2   
  7   4  26  1   
  8   5   8  ar  
  9   5   9  1   
 10   6  10  2   
 11   6  27  1   
 12   7   8  1   
 13   7  11  1   
 14   8  28  1   
 15   9  12  2   
 16   9  29  1   
 17  10  12  1   
 18  10  13  1   
 19  11  14  1   
 20  11  30  1   
 21  11  31  1   
 22  12  32  1   
 23  13  33  1   
 24  13  34  1   
 25  13  35  1   
 26  14  15  1   
 27  14  16  1   
 28  15  17  1   
 29  15  36  1   
 30  15  37  1   
 31  16  18  1   
 32  16  38  1   
 33  16  39  1   
 34  17  19  1   
 35  17  20  1   
 36  17  21  1   
 37  18  19  1   
 38  18  40  1   
 39  18  41  1   
 40  19  22  1   
 41  19  42  1   
 42  20  23  1   
 43  20  43  1   
 44  20  44  1   
 45  21  24  1   
 46  21  45  1   
 47  21  46  1   
 48  22  47  1   
 49  23  48  1   
 50  24  25  1   
 51  24  49  1   
 52  24  50  1   
 53  25  51  1   
 54  25  52  1   
 55  25  53  1   
@<TRIPOS>SUBSTRUCTURE
  1 ****   8 GROUP 4 **** **** 0

# MOE 2024.06 (io_trps.svl 2023.06)
