@<TRIPOS>MOLECULE
NONAME
53 55 1 0 0 
SMALL
USER_CHARGES


@<TRIPOS>ATOM
  1 O        0.8670    -1.9090    -0.0760 O.3   1 <1>  -0.3630 
  2 C        0.0100    -2.8720     0.3560 C.ar  1 <1>   0.0830 
  3 C        0.4370    -0.5930    -0.3520 C.3   1 <1>   0.0400 
  4 C        0.5300    -4.1410     0.6000 C.ar  1 <1>  -0.1440 
  5 C       -1.3450    -2.6310     0.5660 C.ar  1 <1>  -0.1500 
  6 C       -0.3100    -5.1400     1.0670 C.ar  1 <1>  -0.1500 
  7 C        2.0140    -4.4140     0.3640 C.3   1 <1>   0.2640 
  8 C       -2.1760    -3.6420     1.0110 C.ar  1 <1>  -0.1500 
  9 C       -1.6630    -4.9050     1.2580 C.ar  1 <1>  -0.1440 
 10 O        2.2000    -5.7160    -0.1250 O.3   1 <1>  -0.5600 
 11 C       -2.5720    -6.0320     1.7080 C.3   1 <1>   0.4860 
 12 C        3.5240    -5.9800    -0.4740 C.3   1 <1>   0.0400 
 13 N       -2.7450    -6.9570     0.5650 N.4   1 <1>  -0.9590 
 14 C       -3.3150    -6.3610    -0.6770 C.3   1 <1>   0.3430 
 15 C       -3.4430    -8.2380     0.8070 C.3   1 <1>   0.3430 
 16 C       -3.9720    -7.5230    -1.4350 C.3   1 <1>   0.2000 
 17 C       -3.7310    -8.7850    -0.5930 C.3   1 <1>  -0.0800 
 18 O       -5.3420    -7.3020    -1.5240 O.3   1 <1>  -0.6800 
 19 C       -2.5750    -9.6580    -1.1430 C.3   1 <1>   0.0210 
 20 C       -1.1750    -9.1470    -0.8310 C.2   1 <1>   0.1080 
 21 N       -0.7460    -7.9710    -1.1720 N.2   1 <1>  -0.7070 
 22 C       -0.2150    -9.8690    -0.1310 C.2   1 <1>  -0.1500 
 23 N        0.5280    -7.9180    -0.7170 N.pl3 1 <1>   0.3000 
 24 C        0.8570    -9.0530    -0.0670 C.2   1 <1>  -0.3320 
 25 C        2.2080    -9.2930     0.5820 C.3   1 <1>  -0.0600 
 26 H        1.2900    -0.0250    -0.6780 H     1 <1>   0.0800 
 27 H        0.0340    -0.1610     0.5470 H     1 <1>   0.0800 
 28 H       -0.3020    -0.6230    -1.1330 H     1 <1>   0.0800 
 29 H       -1.7700    -1.6610     0.3870 H     1 <1>   0.1500 
 30 H        0.1050    -6.1100     1.2790 H     1 <1>   0.1500 
 31 H        2.5570    -4.3120     1.2880 H     1 <1>   0.0800 
 32 H        2.4150    -3.7270    -0.3610 H     1 <1>   0.0800 
 33 H       -3.2210    -3.4290     1.1600 H     1 <1>   0.1500 
 34 H       -3.5250    -5.6390     2.0210 H     1 <1>   0.0800 
 35 H       -2.1180    -6.5480     2.5380 H     1 <1>   0.0800 
 36 H        3.5850    -6.9850    -0.8510 H     1 <1>   0.0800 
 37 H        4.1490    -5.8810     0.3980 H     1 <1>   0.0800 
 38 H        3.8360    -5.2910    -1.2410 H     1 <1>   0.0800 
 39 H       -1.7870    -7.2250     0.2450 H     1 <1>   0.4500 
 40 H       -4.0470    -5.6050    -0.4490 H     1 <1>   0.0800 
 41 H       -2.5230    -5.9290    -1.2680 H     1 <1>   0.0800 
 42 H       -2.8340    -8.9170     1.3820 H     1 <1>   0.0800 
 43 H       -4.3700    -8.0560     1.3250 H     1 <1>   0.0800 
 44 H       -3.5860    -7.6040    -2.4380 H     1 <1>   0.0800 
 45 H       -4.6140    -9.4010    -0.5780 H     1 <1>   0.0800 
 46 H       -5.7890    -7.3090    -0.6560 H     1 <1>   0.4000 
 47 H       -2.6720    -9.7630    -2.2100 H     1 <1>   0.0800 
 48 H       -2.6650   -10.6460    -0.7260 H     1 <1>   0.0800 
 49 H       -0.3200   -10.8640     0.2640 H     1 <1>   0.1500 
 50 H        1.1370    -7.0860    -0.8230 H     1 <1>   0.2700 
 51 H        2.2150   -10.2410     1.0910 H     1 <1>   0.0800 
 52 H        2.4230    -8.5180     1.2970 H     1 <1>   0.0800 
 53 H        2.9810    -9.3030    -0.1660 H     1 <1>   0.0800 
@<TRIPOS>BOND
  1   1   2  1   
  2   1   3  1   
  3   2   4  ar  
  4   2   5  ar  
  5   3  26  1   
  6   3  27  1   
  7   3  28  1   
  8   4   6  ar  
  9   4   7  1   
 10   5   8  ar  
 11   5  29  1   
 12   6   9  ar  
 13   6  30  1   
 14   7  10  1   
 15   7  31  1   
 16   7  32  1   
 17   8   9  ar  
 18   8  33  1   
 19   9  11  1   
 20  10  12  1   
 21  11  13  1   
 22  11  34  1   
 23  11  35  1   
 24  12  36  1   
 25  12  37  1   
 26  12  38  1   
 27  13  14  1   
 28  13  15  1   
 29  13  39  1   
 30  14  16  1   
 31  14  40  1   
 32  14  41  1   
 33  15  17  1   
 34  15  42  1   
 35  15  43  1   
 36  16  17  1   
 37  16  18  1   
 38  16  44  1   
 39  17  19  1   
 40  17  45  1   
 41  18  46  1   
 42  19  20  1   
 43  19  47  1   
 44  19  48  1   
 45  20  21  2   
 46  20  22  1   
 47  21  23  1   
 48  22  24  2   
 49  22  49  1   
 50  23  24  1   
 51  23  50  1   
 52  24  25  1   
 53  25  51  1   
 54  25  52  1   
 55  25  53  1   
@<TRIPOS>SUBSTRUCTURE
  1 ****   6 GROUP 4 **** **** 0

# MOE 2024.06 (io_trps.svl 2023.06)
