@<TRIPOS>MOLECULE
NONAME
49 52 1 0 0 
SMALL
USER_CHARGES


@<TRIPOS>ATOM
  1 O        0.7300     0.3060    -1.8700 O.2   1 <1>  -0.5700 
  2 C        1.2210     0.0510    -0.7850 C.2   1 <1>   0.5440 
  3 N        0.4000     0.0860     0.3200 N.am  1 <1>  -0.6600 
  4 C        2.6200    -0.2910    -0.7090 C.ar  1 <1>   0.0860 
  5 C       -1.0600    -0.1320     0.2230 C.3   1 <1>   0.1400 
  6 C        0.8170     0.3000     1.7230 C.3   1 <1>   0.1400 
  7 C        3.0470    -1.4880    -0.1030 C.ar  1 <1>   0.4100 
  8 C        3.5860     0.5200    -1.2870 C.ar  1 <1>  -0.1500 
  9 C       -1.5670    -0.0900     1.6620 C.3   1 <1>  -0.1600 
 10 C       -0.3290    -0.2840     2.5380 C.3   1 <1>  -0.1600 
 11 N        4.3110    -1.8980    -0.0690 N.ar  1 <1>  -0.6200 
 12 N        2.1520    -2.3230     0.5100 N.pl3 1 <1>  -0.8690 
 13 C        4.8980     0.1060    -1.2360 C.ar  1 <1>  -0.1500 
 14 C        5.2000    -1.0980    -0.6250 C.ar  1 <1>   0.1600 
 15 C        1.9520    -3.6820     0.0200 C.3   1 <1>   0.4330 
 16 C        0.4510    -3.8240    -0.2130 C.ar  1 <1>  -0.1430 
 17 C        2.4910    -4.6640     1.0540 C.3   1 <1>  -0.2400 
 18 C       -0.4470    -3.7640     0.8470 C.ar  1 <1>  -0.1500 
 19 C       -0.0390    -3.9750    -1.5040 C.ar  1 <1>  -0.1500 
 20 C       -1.8090    -3.8480     0.6210 C.ar  1 <1>   0.0830 
 21 C       -1.4020    -4.0610    -1.7380 C.ar  1 <1>  -0.1500 
 22 O       -2.6550    -3.7840     1.6810 O.3   1 <1>  -0.3620 
 23 C       -2.2910    -3.9910    -0.6800 C.ar  1 <1>   0.0830 
 24 C       -3.9890    -4.1980     1.4560 C.3   1 <1>   0.1200 
 25 O       -3.6230    -4.0530    -0.9340 O.3   1 <1>  -0.3630 
 26 C       -4.4930    -3.6580     0.1100 C.3   1 <1>   0.1200 
 27 H       -1.2440    -1.0950    -0.2220 H     1 <1>   0.0800 
 28 H       -1.5150     0.6340    -0.3820 H     1 <1>   0.0800 
 29 H        0.8970     1.3590     1.9030 H     1 <1>   0.0800 
 30 H        1.7540    -0.1750     1.9540 H     1 <1>   0.0800 
 31 H        3.3020     1.4400    -1.7680 H     1 <1>   0.1500 
 32 H       -2.3110    -0.8460     1.8390 H     1 <1>   0.0800 
 33 H       -2.0000     0.8770     1.8490 H     1 <1>   0.0800 
 34 H       -0.4250     0.1960     3.4950 H     1 <1>   0.0800 
 35 H       -0.1500    -1.3340     2.6910 H     1 <1>   0.0800 
 36 H        1.2250    -1.8940     0.6350 H     1 <1>   0.4000 
 37 H        5.6800     0.7030    -1.6690 H     1 <1>   0.1500 
 38 H        6.2280    -1.4180    -0.5950 H     1 <1>   0.1500 
 39 H        2.4850    -3.8160    -0.9080 H     1 <1>   0.0800 
 40 H        2.0430    -4.4960     2.0150 H     1 <1>   0.0800 
 41 H        3.5550    -4.5410     1.1380 H     1 <1>   0.0800 
 42 H        2.2840    -5.6700     0.7410 H     1 <1>   0.0800 
 43 H       -0.1000    -3.6450     1.8570 H     1 <1>   0.1500 
 44 H        0.6380    -4.0150    -2.3400 H     1 <1>   0.1500 
 45 H       -1.7800    -4.1730    -2.7380 H     1 <1>   0.1500 
 46 H       -4.5920    -3.8300     2.2670 H     1 <1>   0.0800 
 47 H       -4.0110    -5.2730     1.4590 H     1 <1>   0.0800 
 48 H       -4.5280    -2.5830     0.1270 H     1 <1>   0.0800 
 49 H       -5.4730    -4.0410    -0.1130 H     1 <1>   0.0800 
@<TRIPOS>BOND
  1   1   2  2   
  2   2   3  am  
  3   2   4  1   
  4   3   5  1   
  5   3   6  1   
  6   4   7  ar  
  7   4   8  ar  
  8   5   9  1   
  9   5  27  1   
 10   5  28  1   
 11   6  10  1   
 12   6  29  1   
 13   6  30  1   
 14   7  11  ar  
 15   7  12  1   
 16   8  13  ar  
 17   8  31  1   
 18   9  10  1   
 19   9  32  1   
 20   9  33  1   
 21  10  34  1   
 22  10  35  1   
 23  11  14  ar  
 24  12  15  1   
 25  12  36  1   
 26  13  14  ar  
 27  13  37  1   
 28  14  38  1   
 29  15  16  1   
 30  15  17  1   
 31  15  39  1   
 32  16  18  ar  
 33  16  19  ar  
 34  17  40  1   
 35  17  41  1   
 36  17  42  1   
 37  18  20  ar  
 38  18  43  1   
 39  19  21  ar  
 40  19  44  1   
 41  20  22  1   
 42  20  23  ar  
 43  21  23  ar  
 44  21  45  1   
 45  22  24  1   
 46  23  25  1   
 47  24  26  1   
 48  24  46  1   
 49  24  47  1   
 50  25  26  1   
 51  26  48  1   
 52  26  49  1   
@<TRIPOS>SUBSTRUCTURE
  1 ****  16 GROUP 4 **** **** 0

# MOE 2024.06 (io_trps.svl 2023.06)
