@<TRIPOS>MOLECULE
NONAME
56 60 1 0 0 
SMALL
USER_CHARGES


@<TRIPOS>ATOM
  1 O       -1.9630    -3.3650    -3.0990 O.2   1 <1>  -0.5700 
  2 C       -2.3590    -3.8160    -2.0440 C.2   1 <1>   0.6900 
  3 N       -2.8940    -5.0660    -1.9010 N.am  1 <1>  -0.4200 
  4 N       -2.3130    -3.1540    -0.8550 N.am  1 <1>  -0.6600 
  5 C       -3.1670    -5.3000    -0.5870 C.2   1 <1>   0.5690 
  6 C       -3.0570    -6.0360    -3.0080 C.3   1 <1>   0.0600 
  7 C       -2.8520    -4.0340     0.2190 C.3   1 <1>   0.2810 
  8 C       -1.5590    -1.9070    -0.5720 C.3   1 <1>   0.0600 
  9 O       -3.5790    -6.3470    -0.1440 O.2   1 <1>  -0.5700 
 10 C       -4.0830    -3.3710     0.8480 C.3   1 <1>  -0.0990 
 11 C       -4.5980    -4.2120     1.9970 C.2   1 <1>   0.5690 
 12 O       -3.7980    -4.4470     2.8720 O.2   1 <1>  -0.5700 
 13 N       -5.8810    -4.7000     2.0400 N.am  1 <1>  -0.6600 
 14 C       -6.9560    -4.4740     1.0410 C.3   1 <1>   0.1400 
 15 C       -6.2110    -5.8500     2.9200 C.3   1 <1>   0.1400 
 16 C       -6.9470    -5.6590     0.0790 C.3   1 <1>  -0.1600 
 17 C       -6.1700    -7.1070     2.0540 C.3   1 <1>  -0.1600 
 18 C       -7.0810    -7.0030     0.8200 C.3   1 <1>   0.4600 
 19 O       -8.4040    -7.1250     1.2980 O.3   1 <1>  -0.5600 
 20 C       -6.7720    -8.1480    -0.1300 C.2   1 <1>  -0.3320 
 21 C       -9.3980    -7.5810     0.4060 C.3   1 <1>   0.1200 
 22 N       -5.5460    -8.4130    -0.6740 N.pl3 1 <1>   0.0330 
 23 C       -7.6650    -9.0570    -0.5630 C.2   1 <1>  -0.1810 
 24 C       -9.1010    -9.0020    -0.1070 C.3   1 <1>   0.0210 
 25 C       -5.6730    -9.5210    -1.4760 C.ar  1 <1>  -0.1520 
 26 C       -6.9980    -9.9520    -1.4270 C.ar  1 <1>   0.0000 
 27 C       -4.7270   -10.1960    -2.2500 C.ar  1 <1>  -0.1500 
 28 C       -7.3870   -11.0720    -2.1670 C.ar  1 <1>  -0.1500 
 29 C       -5.1240   -11.2980    -2.9740 C.ar  1 <1>  -0.1500 
 30 C       -6.4540   -11.7350    -2.9320 C.ar  1 <1>  -0.1500 
 31 H       -3.3810    -5.5210    -3.8960 H     1 <1>   0.0800 
 32 H       -3.7890    -6.7800    -2.7450 H     1 <1>   0.0800 
 33 H       -2.1150    -6.5160    -3.2050 H     1 <1>   0.0800 
 34 H       -2.0900    -4.2400     0.9510 H     1 <1>   0.0800 
 35 H       -1.1110    -1.5340    -1.4780 H     1 <1>   0.0800 
 36 H       -0.7800    -2.1020     0.1450 H     1 <1>   0.0800 
 37 H       -2.2240    -1.1570    -0.1810 H     1 <1>   0.0800 
 38 H       -4.8210    -3.2190     0.0890 H     1 <1>   0.0800 
 39 H       -3.8070    -2.4160     1.2520 H     1 <1>   0.0800 
 40 H       -6.8250    -3.5460     0.5170 H     1 <1>   0.0800 
 41 H       -7.9060    -4.4280     1.5480 H     1 <1>   0.0800 
 42 H       -7.1920    -5.7180     3.3430 H     1 <1>   0.0800 
 43 H       -5.5030    -5.9330     3.7270 H     1 <1>   0.0800 
 44 H       -6.0250    -5.6440    -0.4650 H     1 <1>   0.0800 
 45 H       -7.7310    -5.5530    -0.6450 H     1 <1>   0.0800 
 46 H       -6.4570    -7.9660     2.6330 H     1 <1>   0.0800 
 47 H       -5.1530    -7.2570     1.7480 H     1 <1>   0.0800 
 48 H       -9.4540    -6.8960    -0.4210 H     1 <1>   0.0800 
 49 H      -10.3370    -7.5660     0.9290 H     1 <1>   0.0800 
 50 H       -4.6800    -7.8800    -0.4940 H     1 <1>   0.2700 
 51 H       -9.7580    -9.2380    -0.9230 H     1 <1>   0.0800 
 52 H       -9.2580    -9.7170     0.6810 H     1 <1>   0.0800 
 53 H       -3.7080    -9.8540    -2.2700 H     1 <1>   0.1500 
 54 H       -8.4090   -11.3970    -2.1240 H     1 <1>   0.1500 
 55 H       -4.4160   -11.8370    -3.5780 H     1 <1>   0.1500 
 56 H       -6.7390   -12.5980    -3.5070 H     1 <1>   0.1500 
@<TRIPOS>BOND
  1   1   2  2   
  2   2   3  am  
  3   2   4  am  
  4   3   5  am  
  5   3   6  1   
  6   4   7  1   
  7   4   8  1   
  8   5   7  1   
  9   5   9  2   
 10   6  31  1   
 11   6  32  1   
 12   6  33  1   
 13   7  10  1   
 14   7  34  1   
 15   8  35  1   
 16   8  36  1   
 17   8  37  1   
 18  10  11  1   
 19  10  38  1   
 20  10  39  1   
 21  11  12  2   
 22  11  13  am  
 23  13  14  1   
 24  13  15  1   
 25  14  16  1   
 26  14  40  1   
 27  14  41  1   
 28  15  17  1   
 29  15  42  1   
 30  15  43  1   
 31  16  18  1   
 32  16  44  1   
 33  16  45  1   
 34  17  18  1   
 35  17  46  1   
 36  17  47  1   
 37  18  19  1   
 38  18  20  1   
 39  19  21  1   
 40  20  22  1   
 41  20  23  2   
 42  21  24  1   
 43  21  48  1   
 44  21  49  1   
 45  22  25  1   
 46  22  50  1   
 47  23  24  1   
 48  23  26  1   
 49  24  51  1   
 50  24  52  1   
 51  25  26  ar  
 52  25  27  ar  
 53  26  28  ar  
 54  27  29  ar  
 55  27  53  1   
 56  28  30  ar  
 57  28  54  1   
 58  29  30  ar  
 59  29  55  1   
 60  30  56  1   
@<TRIPOS>SUBSTRUCTURE
  1 ****   9 GROUP 4 **** **** 0

# MOE 2024.06 (io_trps.svl 2023.06)
