@<TRIPOS>MOLECULE
NONAME
44 46 1 0 0 
SMALL
USER_CHARGES


@<TRIPOS>ATOM
  1 O        0.5270     0.1250    -0.0400 O.3   1 <1>  -0.6800 
  2 C        1.8740     0.0010    -0.3610 C.3   1 <1>   0.2000 
  3 C        2.4390    -1.3080     0.1910 C.3   1 <1>  -0.0800 
  4 C        2.7140     1.0950     0.2940 C.3   1 <1>   0.2090 
  5 C        3.9290    -1.0170     0.3880 C.3   1 <1>   0.2090 
  6 C        2.1680    -2.5190    -0.7160 C.3   1 <1>  -0.0170 
  7 N        4.0280     0.4510     0.5480 N.pl3 1 <1>  -0.8380 
  8 C        2.7870    -3.7840    -0.1430 C.ar  1 <1>  -0.1440 
  9 C        5.2240     1.1280     0.4970 C.ar  1 <1>   0.7200 
 10 C        3.9800    -4.2960    -0.6150 C.ar  1 <1>  -0.1500 
 11 C        2.1870    -4.4850     0.8820 C.ar  1 <1>  -0.1500 
 12 N        5.1640     2.4560     0.4910 N.ar  1 <1>  -0.6200 
 13 N        6.3300     0.3920     0.4580 N.ar  1 <1>  -0.6200 
 14 C        4.4980    -5.4510    -0.0530 C.ar  1 <1>   0.1600 
 15 C        2.7890    -5.6320     1.3730 C.ar  1 <1>   0.1600 
 16 C        6.3030     3.1030     0.4490 C.ar  1 <1>   0.1670 
 17 C        7.4560     1.0580     0.4170 C.ar  1 <1>   0.1600 
 18 N        3.9300    -6.1330     0.9290 N.ar  1 <1>  -0.6200 
 19 C        7.5130     2.4340     0.4080 C.ar  1 <1>  -0.1440 
 20 C        6.2000     4.6230     0.4460 C.3   1 <1>  -0.0170 
 21 C        8.8630     3.1400     0.3530 C.3   1 <1>  -0.0970 
 22 C        6.0010     5.1690    -0.9730 C.3   1 <1>  -0.2400 
 23 H        0.0030    -0.5680    -0.4830 H     1 <1>   0.4000 
 24 H        1.9850     0.0600    -1.4300 H     1 <1>   0.0800 
 25 H        2.0210    -1.4830     1.1670 H     1 <1>   0.0800 
 26 H        2.2840     1.3950     1.2340 H     1 <1>   0.0800 
 27 H        2.8110     1.9450    -0.3590 H     1 <1>   0.0800 
 28 H        4.4970    -1.3150    -0.4770 H     1 <1>   0.0800 
 29 H        4.3170    -1.5200     1.2580 H     1 <1>   0.0800 
 30 H        2.5660    -2.3350    -1.6990 H     1 <1>   0.0800 
 31 H        1.1070    -2.6640    -0.8160 H     1 <1>   0.0800 
 32 H        4.5130    -3.8100    -1.4110 H     1 <1>   0.1500 
 33 H        1.2580    -4.1510     1.3060 H     1 <1>   0.1500 
 34 H        5.4300    -5.8350    -0.4320 H     1 <1>   0.1500 
 35 H        2.3060    -6.1660     2.1730 H     1 <1>   0.1500 
 36 H        8.3660     0.4840     0.3880 H     1 <1>   0.1500 
 37 H        5.3620     4.9120     1.0560 H     1 <1>   0.0800 
 38 H        7.0760     5.0640     0.8850 H     1 <1>   0.0800 
 39 H        9.6590     2.4350     0.1890 H     1 <1>   0.0800 
 40 H        9.0480     3.6510     1.2800 H     1 <1>   0.0800 
 41 H        8.8780     3.8530    -0.4510 H     1 <1>   0.0800 
 42 H        5.1020     4.7560    -1.3980 H     1 <1>   0.0800 
 43 H        6.8320     4.8990    -1.5990 H     1 <1>   0.0800 
 44 H        5.9130     6.2400    -0.9510 H     1 <1>   0.0800 
@<TRIPOS>BOND
  1   1   2  1   
  2   1  23  1   
  3   2   3  1   
  4   2   4  1   
  5   2  24  1   
  6   3   5  1   
  7   3   6  1   
  8   3  25  1   
  9   4   7  1   
 10   4  26  1   
 11   4  27  1   
 12   5   7  1   
 13   5  28  1   
 14   5  29  1   
 15   6   8  1   
 16   6  30  1   
 17   6  31  1   
 18   7   9  1   
 19   8  10  ar  
 20   8  11  ar  
 21   9  12  ar  
 22   9  13  ar  
 23  10  14  ar  
 24  10  32  1   
 25  11  15  ar  
 26  11  33  1   
 27  12  16  ar  
 28  13  17  ar  
 29  14  18  ar  
 30  14  34  1   
 31  15  18  ar  
 32  15  35  1   
 33  16  19  ar  
 34  16  20  1   
 35  17  19  ar  
 36  17  36  1   
 37  19  21  1   
 38  20  22  1   
 39  20  37  1   
 40  20  38  1   
 41  21  39  1   
 42  21  40  1   
 43  21  41  1   
 44  22  42  1   
 45  22  43  1   
 46  22  44  1   
@<TRIPOS>SUBSTRUCTURE
  1 ****   5 GROUP 4 **** **** 0

# MOE 2024.06 (io_trps.svl 2023.06)
