@<TRIPOS>MOLECULE
NONAME
43 44 1 0 0 
SMALL
USER_CHARGES


@<TRIPOS>ATOM
  1 S        0.6940    -0.2960     2.1960 S.o2  1 <1>   1.4470 
  2 O        0.0530     0.7030     3.0150 O.2   1 <1>  -0.6500 
  3 O        1.6390    -1.2220     2.7780 O.2   1 <1>  -0.6500 
  4 N       -0.5740    -1.2090     1.5870 N.am  1 <1>  -0.9140 
  5 C        1.3760     0.4630     0.6940 C.ar  1 <1>  -0.0090 
  6 C       -0.2240    -2.5750     1.2160 C.3   1 <1>   0.2760 
  7 C        0.5850     1.2620    -0.1210 C.ar  1 <1>  -0.1500 
  8 C        2.6960     0.2570     0.3100 C.ar  1 <1>  -0.1500 
  9 C       -1.2810    -3.1290     0.2720 C.3   1 <1>  -0.0800 
 10 C       -0.4120    -3.5030     2.4130 C.3   1 <1>   0.1200 
 11 C        1.0880     1.8300    -1.2790 C.ar  1 <1>  -0.1500 
 12 C        3.2040     0.8250    -0.8470 C.ar  1 <1>  -0.1500 
 13 C       -2.3610    -3.6540     1.2290 C.3   1 <1>   0.1200 
 14 C       -1.7870    -2.1220    -0.7860 C.3   1 <1>  -0.0550 
 15 O       -1.7920    -3.6720     2.5050 O.3   1 <1>  -0.5600 
 16 C        2.4070     1.6190    -1.6620 C.ar  1 <1>   0.0730 
 17 S       -2.7720    -2.8540    -2.0930 S.o2  1 <1>   1.3330 
 18 C        2.9290     2.2050    -2.8640 C.1   1 <1>   0.4840 
 19 O       -3.1730    -1.8130    -3.0110 O.2   1 <1>  -0.6500 
 20 O       -2.0530    -4.0080    -2.5850 O.2   1 <1>  -0.6500 
 21 N       -4.1670    -3.4040    -1.2960 N.am  1 <1>  -0.8490 
 22 N        3.3420     2.6660    -3.8220 N.1   1 <1>  -0.5570 
 23 C       -4.7960    -4.5270    -1.9990 C.3   1 <1>   0.1160 
 24 C       -5.1600    -2.3480    -1.0680 C.3   1 <1>   0.1160 
 25 H       -1.2220    -1.2990     2.3730 H     1 <1>   0.4200 
 26 H        0.7650    -2.6310     0.7900 H     1 <1>   0.0800 
 27 H       -0.4410     1.4420     0.1570 H     1 <1>   0.1500 
 28 H        3.3370    -0.3550     0.9250 H     1 <1>   0.1500 
 29 H       -0.8560    -3.9780    -0.2360 H     1 <1>   0.0800 
 30 H       -0.0320    -3.1020     3.3360 H     1 <1>   0.0800 
 31 H        0.0300    -4.4670     2.2260 H     1 <1>   0.0800 
 32 H        0.4480     2.4440    -1.8910 H     1 <1>   0.1500 
 33 H        4.2320     0.6480    -1.1180 H     1 <1>   0.1500 
 34 H       -2.6720    -4.6510     0.9690 H     1 <1>   0.0800 
 35 H       -3.2190    -3.0050     1.2660 H     1 <1>   0.0800 
 36 H       -0.9320    -1.6590    -1.2390 H     1 <1>   0.0800 
 37 H       -2.3520    -1.3470    -0.3080 H     1 <1>   0.0800 
 38 H       -5.6690    -4.8620    -1.4650 H     1 <1>   0.0800 
 39 H       -4.1070    -5.3530    -2.0670 H     1 <1>   0.0800 
 40 H       -5.0810    -4.2330    -2.9960 H     1 <1>   0.0800 
 41 H       -5.9820    -2.7310    -0.4870 H     1 <1>   0.0800 
 42 H       -5.5380    -1.9750    -2.0060 H     1 <1>   0.0800 
 43 H       -4.7160    -1.5300    -0.5260 H     1 <1>   0.0800 
@<TRIPOS>BOND
  1   1   2  2   
  2   1   3  2   
  3   1   4  am  
  4   1   5  1   
  5   4   6  1   
  6   4  25  1   
  7   5   7  ar  
  8   5   8  ar  
  9   6   9  1   
 10   6  10  1   
 11   6  26  1   
 12   7  11  ar  
 13   7  27  1   
 14   8  12  ar  
 15   8  28  1   
 16   9  13  1   
 17   9  14  1   
 18   9  29  1   
 19  10  15  1   
 20  10  30  1   
 21  10  31  1   
 22  11  16  ar  
 23  11  32  1   
 24  12  16  ar  
 25  12  33  1   
 26  13  15  1   
 27  13  34  1   
 28  13  35  1   
 29  14  17  1   
 30  14  36  1   
 31  14  37  1   
 32  16  18  1   
 33  17  19  2   
 34  17  20  2   
 35  17  21  am  
 36  18  22  3   
 37  21  23  1   
 38  21  24  1   
 39  23  38  1   
 40  23  39  1   
 41  23  40  1   
 42  24  41  1   
 43  24  42  1   
 44  24  43  1   
@<TRIPOS>SUBSTRUCTURE
  1 ****  14 GROUP 4 **** **** 0

# MOE 2024.06 (io_trps.svl 2023.06)
