@<TRIPOS>MOLECULE
NONAME
53 55 1 0 0 
SMALL
USER_CHARGES


@<TRIPOS>ATOM
  1 O        2.9560     2.2930     1.8600 O.co2 1 <1>  -0.9000 
  2 C        2.3180     1.2630     1.5940 C.2   1 <1>   0.9060 
  3 O        2.0520     0.4370     2.4660 O.co2 1 <1>  -0.9000 
  4 C        2.1310     0.8450     0.1280 C.3   1 <1>  -0.1060 
  5 C        3.0780    -0.3670    -0.0240 C.3   1 <1>   0.2000 
  6 C        2.5980     1.9560    -0.8700 C.3   1 <1>  -0.1600 
  7 C        0.6500     0.4580    -0.1190 C.3   1 <1>  -0.0160 
  8 O        3.0760    -0.8150    -1.3480 O.3   1 <1>  -0.6800 
  9 C        4.5300     0.0310     0.3570 C.3   1 <1>   0.3430 
 10 C        4.1210     2.0060    -1.0940 C.3   1 <1>   0.3430 
 11 C       -0.2900     1.6590    -0.1350 C.ar  1 <1>  -0.1440 
 12 N        4.8200     1.4930     0.1140 N.4   1 <1>  -0.9590 
 13 C       -0.7800     2.1560    -1.3350 C.ar  1 <1>  -0.1500 
 14 C       -0.6700     2.2650     1.0530 C.ar  1 <1>  -0.1500 
 15 C        6.2380     1.8540     0.2740 C.3   1 <1>   0.3430 
 16 C       -1.6310     3.2470    -1.3470 C.ar  1 <1>  -0.1500 
 17 C       -1.5190     3.3570     1.0420 C.ar  1 <1>  -0.1500 
 18 C        6.3530     3.3590     0.5130 C.3   1 <1>  -0.1600 
 19 C       -2.0010     3.8500    -0.1570 C.ar  1 <1>  -0.1500 
 20 C        7.7550     3.7380     1.0010 C.3   1 <1>   0.0960 
 21 N        7.8450     5.2020     1.1660 N.pl3 1 <1>   0.0480 
 22 C        8.3890     6.1270     0.3360 C.2   1 <1>   0.0060 
 23 C        7.3500     5.9140     2.1940 C.2   1 <1>  -0.3020 
 24 N        8.2700     7.3400     0.7650 N.2   1 <1>  -0.5650 
 25 C        9.0720     5.7950    -0.9750 C.3   1 <1>  -0.0600 
 26 C        7.6190     7.2100     1.9340 C.2   1 <1>   0.0770 
 27 H        2.7600    -1.1880     0.5990 H     1 <1>   0.0800 
 28 H        2.2600     2.9170    -0.5190 H     1 <1>   0.0800 
 29 H        2.1400     1.8030    -1.8300 H     1 <1>   0.0800 
 30 H        0.5560    -0.0560    -1.0570 H     1 <1>   0.0800 
 31 H        0.3220    -0.2250     0.6470 H     1 <1>   0.0800 
 32 H        2.1970    -1.1830    -1.5700 H     1 <1>   0.4000 
 33 H        5.2150    -0.5910    -0.1920 H     1 <1>   0.0800 
 34 H        4.6590    -0.1650     1.4100 H     1 <1>   0.0800 
 35 H        4.4140     3.0200    -1.3050 H     1 <1>   0.0800 
 36 H        4.3770     1.3870    -1.9390 H     1 <1>   0.0800 
 37 H        4.2990     1.9730     0.8970 H     1 <1>   0.4500 
 38 H       -0.5020     1.6970    -2.2660 H     1 <1>   0.1500 
 39 H       -0.3010     1.8910     1.9950 H     1 <1>   0.1500 
 40 H        6.6340     1.3350     1.1320 H     1 <1>   0.0800 
 41 H        6.8010     1.5610    -0.5980 H     1 <1>   0.0800 
 42 H       -2.0060     3.6280    -2.2800 H     1 <1>   0.1500 
 43 H       -1.8000     3.8210     1.9720 H     1 <1>   0.1500 
 44 H        5.6380     3.6530     1.2640 H     1 <1>   0.0800 
 45 H        6.1440     3.8900    -0.3990 H     1 <1>   0.0800 
 46 H       -2.6600     4.7000    -0.1630 H     1 <1>   0.1500 
 47 H        8.5030     3.4190     0.2980 H     1 <1>   0.0800 
 48 H        7.9580     3.2780     1.9520 H     1 <1>   0.0800 
 49 H        6.8420     5.4760     3.0340 H     1 <1>   0.1500 
 50 H        9.3810     6.7040    -1.4610 H     1 <1>   0.0800 
 51 H        8.3970     5.2730    -1.6260 H     1 <1>   0.0800 
 52 H        9.9440     5.1930    -0.7950 H     1 <1>   0.0800 
 53 H        7.3730     8.0710     2.5340 H     1 <1>   0.1500 
@<TRIPOS>BOND
  1   1   2  ar  
  2   2   3  ar  
  3   2   4  1   
  4   4   5  1   
  5   4   6  1   
  6   4   7  1   
  7   5   8  1   
  8   5   9  1   
  9   5  27  1   
 10   6  10  1   
 11   6  28  1   
 12   6  29  1   
 13   7  11  1   
 14   7  30  1   
 15   7  31  1   
 16   8  32  1   
 17   9  12  1   
 18   9  33  1   
 19   9  34  1   
 20  10  12  1   
 21  10  35  1   
 22  10  36  1   
 23  11  13  ar  
 24  11  14  ar  
 25  12  15  1   
 26  12  37  1   
 27  13  16  ar  
 28  13  38  1   
 29  14  17  ar  
 30  14  39  1   
 31  15  18  1   
 32  15  40  1   
 33  15  41  1   
 34  16  19  ar  
 35  16  42  1   
 36  17  19  ar  
 37  17  43  1   
 38  18  20  1   
 39  18  44  1   
 40  18  45  1   
 41  19  46  1   
 42  20  21  1   
 43  20  47  1   
 44  20  48  1   
 45  21  22  1   
 46  21  23  1   
 47  22  24  2   
 48  22  25  1   
 49  23  26  2   
 50  23  49  1   
 51  24  26  1   
 52  25  50  1   
 53  25  51  1   
 54  25  52  1   
 55  26  53  1   
@<TRIPOS>SUBSTRUCTURE
  1 ****   1 GROUP 4 **** **** 0

# MOE 2024.06 (io_trps.svl 2023.06)
