@<TRIPOS>MOLECULE
NONAME
46 48 1 0 0 
SMALL
USER_CHARGES


@<TRIPOS>ATOM
  1 O       -1.4470     1.0440    -2.2110 O.2   1 <1>  -0.5700 
  2 C       -2.0740     0.8560    -1.1960 C.2   1 <1>   0.5690 
  3 N       -2.4380    -0.3930    -0.8230 N.am  1 <1>  -0.7300 
  4 C       -2.4680     2.0320    -0.2990 C.3   1 <1>  -0.0190 
  5 C       -2.1500    -1.6170    -1.5930 C.3   1 <1>   0.3210 
  6 C       -2.5120     3.3780    -1.0540 C.3   1 <1>  -0.1600 
  7 C       -1.5320     2.1260     0.9300 C.3   1 <1>  -0.1600 
  8 C       -3.3180    -2.5770    -1.4470 C.2   1 <1>   0.0460 
  9 C       -3.0500     4.5280    -0.1740 C.3   1 <1>   0.2000 
 10 C       -1.5200     3.5150     1.6020 C.3   1 <1>  -0.1600 
 11 N       -3.7270    -3.0220    -0.2410 N.2   1 <1>  -0.5650 
 12 C       -4.0950    -3.1050    -2.4010 C.2   1 <1>  -0.0100 
 13 O       -2.4030     5.7200    -0.5510 O.3   1 <1>  -0.5600 
 14 C       -2.8190     4.2830     1.3410 C.3   1 <1>   0.2000 
 15 C       -4.7290    -3.8020    -0.5210 C.2   1 <1>   0.4250 
 16 O       -4.9740    -3.8680    -1.8190 O.3   1 <1>  -0.2800 
 17 C       -2.8640     6.3000    -1.7320 C.3   1 <1>   0.0400 
 18 O       -2.7370     5.4970     1.9910 O.3   1 <1>  -0.6800 
 19 C       -5.5450    -4.5530     0.4110 C.ar  1 <1>   0.0530 
 20 C       -6.6680    -5.2720    -0.0070 C.ar  1 <1>  -0.1500 
 21 C       -5.2390    -4.5860     1.7730 C.ar  1 <1>  -0.1500 
 22 C       -7.4450    -5.9850     0.8870 C.ar  1 <1>  -0.1500 
 23 C       -6.0110    -5.2970     2.6730 C.ar  1 <1>  -0.1500 
 24 C       -7.1180    -5.9990     2.2310 C.ar  1 <1>  -0.1500 
 25 H       -2.9780    -0.5710     0.0270 H     1 <1>   0.3700 
 26 H       -3.4650     1.8330     0.0510 H     1 <1>   0.0800 
 27 H       -1.9930    -1.3760    -2.6300 H     1 <1>   0.0800 
 28 H       -1.2580    -2.0770    -1.2060 H     1 <1>   0.0800 
 29 H       -3.1320     3.2790    -1.9270 H     1 <1>   0.0800 
 30 H       -1.5120     3.6140    -1.3780 H     1 <1>   0.0800 
 31 H       -1.8330     1.3840     1.6490 H     1 <1>   0.0800 
 32 H       -0.5240     1.8910     0.6310 H     1 <1>   0.0800 
 33 H       -4.1090     4.6480    -0.3280 H     1 <1>   0.0800 
 34 H       -0.7020     4.0880     1.1990 H     1 <1>   0.0800 
 35 H       -1.3650     3.4040     2.6610 H     1 <1>   0.0800 
 36 H       -4.1010    -2.9990    -3.4710 H     1 <1>   0.1500 
 37 H       -3.6460     3.7380     1.7620 H     1 <1>   0.0800 
 38 H       -2.3150     7.2110    -1.8930 H     1 <1>   0.0800 
 39 H       -3.9120     6.5230    -1.6350 H     1 <1>   0.0800 
 40 H       -2.6930     5.6280    -2.5550 H     1 <1>   0.0800 
 41 H       -2.3530     6.1230     1.3350 H     1 <1>   0.4000 
 42 H       -6.9380    -5.2720    -1.0490 H     1 <1>   0.1500 
 43 H       -4.3800    -4.0450     2.1290 H     1 <1>   0.1500 
 44 H       -8.3050    -6.5300     0.5380 H     1 <1>   0.1500 
 45 H       -5.7520    -5.3060     3.7170 H     1 <1>   0.1500 
 46 H       -7.7210    -6.5540     2.9290 H     1 <1>   0.1500 
@<TRIPOS>BOND
  1   1   2  2   
  2   2   3  am  
  3   2   4  1   
  4   3   5  1   
  5   3  25  1   
  6   4   6  1   
  7   4   7  1   
  8   4  26  1   
  9   5   8  1   
 10   5  27  1   
 11   5  28  1   
 12   6   9  1   
 13   6  29  1   
 14   6  30  1   
 15   7  10  1   
 16   7  31  1   
 17   7  32  1   
 18   8  11  1   
 19   8  12  2   
 20   9  13  1   
 21   9  14  1   
 22   9  33  1   
 23  10  14  1   
 24  10  34  1   
 25  10  35  1   
 26  11  15  2   
 27  12  16  1   
 28  12  36  1   
 29  13  17  1   
 30  14  18  1   
 31  14  37  1   
 32  15  16  1   
 33  15  19  1   
 34  17  38  1   
 35  17  39  1   
 36  17  40  1   
 37  18  41  1   
 38  19  20  ar  
 39  19  21  ar  
 40  20  22  ar  
 41  20  42  1   
 42  21  23  ar  
 43  21  43  1   
 44  22  24  ar  
 45  22  44  1   
 46  23  24  ar  
 47  23  45  1   
 48  24  46  1   
@<TRIPOS>SUBSTRUCTURE
  1 ****   3 GROUP 4 **** **** 0

# MOE 2024.06 (io_trps.svl 2023.06)
