@<TRIPOS>MOLECULE
NONAME
45 47 1 0 0 
SMALL
USER_CHARGES


@<TRIPOS>ATOM
  1 O       -3.5730    -0.8200    -3.2410 O.2   1 <1>  -0.5700 
  2 C       -3.2860    -1.1650    -2.1290 C.2   1 <1>   0.5690 
  3 N       -2.8680    -0.2630    -1.2240 N.am  1 <1>  -0.7300 
  4 C       -3.4310    -2.6100    -1.7350 C.3   1 <1>  -0.0190 
  5 C       -2.4960    -0.5550     0.1790 C.3   1 <1>   0.2200 
  6 C       -2.0770    -3.2240    -1.3130 C.3   1 <1>   0.1200 
  7 C       -4.5870    -2.7320    -0.7320 C.3   1 <1>   0.3430 
  8 C       -1.3100    -1.5510     0.2260 C.3   1 <1>   0.1200 
  9 C       -3.7410    -1.0270     0.9840 C.3   1 <1>   0.3430 
 10 O       -1.6980    -2.8830    -0.0050 O.3   1 <1>  -0.5600 
 11 N       -4.1970    -2.4330     0.6890 N.4   1 <1>  -0.9590 
 12 C       -5.1930    -2.9360     1.6700 C.3   1 <1>   0.4860 
 13 C       -5.2680    -4.4440     1.5410 C.ar  1 <1>  -0.1440 
 14 C       -6.4020    -5.0400     1.0110 C.ar  1 <1>  -0.1500 
 15 C       -4.2030    -5.2420     1.9380 C.ar  1 <1>  -0.1500 
 16 C       -6.4790    -6.4150     0.8670 C.ar  1 <1>   0.0820 
 17 C       -4.2740    -6.6170     1.7970 C.ar  1 <1>  -0.1500 
 18 O       -7.6250    -6.9020     0.3340 O.3   1 <1>  -0.3630 
 19 C       -5.4050    -7.2070     1.2630 C.ar  1 <1>  -0.1500 
 20 C       -7.8560    -8.2880     0.2270 C.3   1 <1>   0.2580 
 21 C       -9.2340    -8.4890    -0.3720 C.2   1 <1>  -0.2880 
 22 C       -9.5030    -9.1680    -1.4910 C.2   1 <1>  -0.3000 
 23 H       -2.7360     0.6940    -1.5720 H     1 <1>   0.3700 
 24 H       -3.7400    -3.1260    -2.6270 H     1 <1>   0.0800 
 25 H       -2.1590     0.3720     0.6110 H     1 <1>   0.0800 
 26 H       -1.2930    -2.9280    -1.9910 H     1 <1>   0.0800 
 27 H       -2.1500    -4.2980    -1.3430 H     1 <1>   0.0800 
 28 H       -4.9500    -3.7460    -0.7850 H     1 <1>   0.0800 
 29 H       -5.3930    -2.0840    -1.0370 H     1 <1>   0.0800 
 30 H       -0.8680    -1.5280     1.2070 H     1 <1>   0.0800 
 31 H       -0.5470    -1.2770    -0.4840 H     1 <1>   0.0800 
 32 H       -4.5480    -0.3360     0.8060 H     1 <1>   0.0800 
 33 H       -3.4890    -0.9660     2.0300 H     1 <1>   0.0800 
 34 H       -3.3430    -3.0130     0.8160 H     1 <1>   0.4500 
 35 H       -4.8900    -2.6840     2.6730 H     1 <1>   0.0800 
 36 H       -6.1600    -2.4980     1.4810 H     1 <1>   0.0800 
 37 H       -7.2510    -4.4550     0.7010 H     1 <1>   0.1500 
 38 H       -3.3110    -4.8120     2.3600 H     1 <1>   0.1500 
 39 H       -3.4460    -7.2340     2.1070 H     1 <1>   0.1500 
 40 H       -5.4300    -8.2770     1.1650 H     1 <1>   0.1500 
 41 H       -7.0980    -8.7160    -0.4060 H     1 <1>   0.0800 
 42 H       -7.8060    -8.7200     1.2120 H     1 <1>   0.0800 
 43 H      -10.0000    -8.0100     0.2140 H     1 <1>   0.1500 
 44 H      -10.4950    -9.2910    -1.8920 H     1 <1>   0.1500 
 45 H       -8.7630    -9.6560    -2.1020 H     1 <1>   0.1500 
@<TRIPOS>BOND
  1   1   2  2   
  2   2   3  am  
  3   2   4  1   
  4   3   5  1   
  5   3  23  1   
  6   4   6  1   
  7   4   7  1   
  8   4  24  1   
  9   5   8  1   
 10   5   9  1   
 11   5  25  1   
 12   6  10  1   
 13   6  26  1   
 14   6  27  1   
 15   7  11  1   
 16   7  28  1   
 17   7  29  1   
 18   8  10  1   
 19   8  30  1   
 20   8  31  1   
 21   9  11  1   
 22   9  32  1   
 23   9  33  1   
 24  11  12  1   
 25  11  34  1   
 26  12  13  1   
 27  12  35  1   
 28  12  36  1   
 29  13  14  ar  
 30  13  15  ar  
 31  14  16  ar  
 32  14  37  1   
 33  15  17  ar  
 34  15  38  1   
 35  16  18  1   
 36  16  19  ar  
 37  17  19  ar  
 38  17  39  1   
 39  18  20  1   
 40  19  40  1   
 41  20  21  1   
 42  20  41  1   
 43  20  42  1   
 44  21  22  2   
 45  21  43  1   
 46  22  44  1   
 47  22  45  1   
@<TRIPOS>SUBSTRUCTURE
  1 ****   7 GROUP 4 **** **** 0

# MOE 2024.06 (io_trps.svl 2023.06)
