@<TRIPOS>MOLECULE
NONAME
53 55 1 0 0 
SMALL
USER_CHARGES


@<TRIPOS>ATOM
  1 CL      -0.1220     0.2790    -1.1820 Cl    1 <1>  -0.1770 
  2 C       -1.8170     0.6860    -1.2320 C.ar  1 <1>   0.1770 
  3 C       -2.3440     1.2650    -2.3710 C.ar  1 <1>  -0.1500 
  4 C       -2.6130     0.4270    -0.1330 C.ar  1 <1>  -0.1500 
  5 C       -3.6900     1.5860    -2.4050 C.ar  1 <1>  -0.1500 
  6 C       -3.9570     0.7540    -0.1790 C.ar  1 <1>  -0.1500 
  7 C       -4.5260     1.3340    -1.3140 C.ar  1 <1>   0.0530 
  8 C       -5.9210     1.6880    -1.3750 C.2   1 <1>   0.0870 
  9 O       -6.2560     2.8730    -1.8210 O.3   1 <1>  -0.0190 
 10 C       -7.0790     1.0340    -1.0760 C.2   1 <1>  -0.0860 
 11 N       -7.5460     3.0720    -1.8310 N.2   1 <1>  -0.4100 
 12 C       -8.0590     1.9910    -1.3770 C.2   1 <1>   0.3720 
 13 C       -7.3160    -0.3020    -0.6160 C.2   1 <1>   0.7160 
 14 N       -9.4360     1.8820    -1.2330 N.pl3 1 <1>  -0.8520 
 15 O       -6.4320    -0.9460    -0.0890 O.2   1 <1>  -0.5700 
 16 N       -8.5600    -0.8380    -0.7680 N.am  1 <1>  -0.7300 
 17 C       -9.9120     1.9530     0.1780 C.3   1 <1>   0.2090 
 18 C       -9.1450    -2.1460    -0.4040 C.3   1 <1>   0.3000 
 19 C      -11.3460     1.4350     0.2750 C.3   1 <1>   0.1200 
 20 C      -10.3140    -2.3710    -1.3660 C.3   1 <1>  -0.1600 
 21 C       -8.2310    -3.3210    -0.7710 C.3   1 <1>  -0.1600 
 22 C       -9.6250    -2.1360     1.0620 C.3   1 <1>  -0.1600 
 23 O      -11.7180     1.4090     1.6160 O.3   1 <1>  -0.5600 
 24 C       -9.6930    -2.8730    -2.6760 C.3   1 <1>  -0.1600 
 25 C       -8.3310    -3.4620    -2.2930 C.3   1 <1>  -0.1600 
 26 C       -8.5250    -1.9220     2.1140 C.3   1 <1>  -0.2400 
 27 C      -13.0050     0.9300     1.8380 C.3   1 <1>   0.0400 
 28 H       -1.7070     1.4600    -3.2140 H     1 <1>   0.1500 
 29 H       -2.1850    -0.0250     0.7430 H     1 <1>   0.1500 
 30 H       -4.1050     2.0380    -3.2890 H     1 <1>   0.1500 
 31 H       -4.5750     0.5560     0.6790 H     1 <1>   0.1500 
 32 H       -9.8450     2.6680    -1.7520 H     1 <1>   0.4000 
 33 H       -9.2400    -0.1850    -1.1680 H     1 <1>   0.3700 
 34 H       -9.8730     2.9740     0.5190 H     1 <1>   0.0800 
 35 H       -9.2790     1.3530     0.8100 H     1 <1>   0.0800 
 36 H      -11.4060     0.4350    -0.1150 H     1 <1>   0.0800 
 37 H      -12.0180     2.0860    -0.2570 H     1 <1>   0.0800 
 38 H      -10.9130    -1.4900    -1.5090 H     1 <1>   0.0800 
 39 H      -10.9470    -3.1490    -0.9750 H     1 <1>   0.0800 
 40 H       -8.6240    -4.2150    -0.3220 H     1 <1>   0.0800 
 41 H       -7.2180    -3.2090    -0.4340 H     1 <1>   0.0800 
 42 H      -10.1010    -3.0770     1.2710 H     1 <1>   0.0800 
 43 H      -10.3720    -1.3720     1.1830 H     1 <1>   0.0800 
 44 H       -9.5490    -2.0500    -3.3550 H     1 <1>   0.0800 
 45 H      -10.3240    -3.6080    -3.1450 H     1 <1>   0.0800 
 46 H       -8.2400    -4.4920    -2.5950 H     1 <1>   0.0800 
 47 H       -7.5460    -2.8900    -2.7580 H     1 <1>   0.0800 
 48 H       -7.7340    -2.6400     1.9900 H     1 <1>   0.0800 
 49 H       -8.9350    -2.0310     3.1020 H     1 <1>   0.0800 
 50 H       -8.1080    -0.9350     2.0320 H     1 <1>   0.0800 
 51 H      -13.1920     0.9530     2.8980 H     1 <1>   0.0800 
 52 H      -13.0750    -0.0830     1.4810 H     1 <1>   0.0800 
 53 H      -13.7140     1.5620     1.3320 H     1 <1>   0.0800 
@<TRIPOS>BOND
  1   1   2  1   
  2   2   3  ar  
  3   2   4  ar  
  4   3   5  ar  
  5   3  28  1   
  6   4   6  ar  
  7   4  29  1   
  8   5   7  ar  
  9   5  30  1   
 10   6   7  ar  
 11   6  31  1   
 12   7   8  1   
 13   8   9  1   
 14   8  10  2   
 15   9  11  1   
 16  10  12  1   
 17  10  13  1   
 18  11  12  2   
 19  12  14  1   
 20  13  15  2   
 21  13  16  am  
 22  14  17  1   
 23  14  32  1   
 24  16  18  1   
 25  16  33  1   
 26  17  19  1   
 27  17  34  1   
 28  17  35  1   
 29  18  20  1   
 30  18  21  1   
 31  18  22  1   
 32  19  23  1   
 33  19  36  1   
 34  19  37  1   
 35  20  24  1   
 36  20  38  1   
 37  20  39  1   
 38  21  25  1   
 39  21  40  1   
 40  21  41  1   
 41  22  26  1   
 42  22  42  1   
 43  22  43  1   
 44  23  27  1   
 45  24  25  1   
 46  24  44  1   
 47  24  45  1   
 48  25  46  1   
 49  25  47  1   
 50  26  48  1   
 51  26  49  1   
 52  26  50  1   
 53  27  51  1   
 54  27  52  1   
 55  27  53  1   
@<TRIPOS>SUBSTRUCTURE
  1 ****  13 GROUP 4 **** **** 0

# MOE 2024.06 (io_trps.svl 2023.06)
