@<TRIPOS>MOLECULE
NONAME
62 65 1 0 0 
SMALL
USER_CHARGES


@<TRIPOS>ATOM
  1 O        3.0460    -0.6740     0.8870 O.2   1 <1>  -0.5700 
  2 C        1.9380    -0.8900     0.4310 C.2   1 <1>   0.5440 
  3 N        1.1070     0.1830     0.3080 N.am  1 <1>  -0.7300 
  4 C        1.5520    -2.2370     0.0280 C.ar  1 <1>   0.0860 
  5 C        1.4340     1.5490     0.7450 C.3   1 <1>   0.2840 
  6 C        0.2230    -2.6690    -0.1430 C.ar  1 <1>   0.0830 
  7 C        2.5580    -3.1800    -0.2040 C.ar  1 <1>  -0.1500 
  8 C        0.4010     2.5150     0.1910 C.ar  1 <1>  -0.1440 
  9 O       -0.7860    -1.7890     0.0820 O.3   1 <1>  -0.3630 
 10 C       -0.0480    -3.9820    -0.5300 C.ar  1 <1>  -0.1500 
 11 C        2.2820    -4.4770    -0.5870 C.ar  1 <1>  -0.1500 
 12 C        0.4130     2.8570    -1.1520 C.ar  1 <1>  -0.1500 
 13 C       -0.5550     3.0760     1.0210 C.ar  1 <1>  -0.1500 
 14 C       -2.1480    -2.1480     0.0640 C.3   1 <1>   0.1200 
 15 C        0.9730    -4.8870    -0.7540 C.ar  1 <1>  -0.1430 
 16 C       -0.5120     3.7550    -1.6550 C.ar  1 <1>  -0.1500 
 17 C       -1.4790     3.9750     0.5180 C.ar  1 <1>  -0.1500 
 18 C       -2.9570    -0.8940     0.3840 C.3   1 <1>  -0.1600 
 19 C        0.6800    -6.3160    -1.1750 C.3   1 <1>  -0.0970 
 20 C       -1.4670     4.3250    -0.8270 C.ar  1 <1>  -0.1430 
 21 C       -4.4660    -1.1790     0.3610 C.3   1 <1>   0.0960 
 22 C       -2.4790     5.3000    -1.4190 C.3   1 <1>   0.2840 
 23 N       -5.2150     0.0630     0.6190 N.pl3 1 <1>   0.3140 
 24 N       -2.8560     6.3470    -0.4430 N.am  1 <1>  -0.7300 
 25 N       -5.7380     0.3670     1.8100 N.2   1 <1>  -0.4180 
 26 C       -5.3750     1.0900    -0.2140 C.2   1 <1>  -0.3020 
 27 C       -4.0480     6.5890     0.1500 C.2   1 <1>   0.5690 
 28 N       -6.2170     1.5620     1.7500 N.2   1 <1>  -0.2270 
 29 C       -5.9940     2.0270     0.5170 C.2   1 <1>   0.0460 
 30 O       -4.1390     7.4790     0.9540 O.2   1 <1>  -0.5700 
 31 C       -5.2820     5.7560    -0.1610 C.3   1 <1>  -0.0990 
 32 C       -6.3540     3.4370     0.0950 C.3   1 <1>   0.0210 
 33 C       -5.2080     4.3700     0.5020 C.3   1 <1>  -0.1600 
 34 H        0.1290     0.0130     0.0590 H     1 <1>   0.3700 
 35 H        2.4150     1.8140     0.3890 H     1 <1>   0.0800 
 36 H        1.4460     1.5830     1.8210 H     1 <1>   0.0800 
 37 H        3.5860    -2.8850    -0.0800 H     1 <1>   0.1500 
 38 H       -1.0560    -4.3230    -0.6640 H     1 <1>   0.1500 
 39 H        3.0910    -5.1670    -0.7530 H     1 <1>   0.1500 
 40 H        1.1500     2.4230    -1.8060 H     1 <1>   0.1500 
 41 H       -0.5840     2.8200     2.0660 H     1 <1>   0.1500 
 42 H       -2.3080    -2.9120     0.8060 H     1 <1>   0.0800 
 43 H       -2.3890    -2.5170    -0.9180 H     1 <1>   0.0800 
 44 H       -0.4800     4.0030    -2.7020 H     1 <1>   0.1500 
 45 H       -2.2040     4.3990     1.1900 H     1 <1>   0.1500 
 46 H       -2.7240    -0.1360    -0.3430 H     1 <1>   0.0800 
 47 H       -2.6820    -0.5380     1.3630 H     1 <1>   0.0800 
 48 H       -0.3450    -6.4280    -1.4790 H     1 <1>   0.0800 
 49 H        0.8710    -6.9840    -0.3540 H     1 <1>   0.0800 
 50 H        1.3100    -6.5940    -2.0010 H     1 <1>   0.0800 
 51 H       -4.7250    -1.8950     1.1200 H     1 <1>   0.0800 
 52 H       -4.7660    -1.5620    -0.5970 H     1 <1>   0.0800 
 53 H       -3.3460     4.7530    -1.7430 H     1 <1>   0.0800 
 54 H       -2.0530     5.7800    -2.2830 H     1 <1>   0.0800 
 55 H       -2.0780     6.9160    -0.1060 H     1 <1>   0.3700 
 56 H       -5.0290     1.1020    -1.2290 H     1 <1>   0.1500 
 57 H       -5.3810     5.6640    -1.2260 H     1 <1>   0.0800 
 58 H       -6.1490     6.2790     0.2030 H     1 <1>   0.0800 
 59 H       -7.2770     3.7380     0.5590 H     1 <1>   0.0800 
 60 H       -6.4830     3.4540    -0.9720 H     1 <1>   0.0800 
 61 H       -5.2020     4.4810     1.5730 H     1 <1>   0.0800 
 62 H       -4.2850     3.8960     0.2250 H     1 <1>   0.0800 
@<TRIPOS>BOND
  1   1   2  2   
  2   2   3  am  
  3   2   4  1   
  4   3   5  1   
  5   3  34  1   
  6   4   6  ar  
  7   4   7  ar  
  8   5   8  1   
  9   5  35  1   
 10   5  36  1   
 11   6   9  1   
 12   6  10  ar  
 13   7  11  ar  
 14   7  37  1   
 15   8  12  ar  
 16   8  13  ar  
 17   9  14  1   
 18  10  15  ar  
 19  10  38  1   
 20  11  15  ar  
 21  11  39  1   
 22  12  16  ar  
 23  12  40  1   
 24  13  17  ar  
 25  13  41  1   
 26  14  18  1   
 27  14  42  1   
 28  14  43  1   
 29  15  19  1   
 30  16  20  ar  
 31  16  44  1   
 32  17  20  ar  
 33  17  45  1   
 34  18  21  1   
 35  18  46  1   
 36  18  47  1   
 37  19  48  1   
 38  19  49  1   
 39  19  50  1   
 40  20  22  1   
 41  21  23  1   
 42  21  51  1   
 43  21  52  1   
 44  22  24  1   
 45  22  53  1   
 46  22  54  1   
 47  23  25  1   
 48  23  26  1   
 49  24  27  am  
 50  24  55  1   
 51  25  28  2   
 52  26  29  2   
 53  26  56  1   
 54  27  30  2   
 55  27  31  1   
 56  28  29  1   
 57  29  32  1   
 58  31  33  1   
 59  31  57  1   
 60  31  58  1   
 61  32  33  1   
 62  32  59  1   
 63  32  60  1   
 64  33  61  1   
 65  33  62  1   
@<TRIPOS>SUBSTRUCTURE
  1 ****  18 GROUP 4 **** **** 0

# MOE 2024.06 (io_trps.svl 2023.06)
