@<TRIPOS>MOLECULE
NONAME
51 54 1 0 0 
SMALL
USER_CHARGES


@<TRIPOS>ATOM
  1 O       -0.5190     0.5290     1.0980 O.2   1 <1>  -0.5700 
  2 C       -1.4920     1.0400     0.5940 C.2   1 <1>   0.5690 
  3 N       -2.6120     0.3140     0.3080 N.am  1 <1>  -0.6600 
  4 C       -1.4690     2.5220     0.2600 C.3   1 <1>  -0.0990 
  5 C       -3.8400     0.8070    -0.3640 C.3   1 <1>   0.1400 
  6 C       -2.7490    -1.1220     0.6290 C.3   1 <1>   0.1400 
  7 C       -0.1630     3.2240     0.6620 C.3   1 <1>   0.0200 
  8 C       -4.8120    -0.3820    -0.3780 C.3   1 <1>   0.2000 
  9 C       -3.8980    -1.6070    -0.2580 C.3   1 <1>  -0.0800 
 10 C       -0.1710     4.7070     0.3190 C.2   1 <1>   0.0060 
 11 O       -5.6450    -0.3300     0.7450 O.3   1 <1>  -0.5600 
 12 C       -4.5910    -2.8750     0.2720 C.3   1 <1>   0.0200 
 13 N       -1.1330     5.3290    -0.2730 N.2   1 <1>  -0.5650 
 14 N        0.8820     5.5050     0.6290 N.pl3 1 <1>   0.0330 
 15 C       -6.7860     0.4570     0.6050 C.3   1 <1>   0.0400 
 16 C       -3.7090    -4.1120     0.2100 C.2   1 <1>  -0.0400 
 17 C       -0.7010     6.6180    -0.3650 C.ar  1 <1>   0.2270 
 18 C        0.5570     6.7460     0.1940 C.ar  1 <1>  -0.1520 
 19 O       -4.1660    -5.2330     0.7020 O.3   1 <1>  -0.0190 
 20 C       -2.4780    -4.3500    -0.2700 C.2   1 <1>  -0.1500 
 21 C       -1.3340     7.7310    -0.9140 C.ar  1 <1>  -0.1500 
 22 C        1.2170     7.9770     0.2220 C.ar  1 <1>  -0.1500 
 23 N       -3.3090    -6.2050     0.5790 N.2   1 <1>  -0.4100 
 24 C       -2.2810    -5.7020    -0.0020 C.2   1 <1>   0.1080 
 25 C       -0.6920     8.9510    -0.8920 C.ar  1 <1>  -0.1500 
 26 C        0.5830     9.0720    -0.3240 C.ar  1 <1>  -0.1500 
 27 C       -1.0300    -6.4790    -0.3440 C.3   1 <1>  -0.0590 
 28 H       -1.6140     2.6370    -0.7980 H     1 <1>   0.0800 
 29 H       -2.2870     2.9990     0.7670 H     1 <1>   0.0800 
 30 H       -4.2530     1.6520     0.1580 H     1 <1>   0.0800 
 31 H       -3.5940     1.0880    -1.3730 H     1 <1>   0.0800 
 32 H       -1.8310    -1.6490     0.4350 H     1 <1>   0.0800 
 33 H       -3.0070    -1.2190     1.6700 H     1 <1>   0.0800 
 34 H        0.6610     2.7530     0.1550 H     1 <1>   0.0800 
 35 H       -0.0140     3.1100     1.7210 H     1 <1>   0.0800 
 36 H       -5.4170    -0.4170    -1.2680 H     1 <1>   0.0800 
 37 H       -3.4960    -1.8130    -1.2340 H     1 <1>   0.0800 
 38 H       -5.4780    -3.0640    -0.3060 H     1 <1>   0.0800 
 39 H       -4.8970    -2.7240     1.2930 H     1 <1>   0.0800 
 40 H        1.7490     5.2310     1.0970 H     1 <1>   0.2700 
 41 H       -7.3310     0.4210     1.5330 H     1 <1>   0.0800 
 42 H       -7.3970     0.0600    -0.1870 H     1 <1>   0.0800 
 43 H       -6.5030     1.4730     0.3940 H     1 <1>   0.0800 
 44 H       -1.7770    -3.6950    -0.7520 H     1 <1>   0.1500 
 45 H       -2.3110     7.6080    -1.3430 H     1 <1>   0.1500 
 46 H        2.1950     8.0600     0.6600 H     1 <1>   0.1500 
 47 H       -1.1660     9.8210    -1.3120 H     1 <1>   0.1500 
 48 H        1.0640    10.0350    -0.3190 H     1 <1>   0.1500 
 49 H       -0.8640    -6.4550    -1.4050 H     1 <1>   0.0800 
 50 H       -1.1370    -7.5020    -0.0320 H     1 <1>   0.0800 
 51 H       -0.1840    -6.0480     0.1590 H     1 <1>   0.0800 
@<TRIPOS>BOND
  1   1   2  2   
  2   2   3  am  
  3   2   4  1   
  4   3   5  1   
  5   3   6  1   
  6   4   7  1   
  7   4  28  1   
  8   4  29  1   
  9   5   8  1   
 10   5  30  1   
 11   5  31  1   
 12   6   9  1   
 13   6  32  1   
 14   6  33  1   
 15   7  10  1   
 16   7  34  1   
 17   7  35  1   
 18   8   9  1   
 19   8  11  1   
 20   8  36  1   
 21   9  12  1   
 22   9  37  1   
 23  10  13  2   
 24  10  14  1   
 25  11  15  1   
 26  12  16  1   
 27  12  38  1   
 28  12  39  1   
 29  13  17  1   
 30  14  18  1   
 31  14  40  1   
 32  15  41  1   
 33  15  42  1   
 34  15  43  1   
 35  16  19  1   
 36  16  20  2   
 37  17  18  ar  
 38  17  21  ar  
 39  18  22  ar  
 40  19  23  1   
 41  20  24  1   
 42  20  44  1   
 43  21  25  ar  
 44  21  45  1   
 45  22  26  ar  
 46  22  46  1   
 47  23  24  2   
 48  24  27  1   
 49  25  26  ar  
 50  25  47  1   
 51  26  48  1   
 52  27  49  1   
 53  27  50  1   
 54  27  51  1   
@<TRIPOS>SUBSTRUCTURE
  1 ****   2 GROUP 4 **** **** 0

# MOE 2024.06 (io_trps.svl 2023.06)
