@<TRIPOS>MOLECULE
NONAME
56 60 1 0 0 
SMALL
USER_CHARGES


@<TRIPOS>ATOM
  1 O        1.6070    -0.6420    -2.5480 O.2   1 <1>  -0.5700 
  2 C        1.8000    -1.1840    -1.4850 C.2   1 <1>   0.5690 
  3 N        2.2990    -0.5060    -0.3840 N.am  1 <1>  -0.4770 
  4 C        1.4710    -2.6880    -1.4070 C.3   1 <1>   0.1710 
  5 C        2.3540     0.8830    -0.1880 C.ar  1 <1>   0.1170 
  6 C        2.7750    -1.1670     0.8660 C.3   1 <1>   0.2200 
  7 N        0.0390    -3.0410    -1.1460 N.3   1 <1>  -0.8100 
  8 C        2.6290     1.1970     1.1260 C.ar  1 <1>  -0.1430 
  9 C        2.1730     1.9140    -1.1030 C.ar  1 <1>  -0.1500 
 10 C        2.7810    -0.0610     1.9380 C.3   1 <1>  -0.0170 
 11 C        4.1860    -1.7200     0.6350 C.3   1 <1>  -0.2400 
 12 C       -0.1600    -4.4990    -1.2590 C.3   1 <1>   0.1100 
 13 C       -0.4730    -2.4490     0.1120 C.3   1 <1>   0.1100 
 14 C        2.7310     2.5050     1.5590 C.ar  1 <1>  -0.1500 
 15 C        2.2710     3.2310    -0.6840 C.ar  1 <1>  -0.1500 
 16 C       -1.6170    -4.8730    -1.5590 C.3   1 <1>   0.0960 
 17 C       -2.0010    -2.3710     0.1450 C.3   1 <1>   0.0200 
 18 C        2.5500     3.5270     0.6420 C.ar  1 <1>  -0.1500 
 19 N       -2.4510    -4.7920    -0.3420 N.pl3 1 <1>   0.0480 
 20 C       -2.6280    -3.7190     0.4280 C.2   1 <1>   0.0070 
 21 C       -3.1770    -5.7310     0.2810 C.2   1 <1>   0.0060 
 22 N       -3.3850    -3.9750     1.4360 N.2   1 <1>  -0.3380 
 23 N       -3.7340    -5.2570     1.3430 N.2   1 <1>  -0.3380 
 24 C       -3.3110    -7.1670    -0.2160 C.3   1 <1>   0.1630 
 25 C       -4.3080    -8.0260     0.5550 C.ar  1 <1>  -0.1440 
 26 C       -5.6480    -7.6660     0.6230 C.ar  1 <1>   0.1600 
 27 C       -3.9050    -9.1900     1.1830 C.ar  1 <1>  -0.1500 
 28 N       -6.5960    -8.3690     1.2250 N.ar  1 <1>  -0.6200 
 29 C       -4.8760    -9.9240     1.8290 C.ar  1 <1>  -0.1500 
 30 C       -6.1860    -9.4770     1.8170 C.ar  1 <1>   0.1600 
 31 H        2.0910    -3.1680    -0.6760 H     1 <1>   0.0800 
 32 H        1.7460    -3.0970    -2.3630 H     1 <1>   0.0800 
 33 H        2.1040    -1.9540     1.1640 H     1 <1>   0.0800 
 34 H        1.9600     1.6970    -2.1330 H     1 <1>   0.1500 
 35 H        3.6880    -0.0530     2.5160 H     1 <1>   0.0800 
 36 H        1.9390    -0.1760     2.5970 H     1 <1>   0.0800 
 37 H        4.8560    -0.9240     0.3590 H     1 <1>   0.0800 
 38 H        4.1900    -2.4600    -0.1440 H     1 <1>   0.0800 
 39 H        4.5540    -2.1780     1.5350 H     1 <1>   0.0800 
 40 H        0.1830    -5.0000    -0.3680 H     1 <1>   0.0800 
 41 H        0.4290    -4.8600    -2.0850 H     1 <1>   0.0800 
 42 H       -0.1200    -1.4370     0.2000 H     1 <1>   0.0800 
 43 H       -0.1150    -3.0030     0.9640 H     1 <1>   0.0800 
 44 H        2.9470     2.7290     2.5890 H     1 <1>   0.1500 
 45 H        2.1310     4.0270    -1.3950 H     1 <1>   0.1500 
 46 H       -1.6500    -5.8770    -1.9370 H     1 <1>   0.0800 
 47 H       -2.0150    -4.2140    -2.3090 H     1 <1>   0.0800 
 48 H       -2.3680    -1.9710    -0.7830 H     1 <1>   0.0800 
 49 H       -2.2920    -1.6960     0.9290 H     1 <1>   0.0800 
 50 H        2.6250     4.5530     0.9580 H     1 <1>   0.1500 
 51 H       -2.3410    -7.6270    -0.1770 H     1 <1>   0.0800 
 52 H       -3.6220    -7.1460    -1.2450 H     1 <1>   0.0800 
 53 H       -5.9570    -6.7470     0.1550 H     1 <1>   0.1500 
 54 H       -2.8810    -9.5180     1.1760 H     1 <1>   0.1500 
 55 H       -4.6240   -10.8360     2.3380 H     1 <1>   0.1500 
 56 H       -6.9350   -10.0610     2.3230 H     1 <1>   0.1500 
@<TRIPOS>BOND
  1   1   2  2   
  2   2   3  am  
  3   2   4  1   
  4   3   5  1   
  5   3   6  1   
  6   4   7  1   
  7   4  31  1   
  8   4  32  1   
  9   5   8  ar  
 10   5   9  ar  
 11   6  10  1   
 12   6  11  1   
 13   6  33  1   
 14   7  12  1   
 15   7  13  1   
 16   8  10  1   
 17   8  14  ar  
 18   9  15  ar  
 19   9  34  1   
 20  10  35  1   
 21  10  36  1   
 22  11  37  1   
 23  11  38  1   
 24  11  39  1   
 25  12  16  1   
 26  12  40  1   
 27  12  41  1   
 28  13  17  1   
 29  13  42  1   
 30  13  43  1   
 31  14  18  ar  
 32  14  44  1   
 33  15  18  ar  
 34  15  45  1   
 35  16  19  1   
 36  16  46  1   
 37  16  47  1   
 38  17  20  1   
 39  17  48  1   
 40  17  49  1   
 41  18  50  1   
 42  19  20  1   
 43  19  21  1   
 44  20  22  2   
 45  21  23  2   
 46  21  24  1   
 47  22  23  1   
 48  24  25  1   
 49  24  51  1   
 50  24  52  1   
 51  25  26  ar  
 52  25  27  ar  
 53  26  28  ar  
 54  26  53  1   
 55  27  29  ar  
 56  27  54  1   
 57  28  30  ar  
 58  29  30  ar  
 59  29  55  1   
 60  30  56  1   
@<TRIPOS>SUBSTRUCTURE
  1 ****  13 GROUP 4 **** **** 0

# MOE 2024.06 (io_trps.svl 2023.06)
