@<TRIPOS>MOLECULE
NONAME
52 55 1 0 0 
SMALL
USER_CHARGES


@<TRIPOS>ATOM
  1 O       -1.3720     0.7200     1.2130 O.2   1 <1>  -0.5700 
  2 C       -2.2930     1.5230     1.1880 C.2   1 <1>   0.7150 
  3 N       -3.5750     1.0150     1.1990 N.am  1 <1>  -0.6600 
  4 C       -2.0430     2.9460     1.1380 C.2   1 <1>   0.0550 
  5 C       -3.8100    -0.4100     1.5790 C.3   1 <1>   0.1400 
  6 C       -4.6350     1.5600     0.3030 C.3   1 <1>   0.1400 
  7 O       -0.9330     3.4270     0.5740 O.3   1 <1>  -0.2800 
  8 C       -2.7820     4.0000     1.5950 C.2   1 <1>  -0.1500 
  9 C       -3.7810    -1.2590     0.2880 C.3   1 <1>   0.4230 
 10 C       -4.7170     0.6950    -0.9680 C.3   1 <1>  -0.1600 
 11 C       -0.9520     4.7400     0.6660 C.2   1 <1>   0.2030 
 12 C       -2.0750     5.1620     1.2880 C.2   1 <1>  -0.1500 
 13 N       -3.8380    -2.7450     0.4940 N.4   1 <1>  -0.9590 
 14 C       -4.9200    -0.8190    -0.6610 C.3   1 <1>  -0.1060 
 15 O        0.0510     5.4990     0.1630 O.3   1 <1>  -0.1460 
 16 C       -3.6990    -3.5340    -0.7660 C.3   1 <1>   0.3430 
 17 C       -2.9970    -3.2770     1.5990 C.3   1 <1>   0.2630 
 18 C       -6.2540    -1.0670     0.0680 C.2   1 <1>   0.9060 
 19 C       -4.8930    -1.6350    -1.9870 C.3   1 <1>  -0.1600 
 20 C        1.2480     4.9910    -0.2300 C.ar  1 <1>   0.0820 
 21 C       -3.7480    -2.6600    -2.0290 C.3   1 <1>  -0.1600 
 22 O       -6.3900    -2.1290     0.6960 O.co2 1 <1>  -0.9000 
 23 O       -7.1390    -0.2130     0.0460 O.co2 1 <1>  -0.9000 
 24 C        1.8240     5.5090    -1.3800 C.ar  1 <1>  -0.1500 
 25 C        1.9140     4.0060     0.4900 C.ar  1 <1>  -0.1500 
 26 C        3.0500     5.0390    -1.8180 C.ar  1 <1>  -0.1500 
 27 C        3.1400     3.5360     0.0500 C.ar  1 <1>  -0.1500 
 28 C        3.7070     4.0510    -1.1040 C.ar  1 <1>  -0.1500 
 29 H       -3.0380    -0.7230     2.2570 H     1 <1>   0.0800 
 30 H       -4.7590    -0.4950     2.0820 H     1 <1>   0.0800 
 31 H       -5.5800     1.5550     0.8220 H     1 <1>   0.0800 
 32 H       -4.4210     2.5760     0.0240 H     1 <1>   0.0800 
 33 H       -3.7300     3.9620     2.1040 H     1 <1>   0.1500 
 34 H       -2.8430    -1.0360    -0.1910 H     1 <1>   0.0800 
 35 H       -5.5380     1.0500    -1.5670 H     1 <1>   0.0800 
 36 H       -3.8160     0.8390    -1.5400 H     1 <1>   0.0800 
 37 H       -2.3710     6.1720     1.5050 H     1 <1>   0.1500 
 38 H       -4.8550    -2.8510     0.7630 H     1 <1>   0.4500 
 39 H       -2.7690    -4.0780    -0.7580 H     1 <1>   0.0800 
 40 H       -4.5030    -4.2510    -0.8090 H     1 <1>   0.0800 
 41 H       -1.9570    -3.0750     1.4040 H     1 <1>   0.0800 
 42 H       -3.1390    -4.3410     1.6920 H     1 <1>   0.0800 
 43 H       -3.2740    -2.8160     2.5320 H     1 <1>   0.0800 
 44 H       -5.8270    -2.1630    -2.0940 H     1 <1>   0.0800 
 45 H       -4.8150    -0.9810    -2.8390 H     1 <1>   0.0800 
 46 H       -2.8070    -2.1500    -2.1410 H     1 <1>   0.0800 
 47 H       -3.8670    -3.2950    -2.8890 H     1 <1>   0.0800 
 48 H        1.3090     6.2760    -1.9300 H     1 <1>   0.1500 
 49 H        1.4830     3.6070     1.3900 H     1 <1>   0.1500 
 50 H        3.4920     5.4400    -2.7130 H     1 <1>   0.1500 
 51 H        3.6510     2.7690     0.6060 H     1 <1>   0.1500 
 52 H        4.6590     3.6830    -1.4440 H     1 <1>   0.1500 
@<TRIPOS>BOND
  1   1   2  2   
  2   2   3  am  
  3   2   4  1   
  4   3   5  1   
  5   3   6  1   
  6   4   7  1   
  7   4   8  2   
  8   5   9  1   
  9   5  29  1   
 10   5  30  1   
 11   6  10  1   
 12   6  31  1   
 13   6  32  1   
 14   7  11  1   
 15   8  12  1   
 16   8  33  1   
 17   9  13  1   
 18   9  14  1   
 19   9  34  1   
 20  10  14  1   
 21  10  35  1   
 22  10  36  1   
 23  11  12  2   
 24  11  15  1   
 25  12  37  1   
 26  13  16  1   
 27  13  17  1   
 28  13  38  1   
 29  14  18  1   
 30  14  19  1   
 31  15  20  1   
 32  16  21  1   
 33  16  39  1   
 34  16  40  1   
 35  17  41  1   
 36  17  42  1   
 37  17  43  1   
 38  18  22  ar  
 39  18  23  ar  
 40  19  21  1   
 41  19  44  1   
 42  19  45  1   
 43  20  24  ar  
 44  20  25  ar  
 45  21  46  1   
 46  21  47  1   
 47  24  26  ar  
 48  24  48  1   
 49  25  27  ar  
 50  25  49  1   
 51  26  28  ar  
 52  26  50  1   
 53  27  28  ar  
 54  27  51  1   
 55  28  52  1   
@<TRIPOS>SUBSTRUCTURE
  1 ****   2 GROUP 4 **** **** 0

# MOE 2024.06 (io_trps.svl 2023.06)
