@<TRIPOS>MOLECULE
NONAME
46 49 1 0 0 
SMALL
USER_CHARGES


@<TRIPOS>ATOM
  1 O       -0.7520     0.3600    -0.0220 O.2   1 <1>  -0.5700 
  2 C       -1.6410     0.9700     0.5430 C.2   1 <1>   0.7150 
  3 N       -2.7480     0.2720     0.9630 N.am  1 <1>  -0.6600 
  4 C       -1.5370     2.3950     0.7470 C.2   1 <1>  -0.2370 
  5 C       -2.7390    -1.2210     1.0820 C.3   1 <1>   0.1400 
  6 C       -4.1300     0.8350     0.8890 C.3   1 <1>   0.1400 
  7 N       -0.8570     3.2530    -0.0820 N.pl3 1 <1>   0.0480 
  8 C       -2.0560     3.1490     1.7700 C.2   1 <1>  -0.1500 
  9 C       -3.6540    -1.8670     0.0250 C.3   1 <1>   0.3440 
 10 C       -4.9780     0.0740    -0.1510 C.3   1 <1>   0.2950 
 11 C       -0.9720     4.5030     0.4210 C.2   1 <1>  -0.3020 
 12 C       -0.1140     2.9090    -1.3120 C.3   1 <1>   0.0160 
 13 C       -1.7080     4.4870     1.5710 C.2   1 <1>   0.0190 
 14 O       -4.9380    -1.3020     0.0930 O.3   1 <1>  -0.5600 
 15 C       -3.7410    -3.3750     0.2420 C.ar  1 <1>  -0.1440 
 16 C       -6.4450     0.5080    -0.1030 C.3   1 <1>  -0.1950 
 17 C       -2.0670     5.5840     2.4250 C.1   1 <1>   0.5380 
 18 C       -2.8200    -4.2070    -0.3790 C.ar  1 <1>  -0.1500 
 19 C       -4.7140    -3.9380     1.0580 C.ar  1 <1>  -0.1500 
 20 C       -7.3470     0.3190    -1.2800 C.3   1 <1>  -0.2000 
 21 C       -6.9240     1.7020    -0.8700 C.3   1 <1>  -0.2000 
 22 N       -2.3620     6.4520     3.1040 N.1   1 <1>  -0.5570 
 23 C       -2.8690    -5.5780    -0.1870 C.ar  1 <1>  -0.1500 
 24 C       -4.7640    -5.3080     1.2500 C.ar  1 <1>  -0.1500 
 25 C       -3.8410    -6.1290     0.6280 C.ar  1 <1>  -0.1500 
 26 H       -1.7410    -1.6070     0.9710 H     1 <1>   0.0800 
 27 H       -3.0860    -1.5010     2.0610 H     1 <1>   0.0800 
 28 H       -4.5970     0.7580     1.8550 H     1 <1>   0.0800 
 29 H       -4.1050     1.8740     0.6130 H     1 <1>   0.0800 
 30 H       -2.6330     2.7870     2.6050 H     1 <1>   0.1500 
 31 H       -3.2590    -1.6750    -0.9580 H     1 <1>   0.0800 
 32 H       -4.5850     0.2490    -1.1380 H     1 <1>   0.0800 
 33 H       -0.5250     5.3600    -0.0520 H     1 <1>   0.1500 
 34 H        0.2040     3.8050    -1.8100 H     1 <1>   0.0800 
 35 H       -0.7490     2.3400    -1.9660 H     1 <1>   0.0800 
 36 H        0.7460     2.3190    -1.0510 H     1 <1>   0.0800 
 37 H       -6.8780     0.3480     0.8700 H     1 <1>   0.1000 
 38 H       -2.0570    -3.7940    -1.0150 H     1 <1>   0.1500 
 39 H       -5.4390    -3.3090     1.5440 H     1 <1>   0.1500 
 40 H       -6.9390    -0.1130    -2.1780 H     1 <1>   0.1000 
 41 H       -8.3610     0.0060    -1.1000 H     1 <1>   0.1000 
 42 H       -7.6570     2.3490    -0.4210 H     1 <1>   0.1000 
 43 H       -6.2440     2.2340    -1.5130 H     1 <1>   0.1000 
 44 H       -2.1500    -6.2150    -0.6720 H     1 <1>   0.1500 
 45 H       -5.5230    -5.7330     1.8830 H     1 <1>   0.1500 
 46 H       -3.8800    -7.1940     0.7770 H     1 <1>   0.1500 
@<TRIPOS>BOND
  1   1   2  2   
  2   2   3  am  
  3   2   4  1   
  4   3   5  1   
  5   3   6  1   
  6   4   7  1   
  7   4   8  2   
  8   5   9  1   
  9   5  26  1   
 10   5  27  1   
 11   6  10  1   
 12   6  28  1   
 13   6  29  1   
 14   7  11  1   
 15   7  12  1   
 16   8  13  1   
 17   8  30  1   
 18   9  14  1   
 19   9  15  1   
 20   9  31  1   
 21  10  14  1   
 22  10  16  1   
 23  10  32  1   
 24  11  13  2   
 25  11  33  1   
 26  12  34  1   
 27  12  35  1   
 28  12  36  1   
 29  13  17  1   
 30  15  18  ar  
 31  15  19  ar  
 32  16  20  1   
 33  16  21  1   
 34  16  37  1   
 35  17  22  3   
 36  18  23  ar  
 37  18  38  1   
 38  19  24  ar  
 39  19  39  1   
 40  20  21  1   
 41  20  40  1   
 42  20  41  1   
 43  21  42  1   
 44  21  43  1   
 45  23  25  ar  
 46  23  44  1   
 47  24  25  ar  
 48  24  45  1   
 49  25  46  1   
@<TRIPOS>SUBSTRUCTURE
  1 ****   3 GROUP 4 **** **** 0

# MOE 2024.06 (io_trps.svl 2023.06)
