@<TRIPOS>MOLECULE
NONAME
53 55 1 0 0 
SMALL
USER_CHARGES


@<TRIPOS>ATOM
  1 O        0.4240     0.7190     1.1520 O.2   1 <1>  -0.5700 
  2 C       -0.0490     1.4300     0.2880 C.2   1 <1>   0.5440 
  3 N       -1.4100     1.5060     0.2020 N.am  1 <1>  -0.7300 
  4 C        0.8020     2.1460    -0.6480 C.ar  1 <1>   0.0860 
  5 C       -2.3740     0.9040     1.1580 C.3   1 <1>   0.2200 
  6 C        0.3910     3.3320    -1.2620 C.ar  1 <1>  -0.1500 
  7 C        2.0720     1.6680    -0.9700 C.ar  1 <1>  -0.1500 
  8 C       -2.5700    -0.6070     0.8950 C.3   1 <1>   0.2000 
  9 C       -3.6970     1.6700     1.0480 C.3   1 <1>  -0.1600 
 10 C        1.2030     3.9980    -2.1620 C.ar  1 <1>  -0.1500 
 11 C        2.8900     2.3290    -1.8680 C.ar  1 <1>  -0.1500 
 12 O       -1.4010    -1.2970     1.1790 O.3   1 <1>  -0.6800 
 13 C       -3.6890    -1.1890     1.7660 C.3   1 <1>   0.1400 
 14 C       -4.7710     1.0540     1.9500 C.3   1 <1>   0.1400 
 15 C        2.4540     3.4960    -2.4690 C.ar  1 <1>  -0.1500 
 16 N       -4.9400    -0.3840     1.6010 N.am  1 <1>  -0.6600 
 17 C       -6.1380    -0.8650     1.1330 C.2   1 <1>   0.5690 
 18 O       -7.0860    -0.1340     0.9670 O.2   1 <1>  -0.5700 
 19 C       -6.2930    -2.3480     0.8010 C.3   1 <1>  -0.0990 
 20 C       -7.6980    -2.7590     0.3200 C.3   1 <1>  -0.1600 
 21 C       -7.7740    -4.2590     0.0120 C.3   1 <1>  -0.0170 
 22 C       -9.1630    -4.6400    -0.4750 C.ar  1 <1>  -0.1430 
 23 C      -10.1360    -5.0430     0.4270 C.ar  1 <1>  -0.1500 
 24 C       -9.4700    -4.5880    -1.8250 C.ar  1 <1>  -0.1500 
 25 C      -11.4000    -5.3940    -0.0160 C.ar  1 <1>  -0.1500 
 26 C      -10.7330    -4.9380    -2.2710 C.ar  1 <1>  -0.1500 
 27 C      -11.6990    -5.3420    -1.3660 C.ar  1 <1>  -0.1500 
 28 H       -1.8250     1.9450    -0.6210 H     1 <1>   0.3700 
 29 H       -1.9960     1.0250     2.1600 H     1 <1>   0.0800 
 30 H       -0.5730     3.7480    -1.0270 H     1 <1>   0.1500 
 31 H        2.4210     0.7610    -0.5040 H     1 <1>   0.1500 
 32 H       -2.8040    -0.7700    -0.1420 H     1 <1>   0.0800 
 33 H       -3.5460     2.6930     1.3390 H     1 <1>   0.0800 
 34 H       -4.0570     1.6510     0.0340 H     1 <1>   0.0800 
 35 H        0.8650     4.9110    -2.6240 H     1 <1>   0.1500 
 36 H        3.8650     1.9360    -2.1000 H     1 <1>   0.1500 
 37 H       -0.6340    -0.6650     1.1340 H     1 <1>   0.4000 
 38 H       -3.3900    -1.1540     2.7990 H     1 <1>   0.0800 
 39 H       -3.8410    -2.2160     1.4930 H     1 <1>   0.0800 
 40 H       -5.6960     1.5910     1.8260 H     1 <1>   0.0800 
 41 H       -4.4790     1.1350     2.9830 H     1 <1>   0.0800 
 42 H        3.0890     4.0120    -3.1690 H     1 <1>   0.1500 
 43 H       -5.5820    -2.5920     0.0330 H     1 <1>   0.0800 
 44 H       -6.0520    -2.9120     1.6830 H     1 <1>   0.0800 
 45 H       -8.4230    -2.5140     1.0790 H     1 <1>   0.0800 
 46 H       -7.9520    -2.2000    -0.5650 H     1 <1>   0.0800 
 47 H       -7.5370    -4.8260     0.8950 H     1 <1>   0.0800 
 48 H       -7.0510    -4.5140    -0.7430 H     1 <1>   0.0800 
 49 H       -9.9140    -5.0840     1.4790 H     1 <1>   0.1500 
 50 H       -8.7260    -4.2720    -2.5360 H     1 <1>   0.1500 
 51 H      -12.1490    -5.7060     0.6890 H     1 <1>   0.1500 
 52 H      -10.9630    -4.8940    -3.3210 H     1 <1>   0.1500 
 53 H      -12.6810    -5.6140    -1.7120 H     1 <1>   0.1500 
@<TRIPOS>BOND
  1   1   2  2   
  2   2   3  am  
  3   2   4  1   
  4   3   5  1   
  5   3  28  1   
  6   4   6  ar  
  7   4   7  ar  
  8   5   8  1   
  9   5   9  1   
 10   5  29  1   
 11   6  10  ar  
 12   6  30  1   
 13   7  11  ar  
 14   7  31  1   
 15   8  12  1   
 16   8  13  1   
 17   8  32  1   
 18   9  14  1   
 19   9  33  1   
 20   9  34  1   
 21  10  15  ar  
 22  10  35  1   
 23  11  15  ar  
 24  11  36  1   
 25  12  37  1   
 26  13  16  1   
 27  13  38  1   
 28  13  39  1   
 29  14  16  1   
 30  14  40  1   
 31  14  41  1   
 32  15  42  1   
 33  16  17  am  
 34  17  18  2   
 35  17  19  1   
 36  19  20  1   
 37  19  43  1   
 38  19  44  1   
 39  20  21  1   
 40  20  45  1   
 41  20  46  1   
 42  21  22  1   
 43  21  47  1   
 44  21  48  1   
 45  22  23  ar  
 46  22  24  ar  
 47  23  25  ar  
 48  23  49  1   
 49  24  26  ar  
 50  24  50  1   
 51  25  27  ar  
 52  25  51  1   
 53  26  27  ar  
 54  26  52  1   
 55  27  53  1   
@<TRIPOS>SUBSTRUCTURE
  1 ****  16 GROUP 4 **** **** 0

# MOE 2024.06 (io_trps.svl 2023.06)
