@<TRIPOS>MOLECULE
NONAME
51 54 1 0 0 
SMALL
USER_CHARGES


@<TRIPOS>ATOM
  1 O       -0.7000     0.7880     1.9240 O.2   1 <1>  -0.5700 
  2 C       -1.2320     1.3590     0.9810 C.2   1 <1>   0.7160 
  3 N       -2.3250     0.7350     0.3960 N.am  1 <1>  -0.6600 
  4 C       -0.7370     2.6730     0.5390 C.2   1 <1>   0.4300 
  5 C       -2.8430    -0.5730     0.9030 C.3   1 <1>   0.1400 
  6 C       -3.2470     1.4160    -0.5530 C.3   1 <1>   0.1400 
  7 N       -0.5660     3.7050     1.3470 N.2   1 <1>  -0.7070 
  8 N       -0.4240     2.9230    -0.7550 N.2   1 <1>  -0.5650 
  9 C       -3.9040    -0.3760     2.0000 C.3   1 <1>   0.1400 
 10 C       -4.1530     2.4210     0.1740 C.3   1 <1>  -0.1600 
 11 N       -0.1030     4.6390     0.5420 N.pl3 1 <1>   0.6010 
 12 C       -0.0340     4.1500    -0.7260 C.2   1 <1>   0.3120 
 13 N       -5.0180     0.5330     1.5650 N.am  1 <1>  -0.6600 
 14 C       -4.6480     1.9770     1.5590 C.3   1 <1>   0.1400 
 15 C        0.2730     5.9390     0.8050 C.2   1 <1>  -0.1810 
 16 N        0.3920     4.8960    -1.8000 N.2   1 <1>  -0.5760 
 17 C       -6.2640     0.1230     1.1450 C.2   1 <1>   0.5690 
 18 C        0.7020     6.6890    -0.2440 C.2   1 <1>  -0.1360 
 19 C        0.7430     6.1140    -1.5470 C.2   1 <1>   0.3760 
 20 O       -7.1060     0.9400     0.8410 O.2   1 <1>  -0.5700 
 21 C       -6.6490    -1.3670     1.0900 C.3   1 <1>   0.2610 
 22 O       -5.6980    -2.1350     0.3630 O.3   1 <1>  -0.2170 
 23 C       -7.9740    -1.7150     0.4000 C.3   1 <1>  -0.0990 
 24 N       -6.2730    -3.0190    -0.4280 N.2   1 <1>  -0.5130 
 25 C       -7.5170    -2.8530    -0.4620 C.2   1 <1>   0.3280 
 26 C       -8.5520    -3.6600    -1.2520 C.3   1 <1>  -0.0190 
 27 C       -7.9570    -4.9470    -1.8460 C.3   1 <1>  -0.2400 
 28 C       -9.1740    -2.8180    -2.3760 C.3   1 <1>  -0.2400 
 29 H       -2.0310    -1.1580     1.3010 H     1 <1>   0.0800 
 30 H       -3.2670    -1.1360     0.0890 H     1 <1>   0.0800 
 31 H       -3.8670     0.6760    -1.0310 H     1 <1>   0.0800 
 32 H       -2.6920     1.9090    -1.3320 H     1 <1>   0.0800 
 33 H       -3.4240     0.0410     2.8690 H     1 <1>   0.0800 
 34 H       -4.2890    -1.3360     2.2900 H     1 <1>   0.0800 
 35 H       -5.0080     2.6150    -0.4490 H     1 <1>   0.0800 
 36 H       -3.6300     3.3540     0.2810 H     1 <1>   0.0800 
 37 H       -5.4980     2.5730     1.8450 H     1 <1>   0.0800 
 38 H       -3.8740     2.1500     2.2870 H     1 <1>   0.0800 
 39 H        0.2000     6.2670     1.8250 H     1 <1>   0.1500 
 40 H        1.0160     7.7120    -0.1320 H     1 <1>   0.1500 
 41 H        1.0870     6.7360    -2.3550 H     1 <1>   0.0600 
 42 H       -6.6560    -1.7580     2.0900 H     1 <1>   0.0800 
 43 H       -8.3430    -0.9120    -0.2100 H     1 <1>   0.0800 
 44 H       -8.7170    -2.0140     1.1140 H     1 <1>   0.0800 
 45 H       -9.3320    -3.9460    -0.5690 H     1 <1>   0.0800 
 46 H       -7.1770    -4.7110    -2.5480 H     1 <1>   0.0800 
 47 H       -8.7160    -5.5190    -2.3500 H     1 <1>   0.0800 
 48 H       -7.5350    -5.5540    -1.0640 H     1 <1>   0.0800 
 49 H       -8.4100    -2.4890    -3.0600 H     1 <1>   0.0800 
 50 H       -9.6710    -1.9530    -1.9750 H     1 <1>   0.0800 
 51 H       -9.8970    -3.3970    -2.9230 H     1 <1>   0.0800 
@<TRIPOS>BOND
  1   1   2  2   
  2   2   3  am  
  3   2   4  1   
  4   3   5  1   
  5   3   6  1   
  6   4   7  2   
  7   4   8  1   
  8   5   9  1   
  9   5  29  1   
 10   5  30  1   
 11   6  10  1   
 12   6  31  1   
 13   6  32  1   
 14   7  11  1   
 15   8  12  2   
 16   9  13  1   
 17   9  33  1   
 18   9  34  1   
 19  10  14  1   
 20  10  35  1   
 21  10  36  1   
 22  11  12  1   
 23  11  15  1   
 24  12  16  1   
 25  13  14  1   
 26  13  17  am  
 27  14  37  1   
 28  14  38  1   
 29  15  18  2   
 30  15  39  1   
 31  16  19  2   
 32  17  20  2   
 33  17  21  1   
 34  18  19  1   
 35  18  40  1   
 36  19  41  1   
 37  21  22  1   
 38  21  23  1   
 39  21  42  1   
 40  22  24  1   
 41  23  25  1   
 42  23  43  1   
 43  23  44  1   
 44  24  25  2   
 45  25  26  1   
 46  26  27  1   
 47  26  28  1   
 48  26  45  1   
 49  27  46  1   
 50  27  47  1   
 51  27  48  1   
 52  28  49  1   
 53  28  50  1   
 54  28  51  1   
@<TRIPOS>SUBSTRUCTURE
  1 ****   6 GROUP 4 **** **** 0

# MOE 2024.06 (io_trps.svl 2023.06)
