@<TRIPOS>MOLECULE
NONAME
40 43 1 0 0 
SMALL
USER_CHARGES


@<TRIPOS>ATOM
  1 F        1.2690     0.0880     0.0200 F     1 <1>  -0.3400 
  2 C        2.3020     0.7490    -0.4810 C.3   1 <1>   1.2400 
  3 F        2.7340     0.0850    -1.5440 F     1 <1>  -0.3400 
  4 O        1.9060     2.0610    -0.8590 O.3   1 <1>  -0.3630 
  5 O        3.3370     0.8460     0.4850 O.3   1 <1>  -0.3630 
  6 C        2.6740     2.8800    -0.1300 C.ar  1 <1>   0.0830 
  7 C        3.5210     2.1590     0.6670 C.ar  1 <1>   0.0830 
  8 C        2.6730     4.2610    -0.1200 C.ar  1 <1>  -0.1500 
  9 C        4.4090     2.7840     1.5180 C.ar  1 <1>  -0.1500 
 10 C        3.5600     4.9150     0.7310 C.ar  1 <1>  -0.1440 
 11 C        4.4200     4.1730     1.5460 C.ar  1 <1>  -0.1500 
 12 C        3.5820     6.4350     0.7740 C.3   1 <1>   0.4870 
 13 N        4.9270     6.9140     0.3620 N.4   1 <1>  -0.9590 
 14 C        5.1790     8.3500     0.7540 C.3   1 <1>   0.3430 
 15 C        5.2740     6.5350    -1.0500 C.3   1 <1>   0.3430 
 16 C        6.6570     8.8180     0.6310 C.3   1 <1>   0.2200 
 17 C        6.7710     6.6450    -1.3770 C.3   1 <1>  -0.0190 
 18 N        7.0150     9.0300    -0.7910 N.am  1 <1>  -0.7300 
 19 C        7.6720     7.8590     1.3050 C.3   1 <1>   0.1200 
 20 C        7.0850     8.0740    -1.7330 C.2   1 <1>   0.5690 
 21 C        7.7560     6.0960    -0.3200 C.3   1 <1>   0.1200 
 22 O        7.4490     6.5070     0.9870 O.3   1 <1>  -0.5600 
 23 O        7.3670     8.3570    -2.8640 O.2   1 <1>  -0.5700 
 24 H        1.9870     4.7890    -0.7600 H     1 <1>   0.1500 
 25 H        5.0650     2.2000     2.1410 H     1 <1>   0.1500 
 26 H        5.1060     4.6610     2.2180 H     1 <1>   0.1500 
 27 H        3.3660     6.7570     1.7800 H     1 <1>   0.0800 
 28 H        2.8270     6.8350     0.1170 H     1 <1>   0.0800 
 29 H        5.6210     6.3760     0.9190 H     1 <1>   0.4500 
 30 H        4.5610     9.0050     0.1620 H     1 <1>   0.0800 
 31 H        4.8880     8.4760     1.7840 H     1 <1>   0.0800 
 32 H        4.9850     5.5090    -1.2120 H     1 <1>   0.0800 
 33 H        4.7140     7.1430    -1.7430 H     1 <1>   0.0800 
 34 H        6.7410     9.7740     1.1180 H     1 <1>   0.0800 
 35 H        6.9360     6.0780    -2.2760 H     1 <1>   0.0800 
 36 H        7.2970     9.9720    -1.0850 H     1 <1>   0.3700 
 37 H        7.5780     7.9420     2.3740 H     1 <1>   0.0800 
 38 H        8.6840     8.1210     1.0420 H     1 <1>   0.0800 
 39 H        8.7690     6.3900    -0.5480 H     1 <1>   0.0800 
 40 H        7.7180     5.0200    -0.3220 H     1 <1>   0.0800 
@<TRIPOS>BOND
  1   1   2  1   
  2   2   3  1   
  3   2   4  1   
  4   2   5  1   
  5   4   6  1   
  6   5   7  1   
  7   6   7  ar  
  8   6   8  ar  
  9   7   9  ar  
 10   8  10  ar  
 11   8  24  1   
 12   9  11  ar  
 13   9  25  1   
 14  10  11  ar  
 15  10  12  1   
 16  11  26  1   
 17  12  13  1   
 18  12  27  1   
 19  12  28  1   
 20  13  14  1   
 21  13  15  1   
 22  13  29  1   
 23  14  16  1   
 24  14  30  1   
 25  14  31  1   
 26  15  17  1   
 27  15  32  1   
 28  15  33  1   
 29  16  18  1   
 30  16  19  1   
 31  16  34  1   
 32  17  20  1   
 33  17  21  1   
 34  17  35  1   
 35  18  20  am  
 36  18  36  1   
 37  19  22  1   
 38  19  37  1   
 39  19  38  1   
 40  20  23  2   
 41  21  22  1   
 42  21  39  1   
 43  21  40  1   
@<TRIPOS>SUBSTRUCTURE
  1 ****  10 GROUP 4 **** **** 0

# MOE 2024.06 (io_trps.svl 2023.06)
