@<TRIPOS>MOLECULE
NONAME
46 48 1 0 0 
SMALL
USER_CHARGES


@<TRIPOS>ATOM
  1 O        3.9190    -1.6920    -1.4960 O.2   1 <1>  -0.5700 
  2 C        3.0800    -1.4420    -0.6640 C.2   1 <1>   0.5690 
  3 N        2.9280    -0.1640    -0.2200 N.am  1 <1>  -0.6600 
  4 C        2.2760    -2.5660    -0.0570 C.3   1 <1>  -0.0990 
  5 C        3.3900     0.1370     1.1810 C.3   1 <1>   0.2200 
  6 C        2.9320     0.9470    -1.2250 C.3   1 <1>   0.1400 
  7 C        1.4370    -3.2650    -1.1320 C.3   1 <1>   0.0960 
  8 C        2.8100     1.4440     1.7470 C.3   1 <1>   0.1200 
  9 C        4.9420     0.1460     1.2450 C.3   1 <1>   0.3430 
 10 C        3.9370     2.0820    -0.9460 C.3   1 <1>  -0.0800 
 11 N        0.6190    -4.3310    -0.5280 N.pl3 1 <1>   0.3140 
 12 O        3.6220     2.5280     1.4080 O.3   1 <1>  -0.5600 
 13 N        5.5860     0.2970    -0.1110 N.4   1 <1>  -0.9590 
 14 C        3.4320     3.0500     0.1360 C.3   1 <1>   0.1200 
 15 C        5.4030     1.6550    -0.7150 C.3   1 <1>   0.3430 
 16 N       -0.2660    -4.0710     0.4520 N.2   1 <1>  -0.7070 
 17 C        0.6380    -5.6420    -0.8340 C.2   1 <1>  -0.3020 
 18 C        7.0200    -0.1040    -0.0910 C.3   1 <1>   0.2630 
 19 C       -0.7900    -5.2200     0.7410 C.2   1 <1>   0.1080 
 20 C       -0.2630    -6.2470    -0.0320 C.2   1 <1>  -0.1500 
 21 C       -1.8520    -5.3820     1.8030 C.3   1 <1>  -0.0590 
 22 H        2.9470    -3.2740     0.3940 H     1 <1>   0.0800 
 23 H        1.6220    -2.1720     0.7000 H     1 <1>   0.0800 
 24 H        3.0380    -0.6490     1.8260 H     1 <1>   0.0800 
 25 H        3.1410     0.5400    -2.2010 H     1 <1>   0.0800 
 26 H        1.9380     1.3600    -1.2740 H     1 <1>   0.0800 
 27 H        2.0730    -3.6970    -1.8830 H     1 <1>   0.0800 
 28 H        0.7730    -2.5620    -1.6000 H     1 <1>   0.0800 
 29 H        2.8090     1.3920     2.8220 H     1 <1>   0.0800 
 30 H        1.7980     1.6130     1.4190 H     1 <1>   0.0800 
 31 H        5.2570    -0.7880     1.6780 H     1 <1>   0.0800 
 32 H        5.2730     0.9320     1.9040 H     1 <1>   0.0800 
 33 H        3.9480     2.6770    -1.8420 H     1 <1>   0.0800 
 34 H        5.0670    -0.3650    -0.7310 H     1 <1>   0.4500 
 35 H        2.3880     3.2880     0.0060 H     1 <1>   0.0800 
 36 H        3.9890     3.9700     0.0920 H     1 <1>   0.0800 
 37 H        5.8860     2.3930    -0.0940 H     1 <1>   0.0800 
 38 H        5.9000     1.6640    -1.6710 H     1 <1>   0.0800 
 39 H        1.2750    -6.0660    -1.5890 H     1 <1>   0.1500 
 40 H        7.5860     0.5550     0.5470 H     1 <1>   0.0800 
 41 H        7.4330    -0.0630    -1.0860 H     1 <1>   0.0800 
 42 H        7.1190    -1.1130     0.2750 H     1 <1>   0.0800 
 43 H       -0.5320    -7.2860     0.0180 H     1 <1>   0.1500 
 44 H       -2.1400    -6.4130     1.8910 H     1 <1>   0.0800 
 45 H       -2.7130    -4.7960     1.5410 H     1 <1>   0.0800 
 46 H       -1.4700    -5.0400     2.7470 H     1 <1>   0.0800 
@<TRIPOS>BOND
  1   1   2  2   
  2   2   3  am  
  3   2   4  1   
  4   3   5  1   
  5   3   6  1   
  6   4   7  1   
  7   4  22  1   
  8   4  23  1   
  9   5   8  1   
 10   5   9  1   
 11   5  24  1   
 12   6  10  1   
 13   6  25  1   
 14   6  26  1   
 15   7  11  1   
 16   7  27  1   
 17   7  28  1   
 18   8  12  1   
 19   8  29  1   
 20   8  30  1   
 21   9  13  1   
 22   9  31  1   
 23   9  32  1   
 24  10  14  1   
 25  10  15  1   
 26  10  33  1   
 27  11  16  1   
 28  11  17  1   
 29  12  14  1   
 30  13  15  1   
 31  13  18  1   
 32  13  34  1   
 33  14  35  1   
 34  14  36  1   
 35  15  37  1   
 36  15  38  1   
 37  16  19  2   
 38  17  20  2   
 39  17  39  1   
 40  18  40  1   
 41  18  41  1   
 42  18  42  1   
 43  19  20  1   
 44  19  21  1   
 45  20  43  1   
 46  21  44  1   
 47  21  45  1   
 48  21  46  1   
@<TRIPOS>SUBSTRUCTURE
  1 ****   2 GROUP 4 **** **** 0

# MOE 2024.06 (io_trps.svl 2023.06)
