@<TRIPOS>MOLECULE
NONAME
55 58 1 0 0 
SMALL
USER_CHARGES


@<TRIPOS>ATOM
  1 O        0.5640     0.9740    -1.5700 O.2   1 <1>  -0.5700 
  2 C        1.0920    -0.0150    -1.1220 C.2   1 <1>   0.5690 
  3 N        2.3160     0.0830    -0.4890 N.am  1 <1>  -0.6600 
  4 C        0.3490    -1.3290    -1.3290 C.3   1 <1>   0.1570 
  5 C        3.1980    -1.0620    -0.0840 C.3   1 <1>   0.1400 
  6 C        2.7440     1.4050     0.0470 C.3   1 <1>   0.1400 
  7 N        0.1980    -2.0870    -0.0690 N.pl3 1 <1>   0.0480 
  8 C        4.5680    -1.0800    -0.8000 C.3   1 <1>   0.3430 
  9 C        3.6430     2.1290    -0.9580 C.3   1 <1>  -0.1600 
 10 C        0.6270    -3.3770     0.1530 C.ar  1 <1>  -0.1520 
 11 C       -0.2020    -1.5710     1.1330 C.2   1 <1>  -0.3020 
 12 N        5.2600     0.2510    -0.8640 N.4   1 <1>  -0.9590 
 13 C        4.5610     1.2140    -1.7640 C.3   1 <1>   0.3430 
 14 C        0.5100    -3.6490     1.5130 C.ar  1 <1>   0.0000 
 15 C        1.1250    -4.3510    -0.7220 C.ar  1 <1>  -0.1500 
 16 C       -0.0290    -2.4910     2.1090 C.2   1 <1>  -0.1500 
 17 C        6.6990     0.1300    -1.2180 C.3   1 <1>   0.5230 
 18 C        0.9080    -4.8910     2.0150 C.ar  1 <1>  -0.1500 
 19 C        1.5140    -5.5700    -0.2160 C.ar  1 <1>  -0.1500 
 20 C        7.3670     1.4350    -0.8380 C.2   1 <1>  -0.0400 
 21 C        1.4090    -5.8390     1.1530 C.ar  1 <1>  -0.1500 
 22 O        7.1490     1.9120     0.3740 O.3   1 <1>  -0.2800 
 23 C        8.1710     2.2640    -1.5360 C.2   1 <1>  -0.1500 
 24 C        7.8080     3.0490     0.4840 C.2   1 <1>  -0.0400 
 25 C        8.4610     3.3220    -0.6670 C.2   1 <1>  -0.1500 
 26 C        7.7280     3.8020     1.8020 C.3   1 <1>   0.0200 
 27 C        8.5290     5.1080     1.7840 C.3   1 <1>  -0.2400 
 28 H        0.8770    -1.9210    -2.0490 H     1 <1>   0.0800 
 29 H       -0.6310    -1.1210    -1.7140 H     1 <1>   0.0800 
 30 H        2.7260    -2.0000    -0.2970 H     1 <1>   0.0800 
 31 H        3.3490    -1.0290     0.9820 H     1 <1>   0.0800 
 32 H        3.2670     1.2640     0.9780 H     1 <1>   0.0800 
 33 H        1.8810     2.0160     0.2610 H     1 <1>   0.0800 
 34 H        4.4210    -1.4490    -1.8020 H     1 <1>   0.0800 
 35 H        5.1970    -1.7890    -0.2880 H     1 <1>   0.0800 
 36 H        4.2280     2.8710    -0.4430 H     1 <1>   0.0800 
 37 H        3.0120     2.6590    -1.6500 H     1 <1>   0.0800 
 38 H       -0.5880    -0.5690     1.2250 H     1 <1>   0.1500 
 39 H        5.2760     0.6850     0.0710 H     1 <1>   0.4500 
 40 H        5.2750     1.8250    -2.2930 H     1 <1>   0.0800 
 41 H        3.9750     0.6750    -2.4920 H     1 <1>   0.0800 
 42 H        1.1940    -4.1570    -1.7760 H     1 <1>   0.1500 
 43 H       -0.2490    -2.4000     3.1590 H     1 <1>   0.1500 
 44 H        6.8240    -0.0690    -2.2690 H     1 <1>   0.0800 
 45 H        7.1530    -0.6660    -0.6510 H     1 <1>   0.0800 
 46 H        0.8130    -5.0870     3.0680 H     1 <1>   0.1500 
 47 H        1.8960    -6.3350    -0.8690 H     1 <1>   0.1500 
 48 H        1.7170    -6.8020     1.5240 H     1 <1>   0.1500 
 49 H        8.5440     2.1820    -2.5430 H     1 <1>   0.1500 
 50 H        9.0870     4.1660    -0.9030 H     1 <1>   0.1500 
 51 H        8.1020     3.1680     2.5860 H     1 <1>   0.0800 
 52 H        6.6970     4.0220     2.0160 H     1 <1>   0.0800 
 53 H        9.5690     4.9060     1.5970 H     1 <1>   0.0800 
 54 H        8.4430     5.6050     2.7340 H     1 <1>   0.0800 
 55 H        8.1570     5.7650     1.0180 H     1 <1>   0.0800 
@<TRIPOS>BOND
  1   1   2  2   
  2   2   3  am  
  3   2   4  1   
  4   3   5  1   
  5   3   6  1   
  6   4   7  1   
  7   4  28  1   
  8   4  29  1   
  9   5   8  1   
 10   5  30  1   
 11   5  31  1   
 12   6   9  1   
 13   6  32  1   
 14   6  33  1   
 15   7  10  1   
 16   7  11  1   
 17   8  12  1   
 18   8  34  1   
 19   8  35  1   
 20   9  13  1   
 21   9  36  1   
 22   9  37  1   
 23  10  14  ar  
 24  10  15  ar  
 25  11  16  2   
 26  11  38  1   
 27  12  13  1   
 28  12  17  1   
 29  12  39  1   
 30  13  40  1   
 31  13  41  1   
 32  14  16  1   
 33  14  18  ar  
 34  15  19  ar  
 35  15  42  1   
 36  16  43  1   
 37  17  20  1   
 38  17  44  1   
 39  17  45  1   
 40  18  21  ar  
 41  18  46  1   
 42  19  21  ar  
 43  19  47  1   
 44  20  22  1   
 45  20  23  2   
 46  21  48  1   
 47  22  24  1   
 48  23  25  1   
 49  23  49  1   
 50  24  25  2   
 51  24  26  1   
 52  25  50  1   
 53  26  27  1   
 54  26  51  1   
 55  26  52  1   
 56  27  53  1   
 57  27  54  1   
 58  27  55  1   
@<TRIPOS>SUBSTRUCTURE
  1 ****   5 GROUP 4 **** **** 0

# MOE 2024.06 (io_trps.svl 2023.06)
