@<TRIPOS>MOLECULE
NONAME
54 57 1 0 0 
SMALL
USER_CHARGES


@<TRIPOS>ATOM
  1 O        0.0100     0.1630     2.8530 O.2   1 <1>  -0.5700 
  2 C        0.1210     0.0920     1.6520 C.2   1 <1>   0.5690 
  3 N       -0.9600    -0.2320     0.8660 N.am  1 <1>  -0.6600 
  4 C        1.5010     0.4000     1.0480 C.3   1 <1>   0.1710 
  5 C       -0.9590    -0.1720    -0.6310 C.3   1 <1>   0.1400 
  6 C       -2.2820    -0.5690     1.4920 C.3   1 <1>   0.1400 
  7 N        1.5660     1.6490     0.2330 N.3   1 <1>  -0.8100 
  8 C       -2.0370     0.7920    -1.1920 C.3   1 <1>   0.4230 
  9 C       -3.4850    -0.1820     0.6080 C.3   1 <1>   0.3430 
 10 C        1.2630     2.8410     1.0530 C.3   1 <1>   0.2540 
 11 C        2.8860     1.7690    -0.4020 C.3   1 <1>   0.0300 
 12 N       -3.1810     1.0300    -0.2220 N.4   1 <1>  -0.9590 
 13 C       -2.5270     0.2430    -2.5540 C.3   1 <1>   0.1200 
 14 C       -0.1070     3.3750     0.6730 C.ar  1 <1>  -0.1430 
 15 C       -4.3560     1.6900    -0.8770 C.3   1 <1>   0.5180 
 16 O       -3.6090     0.9740    -3.0530 O.3   1 <1>  -0.5600 
 17 C       -1.2240     3.0890     1.4430 C.ar  1 <1>   0.1600 
 18 C       -0.2550     4.1760    -0.4410 C.ar  1 <1>  -0.1500 
 19 C       -5.5210     1.8150     0.1250 C.3   1 <1>  -0.1950 
 20 C       -4.7230     1.0010    -2.2080 C.3   1 <1>   0.1200 
 21 N       -2.4550     3.5110     1.1790 N.ar  1 <1>  -0.6200 
 22 C       -1.5140     4.6710    -0.6980 C.ar  1 <1>  -0.1500 
 23 C       -6.5800     0.7720     0.3390 C.3   1 <1>  -0.2000 
 24 C       -6.9360     2.0890    -0.2910 C.3   1 <1>  -0.2000 
 25 C       -2.5600     4.3270     0.1390 C.ar  1 <1>   0.1600 
 26 H        1.7820    -0.4380     0.4360 H     1 <1>   0.0800 
 27 H        2.2140     0.4600     1.8520 H     1 <1>   0.0800 
 28 H       -0.0020     0.1260    -1.0170 H     1 <1>   0.0800 
 29 H       -1.1380    -1.1690    -0.9960 H     1 <1>   0.0800 
 30 H       -2.3170    -1.6220     1.7090 H     1 <1>   0.0800 
 31 H       -2.3750    -0.0480     2.4310 H     1 <1>   0.0800 
 32 H       -1.5560     1.7390    -1.3800 H     1 <1>   0.0800 
 33 H       -4.3300    -0.0020     1.2500 H     1 <1>   0.0800 
 34 H       -3.7320    -1.0080    -0.0370 H     1 <1>   0.0800 
 35 H        1.2970     2.6080     2.1050 H     1 <1>   0.0800 
 36 H        1.9890     3.6170     0.8760 H     1 <1>   0.0800 
 37 H        2.9150     2.6450    -1.0280 H     1 <1>   0.0800 
 38 H        3.0790     0.9080    -1.0210 H     1 <1>   0.0800 
 39 H        3.6610     1.8450     0.3420 H     1 <1>   0.0800 
 40 H       -2.8220     1.7450     0.4430 H     1 <1>   0.4500 
 41 H       -2.8300    -0.7860    -2.4710 H     1 <1>   0.0800 
 42 H       -1.7350     0.3040    -3.2810 H     1 <1>   0.0800 
 43 H       -4.0650     2.6930    -1.1390 H     1 <1>   0.0800 
 44 H       -1.0980     2.4790     2.3240 H     1 <1>   0.1500 
 45 H        0.5830     4.4180    -1.0730 H     1 <1>   0.1500 
 46 H       -5.2040     2.3730     0.9910 H     1 <1>   0.1000 
 47 H       -5.4910     1.5570    -2.7140 H     1 <1>   0.0800 
 48 H       -5.0710    -0.0050    -2.0520 H     1 <1>   0.0800 
 49 H       -1.6810     5.3280    -1.5350 H     1 <1>   0.1500 
 50 H       -6.6430    -0.1040    -0.2850 H     1 <1>   0.1000 
 51 H       -6.9360     0.5820     1.3380 H     1 <1>   0.1000 
 52 H       -7.5200     2.7860     0.2880 H     1 <1>   0.1000 
 53 H       -7.2300     2.0860    -1.3260 H     1 <1>   0.1000 
 54 H       -3.5330     4.7460    -0.0600 H     1 <1>   0.1500 
@<TRIPOS>BOND
  1   1   2  2   
  2   2   3  am  
  3   2   4  1   
  4   3   5  1   
  5   3   6  1   
  6   4   7  1   
  7   4  26  1   
  8   4  27  1   
  9   5   8  1   
 10   5  28  1   
 11   5  29  1   
 12   6   9  1   
 13   6  30  1   
 14   6  31  1   
 15   7  10  1   
 16   7  11  1   
 17   8  12  1   
 18   8  13  1   
 19   8  32  1   
 20   9  12  1   
 21   9  33  1   
 22   9  34  1   
 23  10  14  1   
 24  10  35  1   
 25  10  36  1   
 26  11  37  1   
 27  11  38  1   
 28  11  39  1   
 29  12  15  1   
 30  12  40  1   
 31  13  16  1   
 32  13  41  1   
 33  13  42  1   
 34  14  17  ar  
 35  14  18  ar  
 36  15  19  1   
 37  15  20  1   
 38  15  43  1   
 39  16  20  1   
 40  17  21  ar  
 41  17  44  1   
 42  18  22  ar  
 43  18  45  1   
 44  19  23  1   
 45  19  24  1   
 46  19  46  1   
 47  20  47  1   
 48  20  48  1   
 49  21  25  ar  
 50  22  25  ar  
 51  22  49  1   
 52  23  24  1   
 53  23  50  1   
 54  23  51  1   
 55  24  52  1   
 56  24  53  1   
 57  25  54  1   
@<TRIPOS>SUBSTRUCTURE
  1 ****  12 GROUP 4 **** **** 0

# MOE 2024.06 (io_trps.svl 2023.06)
