@<TRIPOS>MOLECULE
NONAME
51 54 1 0 0 
SMALL
USER_CHARGES


@<TRIPOS>ATOM
  1 CL       3.4140     3.0350     1.3240 Cl    1 <1>  -0.1770 
  2 C        2.2860     1.7270     1.0170 C.ar  1 <1>   0.1770 
  3 C        2.7560     0.4690     0.6370 C.ar  1 <1>   0.1170 
  4 C        0.9350     1.9850     1.1520 C.ar  1 <1>  -0.1500 
  5 N        4.1240     0.1970     0.4900 N.am  1 <1>  -0.4770 
  6 C        1.8220    -0.5310     0.3970 C.ar  1 <1>  -0.1500 
  7 C        0.0200     0.9750     0.9050 C.ar  1 <1>  -0.1500 
  8 C        5.0260     0.0220     1.4950 C.2   1 <1>   0.5690 
  9 C        4.8240     0.4830    -0.7770 C.3   1 <1>   0.1400 
 10 C        0.4660    -0.2810     0.5280 C.ar  1 <1>  -0.1500 
 11 O        4.7660    -0.1910     2.6530 O.2   1 <1>  -0.5700 
 12 C        6.4370     0.1540     0.9970 C.3   1 <1>  -0.0990 
 13 C        6.2450     0.8700    -0.3370 C.3   1 <1>   0.2890 
 14 N        6.3020     2.3330    -0.0940 N.pl3 1 <1>  -0.8690 
 15 C        6.3200     3.2290    -1.1350 C.ar  1 <1>   0.4100 
 16 N        6.6470     2.7710    -2.3350 N.ar  1 <1>  -0.6200 
 17 C        5.9830     4.5500    -0.8860 C.ar  1 <1>  -0.1500 
 18 C        6.6360     3.6630    -3.3110 C.ar  1 <1>   0.1600 
 19 C        5.9840     5.4890    -1.8990 C.ar  1 <1>   0.0860 
 20 C        6.3190     4.9970    -3.1530 C.ar  1 <1>  -0.1500 
 21 C        5.6450     6.8820    -1.6850 C.2   1 <1>   0.5440 
 22 O        4.8720     7.4210    -2.4550 O.2   1 <1>  -0.5700 
 23 N        6.1750     7.6150    -0.6440 N.am  1 <1>  -0.6600 
 24 C        5.5750     8.9100    -0.2190 C.3   1 <1>   0.1400 
 25 C        7.4520     7.2820     0.0470 C.3   1 <1>   0.1400 
 26 C        5.3310     8.8870     1.2940 C.3   1 <1>  -0.1600 
 27 C        7.2230     7.2360     1.5610 C.3   1 <1>  -0.1600 
 28 C        6.6090     8.5470     2.0750 C.3   1 <1>  -0.1600 
 29 H        0.6060     2.9650     1.4470 H     1 <1>   0.1500 
 30 H        2.1640    -1.5100     0.1110 H     1 <1>   0.1500 
 31 H       -1.0350     1.1650     1.0080 H     1 <1>   0.1500 
 32 H        4.3470     1.2760    -1.3260 H     1 <1>   0.0800 
 33 H        4.8480    -0.4100    -1.3750 H     1 <1>   0.0800 
 34 H       -0.2440    -1.0680     0.3390 H     1 <1>   0.1500 
 35 H        6.8430    -0.8280     0.8470 H     1 <1>   0.0800 
 36 H        7.0550     0.7080     1.6790 H     1 <1>   0.0800 
 37 H        6.9900     0.5840    -1.0620 H     1 <1>   0.0800 
 38 H        5.6940     2.6150     0.6830 H     1 <1>   0.4000 
 39 H        5.7140     4.8440     0.1100 H     1 <1>   0.1500 
 40 H        6.8950     3.3080    -4.2940 H     1 <1>   0.1500 
 41 H        6.3260     5.6640    -3.9960 H     1 <1>   0.1500 
 42 H        4.6420     9.0810    -0.7290 H     1 <1>   0.0800 
 43 H        6.2490     9.7090    -0.4740 H     1 <1>   0.0800 
 44 H        8.1760     8.0450    -0.1840 H     1 <1>   0.0800 
 45 H        7.8470     6.3420    -0.2960 H     1 <1>   0.0800 
 46 H        4.5690     8.1580     1.5080 H     1 <1>   0.0800 
 47 H        4.9600     9.8470     1.6070 H     1 <1>   0.0800 
 48 H        8.1600     7.0590     2.0570 H     1 <1>   0.0800 
 49 H        6.5690     6.4140     1.7940 H     1 <1>   0.0800 
 50 H        6.3830     8.4570     3.1230 H     1 <1>   0.0800 
 51 H        7.3210     9.3450     1.9550 H     1 <1>   0.0800 
@<TRIPOS>BOND
  1   1   2  1   
  2   2   3  ar  
  3   2   4  ar  
  4   3   5  1   
  5   3   6  ar  
  6   4   7  ar  
  7   4  29  1   
  8   5   8  am  
  9   5   9  1   
 10   6  10  ar  
 11   6  30  1   
 12   7  10  ar  
 13   7  31  1   
 14   8  11  2   
 15   8  12  1   
 16   9  13  1   
 17   9  32  1   
 18   9  33  1   
 19  10  34  1   
 20  12  13  1   
 21  12  35  1   
 22  12  36  1   
 23  13  14  1   
 24  13  37  1   
 25  14  15  1   
 26  14  38  1   
 27  15  16  ar  
 28  15  17  ar  
 29  16  18  ar  
 30  17  19  ar  
 31  17  39  1   
 32  18  20  ar  
 33  18  40  1   
 34  19  20  ar  
 35  19  21  1   
 36  20  41  1   
 37  21  22  2   
 38  21  23  am  
 39  23  24  1   
 40  23  25  1   
 41  24  26  1   
 42  24  42  1   
 43  24  43  1   
 44  25  27  1   
 45  25  44  1   
 46  25  45  1   
 47  26  28  1   
 48  26  46  1   
 49  26  47  1   
 50  27  28  1   
 51  27  48  1   
 52  27  49  1   
 53  28  50  1   
 54  28  51  1   
@<TRIPOS>SUBSTRUCTURE
  1 ****  17 GROUP 4 **** **** 0

# MOE 2024.06 (io_trps.svl 2023.06)
