@<TRIPOS>MOLECULE
NONAME
46 48 1 0 0 
SMALL
USER_CHARGES


@<TRIPOS>ATOM
  1 O       -2.1340     0.6500    -1.9710 O.2   1 <1>  -0.5700 
  2 C       -2.0760     0.9690    -0.7990 C.2   1 <1>   0.5440 
  3 N       -2.2780    -0.0070     0.1350 N.am  1 <1>  -0.7300 
  4 C       -1.8160     2.3390    -0.4130 C.ar  1 <1>   0.0860 
  5 C       -2.4970    -1.4410    -0.1620 C.3   1 <1>   0.2200 
  6 C       -1.8840     3.3670    -1.3530 C.ar  1 <1>   0.1600 
  7 C       -1.4850     2.7160     0.8880 C.ar  1 <1>  -0.1500 
  8 C       -3.9760    -1.7600    -0.0280 C.3   1 <1>  -0.0800 
  9 C       -1.8980    -2.2840     0.9570 C.3   1 <1>   0.1200 
 10 N       -1.6810     4.6520    -1.1240 N.ar  1 <1>  -0.6200 
 11 C       -1.2690     4.0480     1.1430 C.ar  1 <1>  -0.1500 
 12 C       -4.1240    -2.0070     1.4790 C.3   1 <1>   0.1200 
 13 C       -4.3620    -2.9950    -0.8660 C.3   1 <1>  -0.0170 
 14 O       -2.8470    -2.2840     1.9810 O.3   1 <1>  -0.5600 
 15 C       -1.3790     4.9920     0.1250 C.ar  1 <1>   0.4100 
 16 C       -5.8440    -3.3160    -0.7420 C.ar  1 <1>  -0.1430 
 17 N       -1.1740     6.3310     0.3880 N.pl3 1 <1>  -0.8380 
 18 C       -6.8060    -2.5610    -1.3820 C.ar  1 <1>  -0.1500 
 19 C       -6.3050    -4.3770     0.0110 C.ar  1 <1>  -0.1500 
 20 C       -1.8750     6.9980     1.5170 C.3   1 <1>   0.1290 
 21 C       -0.7270     7.2440    -0.7000 C.3   1 <1>   0.1290 
 22 C       -8.1440    -2.8900    -1.2380 C.ar  1 <1>   0.1600 
 23 C       -7.6660    -4.6210     0.0900 C.ar  1 <1>   0.1600 
 24 N       -8.5970    -3.9020    -0.5150 N.ar  1 <1>  -0.6200 
 25 H       -2.3540     0.2260     1.1270 H     1 <1>   0.3700 
 26 H       -2.0890    -1.6930    -1.1270 H     1 <1>   0.0800 
 27 H       -2.1270     3.0980    -2.3680 H     1 <1>   0.1500 
 28 H       -1.3910     1.9900     1.6740 H     1 <1>   0.1500 
 29 H       -4.5820    -0.9290    -0.3440 H     1 <1>   0.0800 
 30 H       -0.9670    -1.8880     1.3240 H     1 <1>   0.0800 
 31 H       -1.7610    -3.3020     0.6370 H     1 <1>   0.0800 
 32 H       -1.0000     4.3820     2.1260 H     1 <1>   0.1500 
 33 H       -4.7750    -2.8310     1.7110 H     1 <1>   0.0800 
 34 H       -4.4820    -1.1220     1.9750 H     1 <1>   0.0800 
 35 H       -3.7830    -3.8490    -0.5620 H     1 <1>   0.0800 
 36 H       -4.1380    -2.8050    -1.9020 H     1 <1>   0.0800 
 37 H       -6.5280    -1.7200    -1.9910 H     1 <1>   0.1500 
 38 H       -5.6210    -5.0170     0.5380 H     1 <1>   0.1500 
 39 H       -1.1520     7.4510     2.1730 H     1 <1>   0.0800 
 40 H       -2.4600     6.2880     2.0740 H     1 <1>   0.0800 
 41 H       -2.5350     7.7590     1.1380 H     1 <1>   0.0800 
 42 H       -0.1880     8.0780    -0.2850 H     1 <1>   0.0800 
 43 H       -1.5820     7.6030    -1.2460 H     1 <1>   0.0800 
 44 H       -0.0780     6.7180    -1.3780 H     1 <1>   0.0800 
 45 H       -8.8800    -2.2900    -1.7450 H     1 <1>   0.1500 
 46 H       -8.0070    -5.4520     0.6830 H     1 <1>   0.1500 
@<TRIPOS>BOND
  1   1   2  2   
  2   2   3  am  
  3   2   4  1   
  4   3   5  1   
  5   3  25  1   
  6   4   6  ar  
  7   4   7  ar  
  8   5   8  1   
  9   5   9  1   
 10   5  26  1   
 11   6  10  ar  
 12   6  27  1   
 13   7  11  ar  
 14   7  28  1   
 15   8  12  1   
 16   8  13  1   
 17   8  29  1   
 18   9  14  1   
 19   9  30  1   
 20   9  31  1   
 21  10  15  ar  
 22  11  15  ar  
 23  11  32  1   
 24  12  14  1   
 25  12  33  1   
 26  12  34  1   
 27  13  16  1   
 28  13  35  1   
 29  13  36  1   
 30  15  17  1   
 31  16  18  ar  
 32  16  19  ar  
 33  17  20  1   
 34  17  21  1   
 35  18  22  ar  
 36  18  37  1   
 37  19  23  ar  
 38  19  38  1   
 39  20  39  1   
 40  20  40  1   
 41  20  41  1   
 42  21  42  1   
 43  21  43  1   
 44  21  44  1   
 45  22  24  ar  
 46  22  45  1   
 47  23  24  ar  
 48  23  46  1   
@<TRIPOS>SUBSTRUCTURE
  1 ****   3 GROUP 4 **** **** 0

# MOE 2024.06 (io_trps.svl 2023.06)
