@<TRIPOS>MOLECULE
NONAME
47 50 1 0 0 
SMALL
USER_CHARGES


@<TRIPOS>ATOM
  1 O        1.0960    -1.9620     3.0190 O.2   1 <1>  -0.5700 
  2 C        1.8210    -1.9510     2.0400 C.2   1 <1>   0.7160 
  3 N        1.9300    -3.0610     1.2680 N.am  1 <1>  -0.4900 
  4 C        2.5830    -0.8370     1.6090 C.2   1 <1>  -0.0860 
  5 C        2.7060    -3.0980     0.1360 C.2   1 <1>   0.4490 
  6 C        3.3360    -0.9460     0.4800 C.2   1 <1>  -0.0260 
  7 C        2.8030     0.4660     2.0510 C.2   1 <1>   0.1390 
  8 N        3.4020    -2.0970    -0.2810 N.2   1 <1>  -0.5760 
  9 C        2.6990    -4.4250    -0.6240 C.3   1 <1>   0.1710 
 10 N        3.9490     0.2470     0.3030 N.pl3 1 <1>   0.3140 
 11 N        3.6160     1.1220     1.2800 N.2   1 <1>  -0.7070 
 12 N        1.4440    -5.1990    -0.4100 N.3   1 <1>  -0.8100 
 13 C        4.8670     0.6180    -0.7800 C.3   1 <1>   0.0160 
 14 C        1.6410    -6.6270    -0.7420 C.3   1 <1>   0.2530 
 15 C        0.3240    -4.5960    -1.1730 C.3   1 <1>   0.1100 
 16 C        0.7410    -7.5110     0.1070 C.ar  1 <1>  -0.1430 
 17 C       -1.0430    -4.9310    -0.5590 C.3   1 <1>  -0.1600 
 18 C       -0.5590    -7.7810    -0.2960 C.ar  1 <1>   0.0830 
 19 C        1.2100    -8.0600     1.2910 C.ar  1 <1>  -0.1500 
 20 C       -1.8030    -6.0590    -1.2800 C.3   1 <1>   0.1200 
 21 O       -1.0020    -7.2070    -1.4410 O.3   1 <1>  -0.3630 
 22 C       -1.3900    -8.6080     0.4630 C.ar  1 <1>   0.0830 
 23 C        0.3950    -8.8770     2.0550 C.ar  1 <1>  -0.1500 
 24 O       -2.6570    -8.8430     0.0130 O.3   1 <1>  -0.3630 
 25 C       -0.8980    -9.1540     1.6450 C.ar  1 <1>  -0.1500 
 26 C       -3.5030    -9.7740     0.6490 C.3   1 <1>   0.0400 
 27 H        1.3570    -3.8790     1.4790 H     1 <1>   0.3700 
 28 H        2.3480     0.8810     2.9350 H     1 <1>   0.1500 
 29 H        3.5380    -4.9910    -0.2600 H     1 <1>   0.0800 
 30 H        2.8520    -4.2430    -1.6740 H     1 <1>   0.0800 
 31 H        4.9900    -0.2130    -1.4480 H     1 <1>   0.0800 
 32 H        5.8150     0.8880    -0.3550 H     1 <1>   0.0800 
 33 H        4.4570     1.4560    -1.3110 H     1 <1>   0.0800 
 34 H        2.6580    -6.9160    -0.5440 H     1 <1>   0.0800 
 35 H        1.4590    -6.8020    -1.7900 H     1 <1>   0.0800 
 36 H        0.3620    -4.8990    -2.2070 H     1 <1>   0.0800 
 37 H        0.4240    -3.5240    -1.1530 H     1 <1>   0.0800 
 38 H       -1.6590    -4.0530    -0.6210 H     1 <1>   0.0800 
 39 H       -0.9380    -5.1590     0.4870 H     1 <1>   0.0800 
 40 H        2.2120    -7.8510     1.6220 H     1 <1>   0.1500 
 41 H       -2.0970    -5.7420    -2.2640 H     1 <1>   0.0800 
 42 H       -2.6850    -6.3370    -0.7300 H     1 <1>   0.0800 
 43 H        0.7700    -9.2980     2.9720 H     1 <1>   0.1500 
 44 H       -1.5020    -9.7920     2.2610 H     1 <1>   0.1500 
 45 H       -4.4170    -9.8320     0.0860 H     1 <1>   0.0800 
 46 H       -3.7090    -9.4330     1.6470 H     1 <1>   0.0800 
 47 H       -3.0180   -10.7340     0.6590 H     1 <1>   0.0800 
@<TRIPOS>BOND
  1   1   2  2   
  2   2   3  am  
  3   2   4  1   
  4   3   5  1   
  5   3  27  1   
  6   4   6  2   
  7   4   7  1   
  8   5   8  2   
  9   5   9  1   
 10   6   8  1   
 11   6  10  1   
 12   7  11  2   
 13   7  28  1   
 14   9  12  1   
 15   9  29  1   
 16   9  30  1   
 17  10  11  1   
 18  10  13  1   
 19  12  14  1   
 20  12  15  1   
 21  13  31  1   
 22  13  32  1   
 23  13  33  1   
 24  14  16  1   
 25  14  34  1   
 26  14  35  1   
 27  15  17  1   
 28  15  36  1   
 29  15  37  1   
 30  16  18  ar  
 31  16  19  ar  
 32  17  20  1   
 33  17  38  1   
 34  17  39  1   
 35  18  21  1   
 36  18  22  ar  
 37  19  23  ar  
 38  19  40  1   
 39  20  21  1   
 40  20  41  1   
 41  20  42  1   
 42  22  24  1   
 43  22  25  ar  
 44  23  25  ar  
 45  23  43  1   
 46  24  26  1   
 47  25  44  1   
 48  26  45  1   
 49  26  46  1   
 50  26  47  1   
@<TRIPOS>SUBSTRUCTURE
  1 ****  12 GROUP 4 **** **** 0

# MOE 2024.06 (io_trps.svl 2023.06)
