@<TRIPOS>MOLECULE
NONAME
46 47 1 0 0 
SMALL
USER_CHARGES


@<TRIPOS>ATOM
  1 O        0.6260     0.2780    -1.2040 O.3   1 <1>  -0.0190 
  2 N        1.6780     1.0460    -1.3120 N.2   1 <1>  -0.4100 
  3 C        1.0860    -0.8000    -0.6200 C.2   1 <1>   0.2980 
  4 C        2.6620     0.4050    -0.8070 C.2   1 <1>   0.5990 
  5 N        2.3250    -0.7960    -0.3500 N.2   1 <1>  -0.5650 
  6 C        0.1240    -1.9360    -0.3250 C.3   1 <1>   0.0200 
  7 N        3.9750     0.8730    -0.7150 N.pl3 1 <1>  -0.8210 
  8 C       -0.9040    -1.5430     0.7460 C.3   1 <1>  -0.1600 
  9 C        4.4260     1.9300    -1.6540 C.3   1 <1>   0.2090 
 10 C        5.0100    -0.0240    -0.1410 C.3   1 <1>   0.2090 
 11 C       -1.8660    -2.6960     1.0550 C.3   1 <1>  -0.2400 
 12 C        4.6970     3.2220    -0.8800 C.3   1 <1>  -0.1600 
 13 C        6.3270     0.7000     0.1700 C.3   1 <1>  -0.1600 
 14 C        6.0280     3.2670    -0.0790 C.3   1 <1>  -0.0800 
 15 C        6.1530     2.0540     0.8830 C.3   1 <1>  -0.1600 
 16 C        6.2610     4.6450     0.6400 C.3   1 <1>   0.0000 
 17 C        5.3030     4.8580     1.8260 C.3   1 <1>  -0.2400 
 18 C        7.7060     4.7500     1.1700 C.3   1 <1>  -0.2400 
 19 C        6.0750     5.8280    -0.3320 C.3   1 <1>  -0.2400 
 20 H        0.6890    -2.7860     0.0130 H     1 <1>   0.0800 
 21 H       -0.3770    -2.2070    -1.2360 H     1 <1>   0.0800 
 22 H       -1.4680    -0.6900     0.4080 H     1 <1>   0.0800 
 23 H       -0.3850    -1.2600     1.6470 H     1 <1>   0.0800 
 24 H        3.6610     2.1190    -2.3870 H     1 <1>   0.0800 
 25 H        5.3050     1.6130    -2.1870 H     1 <1>   0.0800 
 26 H        5.1910    -0.8390    -0.8210 H     1 <1>   0.0800 
 27 H        4.6280    -0.4370     0.7770 H     1 <1>   0.0800 
 28 H       -2.4120    -2.9800     0.1730 H     1 <1>   0.0800 
 29 H       -2.5720    -2.3920     1.8090 H     1 <1>   0.0800 
 30 H       -1.3260    -3.5510     1.4210 H     1 <1>   0.0800 
 31 H        3.8590     3.4060    -0.2330 H     1 <1>   0.0800 
 32 H        4.7080     4.0000    -1.6190 H     1 <1>   0.0800 
 33 H        6.9030     0.8180    -0.7300 H     1 <1>   0.0800 
 34 H        6.8950     0.0490     0.8100 H     1 <1>   0.0800 
 35 H        6.8180     3.1720    -0.8030 H     1 <1>   0.0800 
 36 H        7.0160     2.1770     1.5070 H     1 <1>   0.0800 
 37 H        5.2960     2.0090     1.5340 H     1 <1>   0.0800 
 38 H        5.4520     4.1100     2.5830 H     1 <1>   0.0800 
 39 H        4.2780     4.8170     1.5070 H     1 <1>   0.0800 
 40 H        5.4720     5.8200     2.2770 H     1 <1>   0.0800 
 41 H        7.8840     4.0720     1.9840 H     1 <1>   0.0800 
 42 H        7.9030     5.7400     1.5410 H     1 <1>   0.0800 
 43 H        8.4120     4.5400     0.3870 H     1 <1>   0.0800 
 44 H        5.0440     5.9420    -0.6150 H     1 <1>   0.0800 
 45 H        6.6660     5.6840    -1.2180 H     1 <1>   0.0800 
 46 H        6.3770     6.7520     0.1280 H     1 <1>   0.0800 
@<TRIPOS>BOND
  1   1   2  1   
  2   1   3  1   
  3   2   4  2   
  4   3   5  2   
  5   3   6  1   
  6   4   5  1   
  7   4   7  1   
  8   6   8  1   
  9   6  20  1   
 10   6  21  1   
 11   7   9  1   
 12   7  10  1   
 13   8  11  1   
 14   8  22  1   
 15   8  23  1   
 16   9  12  1   
 17   9  24  1   
 18   9  25  1   
 19  10  13  1   
 20  10  26  1   
 21  10  27  1   
 22  11  28  1   
 23  11  29  1   
 24  11  30  1   
 25  12  14  1   
 26  12  31  1   
 27  12  32  1   
 28  13  15  1   
 29  13  33  1   
 30  13  34  1   
 31  14  15  1   
 32  14  16  1   
 33  14  35  1   
 34  15  36  1   
 35  15  37  1   
 36  16  17  1   
 37  16  18  1   
 38  16  19  1   
 39  17  38  1   
 40  17  39  1   
 41  17  40  1   
 42  18  41  1   
 43  18  42  1   
 44  18  43  1   
 45  19  44  1   
 46  19  45  1   
 47  19  46  1   
@<TRIPOS>SUBSTRUCTURE
  1 ****   7 GROUP 4 **** **** 0

# MOE 2024.06 (io_trps.svl 2023.06)
