@<TRIPOS>MOLECULE
NONAME
51 54 1 0 0 
SMALL
USER_CHARGES


@<TRIPOS>ATOM
  1 O        0.1330     1.7750     2.0520 O.2   1 <1>  -0.5700 
  2 C        0.2190     2.7180     1.2880 C.2   1 <1>   0.5440 
  3 N       -0.9330     3.2880     0.7850 N.am  1 <1>  -0.6600 
  4 C        1.5340     3.2050     0.9190 C.ar  1 <1>   0.0860 
  5 C       -2.2870     2.8510     1.2380 C.3   1 <1>   0.1400 
  6 C       -0.9650     4.2030    -0.3880 C.3   1 <1>   0.1400 
  7 C        2.4400     2.3780     0.2600 C.ar  1 <1>  -0.1500 
  8 C        1.9340     4.5090     1.2100 C.ar  1 <1>  -0.1500 
  9 C       -3.0100     2.0850     0.1140 C.3   1 <1>   0.0000 
 10 C       -1.6680     3.5100    -1.5610 C.3   1 <1>  -0.1600 
 11 C        3.6930     2.8360    -0.1070 C.ar  1 <1>   0.0820 
 12 C        3.1830     4.9790     0.8420 C.ar  1 <1>  -0.1500 
 13 C       -4.4020     1.6240     0.5890 C.3   1 <1>   0.2000 
 14 C       -3.0560     2.9690    -1.1660 C.3   1 <1>  -0.1600 
 15 C       -2.3400     0.7290    -0.1790 C.3   1 <1>  -0.1600 
 16 O        4.5220     1.9830    -0.7580 O.3   1 <1>  -0.1650 
 17 C        4.0640     4.1450     0.1780 C.ar  1 <1>  -0.1500 
 18 O       -5.3700     2.6040     0.4640 O.3   1 <1>  -0.6800 
 19 C       -4.7680     0.4070    -0.2590 C.3   1 <1>  -0.1600 
 20 C       -3.4370    -0.1610    -0.7700 C.3   1 <1>  -0.1600 
 21 C        5.8600     1.9830    -0.5340 C.ar  1 <1>   0.0820 
 22 C        6.7070     1.8000    -1.6160 C.ar  1 <1>  -0.1500 
 23 C        6.3900     2.1450     0.7410 C.ar  1 <1>  -0.1500 
 24 C        8.0780     1.7950    -1.4300 C.ar  1 <1>  -0.1500 
 25 C        7.7620     2.1390     0.9250 C.ar  1 <1>  -0.1500 
 26 C        8.6050     1.9660    -0.1610 C.ar  1 <1>  -0.1500 
 27 H       -2.2110     2.2340     2.1160 H     1 <1>   0.0800 
 28 H       -2.8620     3.7210     1.5050 H     1 <1>   0.0800 
 29 H       -1.5020     5.0960    -0.1180 H     1 <1>   0.0800 
 30 H        0.0270     4.4880    -0.6890 H     1 <1>   0.0800 
 31 H        2.1590     1.3650     0.0380 H     1 <1>   0.1500 
 32 H        1.2510     5.1560     1.7330 H     1 <1>   0.1500 
 33 H       -1.7770     4.2120    -2.3680 H     1 <1>   0.0800 
 34 H       -1.0430     2.7120    -1.9180 H     1 <1>   0.0800 
 35 H        3.4700     5.9910     1.0720 H     1 <1>   0.1500 
 36 H       -4.3570     1.3340     1.6260 H     1 <1>   0.0800 
 37 H       -3.4750     2.4210    -1.9910 H     1 <1>   0.0800 
 38 H       -3.6870     3.8220    -0.9860 H     1 <1>   0.0800 
 39 H       -1.4870     0.8030    -0.8280 H     1 <1>   0.0800 
 40 H       -2.0060     0.2930     0.7480 H     1 <1>   0.0800 
 41 H        5.0310     4.5100    -0.1190 H     1 <1>   0.1500 
 42 H       -5.4710     2.8400    -0.4760 H     1 <1>   0.4000 
 43 H       -5.2870    -0.3190     0.3430 H     1 <1>   0.0800 
 44 H       -5.3860     0.6850    -1.0950 H     1 <1>   0.0800 
 45 H       -3.3020    -1.1860    -0.4700 H     1 <1>   0.0800 
 46 H       -3.4100    -0.1090    -1.8450 H     1 <1>   0.0800 
 47 H        6.2890     1.6660    -2.5980 H     1 <1>   0.1500 
 48 H        5.7350     2.2680     1.5860 H     1 <1>   0.1500 
 49 H        8.7350     1.6570    -2.2710 H     1 <1>   0.1500 
 50 H        8.1730     2.2670     1.9110 H     1 <1>   0.1500 
 51 H        9.6720     1.9630    -0.0170 H     1 <1>   0.1500 
@<TRIPOS>BOND
  1   1   2  2   
  2   2   3  am  
  3   2   4  1   
  4   3   5  1   
  5   3   6  1   
  6   4   7  ar  
  7   4   8  ar  
  8   5   9  1   
  9   5  27  1   
 10   5  28  1   
 11   6  10  1   
 12   6  29  1   
 13   6  30  1   
 14   7  11  ar  
 15   7  31  1   
 16   8  12  ar  
 17   8  32  1   
 18   9  13  1   
 19   9  14  1   
 20   9  15  1   
 21  10  14  1   
 22  10  33  1   
 23  10  34  1   
 24  11  16  1   
 25  11  17  ar  
 26  12  17  ar  
 27  12  35  1   
 28  13  18  1   
 29  13  19  1   
 30  13  36  1   
 31  14  37  1   
 32  14  38  1   
 33  15  20  1   
 34  15  39  1   
 35  15  40  1   
 36  16  21  1   
 37  17  41  1   
 38  18  42  1   
 39  19  20  1   
 40  19  43  1   
 41  19  44  1   
 42  20  45  1   
 43  20  46  1   
 44  21  22  ar  
 45  21  23  ar  
 46  22  24  ar  
 47  22  47  1   
 48  23  25  ar  
 49  23  48  1   
 50  24  26  ar  
 51  24  49  1   
 52  25  26  ar  
 53  25  50  1   
 54  26  51  1   
@<TRIPOS>SUBSTRUCTURE
  1 ****   4 GROUP 4 **** **** 0

# MOE 2024.06 (io_trps.svl 2023.06)
