@<TRIPOS>MOLECULE
NONAME
47 48 1 0 0 
SMALL
USER_CHARGES


@<TRIPOS>ATOM
  1 S       -0.0710    -0.0620    -0.2940 S.o2  1 <1>   1.3330 
  2 O       -0.5270    -0.2960     1.0570 O.2   1 <1>  -0.6500 
  3 O       -0.6580     1.0060    -1.0700 O.2   1 <1>  -0.6500 
  4 N       -0.2490    -1.5120    -1.1590 N.am  1 <1>  -0.8490 
  5 C        1.7070     0.1830    -0.3040 C.3   1 <1>  -0.0550 
  6 C       -0.0830    -2.7100    -0.3280 C.3   1 <1>   0.1160 
  7 C       -1.5250    -1.5780    -1.8770 C.3   1 <1>   0.1160 
  8 C        2.1580     1.4940     0.3750 C.3   1 <1>  -0.0800 
  9 C        3.6340     1.7610     0.1300 C.3   1 <1>   0.2200 
 10 C        2.1070     1.3910     1.9030 C.3   1 <1>   0.1200 
 11 N        3.9110     3.2030     0.3200 N.am  1 <1>  -0.7300 
 12 C        4.2850     0.9700     1.2600 C.3   1 <1>   0.1200 
 13 O        3.3800     0.9950     2.3240 O.3   1 <1>  -0.5600 
 14 C        4.5700     4.0120    -0.5510 C.2   1 <1>   0.7150 
 15 O        4.9230     3.5490    -1.6180 O.2   1 <1>  -0.5700 
 16 C        4.8320     5.3700    -0.1700 C.2   1 <1>  -0.2370 
 17 N        5.6940     6.2240    -0.7920 N.pl3 1 <1>   0.3140 
 18 C        4.3040     6.0880     0.8610 C.2   1 <1>  -0.1500 
 19 N        5.7250     7.4280    -0.1940 N.2   1 <1>  -0.7070 
 20 C        6.5610     5.9790    -1.9700 C.3   1 <1>   0.0960 
 21 C        4.8910     7.3360     0.7910 C.2   1 <1>   0.1080 
 22 C        7.8290     5.2080    -1.5810 C.3   1 <1>  -0.2400 
 23 C        4.6260     8.4920     1.7260 C.3   1 <1>  -0.0590 
 24 H        2.1850    -0.6510     0.1710 H     1 <1>   0.0800 
 25 H        2.0270     0.2020    -1.3280 H     1 <1>   0.0800 
 26 H       -0.1120    -3.5930    -0.9430 H     1 <1>   0.0800 
 27 H       -0.8680    -2.7690     0.4090 H     1 <1>   0.0800 
 28 H        0.8650    -2.6820     0.1800 H     1 <1>   0.0800 
 29 H       -1.5980    -2.5000    -2.4260 H     1 <1>   0.0800 
 30 H       -1.5960    -0.7630    -2.5800 H     1 <1>   0.0800 
 31 H       -2.3490    -1.5090    -1.1850 H     1 <1>   0.0800 
 32 H        1.5500     2.3050     0.0100 H     1 <1>   0.0800 
 33 H        3.9710     1.4330    -0.8400 H     1 <1>   0.0800 
 34 H        1.3860     0.6800     2.2680 H     1 <1>   0.0800 
 35 H        1.9050     2.3530     2.3430 H     1 <1>   0.0800 
 36 H        3.7460     3.5500     1.2630 H     1 <1>   0.3700 
 37 H        5.2240     1.3900     1.5730 H     1 <1>   0.0800 
 38 H        4.4230    -0.0580     0.9740 H     1 <1>   0.0800 
 39 H        3.5780     5.7800     1.5900 H     1 <1>   0.1500 
 40 H        6.0030     5.4450    -2.7160 H     1 <1>   0.0800 
 41 H        6.8350     6.9330    -2.3830 H     1 <1>   0.0800 
 42 H        7.5760     4.2380    -1.1920 H     1 <1>   0.0800 
 43 H        8.3820     5.7590    -0.8400 H     1 <1>   0.0800 
 44 H        8.4520     5.0750    -2.4460 H     1 <1>   0.0800 
 45 H        3.9050     8.2170     2.4730 H     1 <1>   0.0800 
 46 H        4.2520     9.3280     1.1640 H     1 <1>   0.0800 
 47 H        5.5420     8.7790     2.2080 H     1 <1>   0.0800 
@<TRIPOS>BOND
  1   1   2  2   
  2   1   3  2   
  3   1   4  am  
  4   1   5  1   
  5   4   6  1   
  6   4   7  1   
  7   5   8  1   
  8   5  24  1   
  9   5  25  1   
 10   6  26  1   
 11   6  27  1   
 12   6  28  1   
 13   7  29  1   
 14   7  30  1   
 15   7  31  1   
 16   8   9  1   
 17   8  10  1   
 18   8  32  1   
 19   9  11  1   
 20   9  12  1   
 21   9  33  1   
 22  10  13  1   
 23  10  34  1   
 24  10  35  1   
 25  11  14  am  
 26  11  36  1   
 27  12  13  1   
 28  12  37  1   
 29  12  38  1   
 30  14  15  2   
 31  14  16  1   
 32  16  17  1   
 33  16  18  2   
 34  17  19  1   
 35  17  20  1   
 36  18  21  1   
 37  18  39  1   
 38  19  21  2   
 39  20  22  1   
 40  20  40  1   
 41  20  41  1   
 42  21  23  1   
 43  22  42  1   
 44  22  43  1   
 45  22  44  1   
 46  23  45  1   
 47  23  46  1   
 48  23  47  1   
@<TRIPOS>SUBSTRUCTURE
  1 ****  11 GROUP 4 **** **** 0

# MOE 2024.06 (io_trps.svl 2023.06)
