@<TRIPOS>MOLECULE
NONAME
46 49 1 0 0 
SMALL
USER_CHARGES


@<TRIPOS>ATOM
  1 S       -0.5190     0.6110    -2.0680 S.3   1 <1>  -0.0800 
  2 C       -1.8620     0.9930    -0.9950 C.2   1 <1>   0.4620 
  3 C        0.5270     1.5910    -1.0920 C.2   1 <1>  -0.1100 
  4 N       -1.5280     1.7710    -0.0300 N.2   1 <1>  -0.5650 
  5 N       -3.1130     0.4620    -1.2370 N.pl3 1 <1>  -0.8220 
  6 C       -0.1700     2.1210    -0.0660 C.2   1 <1>   0.1410 
  7 C       -4.2280     0.6620    -0.2760 C.3   1 <1>   0.2090 
  8 C       -3.4240    -0.5310    -2.3010 C.3   1 <1>   0.2090 
  9 C        0.3870     2.9940     0.9580 C.2   1 <1>   0.7160 
 10 C       -4.5210    -0.6670     0.4190 C.3   1 <1>  -0.1600 
 11 C       -3.7060    -1.8830    -1.6460 C.3   1 <1>  -0.1600 
 12 O        1.5590     3.3130     0.9690 O.2   1 <1>  -0.5700 
 13 N       -0.3910     3.4870     1.9470 N.am  1 <1>  -0.8000 
 14 C       -4.8260    -1.7890    -0.5940 C.3   1 <1>   0.4240 
 15 O       -5.9500    -1.3710    -1.3390 O.3   1 <1>  -0.5600 
 16 C       -5.0770    -3.1630     0.0940 C.ar  1 <1>  -0.1430 
 17 C       -7.2110    -1.6050    -0.8040 C.3   1 <1>   0.1200 
 18 C       -4.0860    -3.8170     0.8400 C.ar  1 <1>   0.0830 
 19 C       -6.3230    -3.7800    -0.0200 C.ar  1 <1>  -0.1430 
 20 C       -7.4420    -3.1070    -0.7880 C.3   1 <1>  -0.0170 
 21 O       -2.8730    -3.2220     0.9870 O.3   1 <1>  -0.3620 
 22 C       -4.3490    -5.0550     1.4250 C.ar  1 <1>  -0.1500 
 23 C       -6.5720    -5.0110     0.5640 C.ar  1 <1>  -0.1500 
 24 C       -1.8200    -3.7940     1.7300 C.3   1 <1>   0.0400 
 25 C       -5.5860    -5.6500     1.2850 C.ar  1 <1>  -0.1500 
 26 H        1.5600     1.6790    -1.3740 H     1 <1>   0.1500 
 27 H       -5.0980     1.0050    -0.8100 H     1 <1>   0.0800 
 28 H       -3.9710     1.4080     0.4560 H     1 <1>   0.0800 
 29 H       -2.6170    -0.6290    -3.0030 H     1 <1>   0.0800 
 30 H       -4.2910    -0.1990    -2.8480 H     1 <1>   0.0800 
 31 H       -5.3380    -0.5540     1.1040 H     1 <1>   0.0800 
 32 H       -3.6580    -0.9170     1.0040 H     1 <1>   0.0800 
 33 H       -2.7910    -2.2230    -1.2050 H     1 <1>   0.0800 
 34 H       -3.9880    -2.6000    -2.3940 H     1 <1>   0.0800 
 35 H       -0.0040     4.1030     2.6570 H     1 <1>   0.3700 
 36 H       -1.3840     3.2520     1.9780 H     1 <1>   0.3700 
 37 H       -7.9340    -1.1170    -1.4340 H     1 <1>   0.0800 
 38 H       -7.2630    -1.1900     0.1870 H     1 <1>   0.0800 
 39 H       -7.4670    -3.4780    -1.7970 H     1 <1>   0.0800 
 40 H       -8.3900    -3.3130    -0.3250 H     1 <1>   0.0800 
 41 H       -3.6050    -5.5750     1.9950 H     1 <1>   0.1500 
 42 H       -7.5360    -5.4770     0.4600 H     1 <1>   0.1500 
 43 H       -0.9830    -3.1200     1.6920 H     1 <1>   0.0800 
 44 H       -1.5500    -4.7350     1.2860 H     1 <1>   0.0800 
 45 H       -2.1400    -3.9210     2.7490 H     1 <1>   0.0800 
 46 H       -5.7820    -6.6070     1.7370 H     1 <1>   0.1500 
@<TRIPOS>BOND
  1   1   2  1   
  2   1   3  1   
  3   2   4  2   
  4   2   5  1   
  5   3   6  2   
  6   3  26  1   
  7   4   6  1   
  8   5   7  1   
  9   5   8  1   
 10   6   9  1   
 11   7  10  1   
 12   7  27  1   
 13   7  28  1   
 14   8  11  1   
 15   8  29  1   
 16   8  30  1   
 17   9  12  2   
 18   9  13  am  
 19  10  14  1   
 20  10  31  1   
 21  10  32  1   
 22  11  14  1   
 23  11  33  1   
 24  11  34  1   
 25  13  35  1   
 26  13  36  1   
 27  14  15  1   
 28  14  16  1   
 29  15  17  1   
 30  16  18  ar  
 31  16  19  ar  
 32  17  20  1   
 33  17  37  1   
 34  17  38  1   
 35  18  21  1   
 36  18  22  ar  
 37  19  20  1   
 38  19  23  ar  
 39  20  39  1   
 40  20  40  1   
 41  21  24  1   
 42  22  25  ar  
 43  22  41  1   
 44  23  25  ar  
 45  23  42  1   
 46  24  43  1   
 47  24  44  1   
 48  24  45  1   
 49  25  46  1   
@<TRIPOS>SUBSTRUCTURE
  1 ****  10 GROUP 4 **** **** 0

# MOE 2024.06 (io_trps.svl 2023.06)
