@<TRIPOS>MOLECULE
NONAME
44 46 1 0 0 
SMALL
USER_CHARGES


@<TRIPOS>ATOM
  1 S       -1.1030    -0.3540    -0.6480 S.3   1 <1>  -0.3310 
  2 C       -0.6290    -2.0240    -0.1660 C.ar  1 <1>   0.1020 
  3 C        0.4560     0.6100    -0.8790 C.3   1 <1>  -0.0100 
  4 C       -1.6270    -2.9300     0.0620 C.ar  1 <1>  -0.1500 
  5 C        0.7130    -2.3920    -0.0280 C.ar  1 <1>  -0.1500 
  6 C       -1.3390    -4.2500     0.4390 C.ar  1 <1>   0.3100 
  7 C        1.0230    -3.6740     0.3410 C.ar  1 <1>  -0.1500 
  8 N       -2.3820    -5.0910     0.6420 N.ar  1 <1>  -0.6200 
  9 C        0.0180    -4.6350     0.5850 C.ar  1 <1>   0.0000 
 10 C       -2.0980    -6.3090     0.9800 C.ar  1 <1>   0.4100 
 11 C        0.2820    -5.9690     0.9730 C.ar  1 <1>  -0.1430 
 12 N       -3.1610    -7.1360     1.1680 N.pl3 1 <1>  -0.8690 
 13 C       -0.7890    -6.7850     1.1680 C.ar  1 <1>  -0.1500 
 14 C        1.7000    -6.4830     1.1750 C.3   1 <1>  -0.0970 
 15 C       -3.6610    -7.9210     0.0170 C.3   1 <1>   0.2890 
 16 C       -5.0600    -8.4830     0.3260 C.3   1 <1>   0.2000 
 17 C       -2.7080    -9.0670    -0.3270 C.3   1 <1>  -0.1600 
 18 O       -5.9630    -7.4230     0.5050 O.3   1 <1>  -0.5600 
 19 C       -5.5210    -9.3810    -0.8300 C.3   1 <1>   0.1200 
 20 C       -3.3080    -9.9370    -1.4370 C.3   1 <1>   0.1200 
 21 C       -7.0480    -7.7070     1.3300 C.3   1 <1>   0.0400 
 22 O       -4.5720   -10.3870    -1.0530 O.3   1 <1>  -0.5600 
 23 H        0.1800     1.6080    -1.1660 H     1 <1>   0.0800 
 24 H        1.0290     0.1350    -1.6540 H     1 <1>   0.0800 
 25 H        0.9850     0.6160     0.0570 H     1 <1>   0.0800 
 26 H       -2.6570    -2.6480    -0.0440 H     1 <1>   0.1500 
 27 H        1.4950    -1.6810    -0.2080 H     1 <1>   0.1500 
 28 H        2.0540    -3.9540     0.4480 H     1 <1>   0.1500 
 29 H       -3.9570    -6.5650     1.4740 H     1 <1>   0.4000 
 30 H       -0.6810    -7.8070     1.4750 H     1 <1>   0.1500 
 31 H        1.6930    -7.5160     1.4730 H     1 <1>   0.0800 
 32 H        2.1920    -5.9140     1.9430 H     1 <1>   0.0800 
 33 H        2.2570    -6.3990     0.2590 H     1 <1>   0.0800 
 34 H       -3.7420    -7.2700    -0.8390 H     1 <1>   0.0800 
 35 H       -5.0100    -9.0610     1.2320 H     1 <1>   0.0800 
 36 H       -2.5330    -9.6750     0.5430 H     1 <1>   0.0800 
 37 H       -1.7700    -8.6710    -0.6680 H     1 <1>   0.0800 
 38 H       -5.6370    -8.8120    -1.7360 H     1 <1>   0.0800 
 39 H       -6.4490    -9.8640    -0.5850 H     1 <1>   0.0800 
 40 H       -2.6920   -10.8020    -1.6130 H     1 <1>   0.0800 
 41 H       -3.4060    -9.3860    -2.3570 H     1 <1>   0.0800 
 42 H       -7.6650    -6.8270     1.3850 H     1 <1>   0.0800 
 43 H       -6.6890    -7.9570     2.3140 H     1 <1>   0.0800 
 44 H       -7.6150    -8.5210     0.9150 H     1 <1>   0.0800 
@<TRIPOS>BOND
  1   1   2  1   
  2   1   3  1   
  3   2   4  ar  
  4   2   5  ar  
  5   3  23  1   
  6   3  24  1   
  7   3  25  1   
  8   4   6  ar  
  9   4  26  1   
 10   5   7  ar  
 11   5  27  1   
 12   6   8  ar  
 13   6   9  ar  
 14   7   9  ar  
 15   7  28  1   
 16   8  10  ar  
 17   9  11  ar  
 18  10  12  1   
 19  10  13  ar  
 20  11  13  ar  
 21  11  14  1   
 22  12  15  1   
 23  12  29  1   
 24  13  30  1   
 25  14  31  1   
 26  14  32  1   
 27  14  33  1   
 28  15  16  1   
 29  15  17  1   
 30  15  34  1   
 31  16  18  1   
 32  16  19  1   
 33  16  35  1   
 34  17  20  1   
 35  17  36  1   
 36  17  37  1   
 37  18  21  1   
 38  19  22  1   
 39  19  38  1   
 40  19  39  1   
 41  20  22  1   
 42  20  40  1   
 43  20  41  1   
 44  21  42  1   
 45  21  43  1   
 46  21  44  1   
@<TRIPOS>SUBSTRUCTURE
  1 ****   8 GROUP 4 **** **** 0

# MOE 2024.06 (io_trps.svl 2023.06)
