@<TRIPOS>MOLECULE
NONAME
54 56 1 0 0 
SMALL
USER_CHARGES


@<TRIPOS>ATOM
  1 S        1.0410     1.1480    -0.9620 S.o2  1 <1>   1.3330 
  2 O       -0.0500     0.7080    -1.8020 O.2   1 <1>  -0.6500 
  3 O        2.0560     2.0170    -1.5160 O.2   1 <1>  -0.6500 
  4 N        1.8150    -0.2220    -0.3290 N.am  1 <1>  -0.8490 
  5 C        0.3270     1.9260     0.4840 C.3   1 <1>  -0.0550 
  6 C        3.1220     0.0700     0.2690 C.3   1 <1>   0.1160 
  7 C        1.9480    -1.2910    -1.3230 C.3   1 <1>   0.1160 
  8 C       -0.5530     3.1460     0.1450 C.3   1 <1>  -0.0800 
  9 C       -1.2680     3.7540     1.3550 C.3   1 <1>   0.2000 
 10 C        0.2160     4.3170    -0.4930 C.3   1 <1>   0.1400 
 11 O       -0.3990     3.8010     2.4360 O.3   1 <1>  -0.6800 
 12 C       -1.5300     5.1870     0.9140 C.3   1 <1>   0.1400 
 13 N       -0.2960     5.5480     0.1650 N.am  1 <1>  -0.6600 
 14 C        0.6190     6.4190     0.7040 C.2   1 <1>   0.5440 
 15 O        0.6400     6.5410     1.9150 O.2   1 <1>  -0.5700 
 16 C        1.5820     7.1140    -0.1360 C.ar  1 <1>   0.0860 
 17 C        2.8200     7.5100     0.3670 C.ar  1 <1>  -0.1500 
 18 C        1.3100     7.4100    -1.4720 C.ar  1 <1>  -0.1500 
 19 C        3.7670     8.1620    -0.4110 C.ar  1 <1>   0.0000 
 20 C        2.2340     8.0650    -2.2660 C.ar  1 <1>  -0.1500 
 21 C        5.0470     8.5400     0.1410 C.ar  1 <1>   0.0000 
 22 C        3.4550     8.4380    -1.7370 C.ar  1 <1>  -0.1500 
 23 C        6.1680     7.7120     0.0490 C.ar  1 <1>  -0.1440 
 24 C        5.1780     9.7650     0.7880 C.ar  1 <1>  -0.1500 
 25 C        7.3770     8.1170     0.5920 C.ar  1 <1>  -0.1500 
 26 C        6.0740     6.3590    -0.6440 C.3   1 <1>  -0.0970 
 27 C        6.3850    10.1650     1.3290 C.ar  1 <1>  -0.1500 
 28 C        7.4890     9.3390     1.2310 C.ar  1 <1>  -0.1500 
 29 H       -0.2750     1.2050     1.0010 H     1 <1>   0.0800 
 30 H        1.1140     2.2260     1.1490 H     1 <1>   0.0800 
 31 H        3.5270    -0.8170     0.7250 H     1 <1>   0.0800 
 32 H        3.0230     0.8260     1.0290 H     1 <1>   0.0800 
 33 H        3.8100     0.4230    -0.4830 H     1 <1>   0.0800 
 34 H        2.4240    -2.1520    -0.8850 H     1 <1>   0.0800 
 35 H        2.5310    -0.9510    -2.1630 H     1 <1>   0.0800 
 36 H        0.9750    -1.5890    -1.6760 H     1 <1>   0.0800 
 37 H       -1.3070     2.8350    -0.5580 H     1 <1>   0.0800 
 38 H       -2.1570     3.2210     1.6460 H     1 <1>   0.0800 
 39 H        0.0440     4.3600    -1.5560 H     1 <1>   0.0800 
 40 H        1.2750     4.2250    -0.3140 H     1 <1>   0.0800 
 41 H        0.1070     4.6510     2.3880 H     1 <1>   0.4000 
 42 H       -1.7150     5.8390     1.7510 H     1 <1>   0.0800 
 43 H       -2.3710     5.2250     0.2440 H     1 <1>   0.0800 
 44 H        3.0560     7.3010     1.3960 H     1 <1>   0.1500 
 45 H        0.3610     7.1260    -1.8920 H     1 <1>   0.1500 
 46 H        2.0040     8.2850    -3.2940 H     1 <1>   0.1500 
 47 H        4.1780     8.9480    -2.3490 H     1 <1>   0.1500 
 48 H        4.3180    10.4070     0.8660 H     1 <1>   0.1500 
 49 H        8.2430     7.4820     0.5220 H     1 <1>   0.1500 
 50 H        7.0120     5.8370    -0.6050 H     1 <1>   0.0800 
 51 H        5.8010     6.4940    -1.6750 H     1 <1>   0.0800 
 52 H        5.3270     5.7520    -0.1640 H     1 <1>   0.0800 
 53 H        6.4650    11.1160     1.8260 H     1 <1>   0.1500 
 54 H        8.4310     9.6450     1.6490 H     1 <1>   0.1500 
@<TRIPOS>BOND
  1   1   2  2   
  2   1   3  2   
  3   1   4  am  
  4   1   5  1   
  5   4   6  1   
  6   4   7  1   
  7   5   8  1   
  8   5  29  1   
  9   5  30  1   
 10   6  31  1   
 11   6  32  1   
 12   6  33  1   
 13   7  34  1   
 14   7  35  1   
 15   7  36  1   
 16   8   9  1   
 17   8  10  1   
 18   8  37  1   
 19   9  11  1   
 20   9  12  1   
 21   9  38  1   
 22  10  13  1   
 23  10  39  1   
 24  10  40  1   
 25  11  41  1   
 26  12  13  1   
 27  12  42  1   
 28  12  43  1   
 29  13  14  am  
 30  14  15  2   
 31  14  16  1   
 32  16  17  ar  
 33  16  18  ar  
 34  17  19  ar  
 35  17  44  1   
 36  18  20  ar  
 37  18  45  1   
 38  19  21  1   
 39  19  22  ar  
 40  20  22  ar  
 41  20  46  1   
 42  21  23  ar  
 43  21  24  ar  
 44  22  47  1   
 45  23  25  ar  
 46  23  26  1   
 47  24  27  ar  
 48  24  48  1   
 49  25  28  ar  
 50  25  49  1   
 51  26  50  1   
 52  26  51  1   
 53  26  52  1   
 54  27  28  ar  
 55  27  53  1   
 56  28  54  1   
@<TRIPOS>SUBSTRUCTURE
  1 ****  16 GROUP 4 **** **** 0

# MOE 2024.06 (io_trps.svl 2023.06)
