@<TRIPOS>MOLECULE
NONAME
51 53 1 0 0 
SMALL
USER_CHARGES


@<TRIPOS>ATOM
  1 O       -0.2360     0.7900    -0.6880 O.3   1 <1>  -0.2800 
  2 C       -0.1050     2.0690    -0.3950 C.2   1 <1>  -0.0400 
  3 C       -1.4770     0.5920    -1.0850 C.2   1 <1>  -0.0100 
  4 C       -1.2750     2.7160    -0.5970 C.2   1 <1>  -0.1500 
  5 C        1.2540     2.5410     0.0940 C.3   1 <1>   0.0200 
  6 C       -2.1750     1.7460    -1.0530 C.2   1 <1>  -0.1500 
  7 C        1.5420     4.0420    -0.1330 C.3   1 <1>  -0.0800 
  8 C        1.7960     4.3720    -1.6180 C.3   1 <1>   0.1200 
  9 C        2.7630     4.4450     0.7090 C.3   1 <1>   0.2090 
 10 O        0.6450     4.1910    -2.3600 O.3   1 <1>  -0.6800 
 11 N        3.0030     5.9050     0.6020 N.pl3 1 <1>  -0.8690 
 12 C        4.1060     6.5990     0.2830 C.ar  1 <1>   0.4100 
 13 N        3.9050     7.8840     0.1110 N.ar  1 <1>  -0.6200 
 14 C        5.3770     6.0150     0.1420 C.ar  1 <1>  -0.1500 
 15 C        4.9380     8.6430    -0.2300 C.ar  1 <1>   0.7710 
 16 C        6.4250     6.8050    -0.1930 C.ar  1 <1>   0.2180 
 17 N        6.1710     8.1230    -0.3730 N.ar  1 <1>  -0.1790 
 18 N        4.7580     9.9760    -0.4350 N.pl3 1 <1>  -0.8380 
 19 C        7.8460     6.2970    -0.3680 C.3   1 <1>  -0.0970 
 20 C        3.4670    10.6600    -0.0890 C.3   1 <1>   0.2090 
 21 C        5.7450    10.9460    -1.0040 C.3   1 <1>   0.2090 
 22 C        3.7390    11.7270     0.9770 C.3   1 <1>  -0.1600 
 23 C        6.0760    12.0020     0.0540 C.3   1 <1>  -0.1600 
 24 C        4.8100    12.7310     0.5260 C.3   1 <1>  -0.1600 
 25 H       -1.7780    -0.4000    -1.3710 H     1 <1>   0.1500 
 26 H       -1.5100     3.7570    -0.4540 H     1 <1>   0.1500 
 27 H        2.0130     1.9580    -0.3990 H     1 <1>   0.0800 
 28 H        1.3050     2.3100     1.1430 H     1 <1>   0.0800 
 29 H       -3.2040     1.9190    -1.3140 H     1 <1>   0.1500 
 30 H        0.7050     4.6180     0.2200 H     1 <1>   0.0800 
 31 H        2.5630     3.7400    -2.0320 H     1 <1>   0.0800 
 32 H        2.0890     5.4010    -1.7450 H     1 <1>   0.0800 
 33 H        3.6250     3.8930     0.3800 H     1 <1>   0.0800 
 34 H        2.5850     4.2050     1.7450 H     1 <1>   0.0800 
 35 H        0.2600     3.3040    -2.1910 H     1 <1>   0.4000 
 36 H        2.1580     6.4750     0.7250 H     1 <1>   0.4000 
 37 H        5.4930     4.9620     0.3080 H     1 <1>   0.1500 
 38 H        6.8970     8.7900    -0.5960 H     1 <1>   0.4570 
 39 H        7.8900     5.2360    -0.1940 H     1 <1>   0.0800 
 40 H        8.5060     6.7790     0.3320 H     1 <1>   0.0800 
 41 H        8.1940     6.4880    -1.3680 H     1 <1>   0.0800 
 42 H        2.7270     9.9740     0.2860 H     1 <1>   0.0800 
 43 H        3.0610    11.1240    -0.9720 H     1 <1>   0.0800 
 44 H        5.3060    11.4280    -1.8630 H     1 <1>   0.0800 
 45 H        6.6470    10.4630    -1.3330 H     1 <1>   0.0800 
 46 H        4.0530    11.2400     1.8840 H     1 <1>   0.0800 
 47 H        2.8240    12.2520     1.1930 H     1 <1>   0.0800 
 48 H        6.7630    12.7200    -0.3600 H     1 <1>   0.0800 
 49 H        6.5570    11.5330     0.8940 H     1 <1>   0.0800 
 50 H        5.0500    13.3970     1.3380 H     1 <1>   0.0800 
 51 H        4.4180    13.3270    -0.2820 H     1 <1>   0.0800 
@<TRIPOS>BOND
  1   1   2  1   
  2   1   3  1   
  3   2   4  2   
  4   2   5  1   
  5   3   6  2   
  6   3  25  1   
  7   4   6  1   
  8   4  26  1   
  9   5   7  1   
 10   5  27  1   
 11   5  28  1   
 12   6  29  1   
 13   7   8  1   
 14   7   9  1   
 15   7  30  1   
 16   8  10  1   
 17   8  31  1   
 18   8  32  1   
 19   9  11  1   
 20   9  33  1   
 21   9  34  1   
 22  10  35  1   
 23  11  12  1   
 24  11  36  1   
 25  12  13  ar  
 26  12  14  ar  
 27  13  15  ar  
 28  14  16  ar  
 29  14  37  1   
 30  15  17  ar  
 31  15  18  1   
 32  16  17  ar  
 33  16  19  1   
 34  17  38  1   
 35  18  20  1   
 36  18  21  1   
 37  19  39  1   
 38  19  40  1   
 39  19  41  1   
 40  20  22  1   
 41  20  42  1   
 42  20  43  1   
 43  21  23  1   
 44  21  44  1   
 45  21  45  1   
 46  22  24  1   
 47  22  46  1   
 48  22  47  1   
 49  23  24  1   
 50  23  48  1   
 51  23  49  1   
 52  24  50  1   
 53  24  51  1   
@<TRIPOS>SUBSTRUCTURE
  1 ****  11 GROUP 4 **** **** 0

# MOE 2024.06 (io_trps.svl 2023.06)
