@<TRIPOS>MOLECULE
NONAME
44 46 1 0 0 
SMALL
USER_CHARGES


@<TRIPOS>ATOM
  1 O       -1.7530     0.4820     2.6980 O.2   1 <1>  -0.5700 
  2 C       -2.1680     0.9010     1.6360 C.2   1 <1>   0.5440 
  3 N       -3.0080     0.1080     0.8920 N.am  1 <1>  -0.6600 
  4 C       -1.7990     2.2220     1.1790 C.ar  1 <1>   0.0860 
  5 C       -3.9050     0.5930    -0.1850 C.3   1 <1>   0.1400 
  6 C       -3.3430    -1.2910     1.2570 C.3   1 <1>   0.1400 
  7 C       -0.9840     2.4330     0.0600 C.ar  1 <1>   0.1660 
  8 C       -2.2730     3.3420     1.8440 C.ar  1 <1>  -0.1500 
  9 C       -5.0920    -0.3680    -0.1390 C.3   1 <1>   0.2000 
 10 C       -4.4880    -1.7010     0.3130 C.3   1 <1>  -0.0800 
 11 N       -0.6740     3.6240    -0.4290 N.ar  1 <1>  -0.6200 
 12 C       -0.3710     1.2690    -0.7030 C.3   1 <1>  -0.0970 
 13 C       -1.9410     4.5830     1.3500 C.ar  1 <1>  -0.1500 
 14 O       -5.9620     0.0620     0.8500 O.3   1 <1>  -0.6800 
 15 C       -3.9830    -2.5070    -0.9000 C.3   1 <1>  -0.0170 
 16 C       -1.1510     4.6720     0.2170 C.ar  1 <1>   0.1670 
 17 C       -3.4410    -3.8690    -0.4980 C.ar  1 <1>   0.1670 
 18 C       -0.7780     6.0250    -0.3510 C.3   1 <1>  -0.0970 
 19 N       -2.1250    -3.9750    -0.4010 N.ar  1 <1>  -0.6200 
 20 C       -4.3230    -4.9130    -0.2570 C.ar  1 <1>  -0.1500 
 21 C       -1.6690    -5.1660    -0.0470 C.ar  1 <1>   0.1600 
 22 C       -3.8340    -6.1480     0.1110 C.ar  1 <1>  -0.1500 
 23 C       -2.4660    -6.2670     0.2170 C.ar  1 <1>  -0.1500 
 24 H       -4.2130     1.6130    -0.0310 H     1 <1>   0.0800 
 25 H       -3.3980     0.5070    -1.1290 H     1 <1>   0.0800 
 26 H       -2.4750    -1.9200     1.1580 H     1 <1>   0.0800 
 27 H       -3.6740    -1.3190     2.2810 H     1 <1>   0.0800 
 28 H       -2.8840     3.2330     2.7240 H     1 <1>   0.1500 
 29 H       -5.6340    -0.4210    -1.0670 H     1 <1>   0.0800 
 30 H       -5.2170    -2.2950     0.8360 H     1 <1>   0.0800 
 31 H       -0.2890     0.3870    -0.0950 H     1 <1>   0.0800 
 32 H        0.6180     1.5340    -1.0320 H     1 <1>   0.0800 
 33 H       -0.9690     1.0480    -1.5670 H     1 <1>   0.0800 
 34 H       -2.2940     5.4720     1.8410 H     1 <1>   0.1500 
 35 H       -5.4510     0.2090     1.6720 H     1 <1>   0.4000 
 36 H       -3.2110    -1.9620    -1.4160 H     1 <1>   0.0800 
 37 H       -4.7910    -2.6560    -1.5930 H     1 <1>   0.0800 
 38 H       -1.2060     6.8220     0.2270 H     1 <1>   0.0800 
 39 H       -1.1320     6.0980    -1.3630 H     1 <1>   0.0800 
 40 H        0.2920     6.1290    -0.3520 H     1 <1>   0.0800 
 41 H       -5.3830    -4.7630    -0.3550 H     1 <1>   0.1500 
 42 H       -0.6010    -5.2700     0.0390 H     1 <1>   0.1500 
 43 H       -4.4900    -6.9790     0.3060 H     1 <1>   0.1500 
 44 H       -2.0180    -7.2020     0.5000 H     1 <1>   0.1500 
@<TRIPOS>BOND
  1   1   2  2   
  2   2   3  am  
  3   2   4  1   
  4   3   5  1   
  5   3   6  1   
  6   4   7  ar  
  7   4   8  ar  
  8   5   9  1   
  9   5  24  1   
 10   5  25  1   
 11   6  10  1   
 12   6  26  1   
 13   6  27  1   
 14   7  11  ar  
 15   7  12  1   
 16   8  13  ar  
 17   8  28  1   
 18   9  10  1   
 19   9  14  1   
 20   9  29  1   
 21  10  15  1   
 22  10  30  1   
 23  11  16  ar  
 24  12  31  1   
 25  12  32  1   
 26  12  33  1   
 27  13  16  ar  
 28  13  34  1   
 29  14  35  1   
 30  15  17  1   
 31  15  36  1   
 32  15  37  1   
 33  16  18  1   
 34  17  19  ar  
 35  17  20  ar  
 36  18  38  1   
 37  18  39  1   
 38  18  40  1   
 39  19  21  ar  
 40  20  22  ar  
 41  20  41  1   
 42  21  23  ar  
 43  21  42  1   
 44  22  23  ar  
 45  22  43  1   
 46  23  44  1   
@<TRIPOS>SUBSTRUCTURE
  1 ****   3 GROUP 4 **** **** 0

# MOE 2024.06 (io_trps.svl 2023.06)
