@<TRIPOS>MOLECULE
NONAME
52 56 1 0 0 
SMALL
USER_CHARGES


@<TRIPOS>ATOM
  1 S       -0.6560     0.8870     2.0040 S.3   1 <1>  -0.0800 
  2 C       -0.3520     2.1120     0.7900 C.2   1 <1>  -0.1400 
  3 C        0.9460     1.1370     2.6840 C.2   1 <1>  -0.1100 
  4 C        0.8740     2.6390     0.9070 C.2   1 <1>  -0.1810 
  5 C       -1.3720     2.5030    -0.2440 C.3   1 <1>   0.0200 
  6 C        1.6190     2.0840     2.0010 C.2   1 <1>  -0.1500 
  7 C        1.3650     3.7210    -0.0590 C.3   1 <1>   0.4610 
  8 C       -0.9390     3.8610    -0.8190 C.3   1 <1>   0.1200 
  9 O        0.4360     3.8710    -1.1200 O.3   1 <1>  -0.5600 
 10 C        2.6850     3.2950    -0.7070 C.3   1 <1>  -0.1600 
 11 C        1.5290     5.0650     0.6650 C.3   1 <1>  -0.1600 
 12 C        3.2410     4.3870    -1.6180 C.3   1 <1>   0.2090 
 13 C        2.0920     6.1400    -0.2600 C.3   1 <1>   0.2090 
 14 N        3.3620     5.6460    -0.8410 N.pl3 1 <1>  -0.8380 
 15 C        4.6010     6.1870    -0.5460 C.ar  1 <1>   0.4100 
 16 N        5.4850     5.3030    -0.0780 N.ar  1 <1>  -0.6200 
 17 C        4.8990     7.5540    -0.7230 C.ar  1 <1>   0.0860 
 18 C        6.6870     5.7540     0.2110 C.ar  1 <1>   0.1600 
 19 C        3.9290     8.5000    -1.2090 C.2   1 <1>   0.5440 
 20 C        6.1780     7.9900    -0.4070 C.ar  1 <1>  -0.1500 
 21 C        7.0840     7.0710     0.0680 C.ar  1 <1>  -0.1500 
 22 O        3.6310     8.5430    -2.3890 O.2   1 <1>  -0.5700 
 23 N        3.3480     9.4110    -0.3540 N.am  1 <1>  -0.6600 
 24 C        3.5510     9.4660     1.1100 C.3   1 <1>   0.1400 
 25 C        2.2900    10.3480    -0.7850 C.3   1 <1>   0.1400 
 26 C        2.3320    10.2150     1.6310 C.3   1 <1>  -0.1600 
 27 C        1.9150    11.1220     0.4750 C.3   1 <1>  -0.1600 
 28 H        1.2170     0.5400     3.5360 H     1 <1>   0.1500 
 29 H       -2.3460     2.5890     0.2020 H     1 <1>   0.0800 
 30 H       -1.4090     1.7630    -1.0220 H     1 <1>   0.0800 
 31 H        2.6180     2.4180     2.2220 H     1 <1>   0.1500 
 32 H       -1.1410     4.6480    -0.1160 H     1 <1>   0.0800 
 33 H       -1.4750     4.0670    -1.7290 H     1 <1>   0.0800 
 34 H        2.5340     2.3900    -1.2660 H     1 <1>   0.0800 
 35 H        3.4180     3.0940     0.0520 H     1 <1>   0.0800 
 36 H        2.2130     4.9380     1.4830 H     1 <1>   0.0800 
 37 H        0.5930     5.3830     1.0800 H     1 <1>   0.0800 
 38 H        2.5790     4.5490    -2.4510 H     1 <1>   0.0800 
 39 H        4.2020     4.0930    -2.0040 H     1 <1>   0.0800 
 40 H        2.2580     7.0390     0.3020 H     1 <1>   0.0800 
 41 H        1.3990     6.3570    -1.0560 H     1 <1>   0.0800 
 42 H        7.3990     5.0380     0.5830 H     1 <1>   0.1500 
 43 H        6.4440     9.0240    -0.5390 H     1 <1>   0.1500 
 44 H        8.0860     7.3640     0.3220 H     1 <1>   0.1500 
 45 H        4.4490    10.0220     1.3180 H     1 <1>   0.0800 
 46 H        3.6250     8.4800     1.5370 H     1 <1>   0.0800 
 47 H        1.4510     9.7830    -1.1540 H     1 <1>   0.0800 
 48 H        2.6540    10.9990    -1.5630 H     1 <1>   0.0800 
 49 H        2.5540    10.7680     2.5270 H     1 <1>   0.0800 
 50 H        1.5490     9.5070     1.8400 H     1 <1>   0.0800 
 51 H        0.8670    11.3620     0.4970 H     1 <1>   0.0800 
 52 H        2.4840    12.0350     0.5030 H     1 <1>   0.0800 
@<TRIPOS>BOND
  1   1   2  1   
  2   1   3  1   
  3   2   4  2   
  4   2   5  1   
  5   3   6  2   
  6   3  28  1   
  7   4   6  1   
  8   4   7  1   
  9   5   8  1   
 10   5  29  1   
 11   5  30  1   
 12   6  31  1   
 13   7   9  1   
 14   7  10  1   
 15   7  11  1   
 16   8   9  1   
 17   8  32  1   
 18   8  33  1   
 19  10  12  1   
 20  10  34  1   
 21  10  35  1   
 22  11  13  1   
 23  11  36  1   
 24  11  37  1   
 25  12  14  1   
 26  12  38  1   
 27  12  39  1   
 28  13  14  1   
 29  13  40  1   
 30  13  41  1   
 31  14  15  1   
 32  15  16  ar  
 33  15  17  ar  
 34  16  18  ar  
 35  17  19  1   
 36  17  20  ar  
 37  18  21  ar  
 38  18  42  1   
 39  19  22  2   
 40  19  23  am  
 41  20  21  ar  
 42  20  43  1   
 43  21  44  1   
 44  23  24  1   
 45  23  25  1   
 46  24  26  1   
 47  24  45  1   
 48  24  46  1   
 49  25  27  1   
 50  25  47  1   
 51  25  48  1   
 52  26  27  1   
 53  26  49  1   
 54  26  50  1   
 55  27  51  1   
 56  27  52  1   
@<TRIPOS>SUBSTRUCTURE
  1 ****  13 GROUP 4 **** **** 0

# MOE 2024.06 (io_trps.svl 2023.06)
