@<TRIPOS>MOLECULE
NONAME
57 60 1 0 0 
SMALL
USER_CHARGES


@<TRIPOS>ATOM
  1 O       -1.0830    -1.1240    -2.1080 O.2   1 <1>  -0.5700 
  2 C       -1.6860    -1.1460    -1.0540 C.2   1 <1>   0.5440 
  3 N       -1.3360    -2.0750    -0.1160 N.am  1 <1>  -0.7300 
  4 C       -2.7130    -0.1760    -0.7690 C.ar  1 <1>   0.0860 
  5 C        0.0210    -2.6300    -0.0200 C.3   1 <1>   0.2200 
  6 C       -2.4800     1.1020    -0.2140 C.ar  1 <1>   0.0820 
  7 C       -4.0330    -0.5370    -1.0410 C.ar  1 <1>  -0.1500 
  8 C        0.1140    -4.0110    -0.6650 C.3   1 <1>  -0.1600 
  9 C        0.4250    -2.7150     1.4500 C.3   1 <1>  -0.1600 
 10 O       -1.2680     1.6380     0.1070 O.3   1 <1>  -0.3630 
 11 C       -3.5510     1.9390     0.0620 C.ar  1 <1>  -0.1500 
 12 C       -5.0880     0.3080    -0.7670 C.ar  1 <1>  -0.1500 
 13 C        1.5760    -4.4950    -0.6490 C.3   1 <1>  -0.1600 
 14 C        1.8980    -3.1280     1.5530 C.3   1 <1>  -0.1600 
 15 C       -0.0270     1.1570    -0.3660 C.3   1 <1>   0.1200 
 16 C       -4.8570     1.5530    -0.2090 C.ar  1 <1>   0.0820 
 17 C        2.2340    -4.3950     0.7440 C.3   1 <1>   0.2200 
 18 C        1.0950     2.0870     0.0890 C.3   1 <1>   0.0960 
 19 O       -5.9400     2.3230     0.0370 O.3   1 <1>  -0.3630 
 20 N        3.7050    -4.5500     0.6380 N.am  1 <1>  -0.7300 
 21 N        2.3750     1.3850    -0.1010 N.pl3 1 <1>   0.3140 
 22 C       -5.8220     3.6200     0.5800 C.3   1 <1>   0.0400 
 23 C        4.7060    -3.7580     0.1670 C.2   1 <1>   0.5690 
 24 N        3.1110     1.4940    -1.2090 N.2   1 <1>  -0.4180 
 25 C        2.8800     0.4230     0.6740 C.2   1 <1>  -0.3020 
 26 O        5.8440    -4.1190     0.3180 O.2   1 <1>  -0.5700 
 27 C        4.4770    -2.4320    -0.5380 C.3   1 <1>  -0.0990 
 28 N        4.0610     0.6250    -1.1550 N.2   1 <1>  -0.2270 
 29 C        3.9280    -0.0560    -0.0120 C.2   1 <1>   0.0460 
 30 C        4.8270    -1.2250     0.3480 C.3   1 <1>   0.0210 
 31 H       -1.9070    -2.1680     0.7240 H     1 <1>   0.3700 
 32 H        0.7000    -1.9680    -0.5360 H     1 <1>   0.0800 
 33 H       -4.2280    -1.5020    -1.4790 H     1 <1>   0.1500 
 34 H       -0.2280    -3.9520    -1.6840 H     1 <1>   0.0800 
 35 H       -0.5100    -4.7080    -0.1330 H     1 <1>   0.0800 
 36 H       -0.1890    -3.4370     1.9600 H     1 <1>   0.0800 
 37 H        0.2960    -1.7560     1.9220 H     1 <1>   0.0800 
 38 H       -3.3390     2.8990     0.4900 H     1 <1>   0.1500 
 39 H       -6.1000     0.0120    -0.9830 H     1 <1>   0.1500 
 40 H        2.1200    -3.9150    -1.3680 H     1 <1>   0.0800 
 41 H        1.6100    -5.5180    -0.9780 H     1 <1>   0.0800 
 42 H        2.1540    -3.2900     2.5860 H     1 <1>   0.0800 
 43 H        2.4750    -2.3020     1.2020 H     1 <1>   0.0800 
 44 H       -0.0610     1.1050    -1.4410 H     1 <1>   0.0800 
 45 H        0.1310     0.1860     0.0600 H     1 <1>   0.0800 
 46 H        1.8610    -5.2280     1.3170 H     1 <1>   0.0800 
 47 H        0.9870     2.3250     1.1300 H     1 <1>   0.0800 
 48 H        1.0980     2.9870    -0.4970 H     1 <1>   0.0800 
 49 H        4.0530    -5.4210     1.0450 H     1 <1>   0.3700 
 50 H       -6.8100     4.0330     0.6740 H     1 <1>   0.0800 
 51 H       -5.2340     4.2250    -0.0870 H     1 <1>   0.0800 
 52 H       -5.3600     3.5520     1.5490 H     1 <1>   0.0800 
 53 H        2.4640     0.1330     1.6180 H     1 <1>   0.1500 
 54 H        3.4600    -2.3520    -0.8570 H     1 <1>   0.0800 
 55 H        5.0840    -2.4020    -1.4250 H     1 <1>   0.0800 
 56 H        5.8610    -0.9550     0.2190 H     1 <1>   0.0800 
 57 H        4.6770    -1.4720     1.3840 H     1 <1>   0.0800 
@<TRIPOS>BOND
  1   1   2  2   
  2   2   3  am  
  3   2   4  1   
  4   3   5  1   
  5   3  31  1   
  6   4   6  ar  
  7   4   7  ar  
  8   5   8  1   
  9   5   9  1   
 10   5  32  1   
 11   6  10  1   
 12   6  11  ar  
 13   7  12  ar  
 14   7  33  1   
 15   8  13  1   
 16   8  34  1   
 17   8  35  1   
 18   9  14  1   
 19   9  36  1   
 20   9  37  1   
 21  10  15  1   
 22  11  16  ar  
 23  11  38  1   
 24  12  16  ar  
 25  12  39  1   
 26  13  17  1   
 27  13  40  1   
 28  13  41  1   
 29  14  17  1   
 30  14  42  1   
 31  14  43  1   
 32  15  18  1   
 33  15  44  1   
 34  15  45  1   
 35  16  19  1   
 36  17  20  1   
 37  17  46  1   
 38  18  21  1   
 39  18  47  1   
 40  18  48  1   
 41  19  22  1   
 42  20  23  am  
 43  20  49  1   
 44  21  24  1   
 45  21  25  1   
 46  22  50  1   
 47  22  51  1   
 48  22  52  1   
 49  23  26  2   
 50  23  27  1   
 51  24  28  2   
 52  25  29  2   
 53  25  53  1   
 54  27  30  1   
 55  27  54  1   
 56  27  55  1   
 57  28  29  1   
 58  29  30  1   
 59  30  56  1   
 60  30  57  1   
@<TRIPOS>SUBSTRUCTURE
  1 ****   5 GROUP 4 **** **** 0

# MOE 2024.06 (io_trps.svl 2023.06)
