@<TRIPOS>MOLECULE
NONAME
53 56 1 0 0 
SMALL
USER_CHARGES


@<TRIPOS>ATOM
  1 CL       0.2140    -0.4690     1.5580 Cl    1 <1>  -0.1770 
  2 C       -0.5810    -1.7860     0.7320 C.ar  1 <1>   0.1770 
  3 C       -0.4900    -3.0600     1.2380 C.ar  1 <1>  -0.1500 
  4 C       -1.2970    -1.5040    -0.4360 C.ar  1 <1>  -0.1500 
  5 C       -1.1390    -4.0980     0.5570 C.ar  1 <1>  -0.1520 
  6 C       -1.9320    -2.5220    -1.1070 C.ar  1 <1>  -0.1500 
  7 N       -1.2250    -5.4460     0.8170 N.pl3 1 <1>   0.0480 
  8 C       -1.8520    -3.8290    -0.6070 C.ar  1 <1>   0.0000 
  9 C       -1.9900    -6.0380    -0.1720 C.2   1 <1>  -0.2370 
 10 C       -0.5890    -6.1260     1.9670 C.3   1 <1>   0.0160 
 11 C       -2.3680    -5.0570    -1.0450 C.2   1 <1>  -0.1500 
 12 C       -2.2970    -7.4470    -0.2410 C.2   1 <1>   0.7150 
 13 O       -1.5890    -8.2850     0.2900 O.2   1 <1>  -0.5700 
 14 N       -3.4210    -7.8990    -0.8930 N.am  1 <1>  -0.6600 
 15 C       -3.4890    -9.3120    -1.3440 C.3   1 <1>   0.1400 
 16 C       -4.7480    -7.2760    -0.6420 C.3   1 <1>   0.1400 
 17 C       -4.1870   -10.1560    -0.2550 C.3   1 <1>   0.4230 
 18 C       -5.4700    -8.0960     0.4360 C.3   1 <1>  -0.1600 
 19 N       -4.1450   -11.6570    -0.5120 N.4   1 <1>  -0.9590 
 20 C       -5.6070    -9.6090     0.0890 C.3   1 <1>   0.0000 
 21 C       -5.1440   -12.4420     0.2820 C.3   1 <1>   0.3430 
 22 C       -4.1990   -12.0700    -1.9530 C.3   1 <1>   0.2630 
 23 C       -6.1570   -10.3590     1.3380 C.3   1 <1>  -0.1600 
 24 C       -6.5630    -9.7990    -1.1240 C.3   1 <1>   0.1200 
 25 C       -5.4930   -11.7270     1.5860 C.3   1 <1>  -0.1600 
 26 O       -7.7690    -9.1460    -0.9340 O.3   1 <1>  -0.6800 
 27 H        0.0690    -3.2450     2.1360 H     1 <1>   0.1500 
 28 H       -1.3370    -0.4900    -0.7900 H     1 <1>   0.1500 
 29 H       -2.4880    -2.3380    -2.0080 H     1 <1>   0.1500 
 30 H       -1.3070    -6.7650     2.4460 H     1 <1>   0.0800 
 31 H       -0.2320    -5.4040     2.6770 H     1 <1>   0.0800 
 32 H        0.2350    -6.7180     1.6130 H     1 <1>   0.0800 
 33 H       -2.9570    -5.1680    -1.9380 H     1 <1>   0.1500 
 34 H       -4.0190    -9.3490    -2.2780 H     1 <1>   0.0800 
 35 H       -2.4910    -9.6810    -1.5070 H     1 <1>   0.0800 
 36 H       -4.6330    -6.2610    -0.2990 H     1 <1>   0.0800 
 37 H       -5.3200    -7.2530    -1.5550 H     1 <1>   0.0800 
 38 H       -3.6010    -9.9900     0.6350 H     1 <1>   0.0800 
 39 H       -4.9110    -7.9800     1.3490 H     1 <1>   0.0800 
 40 H       -6.4360    -7.6570     0.6130 H     1 <1>   0.0800 
 41 H       -3.2190   -11.9430    -0.1580 H     1 <1>   0.4500 
 42 H       -6.0490   -12.5670    -0.2910 H     1 <1>   0.0800 
 43 H       -4.7520   -13.4240     0.4980 H     1 <1>   0.0800 
 44 H       -5.1290   -11.7600    -2.4010 H     1 <1>   0.0800 
 45 H       -4.1180   -13.1420    -2.0370 H     1 <1>   0.0800 
 46 H       -3.3840   -11.6280    -2.5050 H     1 <1>   0.0800 
 47 H       -6.0140    -9.7690     2.2290 H     1 <1>   0.0800 
 48 H       -7.2200   -10.4990     1.2460 H     1 <1>   0.0800 
 49 H       -6.7840   -10.8370    -1.2940 H     1 <1>   0.0800 
 50 H       -6.1410    -9.3900    -2.0240 H     1 <1>   0.0800 
 51 H       -6.1630   -12.3440     2.1610 H     1 <1>   0.0800 
 52 H       -4.5980   -11.6050     2.1720 H     1 <1>   0.0800 
 53 H       -8.2660    -9.4980    -0.1700 H     1 <1>   0.4000 
@<TRIPOS>BOND
  1   1   2  1   
  2   2   3  ar  
  3   2   4  ar  
  4   3   5  ar  
  5   3  27  1   
  6   4   6  ar  
  7   4  28  1   
  8   5   7  1   
  9   5   8  ar  
 10   6   8  ar  
 11   6  29  1   
 12   7   9  1   
 13   7  10  1   
 14   8  11  1   
 15   9  11  2   
 16   9  12  1   
 17  10  30  1   
 18  10  31  1   
 19  10  32  1   
 20  11  33  1   
 21  12  13  2   
 22  12  14  am  
 23  14  15  1   
 24  14  16  1   
 25  15  17  1   
 26  15  34  1   
 27  15  35  1   
 28  16  18  1   
 29  16  36  1   
 30  16  37  1   
 31  17  19  1   
 32  17  20  1   
 33  17  38  1   
 34  18  20  1   
 35  18  39  1   
 36  18  40  1   
 37  19  21  1   
 38  19  22  1   
 39  19  41  1   
 40  20  23  1   
 41  20  24  1   
 42  21  25  1   
 43  21  42  1   
 44  21  43  1   
 45  22  44  1   
 46  22  45  1   
 47  22  46  1   
 48  23  25  1   
 49  23  47  1   
 50  23  48  1   
 51  24  26  1   
 52  24  49  1   
 53  24  50  1   
 54  25  51  1   
 55  25  52  1   
 56  26  53  1   
@<TRIPOS>SUBSTRUCTURE
  1 ****  12 GROUP 4 **** **** 0

# MOE 2024.06 (io_trps.svl 2023.06)
