@<TRIPOS>MOLECULE
NONAME
30 30 1 0 0 
SMALL
USER_CHARGES


@<TRIPOS>ATOM
  1 CL      -0.5660     0.3730    -0.8900 Cl    1 <1>  -0.1770 
  2 C       -1.6840    -0.6330     0.0080 C.ar  1 <1>   0.1770 
  3 C       -2.6190    -0.0530     0.8570 C.ar  1 <1>  -0.1440 
  4 C       -1.5880    -2.0100    -0.1580 C.ar  1 <1>  -0.1440 
  5 C       -3.4740    -0.9100     1.5390 C.ar  1 <1>   0.1770 
  6 C       -2.7170     1.4640     1.0300 C.3   1 <1>  -0.0160 
  7 C       -2.4530    -2.8380     0.5420 C.ar  1 <1>  -0.1500 
  8 C       -0.5590    -2.5980    -1.1010 C.3   1 <1>   0.4860 
  9 CL      -4.6990    -0.2880     2.6180 Cl    1 <1>  -0.1770 
 10 C       -3.3960    -2.2840     1.3900 C.ar  1 <1>  -0.1500 
 11 C       -3.6870     2.0620     0.0040 C.3   1 <1>  -0.1600 
 12 N        0.7680    -2.4790    -0.4620 N.4   1 <1>  -0.8530 
 13 C       -3.8030     3.5830     0.1640 C.3   1 <1>  -0.1600 
 14 C       -4.7770     4.1710    -0.8610 C.3   1 <1>  -0.2400 
 15 H       -1.7490     1.9200     0.9200 H     1 <1>   0.0800 
 16 H       -3.0520     1.7050     2.0230 H     1 <1>   0.0800 
 17 H       -2.4170    -3.9110     0.4380 H     1 <1>   0.1500 
 18 H       -0.5730    -2.0610    -2.0370 H     1 <1>   0.0800 
 19 H       -0.7900    -3.6330    -1.2960 H     1 <1>   0.0800 
 20 H       -4.0800    -2.9100     1.9390 H     1 <1>   0.1500 
 21 H       -4.6590     1.6160     0.1330 H     1 <1>   0.0800 
 22 H       -3.3440     1.8330    -0.9900 H     1 <1>   0.0800 
 23 H        0.9780    -1.4830    -0.3170 H     1 <1>   0.4500 
 24 H        1.5080    -2.8890    -1.0400 H     1 <1>   0.4500 
 25 H        0.7610    -2.9340     0.4570 H     1 <1>   0.4500 
 26 H       -2.8360     4.0390     0.0330 H     1 <1>   0.0800 
 27 H       -4.1520     3.8190     1.1560 H     1 <1>   0.0800 
 28 H       -4.4380     3.9680    -1.8620 H     1 <1>   0.0800 
 29 H       -4.8470     5.2370    -0.7330 H     1 <1>   0.0800 
 30 H       -5.7580     3.7470    -0.7340 H     1 <1>   0.0800 
@<TRIPOS>BOND
  1   1   2  1   
  2   2   3  ar  
  3   2   4  ar  
  4   3   5  ar  
  5   3   6  1   
  6   4   7  ar  
  7   4   8  1   
  8   5   9  1   
  9   5  10  ar  
 10   6  11  1   
 11   6  15  1   
 12   6  16  1   
 13   7  10  ar  
 14   7  17  1   
 15   8  12  1   
 16   8  18  1   
 17   8  19  1   
 18  10  20  1   
 19  11  13  1   
 20  11  21  1   
 21  11  22  1   
 22  12  23  1   
 23  12  24  1   
 24  12  25  1   
 25  13  14  1   
 26  13  26  1   
 27  13  27  1   
 28  14  28  1   
 29  14  29  1   
 30  14  30  1   
@<TRIPOS>SUBSTRUCTURE
  1 ****   3 GROUP 4 **** **** 0

# MOE 2024.06 (io_trps.svl 2023.06)
