@<TRIPOS>MOLECULE
NONAME
49 53 1 0 0 
SMALL
USER_CHARGES


@<TRIPOS>ATOM
  1 O        2.1820     0.2980    -3.0860 O.2   1 <1>  -0.5700 
  2 C        2.2290    -0.4480    -2.1250 C.2   1 <1>   0.4690 
  3 C        2.8160    -0.0590    -0.8730 C.ar  1 <1>   0.0860 
  4 C        1.6920    -1.7580    -2.1970 C.2   1 <1>  -0.1360 
  5 C        2.8180    -0.9840     0.1770 C.ar  1 <1>   0.0830 
  6 C        3.3880     1.1950    -0.6450 C.ar  1 <1>  -0.1500 
  7 C        1.7150    -2.6180    -1.1440 C.2   1 <1>   0.0910 
  8 O        2.2730    -2.2110     0.0150 O.3   1 <1>  -0.1590 
  9 C        3.3770    -0.6640     1.4070 C.ar  1 <1>  -0.1500 
 10 C        3.9410     1.5130     0.5800 C.ar  1 <1>  -0.1500 
 11 C        1.1900    -3.9710    -1.1650 C.2   1 <1>   0.6160 
 12 C        3.9370     0.5820     1.6090 C.ar  1 <1>  -0.1500 
 13 O        0.7230    -4.4380    -2.1860 O.2   1 <1>  -0.5700 
 14 N        1.1490    -4.7790    -0.0500 N.am  1 <1>  -0.6600 
 15 C        0.3630    -4.3810     1.1550 C.3   1 <1>   0.1400 
 16 C        1.2940    -6.2550    -0.2140 C.3   1 <1>   0.1400 
 17 C       -1.0170    -5.0870     1.1940 C.3   1 <1>   0.4230 
 18 C       -0.0870    -6.9310    -0.2290 C.3   1 <1>   0.3430 
 19 N       -0.9020    -6.5910     1.0000 N.4   1 <1>  -0.9590 
 20 C       -1.9820    -4.4690     0.1540 C.3   1 <1>   0.1200 
 21 C       -2.2760    -7.2030     0.9730 C.3   1 <1>   0.5180 
 22 O       -3.2270    -5.1030     0.2190 O.3   1 <1>  -0.5600 
 23 C       -2.1560    -8.7250     0.7580 C.3   1 <1>  -0.1950 
 24 C       -3.1970    -6.4800    -0.0420 C.3   1 <1>   0.1200 
 25 C       -2.1060    -9.4010    -0.5830 C.3   1 <1>  -0.2000 
 26 C       -3.3050    -9.5760     0.3050 C.3   1 <1>  -0.2000 
 27 H        1.2640    -2.0370    -3.1440 H     1 <1>   0.1500 
 28 H        3.3950     1.9190    -1.4430 H     1 <1>   0.1500 
 29 H        3.3750    -1.3890     2.2010 H     1 <1>   0.1500 
 30 H        4.3780     2.4840     0.7390 H     1 <1>   0.1500 
 31 H        4.3720     0.8360     2.5610 H     1 <1>   0.1500 
 32 H        0.9230    -4.6360     2.0380 H     1 <1>   0.0800 
 33 H        0.2160    -3.3140     1.1660 H     1 <1>   0.0800 
 34 H        1.8040    -6.4710    -1.1390 H     1 <1>   0.0800 
 35 H        1.8940    -6.6510     0.5870 H     1 <1>   0.0800 
 36 H       -1.4480    -4.8930     2.1620 H     1 <1>   0.0800 
 37 H        0.0510    -7.9970    -0.2970 H     1 <1>   0.0800 
 38 H       -0.6080    -6.6090    -1.1160 H     1 <1>   0.0800 
 39 H       -0.4170    -6.9830     1.8130 H     1 <1>   0.4500 
 40 H       -1.6010    -4.5580    -0.8490 H     1 <1>   0.0800 
 41 H       -2.1410    -3.4260     0.3650 H     1 <1>   0.0800 
 42 H       -2.7290    -7.0600     1.9410 H     1 <1>   0.0800 
 43 H       -1.5730    -9.1690     1.5480 H     1 <1>   0.1000 
 44 H       -4.2050    -6.8420     0.0490 H     1 <1>   0.0800 
 45 H       -2.8690    -6.6310    -1.0550 H     1 <1>   0.0800 
 46 H       -2.2530    -8.8560    -1.5000 H     1 <1>   0.1000 
 47 H       -1.4600   -10.2530    -0.7220 H     1 <1>   0.1000 
 48 H       -3.4560   -10.5370     0.7700 H     1 <1>   0.1000 
 49 H       -4.2350    -9.1440    -0.0220 H     1 <1>   0.1000 
@<TRIPOS>BOND
  1   1   2  2   
  2   2   3  1   
  3   2   4  1   
  4   3   5  ar  
  5   3   6  ar  
  6   4   7  2   
  7   4  27  1   
  8   5   8  1   
  9   5   9  ar  
 10   6  10  ar  
 11   6  28  1   
 12   7   8  1   
 13   7  11  1   
 14   9  12  ar  
 15   9  29  1   
 16  10  12  ar  
 17  10  30  1   
 18  11  13  2   
 19  11  14  am  
 20  12  31  1   
 21  14  15  1   
 22  14  16  1   
 23  15  17  1   
 24  15  32  1   
 25  15  33  1   
 26  16  18  1   
 27  16  34  1   
 28  16  35  1   
 29  17  19  1   
 30  17  20  1   
 31  17  36  1   
 32  18  19  1   
 33  18  37  1   
 34  18  38  1   
 35  19  21  1   
 36  19  39  1   
 37  20  22  1   
 38  20  40  1   
 39  20  41  1   
 40  21  23  1   
 41  21  24  1   
 42  21  42  1   
 43  22  24  1   
 44  23  25  1   
 45  23  26  1   
 46  23  43  1   
 47  24  44  1   
 48  24  45  1   
 49  25  26  1   
 50  25  46  1   
 51  25  47  1   
 52  26  48  1   
 53  26  49  1   
@<TRIPOS>SUBSTRUCTURE
  1 ****  14 GROUP 4 **** **** 0

# MOE 2024.06 (io_trps.svl 2023.06)
