@<TRIPOS>MOLECULE
NONAME
63 66 1 0 0 
SMALL
USER_CHARGES


@<TRIPOS>ATOM
  1 CL      -2.2380     1.3010     4.0300 Cl    1 <1>  -0.1770 
  2 C       -3.0400     1.4180     2.4840 C.ar  1 <1>   0.1770 
  3 C       -4.1990     0.7020     2.2680 C.ar  1 <1>  -0.1500 
  4 C       -2.4980     2.2270     1.5020 C.ar  1 <1>  -0.1500 
  5 C       -4.8440     0.7880     1.0420 C.ar  1 <1>   0.1000 
  6 C       -3.1360     2.3170     0.2770 C.ar  1 <1>  -0.1500 
  7 N       -6.0120     0.0650     0.8310 N.pl3 1 <1>  -0.8380 
  8 C       -4.3010     1.6020     0.0520 C.ar  1 <1>  -0.1500 
  9 C       -5.9300    -1.0690    -0.1310 C.3   1 <1>   0.2090 
 10 C       -7.2770     0.8490     0.7670 C.3   1 <1>   0.2090 
 11 C       -7.1670    -1.9820     0.0040 C.3   1 <1>   0.3430 
 12 C       -8.5010    -0.0860     0.8880 C.3   1 <1>   0.3430 
 13 N       -8.4790    -1.2270    -0.1140 N.4   1 <1>  -0.9590 
 14 C       -9.6300    -2.1640     0.0390 C.3   1 <1>   0.3430 
 15 C      -10.9450    -1.5140    -0.4130 C.3   1 <1>  -0.1600 
 16 C      -12.1000    -2.5230    -0.3480 C.3   1 <1>   0.3430 
 17 N      -13.3890    -1.8660    -0.6830 N.4   1 <1>  -0.9590 
 18 C      -14.5760    -2.6600    -0.2470 C.3   1 <1>   0.3430 
 19 C      -13.5290    -1.4370    -2.1160 C.3   1 <1>   0.3430 
 20 C      -15.7380    -1.6640    -0.0790 C.3   1 <1>   0.0000 
 21 C      -14.9980    -1.2020    -2.5020 C.3   1 <1>  -0.1600 
 22 C      -15.5530    -0.9050     1.2460 C.3   1 <1>   0.2000 
 23 C      -15.8530    -0.7150    -1.3200 C.3   1 <1>  -0.1600 
 24 C      -17.0920    -2.3390     0.1780 C.3   1 <1>  -0.1600 
 25 O      -14.5340     0.0370     1.1760 O.3   1 <1>  -0.6800 
 26 C      -16.9130    -0.2840     1.5330 C.3   1 <1>  -0.1600 
 27 C      -17.9170    -1.2970     0.9560 C.3   1 <1>  -0.1600 
 28 H       -4.5990     0.0810     3.0460 H     1 <1>   0.1500 
 29 H       -1.5930     2.7740     1.6980 H     1 <1>   0.1500 
 30 H       -2.7260     2.9440    -0.4970 H     1 <1>   0.1500 
 31 H       -4.7900     1.6780    -0.9010 H     1 <1>   0.1500 
 32 H       -5.8550    -0.6910    -1.1350 H     1 <1>   0.0800 
 33 H       -5.0390    -1.6410     0.0740 H     1 <1>   0.0800 
 34 H       -7.2900     1.5620     1.5740 H     1 <1>   0.0800 
 35 H       -7.3190     1.3970    -0.1580 H     1 <1>   0.0800 
 36 H       -7.1150    -2.4640     0.9670 H     1 <1>   0.0800 
 37 H       -7.1140    -2.7490    -0.7500 H     1 <1>   0.0800 
 38 H       -9.3940     0.5020     0.7610 H     1 <1>   0.0800 
 39 H       -8.5090    -0.4860     1.8890 H     1 <1>   0.0800 
 40 H       -8.4890    -0.8090    -1.0540 H     1 <1>   0.4500 
 41 H       -9.4510    -3.0420    -0.5610 H     1 <1>   0.0800 
 42 H       -9.7070    -2.4770     1.0700 H     1 <1>   0.0800 
 43 H      -11.1780    -0.6860     0.2320 H     1 <1>   0.0800 
 44 H      -10.8330    -1.1660    -1.4240 H     1 <1>   0.0800 
 45 H      -12.1610    -2.9240     0.6510 H     1 <1>   0.0800 
 46 H      -11.9230    -3.3420    -1.0280 H     1 <1>   0.0800 
 47 H      -13.5000    -0.9990    -0.1120 H     1 <1>   0.4500 
 48 H      -14.8240    -3.4030    -0.9880 H     1 <1>   0.0800 
 49 H      -14.3860    -3.1530     0.6920 H     1 <1>   0.0800 
 50 H      -12.9800    -0.5210    -2.2630 H     1 <1>   0.0800 
 51 H      -13.1140    -2.1850    -2.7720 H     1 <1>   0.0800 
 52 H      -15.0430    -0.4870    -3.3050 H     1 <1>   0.0800 
 53 H      -15.4110    -2.1210    -2.8830 H     1 <1>   0.0800 
 54 H      -15.3150    -1.5920     2.0410 H     1 <1>   0.0800 
 55 H      -16.8760    -0.6230    -1.6440 H     1 <1>   0.0800 
 56 H      -15.5340     0.2830    -1.0730 H     1 <1>   0.0800 
 57 H      -17.5880    -2.6480    -0.7280 H     1 <1>   0.0800 
 58 H      -16.9600    -3.2080     0.8020 H     1 <1>   0.0800 
 59 H      -14.6850     0.7190     1.8670 H     1 <1>   0.4000 
 60 H      -17.0680    -0.1430     2.5890 H     1 <1>   0.0800 
 61 H      -17.0190     0.6570     1.0190 H     1 <1>   0.0800 
 62 H      -18.4830    -1.7740     1.7400 H     1 <1>   0.0800 
 63 H      -18.6060    -0.7930     0.2980 H     1 <1>   0.0800 
@<TRIPOS>BOND
  1   1   2  1   
  2   2   3  ar  
  3   2   4  ar  
  4   3   5  ar  
  5   3  28  1   
  6   4   6  ar  
  7   4  29  1   
  8   5   7  1   
  9   5   8  ar  
 10   6   8  ar  
 11   6  30  1   
 12   7   9  1   
 13   7  10  1   
 14   8  31  1   
 15   9  11  1   
 16   9  32  1   
 17   9  33  1   
 18  10  12  1   
 19  10  34  1   
 20  10  35  1   
 21  11  13  1   
 22  11  36  1   
 23  11  37  1   
 24  12  13  1   
 25  12  38  1   
 26  12  39  1   
 27  13  14  1   
 28  13  40  1   
 29  14  15  1   
 30  14  41  1   
 31  14  42  1   
 32  15  16  1   
 33  15  43  1   
 34  15  44  1   
 35  16  17  1   
 36  16  45  1   
 37  16  46  1   
 38  17  18  1   
 39  17  19  1   
 40  17  47  1   
 41  18  20  1   
 42  18  48  1   
 43  18  49  1   
 44  19  21  1   
 45  19  50  1   
 46  19  51  1   
 47  20  22  1   
 48  20  23  1   
 49  20  24  1   
 50  21  23  1   
 51  21  52  1   
 52  21  53  1   
 53  22  25  1   
 54  22  26  1   
 55  22  54  1   
 56  23  55  1   
 57  23  56  1   
 58  24  27  1   
 59  24  57  1   
 60  24  58  1   
 61  25  59  1   
 62  26  27  1   
 63  26  60  1   
 64  26  61  1   
 65  27  62  1   
 66  27  63  1   
@<TRIPOS>SUBSTRUCTURE
  1 ****  15 GROUP 4 **** **** 0

# MOE 2024.06 (io_trps.svl 2023.06)
