@<TRIPOS>MOLECULE
NONAME
57 59 1 0 0 
SMALL
USER_CHARGES


@<TRIPOS>ATOM
  1 O       -4.4080     3.0260     0.6510 O.2   1 <1>  -0.5700 
  2 C       -3.5510     2.5330    -0.0510 C.2   1 <1>   0.5690 
  3 N       -3.9010     1.4300    -0.8170 N.am  1 <1>  -0.6600 
  4 C       -2.1220     3.1700    -0.0280 C.3   1 <1>   0.2040 
  5 C       -2.9570     0.6150    -1.6400 C.3   1 <1>   0.3200 
  6 C       -5.3630     1.1010    -1.0000 C.3   1 <1>   0.1400 
  7 C       -1.1270     2.1320     0.5460 C.ar  1 <1>  -0.1440 
  8 C       -2.0320     4.3880     0.9480 C.3   1 <1>  -0.1600 
  9 C       -1.8000     3.6620    -1.4790 C.3   1 <1>  -0.1600 
 10 C       -3.0900    -0.8410    -1.2490 C.2   1 <1>  -0.3320 
 11 C       -6.0650     0.7100     0.3190 C.3   1 <1>   0.3430 
 12 C       -1.4420     1.5090     1.7500 C.ar  1 <1>  -0.1500 
 13 C        0.0790     1.7980    -0.0650 C.ar  1 <1>  -0.1500 
 14 C       -2.4800     5.7110     0.3100 C.3   1 <1>  -0.1600 
 15 C       -0.8830     4.8940    -1.5270 C.3   1 <1>  -0.1600 
 16 N       -3.7060    -1.7860    -1.9900 N.pl3 1 <1>   0.0330 
 17 C       -2.6180    -1.4680    -0.1490 C.2   1 <1>   0.0770 
 18 N       -5.1890    -0.1690     1.1500 N.4   1 <1>  -0.9590 
 19 C       -0.6020     0.5640     2.3120 C.ar  1 <1>  -0.1500 
 20 C        0.9170     0.8470     0.4910 C.ar  1 <1>  -0.1500 
 21 C       -1.5540     6.1040    -0.8550 C.3   1 <1>  -0.1600 
 22 C       -3.6050    -2.9190    -1.2640 C.2   1 <1>   0.0360 
 23 N       -2.9830    -2.7630    -0.1410 N.2   1 <1>  -0.5650 
 24 C       -5.6310    -1.5940     1.1870 C.3   1 <1>   0.2630 
 25 C       -5.0140     0.3950     2.5190 C.3   1 <1>   0.2630 
 26 C        0.5770     0.2260     1.6770 C.ar  1 <1>  -0.1500 
 27 H       -1.9390     0.9030    -1.4790 H     1 <1>   0.0800 
 28 H       -3.1750     0.7510    -2.6860 H     1 <1>   0.0800 
 29 H       -5.4810     0.3020    -1.7080 H     1 <1>   0.0800 
 30 H       -5.8630     1.9620    -1.4100 H     1 <1>   0.0800 
 31 H       -1.0100     4.5120     1.2650 H     1 <1>   0.0800 
 32 H       -2.6030     4.2070     1.8410 H     1 <1>   0.0800 
 33 H       -2.7230     3.9450    -1.9570 H     1 <1>   0.0800 
 34 H       -1.3780     2.8840    -2.0830 H     1 <1>   0.0800 
 35 H       -7.0050     0.2270     0.1100 H     1 <1>   0.0800 
 36 H       -6.2790     1.6180     0.8600 H     1 <1>   0.0800 
 37 H       -2.3450     1.7690     2.2720 H     1 <1>   0.1500 
 38 H        0.3990     2.2670    -0.9760 H     1 <1>   0.1500 
 39 H       -2.4800     6.4950     1.0480 H     1 <1>   0.0800 
 40 H       -3.4900     5.6040    -0.0490 H     1 <1>   0.0800 
 41 H       -0.6430     5.1400    -2.5480 H     1 <1>   0.0800 
 42 H        0.0400     4.6720    -1.0210 H     1 <1>   0.0800 
 43 H       -4.1270    -1.6980    -2.9210 H     1 <1>   0.2700 
 44 H       -2.0280    -1.0510     0.6520 H     1 <1>   0.1500 
 45 H       -4.2660    -0.1340     0.6730 H     1 <1>   0.4500 
 46 H       -0.8580     0.0940     3.2460 H     1 <1>   0.1500 
 47 H        1.8430     0.5940     0.0020 H     1 <1>   0.1500 
 48 H       -0.7850     6.7650    -0.4950 H     1 <1>   0.0800 
 49 H       -2.1310     6.6500    -1.5820 H     1 <1>   0.0800 
 50 H       -4.0060    -3.8590    -1.6080 H     1 <1>   0.1500 
 51 H       -6.5830    -1.6830     1.6830 H     1 <1>   0.0800 
 52 H       -4.9040    -2.1930     1.7140 H     1 <1>   0.0800 
 53 H       -5.7170    -1.9830     0.1860 H     1 <1>   0.0800 
 54 H       -5.9500     0.3820     3.0520 H     1 <1>   0.0800 
 55 H       -4.6670     1.4140     2.4570 H     1 <1>   0.0800 
 56 H       -4.2910    -0.1840     3.0700 H     1 <1>   0.0800 
 57 H        1.2330    -0.5110     2.1080 H     1 <1>   0.1500 
@<TRIPOS>BOND
  1   1   2  2   
  2   2   3  am  
  3   2   4  1   
  4   3   5  1   
  5   3   6  1   
  6   4   7  1   
  7   4   8  1   
  8   4   9  1   
  9   5  10  1   
 10   5  27  1   
 11   5  28  1   
 12   6  11  1   
 13   6  29  1   
 14   6  30  1   
 15   7  12  ar  
 16   7  13  ar  
 17   8  14  1   
 18   8  31  1   
 19   8  32  1   
 20   9  15  1   
 21   9  33  1   
 22   9  34  1   
 23  10  16  1   
 24  10  17  2   
 25  11  18  1   
 26  11  35  1   
 27  11  36  1   
 28  12  19  ar  
 29  12  37  1   
 30  13  20  ar  
 31  13  38  1   
 32  14  21  1   
 33  14  39  1   
 34  14  40  1   
 35  15  21  1   
 36  15  41  1   
 37  15  42  1   
 38  16  22  1   
 39  16  43  1   
 40  17  23  1   
 41  17  44  1   
 42  18  24  1   
 43  18  25  1   
 44  18  45  1   
 45  19  26  ar  
 46  19  46  1   
 47  20  26  ar  
 48  20  47  1   
 49  21  48  1   
 50  21  49  1   
 51  22  23  2   
 52  22  50  1   
 53  24  51  1   
 54  24  52  1   
 55  24  53  1   
 56  25  54  1   
 57  25  55  1   
 58  25  56  1   
 59  26  57  1   
@<TRIPOS>SUBSTRUCTURE
  1 ****   3 GROUP 4 **** **** 0

# MOE 2024.06 (io_trps.svl 2023.06)
