@<TRIPOS>MOLECULE
NONAME
41 43 1 0 0 
SMALL
USER_CHARGES


@<TRIPOS>ATOM
  1 O       -0.9520     0.3150    -2.2500 O.2   1 <1>  -0.5700 
  2 C       -1.7340     0.9460    -1.5790 C.2   1 <1>   0.5690 
  3 N       -2.7490     0.3260    -0.8960 N.am  1 <1>  -0.6600 
  4 C       -1.5660     2.4560    -1.5480 C.3   1 <1>   0.0810 
  5 C       -3.7300     0.9630     0.0200 C.3   1 <1>   0.1400 
  6 C       -2.8880    -1.1510    -0.8500 C.3   1 <1>   0.1400 
  7 C       -0.7000     2.9070    -0.3860 C.2   1 <1>  -0.0400 
  8 C       -4.4710    -0.1960     0.6910 C.3   1 <1>   0.2000 
  9 C       -3.6030    -1.4330     0.4710 C.3   1 <1>  -0.0800 
 10 O       -1.1780     2.9140     0.8290 O.3   1 <1>  -0.0190 
 11 C        0.5670     3.3460    -0.3310 C.2   1 <1>  -0.1500 
 12 O       -4.6370     0.0290     2.0480 O.3   1 <1>  -0.6800 
 13 C       -4.4190    -2.7360     0.4810 C.3   1 <1>  -0.0170 
 14 N       -0.3020     3.3320     1.6940 N.2   1 <1>  -0.4100 
 15 C        0.7610     3.5990     1.0240 C.2   1 <1>   0.1080 
 16 C       -3.5450    -3.9510     0.2230 C.ar  1 <1>   0.1670 
 17 C        2.0450     4.1150     1.6340 C.3   1 <1>  -0.0590 
 18 N       -3.3690    -4.2890    -1.0450 N.ar  1 <1>  -0.6200 
 19 C       -2.9810    -4.6300     1.2930 C.ar  1 <1>  -0.1500 
 20 C       -2.5990    -5.3440    -1.2560 C.ar  1 <1>   0.1600 
 21 C       -2.1820    -5.7290     1.0590 C.ar  1 <1>  -0.1500 
 22 C       -1.9910    -6.0870    -0.2580 C.ar  1 <1>  -0.1500 
 23 H       -1.0960     2.7560    -2.4660 H     1 <1>   0.0800 
 24 H       -2.5230     2.9380    -1.5000 H     1 <1>   0.0800 
 25 H       -3.2160     1.5550     0.7560 H     1 <1>   0.0800 
 26 H       -4.4160     1.5750    -0.5370 H     1 <1>   0.0800 
 27 H       -3.4830    -1.4760    -1.6870 H     1 <1>   0.0800 
 28 H       -1.9270    -1.6380    -0.8900 H     1 <1>   0.0800 
 29 H       -5.4440    -0.3140     0.2450 H     1 <1>   0.0800 
 30 H       -2.8450    -1.4820     1.2330 H     1 <1>   0.0800 
 31 H        1.2860     3.4770    -1.1180 H     1 <1>   0.1500 
 32 H       -3.7700     0.1780     2.4740 H     1 <1>   0.4000 
 33 H       -5.1890    -2.6950    -0.2700 H     1 <1>   0.0800 
 34 H       -4.9050    -2.8420     1.4350 H     1 <1>   0.0800 
 35 H        2.8460     3.4270     1.4320 H     1 <1>   0.0800 
 36 H        1.9320     4.2140     2.6980 H     1 <1>   0.0800 
 37 H        2.2870     5.0750     1.2170 H     1 <1>   0.0800 
 38 H       -3.1630    -4.3030     2.3000 H     1 <1>   0.1500 
 39 H       -2.4430    -5.6330    -2.2810 H     1 <1>   0.1500 
 40 H       -1.7290    -6.2790     1.8650 H     1 <1>   0.1500 
 41 H       -1.3790    -6.9330    -0.5120 H     1 <1>   0.1500 
@<TRIPOS>BOND
  1   1   2  2   
  2   2   3  am  
  3   2   4  1   
  4   3   5  1   
  5   3   6  1   
  6   4   7  1   
  7   4  23  1   
  8   4  24  1   
  9   5   8  1   
 10   5  25  1   
 11   5  26  1   
 12   6   9  1   
 13   6  27  1   
 14   6  28  1   
 15   7  10  1   
 16   7  11  2   
 17   8   9  1   
 18   8  12  1   
 19   8  29  1   
 20   9  13  1   
 21   9  30  1   
 22  10  14  1   
 23  11  15  1   
 24  11  31  1   
 25  12  32  1   
 26  13  16  1   
 27  13  33  1   
 28  13  34  1   
 29  14  15  2   
 30  15  17  1   
 31  16  18  ar  
 32  16  19  ar  
 33  17  35  1   
 34  17  36  1   
 35  17  37  1   
 36  18  20  ar  
 37  19  21  ar  
 38  19  38  1   
 39  20  22  ar  
 40  20  39  1   
 41  21  22  ar  
 42  21  40  1   
 43  22  41  1   
@<TRIPOS>SUBSTRUCTURE
  1 ****   6 GROUP 4 **** **** 0

# MOE 2024.06 (io_trps.svl 2023.06)
