@<TRIPOS>MOLECULE
NONAME
53 56 1 0 0 
SMALL
USER_CHARGES


@<TRIPOS>ATOM
  1 O       -2.2270    -0.1320    -1.9470 O.2   1 <1>  -0.5700 
  2 C       -2.4110     0.4160    -0.8730 C.2   1 <1>   0.5440 
  3 N       -3.1530    -0.2900     0.0640 N.am  1 <1>  -0.6600 
  4 C       -1.8610     1.7590    -0.6550 C.ar  1 <1>   0.3960 
  5 C       -3.9930     0.3510     1.1090 C.3   1 <1>   0.1400 
  6 C       -3.1740    -1.7770     0.0590 C.3   1 <1>   0.1400 
  7 N       -1.6410     2.2260     0.5880 N.ar  1 <1>  -0.6200 
  8 C       -1.5530     2.5430    -1.7770 C.ar  1 <1>   0.1600 
  9 C       -5.4390    -0.1190     0.9390 C.3   1 <1>  -0.1600 
 10 C       -4.6090    -2.2520    -0.1470 C.3   1 <1>  -0.1600 
 11 C       -1.1290     3.4430     0.6120 C.ar  1 <1>   0.1600 
 12 N       -1.0500     3.7680    -1.7530 N.ar  1 <1>  -0.6200 
 13 C       -5.5210    -1.6480     0.9300 C.3   1 <1>   0.4230 
 14 C       -0.8440     4.1920    -0.5210 C.ar  1 <1>   0.1600 
 15 N       -6.9420    -2.0670     0.7700 N.4   1 <1>  -0.9590 
 16 C       -7.5980    -1.7660    -0.5390 C.3   1 <1>   0.3430 
 17 C       -7.1880    -3.5180     1.0470 C.3   1 <1>   0.3430 
 18 C       -8.7660    -2.7490    -0.6070 C.3   1 <1>   0.2000 
 19 C       -8.1670    -4.0270    -0.0250 C.3   1 <1>  -0.0800 
 20 O       -9.7560    -2.3010     0.2600 O.3   1 <1>  -0.6800 
 21 C       -7.4560    -4.8570    -1.1160 C.3   1 <1>  -0.0170 
 22 C       -6.8020    -6.1070    -0.5490 C.ar  1 <1>   0.1670 
 23 N       -5.6050    -5.9440    -0.0070 N.ar  1 <1>  -0.6200 
 24 C       -7.4630    -7.3240    -0.6250 C.ar  1 <1>  -0.1500 
 25 C       -5.0380    -7.0440     0.4680 C.ar  1 <1>   0.1600 
 26 C       -6.8650    -8.4570    -0.1170 C.ar  1 <1>  -0.1500 
 27 C       -5.6160    -8.3010     0.4410 C.ar  1 <1>  -0.1500 
 28 H       -3.6130     0.0860     2.0810 H     1 <1>   0.0800 
 29 H       -3.9670     1.4230     1.0180 H     1 <1>   0.0800 
 30 H       -2.5440    -2.1660    -0.7240 H     1 <1>   0.0800 
 31 H       -2.7890    -2.1380     0.9980 H     1 <1>   0.0800 
 32 H       -1.7380     2.1220    -2.7500 H     1 <1>   0.1500 
 33 H       -5.8120     0.2870     0.0160 H     1 <1>   0.0800 
 34 H       -6.0240     0.2770     1.7500 H     1 <1>   0.0800 
 35 H       -4.6170    -3.3250    -0.0950 H     1 <1>   0.0800 
 36 H       -4.9080    -1.9510    -1.1340 H     1 <1>   0.0800 
 37 H       -0.9240     3.8740     1.5770 H     1 <1>   0.1500 
 38 H       -5.1690    -1.9970     1.8880 H     1 <1>   0.0800 
 39 H       -0.4300     5.1780    -0.4020 H     1 <1>   0.1500 
 40 H       -7.5110    -1.5620     1.4640 H     1 <1>   0.4500 
 41 H       -7.9410    -0.7460    -0.5960 H     1 <1>   0.0800 
 42 H       -6.9220    -1.9650    -1.3520 H     1 <1>   0.0800 
 43 H       -6.2670    -4.0720     1.0340 H     1 <1>   0.0800 
 44 H       -7.6330    -3.6270     2.0230 H     1 <1>   0.0800 
 45 H       -9.1790    -2.8510    -1.5970 H     1 <1>   0.0800 
 46 H       -8.9240    -4.6450     0.4270 H     1 <1>   0.0800 
 47 H      -10.5890    -2.8060     0.1430 H     1 <1>   0.4000 
 48 H       -6.6980    -4.2740    -1.6090 H     1 <1>   0.0800 
 49 H       -8.1710    -5.1480    -1.8660 H     1 <1>   0.0800 
 50 H       -8.4360    -7.3960    -1.0770 H     1 <1>   0.1500 
 51 H       -4.0580    -6.9420     0.9040 H     1 <1>   0.1500 
 52 H       -7.3480    -9.4190    -0.1580 H     1 <1>   0.1500 
 53 H       -5.0910    -9.1460     0.8510 H     1 <1>   0.1500 
@<TRIPOS>BOND
  1   1   2  2   
  2   2   3  am  
  3   2   4  1   
  4   3   5  1   
  5   3   6  1   
  6   4   7  ar  
  7   4   8  ar  
  8   5   9  1   
  9   5  28  1   
 10   5  29  1   
 11   6  10  1   
 12   6  30  1   
 13   6  31  1   
 14   7  11  ar  
 15   8  12  ar  
 16   8  32  1   
 17   9  13  1   
 18   9  33  1   
 19   9  34  1   
 20  10  13  1   
 21  10  35  1   
 22  10  36  1   
 23  11  14  ar  
 24  11  37  1   
 25  12  14  ar  
 26  13  15  1   
 27  13  38  1   
 28  14  39  1   
 29  15  16  1   
 30  15  17  1   
 31  15  40  1   
 32  16  18  1   
 33  16  41  1   
 34  16  42  1   
 35  17  19  1   
 36  17  43  1   
 37  17  44  1   
 38  18  19  1   
 39  18  20  1   
 40  18  45  1   
 41  19  21  1   
 42  19  46  1   
 43  20  47  1   
 44  21  22  1   
 45  21  48  1   
 46  21  49  1   
 47  22  23  ar  
 48  22  24  ar  
 49  23  25  ar  
 50  24  26  ar  
 51  24  50  1   
 52  25  27  ar  
 53  25  51  1   
 54  26  27  ar  
 55  26  52  1   
 56  27  53  1   
@<TRIPOS>SUBSTRUCTURE
  1 ****  10 GROUP 4 **** **** 0

# MOE 2024.06 (io_trps.svl 2023.06)
