@<TRIPOS>MOLECULE
NONAME
56 59 1 0 0 
SMALL
USER_CHARGES


@<TRIPOS>ATOM
  1 O        0.6990    -0.1850     0.3530 O.3   1 <1>  -0.6800 
  2 C        1.1290    -0.2170    -0.9710 C.3   1 <1>   0.2000 
  3 C        1.7340    -1.5900    -1.2810 C.3   1 <1>  -0.0800 
  4 C        2.3520     0.6940    -1.0590 C.3   1 <1>   0.3430 
  5 C        3.1800    -1.5000    -0.7670 C.3   1 <1>   0.3430 
  6 C        0.9580    -2.8250    -0.7710 C.3   1 <1>  -0.0160 
  7 N        3.3990    -0.0840    -0.3270 N.4   1 <1>  -0.9590 
  8 C        1.7990    -4.0820    -0.9680 C.ar  1 <1>  -0.1430 
  9 C        4.8010     0.4170    -0.3940 C.3   1 <1>   0.4230 
 10 C        2.6330    -4.6270     0.0420 C.ar  1 <1>   0.0000 
 11 C        1.7820    -4.7110    -2.1800 C.ar  1 <1>  -0.1500 
 12 C        5.7150    -0.4820     0.4490 C.3   1 <1>  -0.1600 
 13 C        4.8670     1.8600     0.1200 C.3   1 <1>  -0.1600 
 14 C        3.4350    -5.7420    -0.3060 C.ar  1 <1>   0.3100 
 15 C        2.7260    -4.1390     1.3680 C.ar  1 <1>  -0.1500 
 16 C        2.5970    -5.8260    -2.4090 C.ar  1 <1>   0.1600 
 17 C        7.1430     0.0610     0.5030 C.3   1 <1>   0.3430 
 18 C        6.3070     2.3710     0.1810 C.3   1 <1>   0.3430 
 19 N        3.4070    -6.3210    -1.5300 N.ar  1 <1>  -0.6200 
 20 C        4.3090    -6.2790     0.6520 C.ar  1 <1>  -0.1500 
 21 C        3.5840    -4.6900     2.2800 C.ar  1 <1>  -0.1500 
 22 N        7.1410     1.4590     1.0180 N.4   1 <1>  -0.9590 
 23 C        4.3920    -5.7700     1.9190 C.ar  1 <1>  -0.1500 
 24 C        8.5430     1.9550     1.1370 C.3   1 <1>   0.3430 
 25 C        8.5830     3.1760     2.0480 C.3   1 <1>  -0.2400 
 26 H       -0.2270    -0.5040     0.4340 H     1 <1>   0.4000 
 27 H        0.3250     0.0790    -1.6240 H     1 <1>   0.0800 
 28 H        1.8020    -1.6820    -2.3510 H     1 <1>   0.0800 
 29 H        2.1530     1.6480    -0.6000 H     1 <1>   0.0800 
 30 H        2.6350     0.8320    -2.0900 H     1 <1>   0.0800 
 31 H        3.8590    -1.7690    -1.5600 H     1 <1>   0.0800 
 32 H        3.3350    -2.1690     0.0620 H     1 <1>   0.0800 
 33 H        0.0440    -2.9200    -1.3330 H     1 <1>   0.0800 
 34 H        0.6690    -2.7250     0.2580 H     1 <1>   0.0800 
 35 H        3.0590    -0.0570     0.6500 H     1 <1>   0.4500 
 36 H        5.1360     0.3940    -1.4200 H     1 <1>   0.0800 
 37 H        1.1590    -4.3730    -2.9880 H     1 <1>   0.1500 
 38 H        5.3380    -0.5680     1.4530 H     1 <1>   0.0800 
 39 H        5.7610    -1.4680     0.0230 H     1 <1>   0.0800 
 40 H        4.3210     2.5110    -0.5390 H     1 <1>   0.0800 
 41 H        4.4310     1.9320     1.1010 H     1 <1>   0.0800 
 42 H        2.1060    -3.3240     1.6880 H     1 <1>   0.1500 
 43 H        2.5520    -6.2960    -3.3780 H     1 <1>   0.1500 
 44 H        7.5800     0.0360    -0.4830 H     1 <1>   0.0800 
 45 H        7.7410    -0.5660     1.1470 H     1 <1>   0.0800 
 46 H        6.3130     3.3660     0.6000 H     1 <1>   0.0800 
 47 H        6.7180     2.4280    -0.8150 H     1 <1>   0.0800 
 48 H        4.9130    -7.1180     0.3550 H     1 <1>   0.1500 
 49 H        3.6420    -4.3150     3.2890 H     1 <1>   0.1500 
 50 H        6.7630     1.4550     1.9770 H     1 <1>   0.4500 
 51 H        5.0630    -6.1980     2.6440 H     1 <1>   0.1500 
 52 H        9.1660     1.1860     1.5680 H     1 <1>   0.0800 
 53 H        8.9410     2.2030     0.1650 H     1 <1>   0.0800 
 54 H        8.1750     2.9490     3.0170 H     1 <1>   0.0800 
 55 H        8.0600     4.0120     1.6190 H     1 <1>   0.0800 
 56 H        9.6080     3.4750     2.1870 H     1 <1>   0.0800 
@<TRIPOS>BOND
  1   1   2  1   
  2   1  26  1   
  3   2   3  1   
  4   2   4  1   
  5   2  27  1   
  6   3   5  1   
  7   3   6  1   
  8   3  28  1   
  9   4   7  1   
 10   4  29  1   
 11   4  30  1   
 12   5   7  1   
 13   5  31  1   
 14   5  32  1   
 15   6   8  1   
 16   6  33  1   
 17   6  34  1   
 18   7   9  1   
 19   7  35  1   
 20   8  10  ar  
 21   8  11  ar  
 22   9  12  1   
 23   9  13  1   
 24   9  36  1   
 25  10  14  ar  
 26  10  15  ar  
 27  11  16  ar  
 28  11  37  1   
 29  12  17  1   
 30  12  38  1   
 31  12  39  1   
 32  13  18  1   
 33  13  40  1   
 34  13  41  1   
 35  14  19  ar  
 36  14  20  ar  
 37  15  21  ar  
 38  15  42  1   
 39  16  19  ar  
 40  16  43  1   
 41  17  22  1   
 42  17  44  1   
 43  17  45  1   
 44  18  22  1   
 45  18  46  1   
 46  18  47  1   
 47  20  23  ar  
 48  20  48  1   
 49  21  23  ar  
 50  21  49  1   
 51  22  24  1   
 52  22  50  1   
 53  23  51  1   
 54  24  25  1   
 55  24  52  1   
 56  24  53  1   
 57  25  54  1   
 58  25  55  1   
 59  25  56  1   
@<TRIPOS>SUBSTRUCTURE
  1 ****   5 GROUP 4 **** **** 0

# MOE 2024.06 (io_trps.svl 2023.06)
