@<TRIPOS>MOLECULE
NONAME
50 52 1 0 0 
SMALL
USER_CHARGES


@<TRIPOS>ATOM
  1 S        0.5690     1.9620    -1.2720 S.o2  1 <1>   1.3330 
  2 O        0.1010     3.0800    -2.0610 O.2   1 <1>  -0.6500 
  3 O        0.7720     0.6880    -1.9230 O.2   1 <1>  -0.6500 
  4 N        2.0350     2.3830    -0.5290 N.am  1 <1>  -0.8490 
  5 C       -0.5770     1.7030     0.0940 C.3   1 <1>  -0.0550 
  6 C        2.8280     3.3350    -1.3110 C.3   1 <1>   0.1160 
  7 C        2.8580     1.2360    -0.1370 C.3   1 <1>   0.1160 
  8 C       -0.9130     2.8710     1.0560 C.3   1 <1>  -0.0800 
  9 C       -1.4190     4.1460     0.3690 C.3   1 <1>   0.2000 
 10 C        0.2580     3.3300     1.9370 C.3   1 <1>   0.2090 
 11 O       -2.3730     4.7090     1.2030 O.3   1 <1>  -0.6800 
 12 C       -0.2170     5.0900     0.3280 C.3   1 <1>   0.2090 
 13 N        0.6270     4.6940     1.4860 N.pl3 1 <1>  -0.8380 
 14 C        1.9230     5.1410     1.6170 C.ar  1 <1>   0.7200 
 15 N        2.3480     6.0220     0.7150 N.ar  1 <1>  -0.6200 
 16 N        2.6160     4.6470     2.6440 N.ar  1 <1>  -0.6200 
 17 C        3.5850     6.4620     0.8410 C.ar  1 <1>   0.4100 
 18 C        3.8460     5.1000     2.7740 C.ar  1 <1>   0.1600 
 19 N        4.0290     7.3660    -0.1200 N.pl3 1 <1>  -0.8380 
 20 C        4.3700     6.0050     1.8950 C.ar  1 <1>   0.1900 
 21 C        5.2610     7.0760    -0.9130 C.3   1 <1>   0.2090 
 22 C        3.0590     8.2170    -0.8770 C.3   1 <1>   0.2090 
 23 F        5.6060     6.4260     2.0700 F     1 <1>  -0.1900 
 24 C        4.9020     6.5810    -2.3280 C.3   1 <1>   0.1200 
 25 C        2.8070     7.6370    -2.2800 C.3   1 <1>   0.1200 
 26 O        4.0160     7.4560    -2.9680 O.3   1 <1>  -0.5600 
 27 H       -1.5040     1.3710    -0.3320 H     1 <1>   0.0800 
 28 H       -0.2090     0.8870     0.6860 H     1 <1>   0.0800 
 29 H        3.7180     3.6080    -0.7710 H     1 <1>   0.0800 
 30 H        2.2620     4.2330    -1.4880 H     1 <1>   0.0800 
 31 H        3.1000     2.9040    -2.2600 H     1 <1>   0.0800 
 32 H        3.7090     1.5700     0.4310 H     1 <1>   0.0800 
 33 H        3.2010     0.7050    -1.0090 H     1 <1>   0.0800 
 34 H        2.2850     0.5610     0.4750 H     1 <1>   0.0800 
 35 H       -1.6840     2.4920     1.7050 H     1 <1>   0.0800 
 36 H       -1.8670     3.9830    -0.5960 H     1 <1>   0.0800 
 37 H        1.0970     2.6600     1.8700 H     1 <1>   0.0800 
 38 H       -0.0520     3.3840     2.9670 H     1 <1>   0.0800 
 39 H       -1.9130     5.0660     1.9910 H     1 <1>   0.4000 
 40 H       -0.5180     6.1210     0.4010 H     1 <1>   0.0800 
 41 H        0.3370     4.9590    -0.5820 H     1 <1>   0.0800 
 42 H        4.4410     4.7410     3.5940 H     1 <1>   0.1500 
 43 H        5.8510     7.9730    -0.9890 H     1 <1>   0.0800 
 44 H        5.8580     6.3290    -0.4220 H     1 <1>   0.0800 
 45 H        2.1270     8.2950    -0.3430 H     1 <1>   0.0800 
 46 H        3.4600     9.2110    -0.9740 H     1 <1>   0.0800 
 47 H        4.4440     5.6100    -2.2770 H     1 <1>   0.0800 
 48 H        5.7890     6.5130    -2.9310 H     1 <1>   0.0800 
 49 H        2.1980     8.3090    -2.8560 H     1 <1>   0.0800 
 50 H        2.3040     6.6880    -2.2050 H     1 <1>   0.0800 
@<TRIPOS>BOND
  1   1   2  2   
  2   1   3  2   
  3   1   4  am  
  4   1   5  1   
  5   4   6  1   
  6   4   7  1   
  7   5   8  1   
  8   5  27  1   
  9   5  28  1   
 10   6  29  1   
 11   6  30  1   
 12   6  31  1   
 13   7  32  1   
 14   7  33  1   
 15   7  34  1   
 16   8   9  1   
 17   8  10  1   
 18   8  35  1   
 19   9  11  1   
 20   9  12  1   
 21   9  36  1   
 22  10  13  1   
 23  10  37  1   
 24  10  38  1   
 25  11  39  1   
 26  12  13  1   
 27  12  40  1   
 28  12  41  1   
 29  13  14  1   
 30  14  15  ar  
 31  14  16  ar  
 32  15  17  ar  
 33  16  18  ar  
 34  17  19  1   
 35  17  20  ar  
 36  18  20  ar  
 37  18  42  1   
 38  19  21  1   
 39  19  22  1   
 40  20  23  1   
 41  21  24  1   
 42  21  43  1   
 43  21  44  1   
 44  22  25  1   
 45  22  45  1   
 46  22  46  1   
 47  24  26  1   
 48  24  47  1   
 49  24  48  1   
 50  25  26  1   
 51  25  49  1   
 52  25  50  1   
@<TRIPOS>SUBSTRUCTURE
  1 ****  15 GROUP 4 **** **** 0

# MOE 2024.06 (io_trps.svl 2023.06)
