@<TRIPOS>MOLECULE
NONAME
54 56 1 0 0 
SMALL
USER_CHARGES


@<TRIPOS>ATOM
  1 O       -1.5530    -0.8680     0.2280 O.2   1 <1>  -0.5700 
  2 C       -0.9470    -1.9090     0.3210 C.2   1 <1>   0.5690 
  3 N       -1.2610    -2.9800    -0.4840 N.am  1 <1>  -0.6600 
  4 C        0.1610    -2.0230     1.3660 C.3   1 <1>  -0.0990 
  5 C       -0.7670    -4.3670    -0.2950 C.3   1 <1>   0.1400 
  6 C       -2.2210    -2.8240    -1.6060 C.3   1 <1>   0.1400 
  7 C        0.5500    -0.6910     2.0330 C.3   1 <1>  -0.1600 
  8 C       -1.9710    -5.2560     0.0270 C.3   1 <1>  -0.1600 
  9 C       -3.4540    -3.6750    -1.3050 C.3   1 <1>  -0.1600 
 10 C        1.6810    -0.8810     3.0490 C.3   1 <1>  -0.2400 
 11 C       -3.0560    -5.1330    -1.0480 C.3   1 <1>   0.4230 
 12 N       -4.2370    -5.8940    -0.5920 N.4   1 <1>  -0.9060 
 13 C       -5.2840    -6.1520    -1.6210 C.3   1 <1>   0.4230 
 14 C       -6.4960    -6.8310    -0.9820 C.3   1 <1>  -0.0800 
 15 C       -4.7980    -7.2900    -2.5120 C.3   1 <1>   0.1200 
 16 C       -6.0980    -8.3170    -0.9670 C.3   1 <1>   0.1200 
 17 C       -6.9700    -6.2920     0.3830 C.3   1 <1>  -0.0170 
 18 O       -4.8890    -8.3880    -1.6670 O.3   1 <1>  -0.5600 
 19 C       -8.2400    -7.0010     0.8200 C.ar  1 <1>  -0.1440 
 20 C       -9.4770    -6.6490     0.3160 C.ar  1 <1>  -0.1500 
 21 C       -8.2280    -8.0320     1.7400 C.ar  1 <1>  -0.1500 
 22 C      -10.6070    -7.3300     0.7370 C.ar  1 <1>   0.1600 
 23 C       -9.4170    -8.6480     2.0940 C.ar  1 <1>   0.1600 
 24 N      -10.6040    -8.3230     1.6100 N.ar  1 <1>  -0.6200 
 25 H       -0.1640    -2.7080     2.1260 H     1 <1>   0.0800 
 26 H        1.0330    -2.4290     0.8870 H     1 <1>   0.0800 
 27 H       -0.2810    -4.6960    -1.1980 H     1 <1>   0.0800 
 28 H       -0.0510    -4.4250     0.5060 H     1 <1>   0.0800 
 29 H       -2.5080    -1.7920    -1.7290 H     1 <1>   0.0800 
 30 H       -1.7500    -3.1420    -2.5220 H     1 <1>   0.0800 
 31 H        0.8630     0.0100     1.2760 H     1 <1>   0.0800 
 32 H       -0.3100    -0.2730     2.5300 H     1 <1>   0.0800 
 33 H       -2.3560    -4.9580     0.9870 H     1 <1>   0.0800 
 34 H       -1.6340    -6.2750     0.0940 H     1 <1>   0.0800 
 35 H       -4.1200    -3.6040    -2.1450 H     1 <1>   0.0800 
 36 H       -3.9400    -3.2540    -0.4420 H     1 <1>   0.0800 
 37 H        2.5600    -1.2710     2.5680 H     1 <1>   0.0800 
 38 H        1.3790    -1.5580     3.8280 H     1 <1>   0.0800 
 39 H        1.9300     0.0650     3.4980 H     1 <1>   0.0800 
 40 H       -2.6750    -5.5570    -1.9640 H     1 <1>   0.0800 
 41 H       -4.6400    -5.4240     0.2230 H     1 <1>   0.4500 
 42 H       -3.9330    -6.8340    -0.2940 H     1 <1>   0.4500 
 43 H       -5.5450    -5.2610    -2.1690 H     1 <1>   0.0800 
 44 H       -7.3190    -6.7370    -1.6710 H     1 <1>   0.0800 
 45 H       -3.7870    -7.1790    -2.8590 H     1 <1>   0.0800 
 46 H       -5.4570    -7.4490    -3.3500 H     1 <1>   0.0800 
 47 H       -6.8280    -8.9300    -1.4710 H     1 <1>   0.0800 
 48 H       -5.9330    -8.6990     0.0260 H     1 <1>   0.0800 
 49 H       -7.1740    -5.2370     0.3110 H     1 <1>   0.0800 
 50 H       -6.2190    -6.4350     1.1390 H     1 <1>   0.0800 
 51 H       -9.5820    -5.8530    -0.3980 H     1 <1>   0.1500 
 52 H       -7.3140    -8.3680     2.1920 H     1 <1>   0.1500 
 53 H      -11.5650    -7.0440     0.3350 H     1 <1>   0.1500 
 54 H       -9.3920    -9.4500     2.8120 H     1 <1>   0.1500 
@<TRIPOS>BOND
  1   1   2  2   
  2   2   3  am  
  3   2   4  1   
  4   3   5  1   
  5   3   6  1   
  6   4   7  1   
  7   4  25  1   
  8   4  26  1   
  9   5   8  1   
 10   5  27  1   
 11   5  28  1   
 12   6   9  1   
 13   6  29  1   
 14   6  30  1   
 15   7  10  1   
 16   7  31  1   
 17   7  32  1   
 18   8  11  1   
 19   8  33  1   
 20   8  34  1   
 21   9  11  1   
 22   9  35  1   
 23   9  36  1   
 24  10  37  1   
 25  10  38  1   
 26  10  39  1   
 27  11  12  1   
 28  11  40  1   
 29  12  13  1   
 30  12  41  1   
 31  12  42  1   
 32  13  14  1   
 33  13  15  1   
 34  13  43  1   
 35  14  16  1   
 36  14  17  1   
 37  14  44  1   
 38  15  18  1   
 39  15  45  1   
 40  15  46  1   
 41  16  18  1   
 42  16  47  1   
 43  16  48  1   
 44  17  19  1   
 45  17  49  1   
 46  17  50  1   
 47  19  20  ar  
 48  19  21  ar  
 49  20  22  ar  
 50  20  51  1   
 51  21  23  ar  
 52  21  52  1   
 53  22  24  ar  
 54  22  53  1   
 55  23  24  ar  
 56  23  54  1   
@<TRIPOS>SUBSTRUCTURE
  1 ****  12 GROUP 4 **** **** 0

# MOE 2024.06 (io_trps.svl 2023.06)
