@<TRIPOS>MOLECULE
NONAME
42 43 1 0 0 
SMALL
USER_CHARGES


@<TRIPOS>ATOM
  1 O       -1.2130     2.2740    -1.8090 O.2   1 <1>  -0.5700 
  2 C       -1.6410     1.8160    -0.7770 C.2   1 <1>   0.5690 
  3 N       -0.8510     1.6260     0.3150 N.am  1 <1>  -0.7300 
  4 C       -3.1090     1.4600    -0.7060 C.3   1 <1>   0.1570 
  5 C        0.6000     1.9210     0.4070 C.3   1 <1>   0.0600 
  6 N       -3.2800     0.1520    -0.0580 N.pl3 1 <1>   0.3140 
  7 N       -3.2320     0.0140     1.2830 N.2   1 <1>  -0.7070 
  8 C       -3.4790    -1.0380    -0.6680 C.2   1 <1>  -0.3020 
  9 C       -3.4060    -1.2590     1.4900 C.2   1 <1>   0.1390 
 10 C       -3.5650    -1.9720     0.3000 C.2   1 <1>   0.0630 
 11 N       -3.7700    -3.3610     0.1050 N.am  1 <1>  -0.4930 
 12 C       -3.8430    -4.3490     1.0390 C.2   1 <1>   0.5690 
 13 O       -3.7310    -4.1550     2.2250 O.2   1 <1>  -0.5700 
 14 C       -4.0790    -5.7670     0.5540 C.3   1 <1>  -0.0990 
 15 C       -5.5420    -5.9980     0.1360 C.3   1 <1>  -0.1600 
 16 C       -5.7790    -7.4140    -0.4110 C.3   1 <1>  -0.0800 
 17 C       -7.2210    -7.6330    -0.8570 C.3   1 <1>  -0.1600 
 18 C       -5.5520    -8.5260     0.6120 C.3   1 <1>  -0.1600 
 19 C       -7.3910    -9.1510    -0.8900 C.3   1 <1>  -0.1600 
 20 C       -6.3760    -9.7150     0.1110 C.3   1 <1>  -0.1600 
 21 H       -1.2770     1.1510     1.1260 H     1 <1>   0.3700 
 22 H       -3.5220     1.4230    -1.6950 H     1 <1>   0.0800 
 23 H       -3.6280     2.2020    -0.1310 H     1 <1>   0.0800 
 24 H        0.9450     2.3830    -0.5030 H     1 <1>   0.0800 
 25 H        1.1460     1.0070     0.5630 H     1 <1>   0.0800 
 26 H        0.7830     2.5900     1.2290 H     1 <1>   0.0800 
 27 H       -3.5410    -1.1460    -1.7340 H     1 <1>   0.1500 
 28 H       -3.4250    -1.7080     2.4690 H     1 <1>   0.1500 
 29 H       -3.8820    -3.6450    -0.8650 H     1 <1>   0.3700 
 30 H       -3.8190    -6.4400     1.3510 H     1 <1>   0.0800 
 31 H       -3.4220    -5.9670    -0.2720 H     1 <1>   0.0800 
 32 H       -5.8150    -5.2850    -0.6230 H     1 <1>   0.0800 
 33 H       -6.1810    -5.8270     0.9870 H     1 <1>   0.0800 
 34 H       -5.1350    -7.5890    -1.2580 H     1 <1>   0.0800 
 35 H       -7.4230    -7.1850    -1.8150 H     1 <1>   0.0800 
 36 H       -7.8960    -7.2210    -0.1260 H     1 <1>   0.0800 
 37 H       -5.9290    -8.2190     1.5730 H     1 <1>   0.0800 
 38 H       -4.5100    -8.7790     0.7100 H     1 <1>   0.0800 
 39 H       -7.1610    -9.5180    -1.8760 H     1 <1>   0.0800 
 40 H       -8.3980    -9.4370    -0.6390 H     1 <1>   0.0800 
 41 H       -6.8710   -10.2030     0.9330 H     1 <1>   0.0800 
 42 H       -5.7380   -10.4280    -0.3820 H     1 <1>   0.0800 
@<TRIPOS>BOND
  1   1   2  2   
  2   2   3  am  
  3   2   4  1   
  4   3   5  1   
  5   3  21  1   
  6   4   6  1   
  7   4  22  1   
  8   4  23  1   
  9   5  24  1   
 10   5  25  1   
 11   5  26  1   
 12   6   7  1   
 13   6   8  1   
 14   7   9  2   
 15   8  10  2   
 16   8  27  1   
 17   9  10  1   
 18   9  28  1   
 19  10  11  1   
 20  11  12  am  
 21  11  29  1   
 22  12  13  2   
 23  12  14  1   
 24  14  15  1   
 25  14  30  1   
 26  14  31  1   
 27  15  16  1   
 28  15  32  1   
 29  15  33  1   
 30  16  17  1   
 31  16  18  1   
 32  16  34  1   
 33  17  19  1   
 34  17  35  1   
 35  17  36  1   
 36  18  20  1   
 37  18  37  1   
 38  18  38  1   
 39  19  20  1   
 40  19  39  1   
 41  19  40  1   
 42  20  41  1   
 43  20  42  1   
@<TRIPOS>SUBSTRUCTURE
  1 ****  11 GROUP 4 **** **** 0

# MOE 2024.06 (io_trps.svl 2023.06)
