@<TRIPOS>MOLECULE
NONAME
45 47 1 0 0 
SMALL
USER_CHARGES


@<TRIPOS>ATOM
  1 O       -0.3760     0.8780    -0.1350 O.2   1 <1>  -0.5700 
  2 C       -0.3300     2.0780    -0.2250 C.2   1 <1>   0.5690 
  3 N       -1.1300     2.8580     0.5350 N.am  1 <1>  -0.7300 
  4 C        0.6190     2.7400    -1.2280 C.3   1 <1>   0.1810 
  5 C       -1.1600     4.3380     0.4500 C.3   1 <1>   0.3640 
  6 O        0.8750     4.0920    -0.9190 O.3   1 <1>  -0.5600 
  7 C       -2.6100     4.7960     0.3290 C.ar  1 <1>  -0.1440 
  8 C       -0.2940     4.8780    -0.7160 C.3   1 <1>   0.2610 
  9 C       -3.0550     5.8770     1.0780 C.ar  1 <1>  -0.1500 
 10 C       -3.5010     4.1580    -0.5260 C.ar  1 <1>  -0.1500 
 11 C        0.0320     6.3590    -0.4730 C.2   1 <1>   0.5690 
 12 C       -4.3660     6.3080     0.9810 C.ar  1 <1>  -0.1500 
 13 C       -4.8130     4.5890    -0.6230 C.ar  1 <1>  -0.1500 
 14 O       -0.6300     7.1630    -1.0890 O.2   1 <1>  -0.5700 
 15 N        1.0110     6.7830     0.4080 N.am  1 <1>  -0.6600 
 16 C       -5.2470     5.6640     0.1310 C.ar  1 <1>  -0.1500 
 17 C        1.3010     8.2430     0.5680 C.3   1 <1>   0.1400 
 18 C        1.9290     5.8730     1.1560 C.3   1 <1>   0.0600 
 19 C        2.5110     8.6980    -0.2670 C.3   1 <1>   0.0000 
 20 C        3.8760     8.3900     0.3720 C.3   1 <1>   0.2580 
 21 C        2.9120    10.1500     0.0420 C.3   1 <1>   0.2580 
 22 C        2.4300     8.3930    -1.7780 C.3   1 <1>  -0.2400 
 23 O        4.2680     9.7220     0.0660 O.3   1 <1>  -0.5160 
 24 H       -1.8030     2.4120     1.1610 H     1 <1>   0.3700 
 25 H        0.1940     2.6890    -2.2140 H     1 <1>   0.0800 
 26 H        1.5590     2.2190    -1.2270 H     1 <1>   0.0800 
 27 H       -0.7640     4.7230     1.3740 H     1 <1>   0.0800 
 28 H       -0.8680     4.8230    -1.6240 H     1 <1>   0.0800 
 29 H       -2.3850     6.3970     1.7410 H     1 <1>   0.1500 
 30 H       -3.1840     3.3200    -1.1220 H     1 <1>   0.1500 
 31 H       -4.7020     7.1480     1.5640 H     1 <1>   0.1500 
 32 H       -5.4960     4.0880    -1.2870 H     1 <1>   0.1500 
 33 H       -6.2660     6.0000     0.0540 H     1 <1>   0.1500 
 34 H        0.4420     8.8170     0.2640 H     1 <1>   0.0800 
 35 H        1.4670     8.4590     1.6090 H     1 <1>   0.0800 
 36 H        2.2430     6.3320     2.0770 H     1 <1>   0.0800 
 37 H        2.7960     5.6640     0.5520 H     1 <1>   0.0800 
 38 H        1.4480     4.9420     1.3940 H     1 <1>   0.0800 
 39 H        4.4870     7.6860    -0.1640 H     1 <1>   0.0000 
 40 H        3.8600     8.2520     1.4390 H     1 <1>   0.0000 
 41 H        2.6260    10.5060     1.0170 H     1 <1>   0.0000 
 42 H        2.7530    10.8530    -0.7570 H     1 <1>   0.0000 
 43 H        2.4250     7.3300    -1.9440 H     1 <1>   0.0800 
 44 H        3.2710     8.8140    -2.3010 H     1 <1>   0.0800 
 45 H        1.5260     8.8050    -2.1910 H     1 <1>   0.0800 
@<TRIPOS>BOND
  1   1   2  2   
  2   2   3  am  
  3   2   4  1   
  4   3   5  1   
  5   3  24  1   
  6   4   6  1   
  7   4  25  1   
  8   4  26  1   
  9   5   7  1   
 10   5   8  1   
 11   5  27  1   
 12   6   8  1   
 13   7   9  ar  
 14   7  10  ar  
 15   8  11  1   
 16   8  28  1   
 17   9  12  ar  
 18   9  29  1   
 19  10  13  ar  
 20  10  30  1   
 21  11  14  2   
 22  11  15  am  
 23  12  16  ar  
 24  12  31  1   
 25  13  16  ar  
 26  13  32  1   
 27  15  17  1   
 28  15  18  1   
 29  16  33  1   
 30  17  19  1   
 31  17  34  1   
 32  17  35  1   
 33  18  36  1   
 34  18  37  1   
 35  18  38  1   
 36  19  20  1   
 37  19  21  1   
 38  19  22  1   
 39  20  23  1   
 40  20  39  1   
 41  20  40  1   
 42  21  23  1   
 43  21  41  1   
 44  21  42  1   
 45  22  43  1   
 46  22  44  1   
 47  22  45  1   
@<TRIPOS>SUBSTRUCTURE
  1 ****  11 GROUP 4 **** **** 0

# MOE 2024.06 (io_trps.svl 2023.06)
