@<TRIPOS>MOLECULE
NONAME
50 51 1 0 0 
SMALL
USER_CHARGES


@<TRIPOS>ATOM
  1 O       -2.1350     0.6200    -1.5390 O.2   1 <1>  -0.5700 
  2 C       -2.2470     1.1250    -0.4510 C.2   1 <1>   0.5690 
  3 N       -2.7010     0.3970     0.6150 N.am  1 <1>  -0.6600 
  4 C       -1.9460     2.6080    -0.3090 C.3   1 <1>  -0.0990 
  5 C       -2.4500    -1.0730     0.6450 C.3   1 <1>   0.3200 
  6 C       -3.5460     0.9790     1.7110 C.3   1 <1>   0.1400 
  7 C       -0.6790     3.0270    -1.0670 C.3   1 <1>  -0.0170 
  8 C       -3.7570    -1.7830     0.3690 C.2   1 <1>  -0.3320 
  9 C       -4.8220     1.6640     1.1640 C.3   1 <1>   0.3430 
 10 C       -0.4150     4.5090    -0.8320 C.ar  1 <1>  -0.1440 
 11 N       -4.4810    -2.4650     1.2790 N.pl3 1 <1>   0.0330 
 12 C       -4.4230    -1.8780    -0.8020 C.2   1 <1>   0.0770 
 13 N       -5.4810     0.8270     0.1130 N.4   1 <1>  -0.9590 
 14 C        0.3970     4.9730     0.2010 C.ar  1 <1>  -0.1440 
 15 C       -1.0240     5.4200    -1.6820 C.ar  1 <1>  -0.1500 
 16 C       -5.5730    -2.8860     0.6080 C.2   1 <1>   0.0360 
 17 N       -5.5890    -2.5270    -0.6350 N.2   1 <1>  -0.5650 
 18 C       -5.5320     1.4930    -1.2230 C.3   1 <1>   0.2630 
 19 C       -6.8290     0.3200     0.5050 C.3   1 <1>   0.2630 
 20 C        0.5770     6.3390     0.3640 C.ar  1 <1>  -0.1500 
 21 C        1.1100     4.0310     1.1630 C.3   1 <1>  -0.0970 
 22 C       -0.8390     6.7800    -1.5130 C.ar  1 <1>  -0.1500 
 23 C       -0.0380     7.2400    -0.4860 C.ar  1 <1>  -0.1500 
 24 H       -1.8110     2.8590     0.7250 H     1 <1>   0.0800 
 25 H       -2.7770     3.1700    -0.6890 H     1 <1>   0.0800 
 26 H       -2.0470    -1.3580     1.6020 H     1 <1>   0.0800 
 27 H       -1.7290    -1.3430    -0.1100 H     1 <1>   0.0800 
 28 H       -2.9680     1.6890     2.2780 H     1 <1>   0.0800 
 29 H       -3.8400     0.1990     2.3910 H     1 <1>   0.0800 
 30 H       -0.8090     2.8480    -2.1210 H     1 <1>   0.0800 
 31 H        0.1580     2.4320    -0.7510 H     1 <1>   0.0800 
 32 H       -4.5490     2.6190     0.7460 H     1 <1>   0.0800 
 33 H       -5.5040     1.8500     1.9760 H     1 <1>   0.0800 
 34 H       -4.2510    -2.6720     2.2580 H     1 <1>   0.2700 
 35 H       -4.1230    -1.4920    -1.7670 H     1 <1>   0.1500 
 36 H       -4.8690    -0.0090    -0.0090 H     1 <1>   0.4500 
 37 H       -1.6470     5.0760    -2.4890 H     1 <1>   0.1500 
 38 H       -6.3460    -3.4720     1.0780 H     1 <1>   0.1500 
 39 H       -6.1290     2.3890    -1.1760 H     1 <1>   0.0800 
 40 H       -5.9660     0.8260    -1.9510 H     1 <1>   0.0800 
 41 H       -4.5390     1.7490    -1.5540 H     1 <1>   0.0800 
 42 H       -7.5270     1.1360     0.6030 H     1 <1>   0.0800 
 43 H       -6.7720    -0.2080     1.4420 H     1 <1>   0.0800 
 44 H       -7.1960    -0.3650    -0.2440 H     1 <1>   0.0800 
 45 H        1.2020     6.7140     1.1540 H     1 <1>   0.1500 
 46 H        0.4130     3.3450     1.6070 H     1 <1>   0.0800 
 47 H        1.5890     4.5790     1.9540 H     1 <1>   0.0800 
 48 H        1.8650     3.4760     0.6350 H     1 <1>   0.0800 
 49 H       -1.3150     7.4780    -2.1790 H     1 <1>   0.1500 
 50 H        0.1110     8.2970    -0.3500 H     1 <1>   0.1500 
@<TRIPOS>BOND
  1   1   2  2   
  2   2   3  am  
  3   2   4  1   
  4   3   5  1   
  5   3   6  1   
  6   4   7  1   
  7   4  24  1   
  8   4  25  1   
  9   5   8  1   
 10   5  26  1   
 11   5  27  1   
 12   6   9  1   
 13   6  28  1   
 14   6  29  1   
 15   7  10  1   
 16   7  30  1   
 17   7  31  1   
 18   8  11  1   
 19   8  12  2   
 20   9  13  1   
 21   9  32  1   
 22   9  33  1   
 23  10  14  ar  
 24  10  15  ar  
 25  11  16  1   
 26  11  34  1   
 27  12  17  1   
 28  12  35  1   
 29  13  18  1   
 30  13  19  1   
 31  13  36  1   
 32  14  20  ar  
 33  14  21  1   
 34  15  22  ar  
 35  15  37  1   
 36  16  17  2   
 37  16  38  1   
 38  18  39  1   
 39  18  40  1   
 40  18  41  1   
 41  19  42  1   
 42  19  43  1   
 43  19  44  1   
 44  20  23  ar  
 45  20  45  1   
 46  21  46  1   
 47  21  47  1   
 48  21  48  1   
 49  22  23  ar  
 50  22  49  1   
 51  23  50  1   
@<TRIPOS>SUBSTRUCTURE
  1 ****   2 GROUP 4 **** **** 0

# MOE 2024.06 (io_trps.svl 2023.06)
