@<TRIPOS>MOLECULE
NONAME
53 55 1 0 0 
SMALL
USER_CHARGES


@<TRIPOS>ATOM
  1 O       -0.7510     0.7300     0.3930 O.2   1 <1>  -0.5700 
  2 C       -1.4440     1.6960     0.1960 C.2   1 <1>   0.5690 
  3 N       -2.7730     1.7150    -0.1170 N.am  1 <1>  -0.4770 
  4 C       -0.8830     3.0870     0.2880 C.3   1 <1>  -0.0990 
  5 C       -3.6600     0.6270    -0.2570 C.ar  1 <1>   0.1170 
  6 C       -3.2430     3.1070    -0.2770 C.3   1 <1>   0.1400 
  7 C       -2.1420     3.9640     0.3670 C.3   1 <1>  -0.0190 
  8 C       -4.7010     0.6670    -1.1810 C.ar  1 <1>  -0.1500 
  9 C       -3.5290    -0.5130     0.5310 C.ar  1 <1>  -0.1500 
 10 C       -1.9850     5.3420    -0.2610 C.2   1 <1>   0.5690 
 11 C       -5.5820    -0.3910    -1.3050 C.ar  1 <1>  -0.1500 
 12 C       -4.4070    -1.5760     0.4090 C.ar  1 <1>  -0.1500 
 13 O       -2.8140     5.7200    -1.0520 O.2   1 <1>  -0.5700 
 14 N       -0.9020     6.0920     0.1100 N.am  1 <1>  -0.4940 
 15 C       -5.4470    -1.5190    -0.5150 C.ar  1 <1>   0.0830 
 16 C       -0.5500     7.4070    -0.2810 C.2   1 <1>  -0.0880 
 17 O       -6.3600    -2.5090    -0.7100 O.3   1 <1>  -0.3630 
 18 N        0.7120     7.8010    -0.6050 N.pl3 1 <1>   0.3140 
 19 C       -1.3290     8.5100    -0.4020 C.2   1 <1>  -0.1810 
 20 C       -6.3560    -3.7120     0.0260 C.3   1 <1>   0.2000 
 21 N        0.7610     9.1130    -0.9220 N.2   1 <1>  -0.7070 
 22 C        1.9210     6.9560    -0.6930 C.3   1 <1>   0.0960 
 23 C       -0.4630     9.5220    -0.8020 C.2   1 <1>   0.1390 
 24 C       -2.8180     8.6770    -0.1650 C.3   1 <1>  -0.0590 
 25 C       -7.1270    -4.7410    -0.7970 C.3   1 <1>  -0.2400 
 26 C       -7.0340    -3.4690     1.3770 C.3   1 <1>  -0.2400 
 27 C        2.5790     6.7740     0.6810 C.3   1 <1>  -0.2400 
 28 H       -0.3190     3.2820    -0.6060 H     1 <1>   0.0800 
 29 H       -0.2590     3.1880     1.1560 H     1 <1>   0.0800 
 30 H       -4.1920     3.2540     0.2100 H     1 <1>   0.0800 
 31 H       -3.3380     3.3200    -1.3290 H     1 <1>   0.0800 
 32 H       -2.4070     4.1000     1.4000 H     1 <1>   0.0800 
 33 H       -4.8270     1.5240    -1.8150 H     1 <1>   0.1500 
 34 H       -2.7310    -0.5720     1.2490 H     1 <1>   0.1500 
 35 H       -6.3840    -0.3510    -2.0210 H     1 <1>   0.1500 
 36 H       -4.2610    -2.4310     1.0390 H     1 <1>   0.1500 
 37 H       -0.2500     5.6450     0.7540 H     1 <1>   0.3700 
 38 H       -5.3400    -4.0470     0.1440 H     1 <1>   0.0800 
 39 H        2.6110     7.4330    -1.3670 H     1 <1>   0.0800 
 40 H        1.6450     6.0050    -1.1110 H     1 <1>   0.0800 
 41 H       -0.7640    10.5380    -0.9920 H     1 <1>   0.1500 
 42 H       -3.1700     7.9400     0.5330 H     1 <1>   0.0800 
 43 H       -3.3470     8.5520    -1.0930 H     1 <1>   0.0800 
 44 H       -3.0270     9.6540     0.2300 H     1 <1>   0.0800 
 45 H       -8.1370    -4.4100    -0.9590 H     1 <1>   0.0800 
 46 H       -7.1500    -5.6830    -0.2800 H     1 <1>   0.0800 
 47 H       -6.6430    -4.8850    -1.7460 H     1 <1>   0.0800 
 48 H       -8.0420    -3.1250     1.2290 H     1 <1>   0.0800 
 49 H       -6.4940    -2.7360     1.9470 H     1 <1>   0.0800 
 50 H       -7.0620    -4.3820     1.9420 H     1 <1>   0.0800 
 51 H        2.8640     7.7330     1.0780 H     1 <1>   0.0800 
 52 H        3.4640     6.1710     0.5840 H     1 <1>   0.0800 
 53 H        1.9070     6.2920     1.3670 H     1 <1>   0.0800 
@<TRIPOS>BOND
  1   1   2  2   
  2   2   3  am  
  3   2   4  1   
  4   3   5  1   
  5   3   6  1   
  6   4   7  1   
  7   4  28  1   
  8   4  29  1   
  9   5   8  ar  
 10   5   9  ar  
 11   6   7  1   
 12   6  30  1   
 13   6  31  1   
 14   7  10  1   
 15   7  32  1   
 16   8  11  ar  
 17   8  33  1   
 18   9  12  ar  
 19   9  34  1   
 20  10  13  2   
 21  10  14  am  
 22  11  15  ar  
 23  11  35  1   
 24  12  15  ar  
 25  12  36  1   
 26  14  16  1   
 27  14  37  1   
 28  15  17  1   
 29  16  18  1   
 30  16  19  2   
 31  17  20  1   
 32  18  21  1   
 33  18  22  1   
 34  19  23  1   
 35  19  24  1   
 36  20  25  1   
 37  20  26  1   
 38  20  38  1   
 39  21  23  2   
 40  22  27  1   
 41  22  39  1   
 42  22  40  1   
 43  23  41  1   
 44  24  42  1   
 45  24  43  1   
 46  24  44  1   
 47  25  45  1   
 48  25  46  1   
 49  25  47  1   
 50  26  48  1   
 51  26  49  1   
 52  26  50  1   
 53  27  51  1   
 54  27  52  1   
 55  27  53  1   
@<TRIPOS>SUBSTRUCTURE
  1 ****   6 GROUP 4 **** **** 0

# MOE 2024.06 (io_trps.svl 2023.06)
