@<TRIPOS>MOLECULE
NONAME
53 55 1 0 0 
SMALL
USER_CHARGES


@<TRIPOS>ATOM
  1 O       -0.1020    -2.8210     1.7980 O.2   1 <1>  -0.5700 
  2 C        0.8100    -2.9260     0.9900 C.2   1 <1>   0.5440 
  3 N        2.0910    -2.5950     1.4070 N.am  1 <1>  -0.6600 
  4 C        0.5230    -3.4060    -0.3640 C.ar  1 <1>   0.3960 
  5 C        2.3260    -1.8400     2.6710 C.3   1 <1>   0.0600 
  6 C        3.3280    -3.1300     0.7740 C.3   1 <1>   0.0600 
  7 N       -0.2980    -4.4530    -0.4920 N.ar  1 <1>  -0.6200 
  8 C        1.0760    -2.7810    -1.4810 C.ar  1 <1>  -0.1500 
  9 C       -0.6090    -4.8680    -1.7080 C.ar  1 <1>   0.4100 
 10 C        0.7970    -3.2360    -2.7530 C.ar  1 <1>  -0.1500 
 11 N       -1.5550    -5.8850    -1.7790 N.pl3 1 <1>  -0.8380 
 12 C       -0.0620    -4.3040    -2.8560 C.ar  1 <1>  -0.1500 
 13 C       -1.8190    -6.6720    -0.5360 C.3   1 <1>   0.2090 
 14 C       -2.8070    -5.6010    -2.5370 C.3   1 <1>   0.2090 
 15 C       -2.7540    -5.8600     0.4010 C.3   1 <1>   0.4230 
 16 C       -3.7710    -4.8080    -1.6410 C.3   1 <1>  -0.1600 
 17 N       -2.8820    -6.4150     1.8100 N.4   1 <1>  -0.9590 
 18 C       -4.1030    -5.5040    -0.2870 C.3   1 <1>   0.0000 
 19 C       -4.0410    -5.8600     2.5780 C.3   1 <1>   0.3430 
 20 C       -2.8290    -7.9060     1.9280 C.3   1 <1>   0.2630 
 21 C       -4.8920    -4.5010     0.6080 C.3   1 <1>  -0.1600 
 22 C       -4.9350    -6.7930    -0.5250 C.3   1 <1>   0.1200 
 23 C       -4.4160    -4.4680     2.0730 C.3   1 <1>  -0.1600 
 24 O       -6.0520    -6.5440    -1.3050 O.3   1 <1>  -0.6800 
 25 H        3.1060    -1.1140     2.5250 H     1 <1>   0.0800 
 26 H        2.6140    -2.5210     3.4520 H     1 <1>   0.0800 
 27 H        1.4320    -1.3230     2.9750 H     1 <1>   0.0800 
 28 H        3.9740    -3.5430     1.5300 H     1 <1>   0.0800 
 29 H        3.8480    -2.3380     0.2650 H     1 <1>   0.0800 
 30 H        3.0960    -3.9110     0.0710 H     1 <1>   0.0800 
 31 H        1.7240    -1.9340    -1.3430 H     1 <1>   0.1500 
 32 H        1.2280    -2.7730    -3.6250 H     1 <1>   0.1500 
 33 H       -0.3220    -4.7100    -3.8150 H     1 <1>   0.1500 
 34 H       -2.2530    -7.6160    -0.8080 H     1 <1>   0.0800 
 35 H       -0.8830    -6.8660    -0.0410 H     1 <1>   0.0800 
 36 H       -2.5860    -5.0290    -3.4230 H     1 <1>   0.0800 
 37 H       -3.2590    -6.5260    -2.8530 H     1 <1>   0.0800 
 38 H       -2.2660    -4.9090     0.5220 H     1 <1>   0.0800 
 39 H       -3.3110    -3.8530    -1.4530 H     1 <1>   0.0800 
 40 H       -4.6710    -4.6090    -2.1960 H     1 <1>   0.0800 
 41 H       -2.0390    -6.0400     2.2770 H     1 <1>   0.4500 
 42 H       -4.8960    -6.5060     2.4650 H     1 <1>   0.0800 
 43 H       -3.7940    -5.8130     3.6270 H     1 <1>   0.0800 
 44 H       -3.6620    -8.3550     1.4120 H     1 <1>   0.0800 
 45 H       -2.8690    -8.1990     2.9650 H     1 <1>   0.0800 
 46 H       -1.9130    -8.2860     1.5060 H     1 <1>   0.0800 
 47 H       -4.8060    -3.4980     0.2230 H     1 <1>   0.0800 
 48 H       -5.9420    -4.7350     0.5920 H     1 <1>   0.0800 
 49 H       -5.2770    -7.2140     0.4040 H     1 <1>   0.0800 
 50 H       -4.3650    -7.5400    -1.0470 H     1 <1>   0.0800 
 51 H       -5.1990    -4.0630     2.6910 H     1 <1>   0.0800 
 52 H       -3.5640    -3.8140     2.1730 H     1 <1>   0.0800 
 53 H       -6.6540    -5.8940    -0.8910 H     1 <1>   0.4000 
@<TRIPOS>BOND
  1   1   2  2   
  2   2   3  am  
  3   2   4  1   
  4   3   5  1   
  5   3   6  1   
  6   4   7  ar  
  7   4   8  ar  
  8   5  25  1   
  9   5  26  1   
 10   5  27  1   
 11   6  28  1   
 12   6  29  1   
 13   6  30  1   
 14   7   9  ar  
 15   8  10  ar  
 16   8  31  1   
 17   9  11  1   
 18   9  12  ar  
 19  10  12  ar  
 20  10  32  1   
 21  11  13  1   
 22  11  14  1   
 23  12  33  1   
 24  13  15  1   
 25  13  34  1   
 26  13  35  1   
 27  14  16  1   
 28  14  36  1   
 29  14  37  1   
 30  15  17  1   
 31  15  18  1   
 32  15  38  1   
 33  16  18  1   
 34  16  39  1   
 35  16  40  1   
 36  17  19  1   
 37  17  20  1   
 38  17  41  1   
 39  18  21  1   
 40  18  22  1   
 41  19  23  1   
 42  19  42  1   
 43  19  43  1   
 44  20  44  1   
 45  20  45  1   
 46  20  46  1   
 47  21  23  1   
 48  21  47  1   
 49  21  48  1   
 50  22  24  1   
 51  22  49  1   
 52  22  50  1   
 53  23  51  1   
 54  23  52  1   
 55  24  53  1   
@<TRIPOS>SUBSTRUCTURE
  1 ****   7 GROUP 4 **** **** 0

# MOE 2024.06 (io_trps.svl 2023.06)
