@<TRIPOS>MOLECULE
NONAME
44 46 1 0 0 
SMALL
USER_CHARGES


@<TRIPOS>ATOM
  1 S        0.0750    -0.1410     0.5180 S.3   1 <1>  -0.0800 
  2 C       -0.3840    -1.7320    -0.0190 C.2   1 <1>   0.4620 
  3 C        1.7260    -0.6480     0.4090 C.2   1 <1>   0.1980 
  4 N        0.6500    -2.4730    -0.2300 N.2   1 <1>  -0.3380 
  5 N       -1.7190    -2.0610    -0.1770 N.pl3 1 <1>  -0.8220 
  6 N        1.8430    -1.8510     0.0160 N.2   1 <1>  -0.3380 
  7 C        2.7900     0.3710     0.7840 C.3   1 <1>   0.0200 
  8 C       -2.1090    -3.4510    -0.5900 C.3   1 <1>   0.2090 
  9 C       -2.8580    -1.1210     0.0330 C.3   1 <1>   0.2090 
 10 C        4.2170    -0.1780     0.6580 C.3   1 <1>  -0.2400 
 11 C       -3.2090    -4.0360     0.3160 C.3   1 <1>   0.2000 
 12 C       -3.8680    -1.7340     1.0030 C.3   1 <1>  -0.1600 
 13 O       -3.6370    -5.2430    -0.2180 O.3   1 <1>  -0.6800 
 14 C       -4.4270    -3.1030     0.5240 C.3   1 <1>  -0.1060 
 15 C       -5.2980    -3.7620     1.6040 C.2   1 <1>   0.9060 
 16 C       -5.2630    -2.9600    -0.7870 C.3   1 <1>  -0.0170 
 17 O       -5.6180    -3.1400     2.6230 O.co2 1 <1>  -0.9000 
 18 O       -5.6580    -4.9380     1.4300 O.co2 1 <1>  -0.9000 
 19 C       -6.2130    -1.7630    -0.8460 C.ar  1 <1>  -0.1440 
 20 C       -6.0310    -0.7720    -1.8010 C.ar  1 <1>  -0.1500 
 21 C       -7.2720    -1.6530     0.0430 C.ar  1 <1>  -0.1500 
 22 C       -6.8870     0.3140    -1.8610 C.ar  1 <1>  -0.1500 
 23 C       -8.1290    -0.5680    -0.0150 C.ar  1 <1>  -0.1500 
 24 C       -7.9380     0.4170    -0.9670 C.ar  1 <1>  -0.1500 
 25 H        2.6830     1.2290     0.1440 H     1 <1>   0.0800 
 26 H        2.6200     0.6870     1.7980 H     1 <1>   0.0800 
 27 H       -2.4550    -3.4220    -1.6070 H     1 <1>   0.0800 
 28 H       -1.2560    -4.1050    -0.5470 H     1 <1>   0.0800 
 29 H       -2.5260    -0.1820     0.4330 H     1 <1>   0.0800 
 30 H       -3.3300    -0.9250    -0.9130 H     1 <1>   0.0800 
 31 H        4.4080    -0.4850    -0.3560 H     1 <1>   0.0800 
 32 H        4.3440    -1.0300     1.3030 H     1 <1>   0.0800 
 33 H        4.9330     0.5750     0.9340 H     1 <1>   0.0800 
 34 H       -2.7720    -4.2560     1.2750 H     1 <1>   0.0800 
 35 H       -3.3840    -1.8640     1.9560 H     1 <1>   0.0800 
 36 H       -4.6750    -1.0430     1.1650 H     1 <1>   0.0800 
 37 H       -4.4530    -5.4860     0.3140 H     1 <1>   0.4000 
 38 H       -4.6020    -2.9010    -1.6290 H     1 <1>   0.0800 
 39 H       -5.8460    -3.8530    -0.9330 H     1 <1>   0.0800 
 40 H       -5.2210    -0.8430    -2.5040 H     1 <1>   0.1500 
 41 H       -7.4320    -2.4120     0.7920 H     1 <1>   0.1500 
 42 H       -6.7370     1.0770    -2.6040 H     1 <1>   0.1500 
 43 H       -8.9400    -0.4980     0.6880 H     1 <1>   0.1500 
 44 H       -8.6050     1.2600    -1.0090 H     1 <1>   0.1500 
@<TRIPOS>BOND
  1   1   2  1   
  2   1   3  1   
  3   2   4  2   
  4   2   5  1   
  5   3   6  2   
  6   3   7  1   
  7   4   6  1   
  8   5   8  1   
  9   5   9  1   
 10   7  10  1   
 11   7  25  1   
 12   7  26  1   
 13   8  11  1   
 14   8  27  1   
 15   8  28  1   
 16   9  12  1   
 17   9  29  1   
 18   9  30  1   
 19  10  31  1   
 20  10  32  1   
 21  10  33  1   
 22  11  13  1   
 23  11  14  1   
 24  11  34  1   
 25  12  14  1   
 26  12  35  1   
 27  12  36  1   
 28  13  37  1   
 29  14  15  1   
 30  14  16  1   
 31  15  17  ar  
 32  15  18  ar  
 33  16  19  1   
 34  16  38  1   
 35  16  39  1   
 36  19  20  ar  
 37  19  21  ar  
 38  20  22  ar  
 39  20  40  1   
 40  21  23  ar  
 41  21  41  1   
 42  22  24  ar  
 43  22  42  1   
 44  23  24  ar  
 45  23  43  1   
 46  24  44  1   
@<TRIPOS>SUBSTRUCTURE
  1 ****   9 GROUP 4 **** **** 0

# MOE 2024.06 (io_trps.svl 2023.06)
