@<TRIPOS>MOLECULE
NONAME
59 61 1 0 0 
SMALL
USER_CHARGES


@<TRIPOS>ATOM
  1 O       -3.5970     0.1270    -2.4860 O.2   1 <1>  -0.5700 
  2 C       -3.3210    -0.4580    -1.4760 C.2   1 <1>   0.5690 
  3 N       -3.1820     0.2100    -0.3180 N.am  1 <1>  -0.7300 
  4 C       -3.1800    -1.9540    -1.4980 C.3   1 <1>  -0.0190 
  5 C       -2.8850    -0.3950     1.0010 C.3   1 <1>   0.2200 
  6 C       -1.7690    -2.4030    -1.0550 C.3   1 <1>   0.1200 
  7 C       -4.3720    -2.5580    -0.7420 C.3   1 <1>   0.3430 
  8 C       -1.5240    -1.1360     0.9640 C.3   1 <1>   0.1200 
  9 C       -4.0690    -1.2930     1.4630 C.3   1 <1>   0.3430 
 10 O       -1.5990    -2.3930     0.3380 O.3   1 <1>  -0.5600 
 11 N       -4.1890    -2.6180     0.7490 N.4   1 <1>  -0.9590 
 12 C       -5.1470    -3.5380     1.4180 C.3   1 <1>   0.4860 
 13 C       -5.0000    -4.9320     0.8250 C.ar  1 <1>  -0.1440 
 14 C       -6.0540    -5.5310     0.1460 C.ar  1 <1>  -0.1500 
 15 C       -3.7980    -5.6140     0.9490 C.ar  1 <1>  -0.1500 
 16 C       -5.9070    -6.7930    -0.4140 C.ar  1 <1>  -0.1440 
 17 C       -3.6420    -6.8670     0.3880 C.ar  1 <1>  -0.1500 
 18 C       -4.6930    -7.4610    -0.3020 C.ar  1 <1>   0.0820 
 19 C       -7.0500    -7.4560    -1.1660 C.3   1 <1>   0.4860 
 20 O       -4.6030    -8.6850    -0.8810 O.3   1 <1>  -0.3630 
 21 N       -8.0010    -8.0830    -0.1990 N.4   1 <1>  -0.9590 
 22 C       -3.3790    -9.3940    -0.9290 C.3   1 <1>   0.0400 
 23 C       -7.3670    -9.2680     0.4460 C.3   1 <1>   0.3430 
 24 C       -9.2910    -8.4370    -0.8510 C.3   1 <1>   0.3430 
 25 C       -8.1290    -9.6380     1.7130 C.3   1 <1>  -0.2400 
 26 C      -10.1070    -7.1730    -1.0990 C.3   1 <1>  -0.2400 
 27 H       -3.2390     1.2330    -0.3800 H     1 <1>   0.3700 
 28 H       -3.2860    -2.2410    -2.5290 H     1 <1>   0.0800 
 29 H       -2.7940     0.4160     1.7020 H     1 <1>   0.0800 
 30 H       -1.0090    -1.7820    -1.5030 H     1 <1>   0.0800 
 31 H       -1.5990    -3.4150    -1.3810 H     1 <1>   0.0800 
 32 H       -4.5080    -3.5600    -1.1140 H     1 <1>   0.0800 
 33 H       -5.2630    -1.9990    -0.9820 H     1 <1>   0.0800 
 34 H       -1.1920    -1.3140     1.9720 H     1 <1>   0.0800 
 35 H       -0.7740    -0.5400     0.4710 H     1 <1>   0.0800 
 36 H       -4.9850    -0.7350     1.3550 H     1 <1>   0.0800 
 37 H       -3.9320    -1.4860     2.5140 H     1 <1>   0.0800 
 38 H       -3.2430    -3.0390     0.8460 H     1 <1>   0.4500 
 39 H       -4.9390    -3.5810     2.4750 H     1 <1>   0.0800 
 40 H       -6.1550    -3.1820     1.2840 H     1 <1>   0.0800 
 41 H       -6.9930    -5.0100     0.0480 H     1 <1>   0.1500 
 42 H       -2.9660    -5.1830     1.4820 H     1 <1>   0.1500 
 43 H       -2.6960    -7.3660     0.5020 H     1 <1>   0.1500 
 44 H       -6.6640    -8.2020    -1.8410 H     1 <1>   0.0800 
 45 H       -7.5560    -6.7080    -1.7520 H     1 <1>   0.0800 
 46 H       -8.1830    -7.4010     0.5440 H     1 <1>   0.4500 
 47 H       -3.5370   -10.3050    -1.4790 H     1 <1>   0.0800 
 48 H       -3.0640    -9.6260     0.0730 H     1 <1>   0.0800 
 49 H       -2.6430    -8.7920    -1.4330 H     1 <1>   0.0800 
 50 H       -7.3440   -10.1010    -0.2380 H     1 <1>   0.0800 
 51 H       -6.3510    -9.0350     0.7210 H     1 <1>   0.0800 
 52 H       -9.1120    -8.9560    -1.7800 H     1 <1>   0.0800 
 53 H       -9.8600    -9.0900    -0.2100 H     1 <1>   0.0800 
 54 H       -9.1240    -9.9800     1.4960 H     1 <1>   0.0800 
 55 H       -8.1690    -8.8060     2.3930 H     1 <1>   0.0800 
 56 H       -7.6120   -10.4420     2.2070 H     1 <1>   0.0800 
 57 H       -9.6340    -6.5240    -1.8130 H     1 <1>   0.0800 
 58 H      -10.2800    -6.6430    -0.1790 H     1 <1>   0.0800 
 59 H      -11.0650    -7.4510    -1.5010 H     1 <1>   0.0800 
@<TRIPOS>BOND
  1   1   2  2   
  2   2   3  am  
  3   2   4  1   
  4   3   5  1   
  5   3  27  1   
  6   4   6  1   
  7   4   7  1   
  8   4  28  1   
  9   5   8  1   
 10   5   9  1   
 11   5  29  1   
 12   6  10  1   
 13   6  30  1   
 14   6  31  1   
 15   7  11  1   
 16   7  32  1   
 17   7  33  1   
 18   8  10  1   
 19   8  34  1   
 20   8  35  1   
 21   9  11  1   
 22   9  36  1   
 23   9  37  1   
 24  11  12  1   
 25  11  38  1   
 26  12  13  1   
 27  12  39  1   
 28  12  40  1   
 29  13  14  ar  
 30  13  15  ar  
 31  14  16  ar  
 32  14  41  1   
 33  15  17  ar  
 34  15  42  1   
 35  16  18  ar  
 36  16  19  1   
 37  17  18  ar  
 38  17  43  1   
 39  18  20  1   
 40  19  21  1   
 41  19  44  1   
 42  19  45  1   
 43  20  22  1   
 44  21  23  1   
 45  21  24  1   
 46  21  46  1   
 47  22  47  1   
 48  22  48  1   
 49  22  49  1   
 50  23  25  1   
 51  23  50  1   
 52  23  51  1   
 53  24  26  1   
 54  24  52  1   
 55  24  53  1   
 56  25  54  1   
 57  25  55  1   
 58  25  56  1   
 59  26  57  1   
 60  26  58  1   
 61  26  59  1   
@<TRIPOS>SUBSTRUCTURE
  1 ****  13 GROUP 4 **** **** 0

# MOE 2024.06 (io_trps.svl 2023.06)
