@<TRIPOS>MOLECULE
NONAME
40 42 1 0 0 
SMALL
USER_CHARGES


@<TRIPOS>ATOM
  1 CL      -0.1870     3.0600     1.9060 Cl    1 <1>  -0.1770 
  2 C        1.1060     2.4840     0.8880 C.ar  1 <1>   0.1770 
  3 C        2.0330     3.3860     0.4050 C.ar  1 <1>  -0.1500 
  4 C        1.1810     1.1390     0.5840 C.ar  1 <1>  -0.1500 
  5 C        3.0850     2.9590    -0.4070 C.ar  1 <1>   0.0860 
  6 C        2.2110     0.6950    -0.2250 C.ar  1 <1>  -0.1500 
  7 C        4.0830     3.8870    -0.9160 C.2   1 <1>   0.5440 
  8 C        3.1440     1.5950    -0.7110 C.ar  1 <1>  -0.1500 
  9 O        4.9080     3.5560    -1.7470 O.2   1 <1>  -0.5700 
 10 N        4.1890     5.1690    -0.4420 N.am  1 <1>  -0.6600 
 11 C        4.9860     5.3700     0.8190 C.3   1 <1>   0.2200 
 12 C        4.0900     6.2900    -1.4280 C.3   1 <1>   0.1400 
 13 C        4.6540     6.6880     1.5360 C.3   1 <1>   0.1200 
 14 C        6.5110     5.2610     0.5460 C.3   1 <1>   0.3430 
 15 C        5.2070     7.3470    -1.3350 C.3   1 <1>  -0.0800 
 16 O        5.4410     7.7290     1.0410 O.3   1 <1>  -0.5600 
 17 N        6.8600     5.4270    -0.9070 N.4   1 <1>  -0.9590 
 18 C        5.0080     8.3020    -0.1470 C.3   1 <1>   0.1200 
 19 C        6.6540     6.8140    -1.4290 C.3   1 <1>   0.3430 
 20 C        8.2270     4.9200    -1.2080 C.3   1 <1>   0.2630 
 21 H        1.9240     4.4230     0.6630 H     1 <1>   0.1500 
 22 H        0.4460     0.4570     0.9730 H     1 <1>   0.1500 
 23 H        2.2840    -0.3500    -0.4770 H     1 <1>   0.1500 
 24 H        3.9380     1.2320    -1.3440 H     1 <1>   0.1500 
 25 H        4.7200     4.5810     1.5010 H     1 <1>   0.0800 
 26 H        4.0900     5.8790    -2.4250 H     1 <1>   0.0800 
 27 H        3.1360     6.7730    -1.2950 H     1 <1>   0.0800 
 28 H        4.8990     6.5930     2.5800 H     1 <1>   0.0800 
 29 H        3.6090     6.9380     1.4580 H     1 <1>   0.0800 
 30 H        6.8310     4.2860     0.8710 H     1 <1>   0.0800 
 31 H        7.0380     5.9890     1.1410 H     1 <1>   0.0800 
 32 H        5.0750     7.9740    -2.1990 H     1 <1>   0.0800 
 33 H        6.1700     4.8160    -1.4030 H     1 <1>   0.4500 
 34 H        3.9780     8.6000    -0.0400 H     1 <1>   0.0800 
 35 H        5.5970     9.1920    -0.2930 H     1 <1>   0.0800 
 36 H        7.3090     7.4950    -0.9090 H     1 <1>   0.0800 
 37 H        6.9380     6.8250    -2.4690 H     1 <1>   0.0800 
 38 H        8.9680     5.5100    -0.6930 H     1 <1>   0.0800 
 39 H        8.4180     4.9700    -2.2680 H     1 <1>   0.0800 
 40 H        8.3200     3.8930    -0.8950 H     1 <1>   0.0800 
@<TRIPOS>BOND
  1   1   2  1   
  2   2   3  ar  
  3   2   4  ar  
  4   3   5  ar  
  5   3  21  1   
  6   4   6  ar  
  7   4  22  1   
  8   5   7  1   
  9   5   8  ar  
 10   6   8  ar  
 11   6  23  1   
 12   7   9  2   
 13   7  10  am  
 14   8  24  1   
 15  10  11  1   
 16  10  12  1   
 17  11  13  1   
 18  11  14  1   
 19  11  25  1   
 20  12  15  1   
 21  12  26  1   
 22  12  27  1   
 23  13  16  1   
 24  13  28  1   
 25  13  29  1   
 26  14  17  1   
 27  14  30  1   
 28  14  31  1   
 29  15  18  1   
 30  15  19  1   
 31  15  32  1   
 32  16  18  1   
 33  17  19  1   
 34  17  20  1   
 35  17  33  1   
 36  18  34  1   
 37  18  35  1   
 38  19  36  1   
 39  19  37  1   
 40  20  38  1   
 41  20  39  1   
 42  20  40  1   
@<TRIPOS>SUBSTRUCTURE
  1 ****  10 GROUP 4 **** **** 0

# MOE 2024.06 (io_trps.svl 2023.06)
