@<TRIPOS>MOLECULE
NONAME
59 63 1 0 0 
SMALL
USER_CHARGES


@<TRIPOS>ATOM
  1 O        0.3720     0.4080     0.1500 O.2   1 <1>  -0.5700 
  2 C       -0.2480     1.4610     0.1260 C.2   1 <1>   0.7160 
  3 N       -1.6350     1.3840     0.1170 N.am  1 <1>  -0.6600 
  4 C        0.5080     2.7140     0.0900 C.2   1 <1>   0.2030 
  5 C       -2.5380     2.5160    -0.2610 C.3   1 <1>   0.1400 
  6 C       -2.3620     0.1130     0.3980 C.3   1 <1>   0.1400 
  7 N        0.1490     3.9020     0.5570 N.2   1 <1>  -0.7070 
  8 C        1.7870     2.8010    -0.4640 C.2   1 <1>  -0.1500 
  9 C       -3.5630     2.7990     0.8530 C.3   1 <1>   0.1430 
 10 C       -3.4080     0.3390     1.4980 C.3   1 <1>  -0.1600 
 11 N        1.1730     4.7180     0.2940 N.pl3 1 <1>   0.3140 
 12 C        2.1930     4.0850    -0.3350 C.2   1 <1>  -0.2050 
 13 C       -4.4550     3.9380     0.3960 C.ar  1 <1>   0.1670 
 14 C       -4.3520     1.5090     1.1650 C.3   1 <1>  -0.1600 
 15 C       -2.8960     3.3920     2.1230 C.3   1 <1>  -0.1600 
 16 C        1.1500     6.1290     0.7020 C.3   1 <1>   0.0160 
 17 C        3.4290     4.7010    -0.7420 C.ar  1 <1>   0.0530 
 18 N       -5.3940     3.8500    -0.5130 N.ar  1 <1>  -0.6200 
 19 C       -4.1480     5.1000     1.0360 C.ar  1 <1>  -0.1440 
 20 C       -3.0130     4.9210     2.0130 C.3   1 <1>  -0.0170 
 21 C        3.4510     5.7270    -1.6820 C.ar  1 <1>  -0.1500 
 22 C        4.6390     4.2810    -0.2020 C.ar  1 <1>  -0.1500 
 23 C       -6.0480     4.9860    -0.7680 C.ar  1 <1>   0.7200 
 24 C       -4.8730     6.2170     0.7110 C.ar  1 <1>   0.1600 
 25 C        4.6400     6.3240    -2.0590 C.ar  1 <1>  -0.1500 
 26 C        5.8320     4.8730    -0.5750 C.ar  1 <1>  -0.1500 
 27 N       -5.8270     6.1720    -0.1900 N.ar  1 <1>  -0.6200 
 28 N       -7.0440     4.9310    -1.7230 N.pl3 1 <1>  -0.8380 
 29 C        5.8340     5.8990    -1.5040 C.ar  1 <1>  -0.1500 
 30 C       -7.6370     6.1600    -2.3180 C.3   1 <1>   0.1290 
 31 C       -7.6060     3.6400    -2.2060 C.3   1 <1>   0.1290 
 32 H       -3.0700     2.2430    -1.1560 H     1 <1>   0.0800 
 33 H       -1.9880     3.4090    -0.4880 H     1 <1>   0.0800 
 34 H       -1.6790    -0.6590     0.7100 H     1 <1>   0.0800 
 35 H       -2.8460    -0.2170    -0.5050 H     1 <1>   0.0800 
 36 H        2.3250     1.9800    -0.9040 H     1 <1>   0.1500 
 37 H       -2.8970     0.5300     2.4260 H     1 <1>   0.0800 
 38 H       -3.9830    -0.5600     1.6260 H     1 <1>   0.0800 
 39 H       -4.9390     1.2450     0.3020 H     1 <1>   0.0800 
 40 H       -5.0360     1.6800     1.9780 H     1 <1>   0.0800 
 41 H       -1.8740     3.0790     2.2410 H     1 <1>   0.0800 
 42 H       -3.4440     3.0800     2.9940 H     1 <1>   0.0800 
 43 H        0.3870     6.2690     1.4460 H     1 <1>   0.0800 
 44 H        0.9350     6.7390    -0.1540 H     1 <1>   0.0800 
 45 H        2.1060     6.3970     1.1120 H     1 <1>   0.0800 
 46 H       -2.1100     5.3370     1.5990 H     1 <1>   0.0800 
 47 H       -3.2250     5.3730     2.9660 H     1 <1>   0.0800 
 48 H        2.5270     6.0530    -2.1250 H     1 <1>   0.1500 
 49 H        4.6390     3.4820     0.5200 H     1 <1>   0.1500 
 50 H       -4.6700     7.1580     1.1920 H     1 <1>   0.1500 
 51 H        4.6390     7.1170    -2.7870 H     1 <1>   0.1500 
 52 H        6.7590     4.5360    -0.1430 H     1 <1>   0.1500 
 53 H        6.7610     6.3610    -1.7950 H     1 <1>   0.1500 
 54 H       -6.9200     6.9630    -2.3210 H     1 <1>   0.0800 
 55 H       -8.4950     6.4600    -1.7410 H     1 <1>   0.0800 
 56 H       -7.9370     5.9720    -3.3330 H     1 <1>   0.0800 
 57 H       -7.5330     2.8870    -1.4400 H     1 <1>   0.0800 
 58 H       -7.0590     3.3120    -3.0720 H     1 <1>   0.0800 
 59 H       -8.6430     3.7600    -2.4630 H     1 <1>   0.0800 
@<TRIPOS>BOND
  1   1   2  2   
  2   2   3  am  
  3   2   4  1   
  4   3   5  1   
  5   3   6  1   
  6   4   7  2   
  7   4   8  1   
  8   5   9  1   
  9   5  32  1   
 10   5  33  1   
 11   6  10  1   
 12   6  34  1   
 13   6  35  1   
 14   7  11  1   
 15   8  12  2   
 16   8  36  1   
 17   9  13  1   
 18   9  14  1   
 19   9  15  1   
 20  10  14  1   
 21  10  37  1   
 22  10  38  1   
 23  11  12  1   
 24  11  16  1   
 25  12  17  1   
 26  13  18  ar  
 27  13  19  ar  
 28  14  39  1   
 29  14  40  1   
 30  15  20  1   
 31  15  41  1   
 32  15  42  1   
 33  16  43  1   
 34  16  44  1   
 35  16  45  1   
 36  17  21  ar  
 37  17  22  ar  
 38  18  23  ar  
 39  19  20  1   
 40  19  24  ar  
 41  20  46  1   
 42  20  47  1   
 43  21  25  ar  
 44  21  48  1   
 45  22  26  ar  
 46  22  49  1   
 47  23  27  ar  
 48  23  28  1   
 49  24  27  ar  
 50  24  50  1   
 51  25  29  ar  
 52  25  51  1   
 53  26  29  ar  
 54  26  52  1   
 55  28  30  1   
 56  28  31  1   
 57  29  53  1   
 58  30  54  1   
 59  30  55  1   
 60  30  56  1   
 61  31  57  1   
 62  31  58  1   
 63  31  59  1   
@<TRIPOS>SUBSTRUCTURE
  1 ****   7 GROUP 4 **** **** 0

# MOE 2024.06 (io_trps.svl 2023.06)
