@<TRIPOS>MOLECULE
NONAME
39 40 1 0 0 
SMALL
USER_CHARGES


@<TRIPOS>ATOM
  1 O       -0.2810     0.0360    -0.5010 O.2   1 <1>  -0.5700 
  2 C       -1.2540    -0.5220    -0.0350 C.2   1 <1>   0.7800 
  3 O       -1.2730    -1.8430     0.1540 O.3   1 <1>  -0.4300 
  4 N       -2.3880     0.1780     0.2980 N.am  1 <1>  -0.6600 
  5 C       -0.2350    -2.7610    -0.1180 C.3   1 <1>   0.2800 
  6 C       -3.6000    -0.4700     0.8620 C.3   1 <1>   0.1400 
  7 C       -2.4360     1.6500     0.0780 C.3   1 <1>   0.1400 
  8 C        0.0800    -2.7760    -1.6180 C.3   1 <1>  -0.2400 
  9 C       -0.7930    -4.1240     0.2930 C.3   1 <1>  -0.2400 
 10 C        0.9960    -2.4400     0.7370 C.3   1 <1>  -0.2400 
 11 C       -4.7540    -0.2390    -0.1220 C.3   1 <1>  -0.0800 
 12 C       -3.8810     2.1670     0.0540 C.3   1 <1>  -0.1600 
 13 C       -4.7910     1.1880    -0.6930 C.3   1 <1>   0.4230 
 14 C       -6.1380    -0.4770     0.4840 C.3   1 <1>  -0.1600 
 15 N       -6.1970     1.6380    -0.5700 N.4   1 <1>  -0.9060 
 16 C       -7.0450     0.4510    -0.3040 C.3   1 <1>   0.3430 
 17 H       -3.4520    -1.5260     1.0160 H     1 <1>   0.0800 
 18 H       -3.8130    -0.0270     1.8200 H     1 <1>   0.0800 
 19 H       -1.8750     2.1440     0.8550 H     1 <1>   0.0800 
 20 H       -1.9590     1.8750    -0.8630 H     1 <1>   0.0800 
 21 H        0.7680    -3.5710    -1.8390 H     1 <1>   0.0800 
 22 H        0.5410    -1.8560    -1.9280 H     1 <1>   0.0800 
 23 H       -0.8160    -2.9340    -2.1890 H     1 <1>   0.0800 
 24 H       -0.0630    -4.8940     0.1190 H     1 <1>   0.0800 
 25 H       -1.6730    -4.3570    -0.2800 H     1 <1>   0.0800 
 26 H       -1.0420    -4.1260     1.3390 H     1 <1>   0.0800 
 27 H        1.7280    -3.2190     0.6310 H     1 <1>   0.0800 
 28 H        0.7240    -2.3680     1.7750 H     1 <1>   0.0800 
 29 H        1.4560    -1.5200     0.4270 H     1 <1>   0.0800 
 30 H       -4.6150    -0.9140    -0.9500 H     1 <1>   0.0800 
 31 H       -3.8920     3.1310    -0.4230 H     1 <1>   0.0800 
 32 H       -4.2110     2.2880     1.0710 H     1 <1>   0.0800 
 33 H       -4.4980     1.1500    -1.7310 H     1 <1>   0.0800 
 34 H       -6.1620    -0.1950     1.5230 H     1 <1>   0.0800 
 35 H       -6.4490    -1.5040     0.3970 H     1 <1>   0.0800 
 36 H       -6.2630     2.2840     0.2240 H     1 <1>   0.4500 
 37 H       -6.5010     2.1410    -1.4120 H     1 <1>   0.4500 
 38 H       -7.9380     0.7070     0.2460 H     1 <1>   0.0800 
 39 H       -7.3190    -0.0190    -1.2360 H     1 <1>   0.0800 
@<TRIPOS>BOND
  1   1   2  2   
  2   2   3  1   
  3   2   4  am  
  4   3   5  1   
  5   4   6  1   
  6   4   7  1   
  7   5   8  1   
  8   5   9  1   
  9   5  10  1   
 10   6  11  1   
 11   6  17  1   
 12   6  18  1   
 13   7  12  1   
 14   7  19  1   
 15   7  20  1   
 16   8  21  1   
 17   8  22  1   
 18   8  23  1   
 19   9  24  1   
 20   9  25  1   
 21   9  26  1   
 22  10  27  1   
 23  10  28  1   
 24  10  29  1   
 25  11  13  1   
 26  11  14  1   
 27  11  30  1   
 28  12  13  1   
 29  12  31  1   
 30  12  32  1   
 31  13  15  1   
 32  13  33  1   
 33  14  16  1   
 34  14  34  1   
 35  14  35  1   
 36  15  16  1   
 37  15  36  1   
 38  15  37  1   
 39  16  38  1   
 40  16  39  1   
@<TRIPOS>SUBSTRUCTURE
  1 ****   4 GROUP 4 **** **** 0

# MOE 2024.06 (io_trps.svl 2023.06)
