@<TRIPOS>MOLECULE
NONAME
47 49 1 0 0 
SMALL
USER_CHARGES


@<TRIPOS>ATOM
  1 S        0.1230     0.2970     1.6390 S.o2  1 <1>   1.5010 
  2 O        0.6500    -0.7410     2.4960 O.2   1 <1>  -0.6500 
  3 O       -0.4280     1.5050     2.2130 O.2   1 <1>  -0.6500 
  4 N        1.4440     0.8230     0.7080 N.am  1 <1>  -0.8490 
  5 C       -0.9970    -0.3850     0.4050 C.2   1 <1>  -0.0630 
  6 C        2.3970     1.5730     1.5610 C.3   1 <1>   0.1960 
  7 C        2.1210    -0.2920     0.0250 C.3   1 <1>   0.1960 
  8 C       -1.7830     0.3470    -0.4820 C.2   1 <1>   0.1080 
  9 C       -1.2520    -1.6750     0.0650 C.2   1 <1>  -0.3020 
 10 C        3.5110     2.3590     0.8090 C.3   1 <1>   0.4230 
 11 C        3.0830     0.2000    -1.0770 C.3   1 <1>  -0.0800 
 12 N       -2.4420    -0.4070    -1.3020 N.2   1 <1>  -0.7070 
 13 C       -1.9040     1.8550    -0.5310 C.3   1 <1>  -0.0590 
 14 N       -2.1290    -1.6640    -0.9540 N.pl3 1 <1>   0.3140 
 15 N        3.1770     2.7460    -0.6220 N.4   1 <1>  -0.9590 
 16 C        4.8830     1.6580     0.9080 C.3   1 <1>   0.1200 
 17 C        4.5660    -0.0190    -0.7430 C.3   1 <1>   0.1200 
 18 C        2.7600     1.6280    -1.5430 C.3   1 <1>   0.3430 
 19 C       -2.7100    -2.8360    -1.6400 C.3   1 <1>   0.0960 
 20 C        2.1010     3.7850    -0.6210 C.3   1 <1>   0.2630 
 21 O        4.8270     0.3060     0.5810 O.3   1 <1>  -0.5600 
 22 C       -3.8160    -3.4800    -0.7940 C.3   1 <1>  -0.2400 
 23 H        1.8500     2.3030     2.1330 H     1 <1>   0.0800 
 24 H        2.8440     0.9040     2.2800 H     1 <1>   0.0800 
 25 H        2.6340    -0.9180     0.7400 H     1 <1>   0.0800 
 26 H        1.3810    -0.9110    -0.4530 H     1 <1>   0.0800 
 27 H       -0.8610    -2.5790     0.4960 H     1 <1>   0.1500 
 28 H        3.6410     3.2770     1.3580 H     1 <1>   0.0800 
 29 H        2.8940    -0.4260    -1.9300 H     1 <1>   0.0800 
 30 H       -0.9330     2.3080    -0.5660 H     1 <1>   0.0800 
 31 H       -2.4280     2.2020     0.3410 H     1 <1>   0.0800 
 32 H       -2.4600     2.1480    -1.4030 H     1 <1>   0.0800 
 33 H        4.0250     3.1650    -1.0220 H     1 <1>   0.4500 
 34 H        5.2230     1.7040     1.9290 H     1 <1>   0.0800 
 35 H        5.6220     2.1400     0.2930 H     1 <1>   0.0800 
 36 H        5.2220     0.5410    -1.3880 H     1 <1>   0.0800 
 37 H        4.8040    -1.0640    -0.8500 H     1 <1>   0.0800 
 38 H        1.6930     1.6760    -1.6890 H     1 <1>   0.0800 
 39 H        3.2160     1.7860    -2.5070 H     1 <1>   0.0800 
 40 H       -3.1130    -2.5080    -2.5810 H     1 <1>   0.0800 
 41 H       -1.9260    -3.5450    -1.8310 H     1 <1>   0.0800 
 42 H        1.1940     3.3760    -0.2030 H     1 <1>   0.0800 
 43 H        1.8960     4.1160    -1.6270 H     1 <1>   0.0800 
 44 H        2.3980     4.6370    -0.0320 H     1 <1>   0.0800 
 45 H       -4.6000    -2.7660    -0.6090 H     1 <1>   0.0800 
 46 H       -3.4210    -3.8260     0.1440 H     1 <1>   0.0800 
 47 H       -4.2360    -4.3180    -1.3200 H     1 <1>   0.0800 
@<TRIPOS>BOND
  1   1   2  2   
  2   1   3  2   
  3   1   4  am  
  4   1   5  1   
  5   4   6  1   
  6   4   7  1   
  7   5   8  1   
  8   5   9  2   
  9   6  10  1   
 10   6  23  1   
 11   6  24  1   
 12   7  11  1   
 13   7  25  1   
 14   7  26  1   
 15   8  12  2   
 16   8  13  1   
 17   9  14  1   
 18   9  27  1   
 19  10  15  1   
 20  10  16  1   
 21  10  28  1   
 22  11  17  1   
 23  11  18  1   
 24  11  29  1   
 25  12  14  1   
 26  13  30  1   
 27  13  31  1   
 28  13  32  1   
 29  14  19  1   
 30  15  18  1   
 31  15  20  1   
 32  15  33  1   
 33  16  21  1   
 34  16  34  1   
 35  16  35  1   
 36  17  21  1   
 37  17  36  1   
 38  17  37  1   
 39  18  38  1   
 40  18  39  1   
 41  19  22  1   
 42  19  40  1   
 43  19  41  1   
 44  20  42  1   
 45  20  43  1   
 46  20  44  1   
 47  22  45  1   
 48  22  46  1   
 49  22  47  1   
@<TRIPOS>SUBSTRUCTURE
  1 ****   4 GROUP 4 **** **** 0

# MOE 2024.06 (io_trps.svl 2023.06)
