@<TRIPOS>MOLECULE
NONAME
49 50 1 0 0 
SMALL
USER_CHARGES


@<TRIPOS>ATOM
  1 O        0.6050     1.9420    -0.9480 O.2   1 <1>  -0.5700 
  2 C        0.0320     2.9890    -0.7550 C.2   1 <1>   0.5690 
  3 N       -0.9560     3.1230     0.1800 N.am  1 <1>  -0.6600 
  4 C        0.4540     4.2000    -1.5870 C.3   1 <1>   0.1810 
  5 C       -1.6680     4.4260     0.3820 C.3   1 <1>   0.3640 
  6 C       -1.4000     1.9940     1.0460 C.3   1 <1>   0.0600 
  7 O       -0.5590     5.1760    -1.7120 O.3   1 <1>  -0.5600 
  8 C       -3.1940     4.2770     0.2430 C.ar  1 <1>  -0.1430 
  9 C       -1.1320     5.6060    -0.4820 C.3   1 <1>   0.2610 
 10 C       -3.8620     3.7430    -0.8640 C.ar  1 <1>  -0.1430 
 11 C       -3.9490     4.7300     1.3210 C.ar  1 <1>  -0.1500 
 12 C       -0.1750     6.5310     0.2890 C.2   1 <1>   0.5690 
 13 C       -5.2480     3.6740    -0.8580 C.ar  1 <1>  -0.1500 
 14 C       -3.1510     3.2210    -2.1070 C.3   1 <1>  -0.0960 
 15 C       -5.3290     4.6560     1.3160 C.ar  1 <1>  -0.1500 
 16 O       -0.3080     6.6710     1.4820 O.2   1 <1>  -0.5700 
 17 N        0.7820     7.1930    -0.4240 N.am  1 <1>  -0.7300 
 18 C       -5.9810     4.1260     0.2220 C.ar  1 <1>  -0.1500 
 19 C        1.8360     8.1160     0.0180 C.3   1 <1>   0.3000 
 20 C        2.6150     8.5020    -1.2580 C.3   1 <1>  -0.1600 
 21 C        1.1810     9.3430     0.6590 C.3   1 <1>  -0.2400 
 22 C        2.7410     7.3900     1.0190 C.3   1 <1>  -0.2400 
 23 C        3.7940     9.4740    -1.0700 C.3   1 <1>  -0.2400 
 24 H        0.7090     3.8710    -2.5780 H     1 <1>   0.0800 
 25 H        1.3210     4.6500    -1.1410 H     1 <1>   0.0800 
 26 H       -1.4970     4.6800     1.4110 H     1 <1>   0.0800 
 27 H       -1.3560     2.2870     2.0810 H     1 <1>   0.0800 
 28 H       -0.7670     1.1340     0.9050 H     1 <1>   0.0800 
 29 H       -2.4110     1.7200     0.8000 H     1 <1>   0.0800 
 30 H       -1.9740     6.2200    -0.7440 H     1 <1>   0.0800 
 31 H       -3.4670     5.1520     2.1870 H     1 <1>   0.1500 
 32 H       -5.7750     3.2650    -1.7020 H     1 <1>   0.1500 
 33 H       -3.8560     2.8500    -2.8280 H     1 <1>   0.0800 
 34 H       -2.4930     2.4110    -1.8550 H     1 <1>   0.0800 
 35 H       -2.5920     4.0060    -2.5770 H     1 <1>   0.0800 
 36 H       -5.8930     5.0120     2.1600 H     1 <1>   0.1500 
 37 H        0.7780     7.0310    -1.4330 H     1 <1>   0.3700 
 38 H       -7.0550     4.0650     0.2100 H     1 <1>   0.1500 
 39 H        3.0010     7.6050    -1.7110 H     1 <1>   0.0800 
 40 H        1.9300     8.9510    -1.9560 H     1 <1>   0.0800 
 41 H        1.9270    10.0360     0.9990 H     1 <1>   0.0800 
 42 H        0.5960     9.0590     1.5150 H     1 <1>   0.0800 
 43 H        0.5450     9.8430    -0.0480 H     1 <1>   0.0800 
 44 H        3.5200     8.0420     1.3660 H     1 <1>   0.0800 
 45 H        3.1930     6.5280     0.5630 H     1 <1>   0.0800 
 46 H        2.1810     7.0760     1.8810 H     1 <1>   0.0800 
 47 H        4.5420     9.0580    -0.4200 H     1 <1>   0.0800 
 48 H        3.4630    10.4140    -0.6660 H     1 <1>   0.0800 
 49 H        4.2550     9.6690    -2.0230 H     1 <1>   0.0800 
@<TRIPOS>BOND
  1   1   2  2   
  2   2   3  am  
  3   2   4  1   
  4   3   5  1   
  5   3   6  1   
  6   4   7  1   
  7   4  24  1   
  8   4  25  1   
  9   5   8  1   
 10   5   9  1   
 11   5  26  1   
 12   6  27  1   
 13   6  28  1   
 14   6  29  1   
 15   7   9  1   
 16   8  10  ar  
 17   8  11  ar  
 18   9  12  1   
 19   9  30  1   
 20  10  13  ar  
 21  10  14  1   
 22  11  15  ar  
 23  11  31  1   
 24  12  16  2   
 25  12  17  am  
 26  13  18  ar  
 27  13  32  1   
 28  14  33  1   
 29  14  34  1   
 30  14  35  1   
 31  15  18  ar  
 32  15  36  1   
 33  17  19  1   
 34  17  37  1   
 35  18  38  1   
 36  19  20  1   
 37  19  21  1   
 38  19  22  1   
 39  20  23  1   
 40  20  39  1   
 41  20  40  1   
 42  21  41  1   
 43  21  42  1   
 44  21  43  1   
 45  22  44  1   
 46  22  45  1   
 47  22  46  1   
 48  23  47  1   
 49  23  48  1   
 50  23  49  1   
@<TRIPOS>SUBSTRUCTURE
  1 ****   9 GROUP 4 **** **** 0

# MOE 2024.06 (io_trps.svl 2023.06)
