@<TRIPOS>MOLECULE
NONAME
43 44 1 0 0 
SMALL
USER_CHARGES


@<TRIPOS>ATOM
  1 N        0.4450    -2.6240     2.0170 N.2   1 <1>  -0.7070 
  2 N        0.0110    -2.5770     0.7540 N.pl3 1 <1>   0.3140 
  3 C       -0.6070    -2.4720     2.7570 C.2   1 <1>   0.1390 
  4 C       -1.3360    -2.4440     0.7140 C.2   1 <1>  -0.3320 
  5 C        0.9770    -2.6350    -0.3570 C.3   1 <1>   0.0160 
  6 C       -1.7610    -2.3540     1.9960 C.2   1 <1>  -0.1500 
  7 C       -2.1480    -2.4100    -0.5540 C.3   1 <1>   0.5230 
  8 N       -3.0280    -3.6040    -0.4870 N.4   1 <1>  -0.9590 
  9 C       -2.2450    -4.8640    -0.6420 C.3   1 <1>   0.3430 
 10 C       -4.1840    -3.4500    -1.4170 C.3   1 <1>   0.3430 
 11 C       -2.7430    -5.9180     0.3500 C.3   1 <1>  -0.1600 
 12 C       -5.0560    -4.7120    -1.5160 C.3   1 <1>  -0.1600 
 13 C       -4.0780    -6.5680    -0.0400 C.3   1 <1>   0.4230 
 14 C       -5.2210    -5.5490    -0.2280 C.3   1 <1>  -0.1600 
 15 N       -4.4230    -7.6220     0.9660 N.4   1 <1>  -0.9590 
 16 C       -5.4070    -8.6160     0.4190 C.3   1 <1>   0.2630 
 17 C       -4.9080    -7.1140     2.2950 C.3   1 <1>   0.2630 
 18 H       -0.5700    -2.4430     3.8360 H     1 <1>   0.1500 
 19 H        1.9720    -2.6860     0.0490 H     1 <1>   0.0800 
 20 H        0.8910    -1.7480    -0.9550 H     1 <1>   0.0800 
 21 H        0.7960    -3.5090    -0.9530 H     1 <1>   0.0800 
 22 H       -2.7470    -2.2130     2.4040 H     1 <1>   0.1500 
 23 H       -1.5180    -2.4410    -1.4280 H     1 <1>   0.0800 
 24 H       -2.7360    -1.5060    -0.5760 H     1 <1>   0.0800 
 25 H       -3.3740    -3.5720     0.4790 H     1 <1>   0.4500 
 26 H       -1.2070    -4.6690    -0.4180 H     1 <1>   0.0800 
 27 H       -2.3010    -5.2270    -1.6560 H     1 <1>   0.0800 
 28 H       -3.8330    -3.1950    -2.4050 H     1 <1>   0.0800 
 29 H       -4.8000    -2.6330    -1.0730 H     1 <1>   0.0800 
 30 H       -2.7920    -5.4800     1.3300 H     1 <1>   0.0800 
 31 H       -1.9970    -6.6920     0.3800 H     1 <1>   0.0800 
 32 H       -4.6870    -5.3330    -2.3140 H     1 <1>   0.0800 
 33 H       -6.0330    -4.3830    -1.8330 H     1 <1>   0.0800 
 34 H       -3.9290    -7.0620    -0.9880 H     1 <1>   0.0800 
 35 H       -6.1470    -6.0870    -0.3290 H     1 <1>   0.0800 
 36 H       -5.3150    -4.9000     0.6250 H     1 <1>   0.0800 
 37 H       -3.5590    -8.1560     1.1520 H     1 <1>   0.4500 
 38 H       -6.3600    -8.1470     0.2370 H     1 <1>   0.0800 
 39 H       -5.5540    -9.4220     1.1210 H     1 <1>   0.0800 
 40 H       -5.0460    -9.0350    -0.5070 H     1 <1>   0.0800 
 41 H       -5.8380    -6.5800     2.1790 H     1 <1>   0.0800 
 42 H       -4.1810    -6.4540     2.7380 H     1 <1>   0.0800 
 43 H       -5.0730    -7.9380     2.9710 H     1 <1>   0.0800 
@<TRIPOS>BOND
  1   1   2  1   
  2   1   3  2   
  3   2   4  1   
  4   2   5  1   
  5   3   6  1   
  6   3  18  1   
  7   4   6  2   
  8   4   7  1   
  9   5  19  1   
 10   5  20  1   
 11   5  21  1   
 12   6  22  1   
 13   7   8  1   
 14   7  23  1   
 15   7  24  1   
 16   8   9  1   
 17   8  10  1   
 18   8  25  1   
 19   9  11  1   
 20   9  26  1   
 21   9  27  1   
 22  10  12  1   
 23  10  28  1   
 24  10  29  1   
 25  11  13  1   
 26  11  30  1   
 27  11  31  1   
 28  12  14  1   
 29  12  32  1   
 30  12  33  1   
 31  13  14  1   
 32  13  15  1   
 33  13  34  1   
 34  14  35  1   
 35  14  36  1   
 36  15  16  1   
 37  15  17  1   
 38  15  37  1   
 39  16  38  1   
 40  16  39  1   
 41  16  40  1   
 42  17  41  1   
 43  17  42  1   
 44  17  43  1   
@<TRIPOS>SUBSTRUCTURE
  1 ****   9 GROUP 4 **** **** 0

# MOE 2024.06 (io_trps.svl 2023.06)
