@<TRIPOS>MOLECULE
NONAME
43 44 1 0 0 
SMALL
USER_CHARGES


@<TRIPOS>ATOM
  1 CL      -1.7730    -0.3380     2.0690 Cl    1 <1>  -0.1770 
  2 C       -2.3470    -1.1180     0.6080 C.ar  1 <1>   0.1770 
  3 C       -2.8550    -0.4300    -0.5030 C.ar  1 <1>   0.0820 
  4 C       -2.2780    -2.4980     0.6160 C.ar  1 <1>  -0.1500 
  5 O       -2.9870     0.9120    -0.6660 O.3   1 <1>  -0.3630 
  6 C       -3.2820    -1.1820    -1.5880 C.ar  1 <1>  -0.1500 
  7 C       -2.7190    -3.2530    -0.4690 C.ar  1 <1>   0.0860 
  8 C       -2.4830     1.8840     0.2180 C.3   1 <1>   0.1200 
  9 C       -3.2130    -2.5630    -1.5740 C.ar  1 <1>  -0.1500 
 10 C       -2.6700    -4.6990    -0.4620 C.2   1 <1>   0.5440 
 11 C       -2.7140     3.2550    -0.4120 C.3   1 <1>  -0.2400 
 12 O       -1.8780    -5.2600    -1.1940 O.2   1 <1>  -0.5700 
 13 N       -3.5070    -5.4530     0.3360 N.am  1 <1>  -0.6600 
 14 C       -3.4840    -6.9420     0.2710 C.3   1 <1>   0.3200 
 15 C       -4.5420    -4.8550     1.2340 C.3   1 <1>   0.1400 
 16 C       -4.7950    -7.4410    -0.3020 C.2   1 <1>  -0.3320 
 17 C       -5.7620    -4.3700     0.4400 C.3   1 <1>   0.1200 
 18 N       -5.8730    -7.7900     0.4260 N.pl3 1 <1>   0.0330 
 19 C       -5.1410    -7.6130    -1.5950 C.2   1 <1>   0.0770 
 20 O       -6.7850    -4.0940     1.3350 O.3   1 <1>  -0.6800 
 21 C       -6.8110    -8.1450    -0.4780 C.2   1 <1>   0.0060 
 22 N       -6.4090    -8.0520    -1.7020 N.2   1 <1>  -0.5650 
 23 C       -8.1980    -8.6030    -0.0820 C.3   1 <1>  -0.0600 
 24 H       -1.8750    -3.0010     1.4760 H     1 <1>   0.1500 
 25 H       -3.6690    -0.6710    -2.4530 H     1 <1>   0.1500 
 26 H       -1.4310     1.7070     0.3600 H     1 <1>   0.0800 
 27 H       -3.0130     1.8060     1.1510 H     1 <1>   0.0800 
 28 H       -3.5420    -3.1260    -2.4310 H     1 <1>   0.1500 
 29 H       -2.1970     3.3210    -1.3520 H     1 <1>   0.0800 
 30 H       -2.3390     4.0220     0.2410 H     1 <1>   0.0800 
 31 H       -3.7650     3.4180    -0.5660 H     1 <1>   0.0800 
 32 H       -3.3240    -7.3460     1.2560 H     1 <1>   0.0800 
 33 H       -2.6780    -7.2870    -0.3530 H     1 <1>   0.0800 
 34 H       -4.1230    -4.0300     1.7810 H     1 <1>   0.0800 
 35 H       -4.8590    -5.5930     1.9490 H     1 <1>   0.0800 
 36 H       -6.1100    -5.1250    -0.2430 H     1 <1>   0.0800 
 37 H       -5.5330    -3.4680    -0.1000 H     1 <1>   0.0800 
 38 H       -5.9820    -7.7780     1.4440 H     1 <1>   0.2700 
 39 H       -4.5350    -7.4330    -2.4680 H     1 <1>   0.1500 
 40 H       -7.5750    -3.7690     0.8580 H     1 <1>   0.4000 
 41 H       -8.6960    -7.8320     0.4760 H     1 <1>   0.0800 
 42 H       -8.1360    -9.4950     0.5140 H     1 <1>   0.0800 
 43 H       -8.7740    -8.8180    -0.9640 H     1 <1>   0.0800 
@<TRIPOS>BOND
  1   1   2  1   
  2   2   3  ar  
  3   2   4  ar  
  4   3   5  1   
  5   3   6  ar  
  6   4   7  ar  
  7   4  24  1   
  8   5   8  1   
  9   6   9  ar  
 10   6  25  1   
 11   7   9  ar  
 12   7  10  1   
 13   8  11  1   
 14   8  26  1   
 15   8  27  1   
 16   9  28  1   
 17  10  12  2   
 18  10  13  am  
 19  11  29  1   
 20  11  30  1   
 21  11  31  1   
 22  13  14  1   
 23  13  15  1   
 24  14  16  1   
 25  14  32  1   
 26  14  33  1   
 27  15  17  1   
 28  15  34  1   
 29  15  35  1   
 30  16  18  1   
 31  16  19  2   
 32  17  20  1   
 33  17  36  1   
 34  17  37  1   
 35  18  21  1   
 36  18  38  1   
 37  19  22  1   
 38  19  39  1   
 39  20  40  1   
 40  21  22  2   
 41  21  23  1   
 42  23  41  1   
 43  23  42  1   
 44  23  43  1   
@<TRIPOS>SUBSTRUCTURE
  1 ****   7 GROUP 4 **** **** 0

# MOE 2024.06 (io_trps.svl 2023.06)
