@<TRIPOS>MOLECULE
NONAME
37 38 1 0 0 
SMALL
USER_CHARGES


@<TRIPOS>ATOM
  1 F       -0.8970    -0.5070     1.3910 F     1 <1>  -0.1900 
  2 C       -1.9850    -1.0690     0.9120 C.ar  1 <1>   0.1900 
  3 C       -2.8410    -0.4420     0.0120 C.ar  1 <1>   0.3920 
  4 C       -2.2860    -2.3410     1.3210 C.ar  1 <1>   0.1600 
  5 O       -2.6880     0.8060    -0.4890 O.3   1 <1>  -0.3630 
  6 N       -3.9140    -1.0640    -0.4300 N.ar  1 <1>  -0.6200 
  7 N       -3.3560    -2.9710     0.8840 N.ar  1 <1>  -0.6200 
  8 C       -1.6510     1.6940    -0.1330 C.3   1 <1>   0.0400 
  9 C       -4.1130    -2.2890     0.0280 C.ar  1 <1>   0.7200 
 10 N       -5.2380    -2.8630    -0.4570 N.pl3 1 <1>  -0.8690 
 11 C       -5.4730    -4.2970    -0.7450 C.3   1 <1>   0.2890 
 12 C       -5.7590    -5.0750     0.5480 C.3   1 <1>  -0.0160 
 13 C       -4.3110    -4.8580    -1.5700 C.3   1 <1>  -0.2400 
 14 C       -6.0980    -6.5340     0.2610 C.ar  1 <1>   0.1670 
 15 N       -7.2580    -6.7090    -0.3590 N.ar  1 <1>  -0.6200 
 16 C       -5.2450    -7.5790     0.6230 C.ar  1 <1>  -0.1430 
 17 C       -7.5940    -7.9580    -0.6270 C.ar  1 <1>   0.1600 
 18 C       -5.6200    -8.8750     0.3290 C.ar  1 <1>  -0.1500 
 19 C       -3.9120    -7.3590     1.3310 C.3   1 <1>  -0.0970 
 20 C       -6.8240    -9.0610    -0.3110 C.ar  1 <1>  -0.1500 
 21 H       -1.6410    -2.8480     2.0160 H     1 <1>   0.1500 
 22 H       -1.8040     2.6140    -0.6670 H     1 <1>   0.0800 
 23 H       -0.7070     1.2630    -0.4160 H     1 <1>   0.0800 
 24 H       -1.6920     1.8780     0.9260 H     1 <1>   0.0800 
 25 H       -5.6890    -2.2370    -1.1220 H     1 <1>   0.4000 
 26 H       -6.3590    -4.3590    -1.3540 H     1 <1>   0.0800 
 27 H       -6.6060    -4.6250     1.0330 H     1 <1>   0.0800 
 28 H       -4.9290    -4.9940     1.2160 H     1 <1>   0.0800 
 29 H       -3.4110    -4.9050    -0.9870 H     1 <1>   0.0800 
 30 H       -4.1440    -4.2440    -2.4360 H     1 <1>   0.0800 
 31 H       -4.5480    -5.8520    -1.9050 H     1 <1>   0.0800 
 32 H       -8.5340    -8.1100    -1.1270 H     1 <1>   0.1500 
 33 H       -5.0020    -9.7170     0.5870 H     1 <1>   0.1500 
 34 H       -3.2940    -6.6890     0.7620 H     1 <1>   0.0800 
 35 H       -3.3790    -8.2850     1.4500 H     1 <1>   0.0800 
 36 H       -4.0790    -6.9390     2.3070 H     1 <1>   0.0800 
 37 H       -7.1650   -10.0480    -0.5620 H     1 <1>   0.1500 
@<TRIPOS>BOND
  1   1   2  1   
  2   2   3  ar  
  3   2   4  ar  
  4   3   5  1   
  5   3   6  ar  
  6   4   7  ar  
  7   4  21  1   
  8   5   8  1   
  9   6   9  ar  
 10   7   9  ar  
 11   8  22  1   
 12   8  23  1   
 13   8  24  1   
 14   9  10  1   
 15  10  11  1   
 16  10  25  1   
 17  11  12  1   
 18  11  13  1   
 19  11  26  1   
 20  12  14  1   
 21  12  27  1   
 22  12  28  1   
 23  13  29  1   
 24  13  30  1   
 25  13  31  1   
 26  14  15  ar  
 27  14  16  ar  
 28  15  17  ar  
 29  16  18  ar  
 30  16  19  1   
 31  17  20  ar  
 32  17  32  1   
 33  18  20  ar  
 34  18  33  1   
 35  19  34  1   
 36  19  35  1   
 37  19  36  1   
 38  20  37  1   
@<TRIPOS>SUBSTRUCTURE
  1 ****  11 GROUP 4 **** **** 0

# MOE 2024.06 (io_trps.svl 2023.06)
