@<TRIPOS>MOLECULE
NONAME
44 45 1 0 0 
SMALL
USER_CHARGES


@<TRIPOS>ATOM
  1 O        0.1190    -0.0650     0.9870 O.2   1 <1>  -0.5700 
  2 C        1.2050    -0.4190     0.5740 C.2   1 <1>   0.7150 
  3 N        2.1300     0.4960     0.1460 N.am  1 <1>  -0.4940 
  4 C        1.5760    -1.7990     0.5160 C.2   1 <1>  -0.2370 
  5 C        2.0770     1.9120     0.1160 C.2   1 <1>  -0.0880 
  6 N        0.8260    -2.8240     0.0150 N.pl3 1 <1>   0.3140 
  7 C        2.7450    -2.3670     0.9280 C.2   1 <1>  -0.1500 
  8 N        3.0310     2.7160    -0.4250 N.pl3 1 <1>   0.3140 
  9 C        1.1220     2.7420     0.5970 C.2   1 <1>  -0.1500 
 10 N        1.4910    -3.9940     0.0880 N.2   1 <1>  -0.7070 
 11 C       -0.5280    -2.8250    -0.6290 C.3   1 <1>   0.1760 
 12 C        2.6290    -3.7110     0.6420 C.2   1 <1>   0.1390 
 13 N        2.7120     4.0230    -0.3020 N.2   1 <1>  -0.7070 
 14 C        4.2740     2.3000    -1.1050 C.3   1 <1>   0.0960 
 15 C        1.5710     4.0250     0.3100 C.2   1 <1>   0.1080 
 16 C       -0.6730    -1.7630    -1.7310 C.3   1 <1>  -0.2400 
 17 C       -1.6560    -2.7390     0.4090 C.3   1 <1>  -0.2400 
 18 C        5.3450     1.8770    -0.0890 C.3   1 <1>  -0.1600 
 19 C        0.8410     5.3010     0.6550 C.3   1 <1>  -0.0590 
 20 C        6.6130     1.3790    -0.7940 C.3   1 <1>  -0.1600 
 21 C        7.6740     0.9520     0.2240 C.3   1 <1>  -0.2400 
 22 H        2.9800     0.0610    -0.2050 H     1 <1>   0.3700 
 23 H        3.5930    -1.8960     1.3920 H     1 <1>   0.1500 
 24 H        0.2060     2.4850     1.0980 H     1 <1>   0.1500 
 25 H       -0.6220    -3.7830    -1.1100 H     1 <1>   0.0800 
 26 H        3.3840    -4.4530     0.8450 H     1 <1>   0.1500 
 27 H        4.6300     3.1310    -1.6880 H     1 <1>   0.0800 
 28 H        4.0420     1.4920    -1.7730 H     1 <1>   0.0800 
 29 H       -0.7350    -0.7720    -1.3220 H     1 <1>   0.0800 
 30 H       -1.5770    -1.9440    -2.2850 H     1 <1>   0.0800 
 31 H        0.1560    -1.8210    -2.4140 H     1 <1>   0.0800 
 32 H       -1.6670    -1.7860     0.9020 H     1 <1>   0.0800 
 33 H       -1.5350    -3.5140     1.1450 H     1 <1>   0.0800 
 34 H       -2.6070    -2.8770    -0.0730 H     1 <1>   0.0800 
 35 H        4.9600     1.0970     0.5440 H     1 <1>   0.0800 
 36 H        5.5890     2.7250     0.5300 H     1 <1>   0.0800 
 37 H       -0.0850     5.0810     1.1520 H     1 <1>   0.0800 
 38 H        0.6390     5.8520    -0.2450 H     1 <1>   0.0800 
 39 H        1.4550     5.9000     1.3010 H     1 <1>   0.0800 
 40 H        7.0150     2.1640    -1.4120 H     1 <1>   0.0800 
 41 H        6.3760     0.5420    -1.4280 H     1 <1>   0.0800 
 42 H        7.9450     1.7800     0.8550 H     1 <1>   0.0800 
 43 H        8.5570     0.6100    -0.2860 H     1 <1>   0.0800 
 44 H        7.3060     0.1520     0.8430 H     1 <1>   0.0800 
@<TRIPOS>BOND
  1   1   2  2   
  2   2   3  am  
  3   2   4  1   
  4   3   5  1   
  5   3  22  1   
  6   4   6  1   
  7   4   7  2   
  8   5   8  1   
  9   5   9  2   
 10   6  10  1   
 11   6  11  1   
 12   7  12  1   
 13   7  23  1   
 14   8  13  1   
 15   8  14  1   
 16   9  15  1   
 17   9  24  1   
 18  10  12  2   
 19  11  16  1   
 20  11  17  1   
 21  11  25  1   
 22  12  26  1   
 23  13  15  2   
 24  14  18  1   
 25  14  27  1   
 26  14  28  1   
 27  15  19  1   
 28  16  29  1   
 29  16  30  1   
 30  16  31  1   
 31  17  32  1   
 32  17  33  1   
 33  17  34  1   
 34  18  20  1   
 35  18  35  1   
 36  18  36  1   
 37  19  37  1   
 38  19  38  1   
 39  19  39  1   
 40  20  21  1   
 41  20  40  1   
 42  20  41  1   
 43  21  42  1   
 44  21  43  1   
 45  21  44  1   
@<TRIPOS>SUBSTRUCTURE
  1 ****   3 GROUP 4 **** **** 0

# MOE 2024.06 (io_trps.svl 2023.06)
