@<TRIPOS>MOLECULE
NONAME
40 41 1 0 0 
SMALL
USER_CHARGES


@<TRIPOS>ATOM
  1 S        0.7270     0.1800    -1.5130 S.o2  1 <1>   1.3330 
  2 O        0.7160    -1.2620    -1.6230 O.2   1 <1>  -0.6500 
  3 O        0.2430     0.9790    -2.6160 O.2   1 <1>  -0.6500 
  4 N       -0.1890     0.5970    -0.1450 N.am  1 <1>  -0.8490 
  5 C        2.3930     0.6950    -1.0940 C.3   1 <1>  -0.0550 
  6 C       -0.4040     2.0420    -0.0090 C.3   1 <1>   0.1160 
  7 C       -1.4750    -0.1020    -0.1210 C.3   1 <1>   0.1160 
  8 C        2.9200     0.1110     0.2290 C.3   1 <1>  -0.0800 
  9 C        4.2830     0.6560     0.5900 C.3   1 <1>   0.2890 
 10 C        3.1620    -1.3960     0.2150 C.3   1 <1>   0.1200 
 11 N        4.1510     1.9580     1.2800 N.pl3 1 <1>  -0.8690 
 12 C        4.8480    -0.4450     1.4780 C.3   1 <1>   0.1200 
 13 O        4.2540    -1.6370     1.0540 O.3   1 <1>  -0.5600 
 14 C        4.5150     3.1470     0.7550 C.ar  1 <1>   0.7200 
 15 N        4.7470     4.0860     1.6560 N.ar  1 <1>  -0.6200 
 16 N        4.5950     3.2530    -0.5670 N.ar  1 <1>  -0.6200 
 17 C        5.0990     5.2570     1.1840 C.ar  1 <1>   0.1670 
 18 C        4.9480     4.4340    -1.0130 C.ar  1 <1>   0.1600 
 19 C        5.2160     5.4850    -0.1680 C.ar  1 <1>  -0.1500 
 20 C        5.3730     6.3510     2.1930 C.3   1 <1>  -0.0970 
 21 H        3.0560     0.4250    -1.8930 H     1 <1>   0.0800 
 22 H        2.4080     1.7650    -1.0200 H     1 <1>   0.0800 
 23 H       -0.9440     2.2510     0.8980 H     1 <1>   0.0800 
 24 H       -0.9650     2.4220    -0.8470 H     1 <1>   0.0800 
 25 H        0.5410     2.5570     0.0390 H     1 <1>   0.0800 
 26 H       -2.0250     0.1580     0.7680 H     1 <1>   0.0800 
 27 H       -1.3150    -1.1680    -0.1170 H     1 <1>   0.0800 
 28 H       -2.0590     0.1570    -0.9890 H     1 <1>   0.0800 
 29 H        2.2310     0.3270     1.0270 H     1 <1>   0.0800 
 30 H        4.9050     0.7450    -0.2850 H     1 <1>   0.0800 
 31 H        3.4250    -1.7460    -0.7690 H     1 <1>   0.0800 
 32 H        2.3100    -1.9460     0.5770 H     1 <1>   0.0800 
 33 H        4.1940     1.9520     2.2970 H     1 <1>   0.4000 
 34 H        4.5720    -0.2940     2.5060 H     1 <1>   0.0800 
 35 H        5.9150    -0.5330     1.3810 H     1 <1>   0.0800 
 36 H        5.0270     4.5690    -2.0780 H     1 <1>   0.1500 
 37 H        5.5040     6.4430    -0.5550 H     1 <1>   0.1500 
 38 H        5.6530     7.2670     1.7060 H     1 <1>   0.0800 
 39 H        6.1700     6.0460     2.8460 H     1 <1>   0.0800 
 40 H        4.4920     6.5260     2.7830 H     1 <1>   0.0800 
@<TRIPOS>BOND
  1   1   2  2   
  2   1   3  2   
  3   1   4  am  
  4   1   5  1   
  5   4   6  1   
  6   4   7  1   
  7   5   8  1   
  8   5  21  1   
  9   5  22  1   
 10   6  23  1   
 11   6  24  1   
 12   6  25  1   
 13   7  26  1   
 14   7  27  1   
 15   7  28  1   
 16   8   9  1   
 17   8  10  1   
 18   8  29  1   
 19   9  11  1   
 20   9  12  1   
 21   9  30  1   
 22  10  13  1   
 23  10  31  1   
 24  10  32  1   
 25  11  14  1   
 26  11  33  1   
 27  12  13  1   
 28  12  34  1   
 29  12  35  1   
 30  14  15  ar  
 31  14  16  ar  
 32  15  17  ar  
 33  16  18  ar  
 34  17  19  ar  
 35  17  20  1   
 36  18  19  ar  
 37  18  36  1   
 38  19  37  1   
 39  20  38  1   
 40  20  39  1   
 41  20  40  1   
@<TRIPOS>SUBSTRUCTURE
  1 ****   8 GROUP 4 **** **** 0

# MOE 2024.06 (io_trps.svl 2023.06)
