@<TRIPOS>MOLECULE
NONAME
54 56 1 0 0 
SMALL
USER_CHARGES


@<TRIPOS>ATOM
  1 O       -0.5790     0.3040     1.4050 O.2   1 <1>  -0.5700 
  2 C       -1.3980     0.6870     0.5900 C.2   1 <1>   0.6900 
  3 N       -2.6170     0.0760     0.5000 N.am  1 <1>  -0.6600 
  4 N       -1.1280     1.7270    -0.2480 N.am  1 <1>  -0.5470 
  5 C       -3.8080     0.6040    -0.2010 C.3   1 <1>   0.1400 
  6 C       -2.9660    -1.1040     1.3170 C.3   1 <1>   0.1400 
  7 C       -0.0220     2.5880    -0.2580 C.ar  1 <1>   0.1170 
  8 C       -5.0060    -0.0520     0.5000 C.3   1 <1>  -0.0800 
  9 C       -4.4470    -1.3810     1.0420 C.3   1 <1>  -0.0800 
 10 C       -0.1600     3.9000     0.2110 C.ar  1 <1>  -0.1430 
 11 C        1.2080     2.1540    -0.7600 C.ar  1 <1>  -0.1430 
 12 C       -6.3120    -0.1790    -0.3440 C.3   1 <1>   0.2800 
 13 C       -4.6570    -2.5170     0.0290 C.3   1 <1>  -0.1600 
 14 C        0.9340     4.7540     0.1590 C.ar  1 <1>  -0.1500 
 15 C       -1.5140     4.3470     0.7790 C.3   1 <1>  -0.0170 
 16 C        2.2830     3.0230    -0.7970 C.ar  1 <1>  -0.1500 
 17 C        1.3960     0.7300    -1.2700 C.3   1 <1>  -0.0970 
 18 O       -6.0110    -0.2150    -1.6930 O.3   1 <1>  -0.6800 
 19 C       -7.0280    -1.5050    -0.0220 C.3   1 <1>  -0.1600 
 20 C       -7.2780     1.0070    -0.1310 C.3   1 <1>  -0.1600 
 21 C       -6.1520    -2.7540    -0.2580 C.3   1 <1>  -0.1600 
 22 C        2.1470     4.3200    -0.3410 C.ar  1 <1>  -0.1500 
 23 C       -1.5790     5.7820     1.3170 C.3   1 <1>  -0.2400 
 24 C       -6.7200     2.3940    -0.4960 C.3   1 <1>  -0.2400 
 25 H       -1.8630     1.9300    -0.9120 H     1 <1>   0.3700 
 26 H       -3.8570     1.6750    -0.1330 H     1 <1>   0.0800 
 27 H       -3.7390     0.3090    -1.2330 H     1 <1>   0.0800 
 28 H       -2.3410    -1.9400     1.0530 H     1 <1>   0.0800 
 29 H       -2.8140    -0.8650     2.3560 H     1 <1>   0.0800 
 30 H       -5.2290     0.5470     1.3650 H     1 <1>   0.0800 
 31 H       -4.9330    -1.6510     1.9640 H     1 <1>   0.0800 
 32 H       -4.1630    -2.2530    -0.8920 H     1 <1>   0.0800 
 33 H       -4.2090    -3.4270     0.3870 H     1 <1>   0.0800 
 34 H        0.8710     5.7670     0.5080 H     1 <1>   0.1500 
 35 H       -2.2590     4.2430     0.0100 H     1 <1>   0.0800 
 36 H       -1.7780     3.6780     1.5800 H     1 <1>   0.0800 
 37 H        3.2340     2.6970    -1.1780 H     1 <1>   0.1500 
 38 H        2.3420     0.6180    -1.7680 H     1 <1>   0.0800 
 39 H        0.6160     0.4760    -1.9640 H     1 <1>   0.0800 
 40 H        1.3630     0.0430    -0.4440 H     1 <1>   0.0800 
 41 H       -6.8220    -0.3990    -2.1980 H     1 <1>   0.4000 
 42 H       -7.3080    -1.4830     1.0170 H     1 <1>   0.0800 
 43 H       -7.9400    -1.5900    -0.5860 H     1 <1>   0.0800 
 44 H       -8.1710     0.8370    -0.7070 H     1 <1>   0.0800 
 45 H       -7.5770     1.0260     0.9020 H     1 <1>   0.0800 
 46 H       -6.5150    -3.5520     0.3670 H     1 <1>   0.0800 
 47 H       -6.2530    -3.0750    -1.2800 H     1 <1>   0.0800 
 48 H        2.9870     4.9910    -0.3730 H     1 <1>   0.1500 
 49 H       -1.3700     6.4880     0.5330 H     1 <1>   0.0800 
 50 H       -0.8710     5.9140     2.1160 H     1 <1>   0.0800 
 51 H       -2.5630     5.9830     1.7010 H     1 <1>   0.0800 
 52 H       -6.3630     2.4080    -1.5110 H     1 <1>   0.0800 
 53 H       -5.9150     2.6690     0.1610 H     1 <1>   0.0800 
 54 H       -7.4940     3.1350    -0.4000 H     1 <1>   0.0800 
@<TRIPOS>BOND
  1   1   2  2   
  2   2   3  am  
  3   2   4  am  
  4   3   5  1   
  5   3   6  1   
  6   4   7  1   
  7   4  25  1   
  8   5   8  1   
  9   5  26  1   
 10   5  27  1   
 11   6   9  1   
 12   6  28  1   
 13   6  29  1   
 14   7  10  ar  
 15   7  11  ar  
 16   8   9  1   
 17   8  12  1   
 18   8  30  1   
 19   9  13  1   
 20   9  31  1   
 21  10  14  ar  
 22  10  15  1   
 23  11  16  ar  
 24  11  17  1   
 25  12  18  1   
 26  12  19  1   
 27  12  20  1   
 28  13  21  1   
 29  13  32  1   
 30  13  33  1   
 31  14  22  ar  
 32  14  34  1   
 33  15  23  1   
 34  15  35  1   
 35  15  36  1   
 36  16  22  ar  
 37  16  37  1   
 38  17  38  1   
 39  17  39  1   
 40  17  40  1   
 41  18  41  1   
 42  19  21  1   
 43  19  42  1   
 44  19  43  1   
 45  20  24  1   
 46  20  44  1   
 47  20  45  1   
 48  21  46  1   
 49  21  47  1   
 50  22  48  1   
 51  23  49  1   
 52  23  50  1   
 53  23  51  1   
 54  24  52  1   
 55  24  53  1   
 56  24  54  1   
@<TRIPOS>SUBSTRUCTURE
  1 ****   3 GROUP 4 **** **** 0

# MOE 2024.06 (io_trps.svl 2023.06)
