@<TRIPOS>MOLECULE
NONAME
51 54 1 0 0 
SMALL
USER_CHARGES


@<TRIPOS>ATOM
  1 O        3.4430     0.2980     1.2490 O.3   1 <1>  -0.6800 
  2 C        2.6180    -0.0590     0.1820 C.3   1 <1>   0.2000 
  3 C        2.7890    -1.5330    -0.1760 C.3   1 <1>  -0.0800 
  4 C        3.0980     0.6340    -1.0900 C.3   1 <1>   0.1100 
  5 C        3.9990    -1.5580    -1.1180 C.3   1 <1>   0.1100 
  6 C        2.9090    -2.5100     1.0110 C.3   1 <1>  -0.0170 
  7 N        4.1820    -0.1930    -1.6450 N.3   1 <1>  -0.8100 
  8 C        3.0250    -3.9540     0.5330 C.ar  1 <1>  -0.1430 
  9 C        5.5410     0.3140    -1.3460 C.3   1 <1>   0.2900 
 10 C        1.9110    -4.6960     0.0700 C.ar  1 <1>   0.0000 
 11 C        4.2390    -4.5770     0.5330 C.ar  1 <1>  -0.1500 
 12 C        5.8180     1.7090    -1.9030 C.2   1 <1>   0.0060 
 13 C        2.1430    -6.0200    -0.3750 C.ar  1 <1>   0.3100 
 14 C        0.5850    -4.2050     0.0250 C.ar  1 <1>  -0.1500 
 15 C        4.3570    -5.8950     0.0790 C.ar  1 <1>   0.1600 
 16 N        6.1560     1.9410    -3.1280 N.2   1 <1>  -0.3380 
 17 N        5.7840     2.8410    -1.1840 N.pl3 1 <1>   0.0480 
 18 N        3.3680    -6.6030    -0.3640 N.ar  1 <1>  -0.6200 
 19 C        1.0600    -6.7760    -0.8530 C.ar  1 <1>  -0.1500 
 20 C       -0.4480    -4.9700    -0.4440 C.ar  1 <1>  -0.1500 
 21 N        6.3490     3.2550    -3.2450 N.2   1 <1>  -0.3380 
 22 C        6.1260     3.7650    -2.0850 C.2   1 <1>   0.0360 
 23 C        5.4910     3.0510     0.2590 C.3   1 <1>   0.1760 
 24 C       -0.2100    -6.2710    -0.8920 C.ar  1 <1>  -0.1500 
 25 C        4.4500     4.1610     0.4500 C.3   1 <1>  -0.2400 
 26 C        6.7850     3.3790     1.0130 C.3   1 <1>  -0.2400 
 27 H        3.1260    -0.1200     2.0720 H     1 <1>   0.4000 
 28 H        1.6030     0.2040     0.4280 H     1 <1>   0.0800 
 29 H        1.9380    -1.8170    -0.7690 H     1 <1>   0.0800 
 30 H        3.3820     1.6540    -0.9150 H     1 <1>   0.0800 
 31 H        2.2930     0.6350    -1.8040 H     1 <1>   0.0800 
 32 H        3.8310    -2.2440    -1.9310 H     1 <1>   0.0800 
 33 H        4.8770    -1.8760    -0.5820 H     1 <1>   0.0800 
 34 H        2.0590    -2.4110     1.6620 H     1 <1>   0.0800 
 35 H        3.7810    -2.2630     1.5910 H     1 <1>   0.0800 
 36 H        5.7100     0.2980    -0.2850 H     1 <1>   0.0800 
 37 H        6.2530    -0.3550    -1.7970 H     1 <1>   0.0800 
 38 H        5.1290    -4.0800     0.8740 H     1 <1>   0.1500 
 39 H        0.3770    -3.2100     0.3670 H     1 <1>   0.1500 
 40 H        5.3340    -6.3480     0.0960 H     1 <1>   0.1500 
 41 H        1.2670    -7.7750    -1.1890 H     1 <1>   0.1500 
 42 H       -1.4530    -4.5840    -0.4750 H     1 <1>   0.1500 
 43 H        6.2060     4.8100    -1.8540 H     1 <1>   0.1500 
 44 H        5.0860     2.1410     0.6590 H     1 <1>   0.0800 
 45 H       -1.0300    -6.8630    -1.2610 H     1 <1>   0.1500 
 46 H        4.8320     5.1120     0.1220 H     1 <1>   0.0800 
 47 H        4.1920     4.2420     1.4900 H     1 <1>   0.0800 
 48 H        3.5550     3.9300    -0.1000 H     1 <1>   0.0800 
 49 H        7.2130     4.2990     0.6560 H     1 <1>   0.0800 
 50 H        7.4990     2.5850     0.8850 H     1 <1>   0.0800 
 51 H        6.5810     3.4830     2.0630 H     1 <1>   0.0800 
@<TRIPOS>BOND
  1   1   2  1   
  2   1  27  1   
  3   2   3  1   
  4   2   4  1   
  5   2  28  1   
  6   3   5  1   
  7   3   6  1   
  8   3  29  1   
  9   4   7  1   
 10   4  30  1   
 11   4  31  1   
 12   5   7  1   
 13   5  32  1   
 14   5  33  1   
 15   6   8  1   
 16   6  34  1   
 17   6  35  1   
 18   7   9  1   
 19   8  10  ar  
 20   8  11  ar  
 21   9  12  1   
 22   9  36  1   
 23   9  37  1   
 24  10  13  ar  
 25  10  14  ar  
 26  11  15  ar  
 27  11  38  1   
 28  12  16  2   
 29  12  17  1   
 30  13  18  ar  
 31  13  19  ar  
 32  14  20  ar  
 33  14  39  1   
 34  15  18  ar  
 35  15  40  1   
 36  16  21  1   
 37  17  22  1   
 38  17  23  1   
 39  19  24  ar  
 40  19  41  1   
 41  20  24  ar  
 42  20  42  1   
 43  21  22  2   
 44  22  43  1   
 45  23  25  1   
 46  23  26  1   
 47  23  44  1   
 48  24  45  1   
 49  25  46  1   
 50  25  47  1   
 51  25  48  1   
 52  26  49  1   
 53  26  50  1   
 54  26  51  1   
@<TRIPOS>SUBSTRUCTURE
  1 ****   5 GROUP 4 **** **** 0

# MOE 2024.06 (io_trps.svl 2023.06)
