@<TRIPOS>MOLECULE
NONAME
47 48 1 0 0 
SMALL
USER_CHARGES


@<TRIPOS>ATOM
  1 O       -0.5250     0.6270    -1.6540 O.2   1 <1>  -0.5700 
  2 C       -1.4530     1.2790    -1.2060 C.2   1 <1>   0.7670 
  3 N       -2.5160     0.6290    -0.6430 N.2   1 <1>  -0.6610 
  4 C       -1.4210     2.6950    -1.2520 C.2   1 <1>  -0.1360 
  5 C       -3.4650     1.3420    -0.1620 C.2   1 <1>   0.4390 
  6 C       -2.4320     3.4210    -0.7210 C.2   1 <1>  -0.0380 
  7 N       -3.4700     2.7080    -0.1740 N.pl3 1 <1>  -0.5500 
  8 C       -4.6610     0.6680     0.4620 C.3   1 <1>  -0.1790 
  9 C       -2.4770     4.9480    -0.7020 C.3   1 <1>   0.2480 
 10 N       -1.1180     5.5220    -0.6090 N.3   1 <1>  -0.8100 
 11 C       -1.1150     6.9810    -0.8910 C.3   1 <1>   0.1100 
 12 C       -0.4960     5.2700     0.7190 C.3   1 <1>   0.1100 
 13 C        0.3120     7.6090    -0.8250 C.3   1 <1>   0.4230 
 14 C        0.9480     5.8200     0.7990 C.3   1 <1>   0.3430 
 15 N        1.3110     6.5470    -0.4650 N.4   1 <1>  -0.9590 
 16 C        0.3810     8.8110     0.1370 C.3   1 <1>  -0.1600 
 17 C        2.7330     6.9080    -0.6700 C.3   1 <1>   0.4230 
 18 C       -0.5020     9.9860    -0.3110 C.3   1 <1>  -0.2400 
 19 C        3.3840     5.7560    -1.4240 C.3   1 <1>  -0.2400 
 20 C        3.4730     7.1730     0.6430 C.3   1 <1>  -0.2400 
 21 H       -0.5650     3.1360    -1.7210 H     1 <1>   0.1500 
 22 H       -4.2860     3.1760     0.2290 H     1 <1>   0.4000 
 23 H       -4.7510     0.9570     1.4920 H     1 <1>   0.0800 
 24 H       -4.5470    -0.4000     0.4140 H     1 <1>   0.0800 
 25 H       -5.5550     0.9400    -0.0680 H     1 <1>   0.0800 
 26 H       -3.0690     5.2880     0.1310 H     1 <1>   0.0800 
 27 H       -2.9530     5.2800    -1.6100 H     1 <1>   0.0800 
 28 H       -1.7660     7.4760    -0.1910 H     1 <1>   0.0800 
 29 H       -1.5160     7.1560    -1.8750 H     1 <1>   0.0800 
 30 H       -0.4690     4.2120     0.9190 H     1 <1>   0.0800 
 31 H       -1.0890     5.7260     1.4940 H     1 <1>   0.0800 
 32 H        0.5470     7.9740    -1.8110 H     1 <1>   0.0800 
 33 H        1.6250     4.9960     0.9500 H     1 <1>   0.0800 
 34 H        1.0370     6.4780     1.6470 H     1 <1>   0.0800 
 35 H        1.0930     5.8320    -1.1750 H     1 <1>   0.4500 
 36 H        1.3890     9.1790     0.1780 H     1 <1>   0.0800 
 37 H        0.0870     8.5130     1.1280 H     1 <1>   0.0800 
 38 H        2.7880     7.7930    -1.2860 H     1 <1>   0.0800 
 39 H       -0.2370    10.3080    -1.3040 H     1 <1>   0.0800 
 40 H       -0.3610    10.8200     0.3560 H     1 <1>   0.0800 
 41 H       -1.5470     9.7320    -0.2970 H     1 <1>   0.0800 
 42 H        3.3490     4.8460    -0.8530 H     1 <1>   0.0800 
 43 H        4.4170     5.9890    -1.6160 H     1 <1>   0.0800 
 44 H        2.9030     5.6030    -2.3740 H     1 <1>   0.0800 
 45 H        3.5860     6.2750     1.2240 H     1 <1>   0.0800 
 46 H        2.9770     7.9220     1.2310 H     1 <1>   0.0800 
 47 H        4.4610     7.5370     0.4210 H     1 <1>   0.0800 
@<TRIPOS>BOND
  1   1   2  2   
  2   2   3  1   
  3   2   4  1   
  4   3   5  2   
  5   4   6  2   
  6   4  21  1   
  7   5   7  1   
  8   5   8  1   
  9   6   7  1   
 10   6   9  1   
 11   7  22  1   
 12   8  23  1   
 13   8  24  1   
 14   8  25  1   
 15   9  10  1   
 16   9  26  1   
 17   9  27  1   
 18  10  11  1   
 19  10  12  1   
 20  11  13  1   
 21  11  28  1   
 22  11  29  1   
 23  12  14  1   
 24  12  30  1   
 25  12  31  1   
 26  13  15  1   
 27  13  16  1   
 28  13  32  1   
 29  14  15  1   
 30  14  33  1   
 31  14  34  1   
 32  15  17  1   
 33  15  35  1   
 34  16  18  1   
 35  16  36  1   
 36  16  37  1   
 37  17  19  1   
 38  17  20  1   
 39  17  38  1   
 40  18  39  1   
 41  18  40  1   
 42  18  41  1   
 43  19  42  1   
 44  19  43  1   
 45  19  44  1   
 46  20  45  1   
 47  20  46  1   
 48  20  47  1   
@<TRIPOS>SUBSTRUCTURE
  1 ****  10 GROUP 4 **** **** 0

# MOE 2024.06 (io_trps.svl 2023.06)
