@<TRIPOS>MOLECULE
NONAME
43 44 1 0 0 
SMALL
USER_CHARGES


@<TRIPOS>ATOM
  1 S       -0.8750    -0.1580    -0.3290 S.3   1 <1>  -0.0800 
  2 C       -0.8940    -1.4920     0.7770 C.2   1 <1>   0.4420 
  3 C       -0.2570     0.8110     0.9660 C.2   1 <1>   0.1980 
  4 N       -0.4760    -1.1610     1.9440 N.2   1 <1>  -0.3380 
  5 N       -1.3380    -2.6960     0.2780 N.am  1 <1>  -0.4940 
  6 N       -0.1150     0.1560     2.0450 N.2   1 <1>  -0.3380 
  7 C        0.0330     2.2750     0.6970 C.3   1 <1>   0.0200 
  8 C       -1.5340    -3.8960     0.9020 C.2   1 <1>   0.5690 
  9 C        1.2830     2.4530    -0.1770 C.3   1 <1>  -0.1600 
 10 O       -1.3500    -4.0650     2.0840 O.2   1 <1>  -0.5700 
 11 C       -2.0170    -5.0660     0.0180 C.3   1 <1>   0.2810 
 12 C        1.5890     3.9360    -0.4260 C.3   1 <1>  -0.1600 
 13 N       -3.3500    -4.7780    -0.6070 N.am  1 <1>  -0.6600 
 14 C       -2.0400    -6.4310     0.7250 C.3   1 <1>  -0.2400 
 15 C        2.8370     4.1010    -1.3010 C.3   1 <1>  -0.1600 
 16 C       -3.5140    -3.9130    -1.6290 C.2   1 <1>   0.5690 
 17 C       -4.6310    -5.1410     0.0300 C.3   1 <1>   0.1400 
 18 C        3.1420     5.5800    -1.5520 C.3   1 <1>  -0.2400 
 19 O       -2.6150    -3.3250    -2.1820 O.2   1 <1>  -0.5700 
 20 C       -4.9690    -3.6870    -1.9300 C.3   1 <1>  -0.0990 
 21 C       -5.6980    -4.6110    -0.9390 C.3   1 <1>  -0.1600 
 22 H       -1.6190    -2.6850    -0.7100 H     1 <1>   0.3700 
 23 H        0.1800     2.7710     1.6400 H     1 <1>   0.0800 
 24 H       -0.8210     2.7180     0.2170 H     1 <1>   0.0800 
 25 H        1.1350     1.9550    -1.1200 H     1 <1>   0.0800 
 26 H        2.1220     1.9910     0.3160 H     1 <1>   0.0800 
 27 H       -1.3040    -5.1470    -0.7840 H     1 <1>   0.0800 
 28 H        1.7460     4.4350     0.5150 H     1 <1>   0.0800 
 29 H        0.7490     4.4000    -0.9150 H     1 <1>   0.0800 
 30 H       -2.6840    -6.4040     1.5850 H     1 <1>   0.0800 
 31 H       -1.0480    -6.6710     1.0650 H     1 <1>   0.0800 
 32 H       -2.3620    -7.2000     0.0470 H     1 <1>   0.0800 
 33 H        2.6870     3.6050    -2.2450 H     1 <1>   0.0800 
 34 H        3.6830     3.6440    -0.8150 H     1 <1>   0.0800 
 35 H       -4.7050    -4.6570     0.9910 H     1 <1>   0.0800 
 36 H       -4.7160    -6.2080     0.1480 H     1 <1>   0.0800 
 37 H        2.3190     6.0540    -2.0580 H     1 <1>   0.0800 
 38 H        4.0200     5.6750    -2.1660 H     1 <1>   0.0800 
 39 H        3.3180     6.0920    -0.6220 H     1 <1>   0.0800 
 40 H       -5.1840    -3.9450    -2.9500 H     1 <1>   0.0800 
 41 H       -5.2110    -2.6550    -1.7510 H     1 <1>   0.0800 
 42 H       -6.4770    -4.0920    -0.4080 H     1 <1>   0.0800 
 43 H       -6.1360    -5.4390    -1.4670 H     1 <1>   0.0800 
@<TRIPOS>BOND
  1   1   2  1   
  2   1   3  1   
  3   2   4  2   
  4   2   5  1   
  5   3   6  2   
  6   3   7  1   
  7   4   6  1   
  8   5   8  am  
  9   5  22  1   
 10   7   9  1   
 11   7  23  1   
 12   7  24  1   
 13   8  10  2   
 14   8  11  1   
 15   9  12  1   
 16   9  25  1   
 17   9  26  1   
 18  11  13  1   
 19  11  14  1   
 20  11  27  1   
 21  12  15  1   
 22  12  28  1   
 23  12  29  1   
 24  13  16  am  
 25  13  17  1   
 26  14  30  1   
 27  14  31  1   
 28  14  32  1   
 29  15  18  1   
 30  15  33  1   
 31  15  34  1   
 32  16  19  2   
 33  16  20  1   
 34  17  21  1   
 35  17  35  1   
 36  17  36  1   
 37  18  37  1   
 38  18  38  1   
 39  18  39  1   
 40  20  21  1   
 41  20  40  1   
 42  20  41  1   
 43  21  42  1   
 44  21  43  1   
@<TRIPOS>SUBSTRUCTURE
  1 ****   2 GROUP 4 **** **** 0

# MOE 2024.06 (io_trps.svl 2023.06)
