@<TRIPOS>MOLECULE
NONAME
50 54 1 0 0 
SMALL
USER_CHARGES


@<TRIPOS>ATOM
  1 O       -0.2320     0.0710     1.2690 O.2   1 <1>  -0.5700 
  2 C       -1.2610     0.6900     1.0710 C.2   1 <1>   0.7150 
  3 N       -2.3690     0.0100     0.6280 N.am  1 <1>  -0.6600 
  4 C       -1.3120     2.1060     1.2940 C.2   1 <1>  -0.2370 
  5 C       -3.5680     0.6540     0.0390 C.3   1 <1>   0.1400 
  6 C       -2.3490    -1.4420     0.3280 C.3   1 <1>   0.1400 
  7 N       -0.3690     2.9640     0.7970 N.pl3 1 <1>   0.2940 
  8 C       -2.2300     2.8490     1.9940 C.2   1 <1>  -0.1500 
  9 C       -4.2430    -0.4470    -0.7790 C.3   1 <1>   0.2000 
 10 C       -3.7580    -1.7630    -0.1740 C.3   1 <1>  -0.0800 
 11 C       -0.7030     4.2190     1.1870 C.2   1 <1>  -0.3020 
 12 C        0.7960     2.6140    -0.0510 C.3   1 <1>  -0.0910 
 13 C       -1.8440     4.1840     1.9250 C.2   1 <1>  -0.1500 
 14 O       -5.6250    -0.3670    -0.6990 O.3   1 <1>  -0.6800 
 15 C       -3.8130    -2.9310    -1.1730 C.3   1 <1>  -0.0170 
 16 C        1.1610     3.4600    -1.2360 C.3   1 <1>  -0.2000 
 17 C        0.5550     2.1070    -1.4420 C.3   1 <1>  -0.2000 
 18 C       -3.3420    -4.2260    -0.5350 C.ar  1 <1>   0.1670 
 19 N       -2.0720    -4.4860    -0.5770 N.ar  1 <1>  -0.6200 
 20 C       -4.2890    -5.0690     0.0710 C.ar  1 <1>  -0.1500 
 21 C       -1.6410    -5.6350     0.0040 C.ar  1 <1>   0.3100 
 22 C       -3.8850    -6.2290     0.6590 C.ar  1 <1>  -0.1500 
 23 C       -2.5160    -6.5430     0.6380 C.ar  1 <1>   0.0000 
 24 C       -0.2690    -5.9360    -0.0210 C.ar  1 <1>  -0.1500 
 25 C       -1.9860    -7.7130     1.2190 C.ar  1 <1>  -0.1500 
 26 C        0.2260    -7.0780     0.5500 C.ar  1 <1>  -0.1500 
 27 C       -0.6440    -7.9760     1.1760 C.ar  1 <1>  -0.1500 
 28 H       -4.2110     0.9920     0.8320 H     1 <1>   0.0800 
 29 H       -3.2850     1.4800    -0.5890 H     1 <1>   0.0800 
 30 H       -1.6130    -1.6340    -0.4350 H     1 <1>   0.0800 
 31 H       -2.1000    -2.0130     1.2070 H     1 <1>   0.0800 
 32 H       -3.0950     2.4820     2.5190 H     1 <1>   0.1500 
 33 H       -3.9550    -0.3600    -1.8130 H     1 <1>   0.0800 
 34 H       -4.3540    -2.0030     0.6890 H     1 <1>   0.0800 
 35 H       -0.1100     5.0750     0.9190 H     1 <1>   0.1500 
 36 H        1.5780     2.1490     0.5250 H     1 <1>   0.1000 
 37 H       -2.3620     5.0120     2.3790 H     1 <1>   0.1500 
 38 H       -5.9180    -0.4600     0.2280 H     1 <1>   0.4000 
 39 H       -3.1930    -2.7150    -2.0250 H     1 <1>   0.0800 
 40 H       -4.8210    -3.0520    -1.5290 H     1 <1>   0.0800 
 41 H        0.5680     4.3270    -1.4690 H     1 <1>   0.1000 
 42 H        2.2000     3.5910    -1.4800 H     1 <1>   0.1000 
 43 H        1.1810     1.3130    -1.8120 H     1 <1>   0.1000 
 44 H       -0.4560     2.0390    -1.8030 H     1 <1>   0.1000 
 45 H       -5.3250    -4.7860     0.0650 H     1 <1>   0.1500 
 46 H       -4.5790    -6.8990     1.1320 H     1 <1>   0.1500 
 47 H        0.3820    -5.2320    -0.5060 H     1 <1>   0.1500 
 48 H       -2.6600    -8.3990     1.7000 H     1 <1>   0.1500 
 49 H        1.2800    -7.2960     0.5230 H     1 <1>   0.1500 
 50 H       -0.2410    -8.8700     1.6210 H     1 <1>   0.1500 
@<TRIPOS>BOND
  1   1   2  2   
  2   2   3  am  
  3   2   4  1   
  4   3   5  1   
  5   3   6  1   
  6   4   7  1   
  7   4   8  2   
  8   5   9  1   
  9   5  28  1   
 10   5  29  1   
 11   6  10  1   
 12   6  30  1   
 13   6  31  1   
 14   7  11  1   
 15   7  12  1   
 16   8  13  1   
 17   8  32  1   
 18   9  10  1   
 19   9  14  1   
 20   9  33  1   
 21  10  15  1   
 22  10  34  1   
 23  11  13  2   
 24  11  35  1   
 25  12  16  1   
 26  12  17  1   
 27  12  36  1   
 28  13  37  1   
 29  14  38  1   
 30  15  18  1   
 31  15  39  1   
 32  15  40  1   
 33  16  17  1   
 34  16  41  1   
 35  16  42  1   
 36  17  43  1   
 37  17  44  1   
 38  18  19  ar  
 39  18  20  ar  
 40  19  21  ar  
 41  20  22  ar  
 42  20  45  1   
 43  21  23  ar  
 44  21  24  ar  
 45  22  23  ar  
 46  22  46  1   
 47  23  25  ar  
 48  24  26  ar  
 49  24  47  1   
 50  25  27  ar  
 51  25  48  1   
 52  26  27  ar  
 53  26  49  1   
 54  27  50  1   
@<TRIPOS>SUBSTRUCTURE
  1 ****   6 GROUP 4 **** **** 0

# MOE 2024.06 (io_trps.svl 2023.06)
