@<TRIPOS>MOLECULE
NONAME
51 55 1 0 0 
SMALL
USER_CHARGES


@<TRIPOS>ATOM
  1 S       -0.6940    -0.0430     0.7720 S.o2  1 <1>   1.3330 
  2 O       -1.4990    -0.6660     1.7990 O.2   1 <1>  -0.6500 
  3 O        0.1310     1.0970     1.0930 O.2   1 <1>  -0.6500 
  4 N       -1.7150     0.3830    -0.5120 N.am  1 <1>  -0.8490 
  5 C        0.3540    -1.2760     0.0300 C.3   1 <1>  -0.1350 
  6 C       -2.8450    -0.5550    -0.6910 C.3   1 <1>   0.1960 
  7 C       -2.3480     1.6930    -0.3110 C.3   1 <1>   0.1960 
  8 C       -4.0720     0.0970    -0.0430 C.3   1 <1>   0.2800 
  9 C       -3.6000     1.4240     0.5290 C.3   1 <1>  -0.0800 
 10 O       -5.0020     0.5190    -0.9770 O.3   1 <1>  -0.5600 
 11 C       -4.9570    -0.6570     0.9470 C.3   1 <1>  -0.1600 
 12 C       -4.8670     2.2940     0.3830 C.3   1 <1>  -0.0800 
 13 C       -5.8470     1.2500    -0.1730 C.3   1 <1>   0.2000 
 14 C       -6.2250     0.2040     0.8890 C.3   1 <1>  -0.1600 
 15 C       -4.7160     3.5000    -0.5560 C.3   1 <1>   0.1400 
 16 N       -5.9910     4.2510    -0.6340 N.am  1 <1>  -0.7300 
 17 C       -6.3890     5.2010     0.2670 C.2   1 <1>   0.5440 
 18 O       -5.6550     5.4580     1.2000 O.2   1 <1>  -0.5700 
 19 C       -7.6490     5.8960     0.1130 C.ar  1 <1>   0.0860 
 20 C       -8.7470     5.2600    -0.5060 C.ar  1 <1>   0.1600 
 21 C       -7.8420     7.1790     0.5570 C.ar  1 <1>  -0.1500 
 22 N       -9.9120     5.7940    -0.7130 N.ar  1 <1>  -0.6200 
 23 C       -9.0840     7.8030     0.3640 C.ar  1 <1>   0.0000 
 24 C      -10.1000     7.0690    -0.2860 C.ar  1 <1>   0.3100 
 25 C       -9.3560     9.1200     0.7860 C.ar  1 <1>  -0.1500 
 26 C      -11.3440     7.6840    -0.4920 C.ar  1 <1>  -0.1500 
 27 C      -10.5810     9.6910     0.5710 C.ar  1 <1>  -0.1500 
 28 C      -11.5880     8.9660    -0.0760 C.ar  1 <1>  -0.1500 
 29 H       -0.2290    -2.1100    -0.3050 H     1 <1>   0.0800 
 30 H        1.0740    -1.6220     0.7450 H     1 <1>   0.0800 
 31 H        0.8740    -0.8560    -0.8080 H     1 <1>   0.0800 
 32 H       -3.0330    -0.6960    -1.7410 H     1 <1>   0.0800 
 33 H       -2.6390    -1.5120    -0.2440 H     1 <1>   0.0800 
 34 H       -1.6910     2.4040     0.1600 H     1 <1>   0.0800 
 35 H       -2.6190     2.0710    -1.2810 H     1 <1>   0.0800 
 36 H       -3.3190     1.3220     1.5630 H     1 <1>   0.0800 
 37 H       -5.1470    -1.6550     0.5920 H     1 <1>   0.0800 
 38 H       -4.5170    -0.6980     1.9280 H     1 <1>   0.0800 
 39 H       -5.1910     2.6460     1.3470 H     1 <1>   0.0800 
 40 H       -6.6790     1.6440    -0.7310 H     1 <1>   0.0800 
 41 H       -6.4580     0.6630     1.8330 H     1 <1>   0.0800 
 42 H       -7.0670    -0.3740     0.5540 H     1 <1>   0.0800 
 43 H       -4.4450     3.1740    -1.5460 H     1 <1>   0.0800 
 44 H       -3.9430     4.1520    -0.1840 H     1 <1>   0.0800 
 45 H       -6.5070     4.1330    -1.5070 H     1 <1>   0.3700 
 46 H       -8.6120     4.2440    -0.8290 H     1 <1>   0.1500 
 47 H       -7.0490     7.7130     1.0520 H     1 <1>   0.1500 
 48 H       -8.5790     9.6730     1.2840 H     1 <1>   0.1500 
 49 H      -12.1050     7.1110    -0.9900 H     1 <1>   0.1500 
 50 H      -10.7860    10.6970     0.8940 H     1 <1>   0.1500 
 51 H      -12.5470     9.4270    -0.2400 H     1 <1>   0.1500 
@<TRIPOS>BOND
  1   1   2  2   
  2   1   3  2   
  3   1   4  am  
  4   1   5  1   
  5   4   6  1   
  6   4   7  1   
  7   5  29  1   
  8   5  30  1   
  9   5  31  1   
 10   6   8  1   
 11   6  32  1   
 12   6  33  1   
 13   7   9  1   
 14   7  34  1   
 15   7  35  1   
 16   8   9  1   
 17   8  10  1   
 18   8  11  1   
 19   9  12  1   
 20   9  36  1   
 21  10  13  1   
 22  11  14  1   
 23  11  37  1   
 24  11  38  1   
 25  12  13  1   
 26  12  15  1   
 27  12  39  1   
 28  13  14  1   
 29  13  40  1   
 30  14  41  1   
 31  14  42  1   
 32  15  16  1   
 33  15  43  1   
 34  15  44  1   
 35  16  17  am  
 36  16  45  1   
 37  17  18  2   
 38  17  19  1   
 39  19  20  ar  
 40  19  21  ar  
 41  20  22  ar  
 42  20  46  1   
 43  21  23  ar  
 44  21  47  1   
 45  22  24  ar  
 46  23  24  ar  
 47  23  25  ar  
 48  24  26  ar  
 49  25  27  ar  
 50  25  48  1   
 51  26  28  ar  
 52  26  49  1   
 53  27  28  ar  
 54  27  50  1   
 55  28  51  1   
@<TRIPOS>SUBSTRUCTURE
  1 ****  16 GROUP 4 **** **** 0

# MOE 2024.06 (io_trps.svl 2023.06)
