@<TRIPOS>MOLECULE
NONAME
46 48 1 0 0 
SMALL
USER_CHARGES


@<TRIPOS>ATOM
  1 S        0.8290    -0.3650     2.2050 S.o2  1 <1>   1.4470 
  2 O        0.3130     0.5300     3.2130 O.2   1 <1>  -0.6500 
  3 O        1.9280    -1.2450     2.5380 O.2   1 <1>  -0.6500 
  4 N       -0.4580    -1.3740     1.8350 N.am  1 <1>  -0.9140 
  5 C        1.1470     0.4890     0.6270 C.ar  1 <1>  -0.0090 
  6 C       -0.0900    -2.5840     1.1130 C.3   1 <1>   0.2760 
  7 C        0.2530     1.3950     0.0460 C.ar  1 <1>  -0.1430 
  8 C        2.3250     0.2150    -0.0600 C.ar  1 <1>  -0.1500 
  9 C       -1.2980    -3.1280     0.3640 C.3   1 <1>  -0.0800 
 10 C        0.1550    -3.7270     2.0960 C.3   1 <1>   0.1200 
 11 C        0.5460     1.9800    -1.1770 C.ar  1 <1>  -0.1500 
 12 C       -1.0570     1.7780     0.7240 C.3   1 <1>  -0.0970 
 13 C        2.6130     0.8010    -1.2790 C.ar  1 <1>  -0.1500 
 14 C       -2.0280    -3.9460     1.4350 C.3   1 <1>   0.1200 
 15 C       -2.1770    -2.0760    -0.3400 C.3   1 <1>  -0.0170 
 16 O       -1.1180    -4.1510     2.4770 O.3   1 <1>  -0.5600 
 17 C        1.7200     1.6870    -1.8470 C.ar  1 <1>  -0.1430 
 18 C       -3.2810    -2.7430    -1.1410 C.ar  1 <1>  -0.1430 
 19 C        2.0220     2.3420    -3.1830 C.3   1 <1>  -0.0970 
 20 C       -4.5630    -2.8790    -0.6470 C.ar  1 <1>  -0.1500 
 21 C       -3.0570    -3.2470    -2.4060 C.ar  1 <1>  -0.1500 
 22 C       -5.5300    -3.5020    -1.4180 C.ar  1 <1>   0.1600 
 23 C       -4.0950    -3.8520    -3.0950 C.ar  1 <1>   0.1600 
 24 N       -5.3250    -3.9940    -2.6290 N.ar  1 <1>  -0.6200 
 25 H       -0.8130    -1.6850     2.7400 H     1 <1>   0.4200 
 26 H        0.7460    -2.4130     0.4530 H     1 <1>   0.0800 
 27 H        3.0390    -0.4720     0.3630 H     1 <1>   0.1500 
 28 H       -0.9410    -3.8190    -0.3800 H     1 <1>   0.0800 
 29 H        0.7160    -3.4350     2.9660 H     1 <1>   0.0800 
 30 H        0.6460    -4.5510     1.6080 H     1 <1>   0.0800 
 31 H       -0.1450     2.6780    -1.6180 H     1 <1>   0.1500 
 32 H       -1.6470     2.4210     0.0960 H     1 <1>   0.0800 
 33 H       -0.8580     2.3030     1.6420 H     1 <1>   0.0800 
 34 H       -1.6430     0.9050     0.9440 H     1 <1>   0.0800 
 35 H        3.5370     0.5650    -1.7790 H     1 <1>   0.1500 
 36 H       -2.3520    -4.9010     1.0570 H     1 <1>   0.0800 
 37 H       -2.8690    -3.4100     1.8400 H     1 <1>   0.0800 
 38 H       -1.5680    -1.4800    -0.9980 H     1 <1>   0.0800 
 39 H       -2.6160    -1.4100     0.3820 H     1 <1>   0.0800 
 40 H        2.7350     1.7610    -3.7390 H     1 <1>   0.0800 
 41 H        2.4290     3.3250    -3.0210 H     1 <1>   0.0800 
 42 H        1.1250     2.4300    -3.7680 H     1 <1>   0.0800 
 43 H       -4.8200    -2.5080     0.3280 H     1 <1>   0.1500 
 44 H       -2.0870    -3.1750    -2.8630 H     1 <1>   0.1500 
 45 H       -6.5250    -3.6010    -1.0190 H     1 <1>   0.1500 
 46 H       -3.9040    -4.2400    -4.0810 H     1 <1>   0.1500 
@<TRIPOS>BOND
  1   1   2  2   
  2   1   3  2   
  3   1   4  am  
  4   1   5  1   
  5   4   6  1   
  6   4  25  1   
  7   5   7  ar  
  8   5   8  ar  
  9   6   9  1   
 10   6  10  1   
 11   6  26  1   
 12   7  11  ar  
 13   7  12  1   
 14   8  13  ar  
 15   8  27  1   
 16   9  14  1   
 17   9  15  1   
 18   9  28  1   
 19  10  16  1   
 20  10  29  1   
 21  10  30  1   
 22  11  17  ar  
 23  11  31  1   
 24  12  32  1   
 25  12  33  1   
 26  12  34  1   
 27  13  17  ar  
 28  13  35  1   
 29  14  16  1   
 30  14  36  1   
 31  14  37  1   
 32  15  18  1   
 33  15  38  1   
 34  15  39  1   
 35  17  19  1   
 36  18  20  ar  
 37  18  21  ar  
 38  19  40  1   
 39  19  41  1   
 40  19  42  1   
 41  20  22  ar  
 42  20  43  1   
 43  21  23  ar  
 44  21  44  1   
 45  22  24  ar  
 46  22  45  1   
 47  23  24  ar  
 48  23  46  1   
@<TRIPOS>SUBSTRUCTURE
  1 ****  15 GROUP 4 **** **** 0

# MOE 2024.06 (io_trps.svl 2023.06)
