@<TRIPOS>MOLECULE
NONAME
57 59 1 0 0 
SMALL
USER_CHARGES


@<TRIPOS>ATOM
  1 O       -1.6380     0.8640    -1.3300 O.2   1 <1>  -0.5700 
  2 C       -1.7880     0.9780    -0.1390 C.2   1 <1>   0.5690 
  3 N       -2.0940    -0.0770     0.6510 N.am  1 <1>  -0.7300 
  4 C       -1.6290     2.3530     0.4840 C.3   1 <1>  -0.0990 
  5 C       -2.2680    -1.4670     0.1700 C.3   1 <1>   0.2200 
  6 C       -0.3050     3.0200     0.0630 C.3   1 <1>  -0.1600 
  7 C       -3.7490    -1.8120     0.1600 C.3   1 <1>  -0.0800 
  8 C       -1.7380    -2.4350     1.2200 C.3   1 <1>   0.1200 
  9 C       -0.2000     4.4530     0.5880 C.3   1 <1>   0.3430 
 10 C       -3.9970    -2.2600     1.6070 C.3   1 <1>   0.1200 
 11 C       -4.0610    -2.9250    -0.8590 C.3   1 <1>  -0.0170 
 12 O       -2.7490    -2.5380     2.1750 O.3   1 <1>  -0.5600 
 13 N        1.0810     5.0650     0.1420 N.4   1 <1>  -0.9590 
 14 C       -5.5440    -3.2610    -0.8830 C.ar  1 <1>  -0.1440 
 15 C        1.4090     6.2730     0.9460 C.3   1 <1>   0.3430 
 16 C        1.0710     5.4070    -1.3060 C.3   1 <1>   0.3430 
 17 C       -6.0470    -4.4140    -0.3140 C.ar  1 <1>  -0.1500 
 18 C       -6.4660    -2.4260    -1.4820 C.ar  1 <1>  -0.1500 
 19 C        2.9210     6.5210     0.9790 C.3   1 <1>  -0.1600 
 20 C        2.3920     4.9950    -1.9550 C.3   1 <1>  -0.1600 
 21 C       -7.4080    -4.6650    -0.3640 C.ar  1 <1>   0.1600 
 22 C       -7.8070    -2.7710    -1.4770 C.ar  1 <1>   0.1600 
 23 C        3.6220     6.6420    -0.3870 C.3   1 <1>  -0.1600 
 24 C        3.6710     5.3140    -1.1590 C.3   1 <1>  -0.1600 
 25 N       -8.3010    -3.8700    -0.9300 N.ar  1 <1>  -0.6200 
 26 H       -2.2580     0.0300     1.6550 H     1 <1>   0.3700 
 27 H       -2.4610     2.9510     0.1560 H     1 <1>   0.0800 
 28 H       -1.6770     2.2690     1.5540 H     1 <1>   0.0800 
 29 H       -1.7920    -1.5990    -0.7870 H     1 <1>   0.0800 
 30 H       -0.2560     3.0200    -1.0120 H     1 <1>   0.0800 
 31 H        0.5130     2.4300     0.4400 H     1 <1>   0.0800 
 32 H       -4.3460    -0.9500    -0.0820 H     1 <1>   0.0800 
 33 H       -0.8310    -2.0910     1.6860 H     1 <1>   0.0800 
 34 H       -1.5820    -3.4120     0.7980 H     1 <1>   0.0800 
 35 H       -0.2360     4.4310     1.6660 H     1 <1>   0.0800 
 36 H       -1.0320     5.0390     0.2330 H     1 <1>   0.0800 
 37 H       -4.6110    -3.1410     1.6750 H     1 <1>   0.0800 
 38 H       -4.4470    -1.4690     2.1820 H     1 <1>   0.0800 
 39 H       -3.4950    -3.8110    -0.6300 H     1 <1>   0.0800 
 40 H       -3.7670    -2.6000    -1.8420 H     1 <1>   0.0800 
 41 H        1.8400     4.3850     0.2840 H     1 <1>   0.4500 
 42 H        0.9070     7.1340     0.5360 H     1 <1>   0.0800 
 43 H        1.0670     6.1400     1.9600 H     1 <1>   0.0800 
 44 H        0.2610     4.9060    -1.8110 H     1 <1>   0.0800 
 45 H        0.9280     6.4690    -1.4280 H     1 <1>   0.0800 
 46 H       -5.3960    -5.1190     0.1690 H     1 <1>   0.1500 
 47 H       -6.1550    -1.5120    -1.9530 H     1 <1>   0.1500 
 48 H        3.0820     7.4400     1.5150 H     1 <1>   0.0800 
 49 H        3.3920     5.7460     1.5580 H     1 <1>   0.0800 
 50 H        2.3660     3.9410    -2.1710 H     1 <1>   0.0800 
 51 H        2.4480     5.4980    -2.9050 H     1 <1>   0.0800 
 52 H       -7.7820    -5.5690     0.0870 H     1 <1>   0.1500 
 53 H       -8.5120    -2.1070    -1.9490 H     1 <1>   0.1500 
 54 H        3.1700     7.4150    -0.9860 H     1 <1>   0.0800 
 55 H        4.6390     6.9500    -0.2020 H     1 <1>   0.0800 
 56 H        3.8940     4.5100    -0.4780 H     1 <1>   0.0800 
 57 H        4.4910     5.3540    -1.8580 H     1 <1>   0.0800 
@<TRIPOS>BOND
  1   1   2  2   
  2   2   3  am  
  3   2   4  1   
  4   3   5  1   
  5   3  26  1   
  6   4   6  1   
  7   4  27  1   
  8   4  28  1   
  9   5   7  1   
 10   5   8  1   
 11   5  29  1   
 12   6   9  1   
 13   6  30  1   
 14   6  31  1   
 15   7  10  1   
 16   7  11  1   
 17   7  32  1   
 18   8  12  1   
 19   8  33  1   
 20   8  34  1   
 21   9  13  1   
 22   9  35  1   
 23   9  36  1   
 24  10  12  1   
 25  10  37  1   
 26  10  38  1   
 27  11  14  1   
 28  11  39  1   
 29  11  40  1   
 30  13  15  1   
 31  13  16  1   
 32  13  41  1   
 33  14  17  ar  
 34  14  18  ar  
 35  15  19  1   
 36  15  42  1   
 37  15  43  1   
 38  16  20  1   
 39  16  44  1   
 40  16  45  1   
 41  17  21  ar  
 42  17  46  1   
 43  18  22  ar  
 44  18  47  1   
 45  19  23  1   
 46  19  48  1   
 47  19  49  1   
 48  20  24  1   
 49  20  50  1   
 50  20  51  1   
 51  21  25  ar  
 52  21  52  1   
 53  22  25  ar  
 54  22  53  1   
 55  23  24  1   
 56  23  54  1   
 57  23  55  1   
 58  24  56  1   
 59  24  57  1   
@<TRIPOS>SUBSTRUCTURE
  1 ****   2 GROUP 4 **** **** 0

# MOE 2024.06 (io_trps.svl 2023.06)
