@<TRIPOS>MOLECULE
NONAME
22 22 1 0 0 
SMALL
USER_CHARGES


@<TRIPOS>ATOM
  1 O        4.2460    -0.6110     0.0280 O.3   1 <1>  -0.5600 
  2 C        5.3730    -0.0950    -0.6130 C.3   1 <1>   0.2000 
  3 C        4.4110    -1.9770     0.2670 C.3   1 <1>   0.1200 
  4 C        6.5360    -0.8800    -0.0250 C.3   1 <1>  -0.1600 
  5 C        5.4350     1.4250    -0.3710 C.3   1 <1>   0.3430 
  6 C        5.9160    -2.2410     0.2450 C.3   1 <1>  -0.1600 
  7 N        4.0470     1.9650    -0.2930 N.4   1 <1>  -0.9060 
  8 C        3.9310     3.2580     0.4390 C.3   1 <1>   0.2630 
  9 H        5.2750    -0.3090    -1.6650 H     1 <1>   0.0800 
 10 H        3.9060    -2.5250    -0.5110 H     1 <1>   0.0800 
 11 H        3.9740    -2.2140     1.2230 H     1 <1>   0.0800 
 12 H        6.8590    -0.4370     0.9020 H     1 <1>   0.0800 
 13 H        7.3720    -0.9390    -0.7010 H     1 <1>   0.0800 
 14 H        6.0010     1.9100    -1.1500 H     1 <1>   0.0800 
 15 H        5.9390     1.5950     0.5660 H     1 <1>   0.0800 
 16 H        6.1460    -2.9350    -0.5450 H     1 <1>   0.0800 
 17 H        6.2540    -2.6580     1.1790 H     1 <1>   0.0800 
 18 H        3.5210     1.2090     0.1890 H     1 <1>   0.4500 
 19 H        3.6330     2.0170    -1.2310 H     1 <1>   0.4500 
 20 H        4.3160     3.1560     1.4410 H     1 <1>   0.0800 
 21 H        2.8970     3.5590     0.4990 H     1 <1>   0.0800 
 22 H        4.4860     4.0290    -0.0710 H     1 <1>   0.0800 
@<TRIPOS>BOND
  1   1   2  1   
  2   1   3  1   
  3   2   4  1   
  4   2   5  1   
  5   2   9  1   
  6   3   6  1   
  7   3  10  1   
  8   3  11  1   
  9   4   6  1   
 10   4  12  1   
 11   4  13  1   
 12   5   7  1   
 13   5  14  1   
 14   5  15  1   
 15   6  16  1   
 16   6  17  1   
 17   7   8  1   
 18   7  18  1   
 19   7  19  1   
 20   8  20  1   
 21   8  21  1   
 22   8  22  1   
@<TRIPOS>SUBSTRUCTURE
  1 ****   2 GROUP 4 **** **** 0

# MOE 2024.06 (io_trps.svl 2023.06)
