@<TRIPOS>MOLECULE
NONAME
51 55 1 0 0 
SMALL
USER_CHARGES


@<TRIPOS>ATOM
  1 O        0.5610     2.1250    -1.9860 O.2   1 <1>  -0.5700 
  2 C       -0.0790     3.1090    -1.6980 C.2   1 <1>   0.5690 
  3 N       -0.4470     3.4300    -0.4200 N.am  1 <1>  -0.5090 
  4 C       -0.5000     4.0580    -2.8120 C.3   1 <1>   0.1810 
  5 C       -1.2720     4.6510    -0.1520 C.3   1 <1>   0.3640 
  6 C        0.1130     2.7360     0.7650 C.3   1 <1>   0.0490 
  7 O       -0.3870     5.3920    -2.3870 O.3   1 <1>  -0.5600 
  8 C       -2.7370     4.2700     0.0750 C.ar  1 <1>  -0.1440 
  9 C       -1.1960     5.7390    -1.2670 C.3   1 <1>   0.2610 
 10 C       -0.1270     1.2670     0.9130 C.3   1 <1>  -0.2000 
 11 C       -0.7920     2.2270     1.8450 C.3   1 <1>  -0.2000 
 12 C       -3.5030     5.0440     0.9380 C.ar  1 <1>   0.1600 
 13 C       -3.3400     3.1900    -0.5480 C.ar  1 <1>  -0.1500 
 14 C       -0.7030     7.0410    -0.6400 C.2   1 <1>   0.5690 
 15 N       -4.7790     4.8330     1.2180 N.ar  1 <1>  -0.6200 
 16 C       -4.6680     2.9570    -0.2650 C.ar  1 <1>  -0.1500 
 17 O       -1.3390     7.5160     0.2750 O.2   1 <1>  -0.5700 
 18 N        0.4460     7.5960    -1.1040 N.am  1 <1>  -0.5790 
 19 C       -5.3310     3.7960     0.6120 C.ar  1 <1>   0.1600 
 20 C        1.2020     8.6820    -0.4790 C.3   1 <1>   0.1810 
 21 C        2.1310     8.1780     0.6150 C.ar  1 <1>  -0.0320 
 22 C        0.5390    10.0150    -0.3450 C.3   1 <1>  -0.2000 
 23 C        1.6110     9.8130    -1.3680 C.3   1 <1>  -0.2000 
 24 C        1.6470     8.0020     1.9020 C.ar  1 <1>  -0.1500 
 25 C        3.4560     7.8750     0.3400 C.ar  1 <1>  -0.1500 
 26 C        2.4780     7.5340     2.9060 C.ar  1 <1>  -0.1500 
 27 C        4.2890     7.4060     1.3420 C.ar  1 <1>  -0.1500 
 28 C        3.8000     7.2360     2.6250 C.ar  1 <1>  -0.1500 
 29 H       -1.5160     3.8670    -3.1070 H     1 <1>   0.0800 
 30 H        0.1460     3.9260    -3.6610 H     1 <1>   0.0800 
 31 H       -0.9070     5.0790     0.7660 H     1 <1>   0.0800 
 32 H        1.0840     3.1160     1.0420 H     1 <1>   0.1000 
 33 H       -2.1850     5.9260    -1.6460 H     1 <1>   0.0800 
 34 H       -0.7150     0.7680     0.1620 H     1 <1>   0.1000 
 35 H        0.6720     0.6520     1.2870 H     1 <1>   0.1000 
 36 H       -0.4490     2.2560     2.8640 H     1 <1>   0.1000 
 37 H       -1.8590     2.3300     1.7690 H     1 <1>   0.1000 
 38 H       -3.0470     5.8900     1.4280 H     1 <1>   0.1500 
 39 H       -2.8090     2.5400    -1.2220 H     1 <1>   0.1500 
 40 H       -5.1870     2.1310    -0.7160 H     1 <1>   0.1500 
 41 H        0.9360     7.0930    -1.8480 H     1 <1>   0.3700 
 42 H       -6.3690     3.6040     0.8280 H     1 <1>   0.1500 
 43 H       -0.4870    10.1020    -0.6540 H     1 <1>   0.1000 
 44 H        0.7640    10.6160     0.5180 H     1 <1>   0.1000 
 45 H        2.5540    10.3010    -1.2010 H     1 <1>   0.1000 
 46 H        1.3290     9.7920    -2.4060 H     1 <1>   0.1000 
 47 H        0.6170     8.2310     2.1170 H     1 <1>   0.1500 
 48 H        3.8400     8.0040    -0.6560 H     1 <1>   0.1500 
 49 H        2.0940     7.4020     3.9030 H     1 <1>   0.1500 
 50 H        5.3170     7.1750     1.1230 H     1 <1>   0.1500 
 51 H        4.4470     6.8730     3.4040 H     1 <1>   0.1500 
@<TRIPOS>BOND
  1   1   2  2   
  2   2   3  am  
  3   2   4  1   
  4   3   5  1   
  5   3   6  1   
  6   4   7  1   
  7   4  29  1   
  8   4  30  1   
  9   5   8  1   
 10   5   9  1   
 11   5  31  1   
 12   6  10  1   
 13   6  11  1   
 14   6  32  1   
 15   7   9  1   
 16   8  12  ar  
 17   8  13  ar  
 18   9  14  1   
 19   9  33  1   
 20  10  11  1   
 21  10  34  1   
 22  10  35  1   
 23  11  36  1   
 24  11  37  1   
 25  12  15  ar  
 26  12  38  1   
 27  13  16  ar  
 28  13  39  1   
 29  14  17  2   
 30  14  18  am  
 31  15  19  ar  
 32  16  19  ar  
 33  16  40  1   
 34  18  20  1   
 35  18  41  1   
 36  19  42  1   
 37  20  21  1   
 38  20  22  1   
 39  20  23  1   
 40  21  24  ar  
 41  21  25  ar  
 42  22  23  1   
 43  22  43  1   
 44  22  44  1   
 45  23  45  1   
 46  23  46  1   
 47  24  26  ar  
 48  24  47  1   
 49  25  27  ar  
 50  25  48  1   
 51  26  28  ar  
 52  26  49  1   
 53  27  28  ar  
 54  27  50  1   
 55  28  51  1   
@<TRIPOS>SUBSTRUCTURE
  1 ****   5 GROUP 4 **** **** 0

# MOE 2024.06 (io_trps.svl 2023.06)
