@<TRIPOS>MOLECULE
NONAME
42 44 1 0 0 
SMALL
USER_CHARGES


@<TRIPOS>ATOM
  1 O        1.0990    -0.6040    -2.6390 O.2   1 <1>  -0.5700 
  2 C        1.6210    -1.0590    -1.6480 C.2   1 <1>   0.5690 
  3 N        2.7230    -0.4830    -1.1020 N.am  1 <1>  -0.7300 
  4 C        1.0210    -2.3090    -1.0150 C.3   1 <1>   0.2370 
  5 C        3.2980     0.8180    -1.4780 C.3   1 <1>   0.2350 
  6 N        1.0430    -2.1710     0.4670 N.pl3 1 <1>   0.3140 
  7 C        1.7350    -3.5930    -1.4920 C.3   1 <1>  -0.1600 
  8 C        3.7150     1.6340    -0.2360 C.3   1 <1>  -0.1900 
  9 N        2.1810    -2.2050     1.2040 N.2   1 <1>  -0.7070 
 10 C       -0.0320    -1.9750     1.2590 C.2   1 <1>  -0.3020 
 11 C        1.0920    -4.8810    -0.9550 C.3   1 <1>  -0.2400 
 12 C        4.2910     0.9400     0.9670 C.3   1 <1>  -0.2000 
 13 C        2.9080     1.5410     1.0270 C.3   1 <1>  -0.2000 
 14 C        4.2560     3.0120    -0.6930 C.3   1 <1>   0.1910 
 15 C        1.7930    -2.0340     2.4300 C.2   1 <1>   0.1390 
 16 C        0.4160    -1.8830     2.5290 C.2   1 <1>  -0.1500 
 17 N        4.7110     3.9110     0.3960 N.pl3 1 <1>   0.3140 
 18 N        3.9320     4.8980     0.8830 N.2   1 <1>  -0.7070 
 19 C        5.9300     3.9270     0.9750 C.2   1 <1>  -0.3020 
 20 C        4.6670     5.4990     1.7680 C.2   1 <1>   0.1390 
 21 C        5.9330     4.9370     1.8700 C.2   1 <1>  -0.1500 
 22 H        3.0390    -0.8510    -0.1910 H     1 <1>   0.3700 
 23 H       -0.0070    -2.3590    -1.3190 H     1 <1>   0.0800 
 24 H        2.5730     1.3730    -2.0500 H     1 <1>   0.0800 
 25 H        4.1570     0.6430    -2.1030 H     1 <1>   0.0800 
 26 H        2.7710    -3.5560    -1.1970 H     1 <1>   0.0800 
 27 H        1.7080    -3.6170    -2.5680 H     1 <1>   0.0800 
 28 H       -1.0370    -1.9100     0.8850 H     1 <1>   0.1500 
 29 H        1.1600    -4.9220     0.1190 H     1 <1>   0.0800 
 30 H        1.6030    -5.7390    -1.3550 H     1 <1>   0.0800 
 31 H        0.0560    -4.9370    -1.2400 H     1 <1>   0.0800 
 32 H        5.0510     1.4060     1.5680 H     1 <1>   0.1000 
 33 H        4.3730    -0.1330     0.9960 H     1 <1>   0.1000 
 34 H        2.0630     0.8760     1.0830 H     1 <1>   0.1000 
 35 H        2.7600     2.4200     1.6310 H     1 <1>   0.1000 
 36 H        3.4840     3.5310    -1.2320 H     1 <1>   0.0800 
 37 H        5.0850     2.8680    -1.3600 H     1 <1>   0.0800 
 38 H        2.4680    -2.0120     3.2700 H     1 <1>   0.1500 
 39 H       -0.1410    -1.7270     3.4350 H     1 <1>   0.1500 
 40 H        6.7100     3.2330     0.7220 H     1 <1>   0.1500 
 41 H        4.3250     6.3400     2.3480 H     1 <1>   0.1500 
 42 H        6.7200     5.2600     2.5280 H     1 <1>   0.1500 
@<TRIPOS>BOND
  1   1   2  2   
  2   2   3  am  
  3   2   4  1   
  4   3   5  1   
  5   3  22  1   
  6   4   6  1   
  7   4   7  1   
  8   4  23  1   
  9   5   8  1   
 10   5  24  1   
 11   5  25  1   
 12   6   9  1   
 13   6  10  1   
 14   7  11  1   
 15   7  26  1   
 16   7  27  1   
 17   8  12  1   
 18   8  13  1   
 19   8  14  1   
 20   9  15  2   
 21  10  16  2   
 22  10  28  1   
 23  11  29  1   
 24  11  30  1   
 25  11  31  1   
 26  12  13  1   
 27  12  32  1   
 28  12  33  1   
 29  13  34  1   
 30  13  35  1   
 31  14  17  1   
 32  14  36  1   
 33  14  37  1   
 34  15  16  1   
 35  15  38  1   
 36  16  39  1   
 37  17  18  1   
 38  17  19  1   
 39  18  20  2   
 40  19  21  2   
 41  19  40  1   
 42  20  21  1   
 43  20  41  1   
 44  21  42  1   
@<TRIPOS>SUBSTRUCTURE
  1 ****  13 GROUP 4 **** **** 0

# MOE 2024.06 (io_trps.svl 2023.06)
