@<TRIPOS>MOLECULE
NONAME
64 68 1 0 0 
SMALL
USER_CHARGES


@<TRIPOS>ATOM
  1 O        0.7110     0.1070    -0.9900 O.3   1 <1>  -0.5600 
  2 C        1.5310    -0.3990    -0.0010 C.3   1 <1>   0.2800 
  3 C       -0.3060     0.6430    -0.2320 C.3   1 <1>   0.2000 
  4 C        1.8370     0.8910     0.7460 C.3   1 <1>  -0.0800 
  5 C        2.8570    -0.9350    -0.5550 C.3   1 <1>   0.3430 
  6 C        0.5830    -1.3230     0.7630 C.3   1 <1>  -0.1600 
  7 C        0.4850     1.6480     0.6240 C.3   1 <1>  -0.0800 
  8 C       -0.7400    -0.5720     0.5970 C.3   1 <1>  -0.1600 
  9 C        3.0580     1.4090    -0.0270 C.3   1 <1>   0.3430 
 10 N        3.8240     0.2000    -0.4350 N.4   1 <1>  -0.9590 
 11 C        0.5690     3.0290    -0.0540 C.3   1 <1>   0.3430 
 12 C        4.6820     0.4010    -1.6330 C.3   1 <1>   0.4860 
 13 N       -0.5410     3.9470     0.3560 N.4   1 <1>  -0.9590 
 14 C        5.6110     1.5710    -1.3660 C.ar  1 <1>  -0.1440 
 15 C       -1.8940     3.5190    -0.1240 C.3   1 <1>   0.3430 
 16 C       -0.2420     5.3420    -0.0930 C.3   1 <1>   0.3430 
 17 C        6.4610     1.5610    -0.2620 C.ar  1 <1>   0.0820 
 18 C        5.6020     2.6570    -2.2270 C.ar  1 <1>  -0.1500 
 19 C       -2.9670     4.4450     0.4500 C.3   1 <1>  -0.1600 
 20 C       -1.2760     6.3090     0.4870 C.3   1 <1>  -0.1600 
 21 O        6.4310     0.4370     0.5170 O.3   1 <1>  -0.3620 
 22 C        7.2710     2.6770     0.0050 C.ar  1 <1>   0.0820 
 23 C        6.4210     3.7420    -1.9840 C.ar  1 <1>  -0.1500 
 24 C       -2.7040     5.9130     0.0950 C.3   1 <1>  -0.1600 
 25 C        7.6360    -0.0960     1.0370 C.3   1 <1>   0.0400 
 26 O        8.0410     2.6920     1.1300 O.3   1 <1>  -0.3630 
 27 C        7.2460     3.7560    -0.8740 C.ar  1 <1>  -0.1500 
 28 C        8.9480     3.7380     1.4090 C.3   1 <1>   0.0400 
 29 H       -1.0790     1.0460    -0.8630 H     1 <1>   0.0800 
 30 H        2.1060     0.6940     1.7700 H     1 <1>   0.0800 
 31 H        2.7240    -1.2480    -1.5770 H     1 <1>   0.0800 
 32 H        3.1970    -1.7680     0.0380 H     1 <1>   0.0800 
 33 H        0.5330    -2.2910     0.2930 H     1 <1>   0.0800 
 34 H        0.8690    -1.4390     1.7940 H     1 <1>   0.0800 
 35 H        0.0400     1.7520     1.5990 H     1 <1>   0.0800 
 36 H       -1.1830    -0.2930     1.5380 H     1 <1>   0.0800 
 37 H       -1.4460    -1.1640     0.0390 H     1 <1>   0.0800 
 38 H        3.6660     2.0710     0.5690 H     1 <1>   0.0800 
 39 H        2.7320     1.9250    -0.9150 H     1 <1>   0.0800 
 40 H        4.5100     0.0050     0.3180 H     1 <1>   0.4500 
 41 H        0.5750     2.9080    -1.1260 H     1 <1>   0.0800 
 42 H        1.5000     3.4900     0.2320 H     1 <1>   0.0800 
 43 H        5.2700    -0.4830    -1.8190 H     1 <1>   0.0800 
 44 H        4.0730     0.6020    -2.4990 H     1 <1>   0.0800 
 45 H       -0.5890     3.9820     1.3830 H     1 <1>   0.4500 
 46 H       -1.9290     3.5520    -1.2010 H     1 <1>   0.0800 
 47 H       -2.1030     2.5110     0.1950 H     1 <1>   0.0800 
 48 H        0.7410     5.6370     0.2370 H     1 <1>   0.0800 
 49 H       -0.2690     5.3950    -1.1700 H     1 <1>   0.0800 
 50 H        4.9670     2.6720    -3.0980 H     1 <1>   0.1500 
 51 H       -3.9280     4.1540     0.0600 H     1 <1>   0.0800 
 52 H       -3.0090     4.3280     1.5200 H     1 <1>   0.0800 
 53 H       -1.1820     6.3370     1.5590 H     1 <1>   0.0800 
 54 H       -1.0710     7.3010     0.1230 H     1 <1>   0.0800 
 55 H        6.4220     4.5830    -2.6590 H     1 <1>   0.1500 
 56 H       -3.4130     6.5470     0.6010 H     1 <1>   0.0800 
 57 H       -2.8380     6.0550    -0.9650 H     1 <1>   0.0800 
 58 H        7.5000    -1.1480     1.2080 H     1 <1>   0.0800 
 59 H        7.8630     0.3930     1.9680 H     1 <1>   0.0800 
 60 H        8.4310     0.0610     0.3280 H     1 <1>   0.0800 
 61 H        7.8590     4.6230    -0.7150 H     1 <1>   0.1500 
 62 H        9.4650     3.4980     2.3210 H     1 <1>   0.0800 
 63 H        8.4000     4.6550     1.5350 H     1 <1>   0.0800 
 64 H        9.6540     3.8170     0.6010 H     1 <1>   0.0800 
@<TRIPOS>BOND
  1   1   2  1   
  2   1   3  1   
  3   2   4  1   
  4   2   5  1   
  5   2   6  1   
  6   3   7  1   
  7   3   8  1   
  8   3  29  1   
  9   4   7  1   
 10   4   9  1   
 11   4  30  1   
 12   5  10  1   
 13   5  31  1   
 14   5  32  1   
 15   6   8  1   
 16   6  33  1   
 17   6  34  1   
 18   7  11  1   
 19   7  35  1   
 20   8  36  1   
 21   8  37  1   
 22   9  10  1   
 23   9  38  1   
 24   9  39  1   
 25  10  12  1   
 26  10  40  1   
 27  11  13  1   
 28  11  41  1   
 29  11  42  1   
 30  12  14  1   
 31  12  43  1   
 32  12  44  1   
 33  13  15  1   
 34  13  16  1   
 35  13  45  1   
 36  14  17  ar  
 37  14  18  ar  
 38  15  19  1   
 39  15  46  1   
 40  15  47  1   
 41  16  20  1   
 42  16  48  1   
 43  16  49  1   
 44  17  21  1   
 45  17  22  ar  
 46  18  23  ar  
 47  18  50  1   
 48  19  24  1   
 49  19  51  1   
 50  19  52  1   
 51  20  24  1   
 52  20  53  1   
 53  20  54  1   
 54  21  25  1   
 55  22  26  1   
 56  22  27  ar  
 57  23  27  ar  
 58  23  55  1   
 59  24  56  1   
 60  24  57  1   
 61  25  58  1   
 62  25  59  1   
 63  25  60  1   
 64  26  28  1   
 65  27  61  1   
 66  28  62  1   
 67  28  63  1   
 68  28  64  1   
@<TRIPOS>SUBSTRUCTURE
  1 ****   9 GROUP 4 **** **** 0

# MOE 2024.06 (io_trps.svl 2023.06)
