@<TRIPOS>MOLECULE
Untitled Document
66 70 1 0 0 
SMALL
USER_CHARGES


@<TRIPOS>ATOM
  1 S       -0.1850    -0.4380     1.2940 S.3   1 <1>  -0.1970 
  2 C        1.2530     0.5960     1.5180 C.2   1 <1>   0.6410 
  3 C       -1.0990     0.9860     0.8710 C.2   1 <1>   0.2430 
  4 N        1.0490     1.8390     1.2970 N.2   1 <1>  -0.6520 
  5 N        2.4540     0.0050     1.8890 N.pl3 1 <1>  -0.7880 
  6 N       -2.3180     1.2130     0.5230 N.2   1 <1>  -0.5650 
  7 N       -0.2820     2.0370     0.9420 N.pl3 1 <1>   0.5050 
  8 C        2.6700    -1.4600     1.9880 C.3   1 <1>   0.2090 
  9 C        3.6970     0.8110     1.9290 C.3   1 <1>   0.2090 
 10 C       -2.3100     2.5700     0.3420 C.2   1 <1>   0.1730 
 11 C       -1.0600     3.0690     0.6000 C.2   1 <1>  -0.3020 
 12 C        3.5180    -1.8990     0.7910 C.3   1 <1>  -0.1600 
 13 C        4.5770     0.4070     0.7410 C.3   1 <1>  -0.1600 
 14 C       -3.4950     3.3050    -0.0650 C.ar  1 <1>   0.0540 
 15 C        4.8440    -1.1160     0.6970 C.3   1 <1>  -0.0800 
 16 C       -4.7250     2.6710    -0.2340 C.ar  1 <1>  -0.1500 
 17 C       -3.4540     4.6780    -0.3040 C.ar  1 <1>  -0.1500 
 18 C        5.5870    -1.5390    -0.5830 C.3   1 <1>   0.3430 
 19 C       -5.8550     3.3680    -0.6200 C.ar  1 <1>  -0.1500 
 20 C       -4.5820     5.3800    -0.6910 C.ar  1 <1>  -0.1500 
 21 N        6.8790    -0.8190    -0.7470 N.4   1 <1>  -0.9590 
 22 C       -5.7970     4.7330    -0.8530 C.ar  1 <1>  -0.1430 
 23 C        7.4470    -0.9290    -2.1310 C.3   1 <1>   0.3430 
 24 C        7.9330    -1.1530     0.2720 C.3   1 <1>   0.3430 
 25 C       -7.0530     5.4900    -1.2790 C.3   1 <1>   0.0630 
 26 C        8.6920    -0.0210    -2.2940 C.3   1 <1>   0.1100 
 27 C        9.1970    -0.2780     0.0760 C.3   1 <1>   0.1100 
 28 C       -6.8690     6.1170    -2.6650 C.3   1 <1>  -0.2400 
 29 C       -7.4260     6.5560    -0.2440 C.3   1 <1>  -0.2400 
 30 N        9.0410     0.6850    -1.0380 N.3   1 <1>  -0.8100 
 31 C       10.2450     1.5110    -1.2050 C.3   1 <1>   0.0300 
 32 H        1.7430    -2.0050     2.0040 H     1 <1>   0.0800 
 33 H        3.1870    -1.6760     2.9080 H     1 <1>   0.0800 
 34 H        4.2100     0.6230     2.8570 H     1 <1>   0.0800 
 35 H        3.4760     1.8650     1.8830 H     1 <1>   0.0800 
 36 H       -0.6850     4.0720     0.5630 H     1 <1>   0.1500 
 37 H        2.9340    -1.7520    -0.1010 H     1 <1>   0.0800 
 38 H        3.7170    -2.9530     0.8810 H     1 <1>   0.0800 
 39 H        5.5010     0.9530     0.8140 H     1 <1>   0.0800 
 40 H        4.0800     0.7220    -0.1610 H     1 <1>   0.0800 
 41 H        5.4350    -1.3880     1.5550 H     1 <1>   0.0800 
 42 H       -4.7970     1.6120    -0.0580 H     1 <1>   0.1500 
 43 H       -2.5300     5.2110    -0.1890 H     1 <1>   0.1500 
 44 H        4.9520    -1.3240    -1.4280 H     1 <1>   0.0800 
 45 H        5.7630    -2.6020    -0.5640 H     1 <1>   0.0800 
 46 H       -6.7830     2.8370    -0.7370 H     1 <1>   0.1500 
 47 H       -4.5080     6.4380    -0.8660 H     1 <1>   0.1500 
 48 H        6.7400     0.1970    -0.6310 H     1 <1>   0.4500 
 49 H        6.7070    -0.6360    -2.8580 H     1 <1>   0.0800 
 50 H        7.7240    -1.9500    -2.3370 H     1 <1>   0.0800 
 51 H        8.2060    -2.1920     0.1950 H     1 <1>   0.0800 
 52 H        7.5510    -0.9860     1.2650 H     1 <1>   0.0800 
 53 H       -7.8720     4.7930    -1.3420 H     1 <1>   0.0800 
 54 H        8.4950     0.7050    -3.0640 H     1 <1>   0.0800 
 55 H        9.5250    -0.6200    -2.6220 H     1 <1>   0.0800 
 56 H       10.0440    -0.9170    -0.1070 H     1 <1>   0.0800 
 57 H        9.3910     0.2610     0.9880 H     1 <1>   0.0800 
 58 H       -6.0940     6.8610    -2.6500 H     1 <1>   0.0800 
 59 H       -7.7840     6.5800    -2.9880 H     1 <1>   0.0800 
 60 H       -6.6000     5.3570    -3.3760 H     1 <1>   0.0800 
 61 H       -6.6630     7.3090    -0.1760 H     1 <1>   0.0800 
 62 H       -7.5430     6.0990     0.7230 H     1 <1>   0.0800 
 63 H       -8.3530     7.0280    -0.5140 H     1 <1>   0.0800 
 64 H       10.0910     2.2310    -1.9910 H     1 <1>   0.0800 
 65 H       11.0970     0.9010    -1.4520 H     1 <1>   0.0800 
 66 H       10.4520     2.0490    -0.2950 H     1 <1>   0.0800 
@<TRIPOS>BOND
  1   1   2  1   
  2   1   3  1   
  3   2   4  2   
  4   2   5  1   
  5   3   6  2   
  6   3   7  1   
  7   4   7  1   
  8   5   8  1   
  9   5   9  1   
 10   6  10  1   
 11   7  11  1   
 12   8  12  1   
 13   8  32  1   
 14   8  33  1   
 15   9  13  1   
 16   9  34  1   
 17   9  35  1   
 18  10  11  2   
 19  10  14  1   
 20  11  36  1   
 21  12  15  1   
 22  12  37  1   
 23  12  38  1   
 24  13  15  1   
 25  13  39  1   
 26  13  40  1   
 27  14  16  ar  
 28  14  17  ar  
 29  15  18  1   
 30  15  41  1   
 31  16  19  ar  
 32  16  42  1   
 33  17  20  ar  
 34  17  43  1   
 35  18  21  1   
 36  18  44  1   
 37  18  45  1   
 38  19  22  ar  
 39  19  46  1   
 40  20  22  ar  
 41  20  47  1   
 42  21  23  1   
 43  21  24  1   
 44  21  48  1   
 45  22  25  1   
 46  23  26  1   
 47  23  49  1   
 48  23  50  1   
 49  24  27  1   
 50  24  51  1   
 51  24  52  1   
 52  25  28  1   
 53  25  29  1   
 54  25  53  1   
 55  26  30  1   
 56  26  54  1   
 57  26  55  1   
 58  27  30  1   
 59  27  56  1   
 60  27  57  1   
 61  28  58  1   
 62  28  59  1   
 63  28  60  1   
 64  29  61  1   
 65  29  62  1   
 66  29  63  1   
 67  30  31  1   
 68  31  64  1   
 69  31  65  1   
 70  31  66  1   
@<TRIPOS>SUBSTRUCTURE
  1 ****   4 GROUP 4 **** **** 0

# MOE 2024.06 (io_trps.svl 2023.06)
