@<TRIPOS>MOLECULE
NONAME
51 54 1 0 0 
SMALL
USER_CHARGES


@<TRIPOS>ATOM
  1 O       -0.3750     0.2070    -0.0170 O.2   1 <1>  -0.5700 
  2 C       -1.4380     0.7730    -0.1100 C.2   1 <1>   0.5690 
  3 N       -2.5990     0.0780    -0.3060 N.am  1 <1>  -0.6600 
  4 C       -1.4890     2.2940    -0.0060 C.3   1 <1>  -0.0990 
  5 C       -3.9670     0.6460    -0.3880 C.3   1 <1>   0.1400 
  6 C       -2.6390    -1.4000    -0.4050 C.3   1 <1>   0.1400 
  7 C       -0.1090     2.9640     0.1460 C.3   1 <1>  -0.1600 
  8 C       -4.8930    -0.5610    -0.5510 C.3   1 <1>   0.2000 
  9 C       -4.0880    -1.7740    -0.0880 C.3   1 <1>  -0.0800 
 10 C       -0.2170     4.4910     0.2400 C.3   1 <1>   0.0210 
 11 O       -6.0360    -0.4290     0.2220 O.3   1 <1>  -0.6800 
 12 C       -4.5530    -3.0820    -0.7490 C.3   1 <1>  -0.0170 
 13 C        1.1410     5.1570     0.3890 C.2   1 <1>  -0.1810 
 14 C       -3.7220    -4.2640    -0.2820 C.ar  1 <1>   0.1670 
 15 C        1.3600     6.5280     0.4960 C.2   1 <1>   0.1390 
 16 C        2.3760     4.6130     0.4500 C.2   1 <1>  -0.3020 
 17 N       -2.6500    -4.5440    -0.9570 N.ar  1 <1>  -0.6200 
 18 C       -4.1410    -4.9860     0.8470 C.ar  1 <1>  -0.1500 
 19 N        2.6190     6.8220     0.6130 N.2   1 <1>  -0.7070 
 20 N        3.2470     5.6320     0.5850 N.pl3 1 <1>   0.3000 
 21 C       -1.8920    -5.5890    -0.5370 C.ar  1 <1>   0.3100 
 22 C       -3.4020    -6.0410     1.2890 C.ar  1 <1>  -0.1500 
 23 C       -2.2310    -6.3730     0.5880 C.ar  1 <1>   0.0000 
 24 C       -0.7220    -5.9070    -1.2440 C.ar  1 <1>  -0.1500 
 25 C       -1.3890    -7.4400     0.9580 C.ar  1 <1>  -0.1500 
 26 C        0.0840    -6.9490    -0.8680 C.ar  1 <1>  -0.1500 
 27 C       -0.2550    -7.7240     0.2460 C.ar  1 <1>  -0.1500 
 28 H       -1.9640     2.6730    -0.8910 H     1 <1>   0.0800 
 29 H       -2.0960     2.5480     0.8430 H     1 <1>   0.0800 
 30 H       -4.1880     1.1820     0.5180 H     1 <1>   0.0800 
 31 H       -4.0480     1.2990    -1.2390 H     1 <1>   0.0800 
 32 H       -2.3750    -1.6920    -1.4080 H     1 <1>   0.0800 
 33 H       -1.9510    -1.8580     0.2870 H     1 <1>   0.0800 
 34 H        0.3710     2.5870     1.0330 H     1 <1>   0.0800 
 35 H        0.5050     2.7020    -0.6990 H     1 <1>   0.0800 
 36 H       -5.1890    -0.6550    -1.5820 H     1 <1>   0.0800 
 37 H       -4.1610    -1.8700     0.9810 H     1 <1>   0.0800 
 38 H       -0.8250     4.7580     1.0860 H     1 <1>   0.0800 
 39 H       -0.6910     4.8740    -0.6480 H     1 <1>   0.0800 
 40 H       -5.8040    -0.3980     1.1700 H     1 <1>   0.4000 
 41 H       -4.4740    -3.0000    -1.8190 H     1 <1>   0.0800 
 42 H       -5.5890    -3.2550    -0.5150 H     1 <1>   0.0800 
 43 H        0.5810     7.2720     0.4840 H     1 <1>   0.1500 
 44 H        2.6810     3.5840     0.4060 H     1 <1>   0.1500 
 45 H       -5.0430    -4.6940     1.3530 H     1 <1>   0.1500 
 46 H        4.2680     5.5490     0.6590 H     1 <1>   0.2700 
 47 H       -3.6900    -6.6170     2.1500 H     1 <1>   0.1500 
 48 H       -0.4790    -5.2990    -2.0950 H     1 <1>   0.1500 
 49 H       -1.6550    -8.0310     1.8160 H     1 <1>   0.1500 
 50 H        0.9790    -7.1810    -1.4190 H     1 <1>   0.1500 
 51 H        0.3870    -8.5400     0.5310 H     1 <1>   0.1500 
@<TRIPOS>BOND
  1   1   2  2   
  2   2   3  am  
  3   2   4  1   
  4   3   5  1   
  5   3   6  1   
  6   4   7  1   
  7   4  28  1   
  8   4  29  1   
  9   5   8  1   
 10   5  30  1   
 11   5  31  1   
 12   6   9  1   
 13   6  32  1   
 14   6  33  1   
 15   7  10  1   
 16   7  34  1   
 17   7  35  1   
 18   8   9  1   
 19   8  11  1   
 20   8  36  1   
 21   9  12  1   
 22   9  37  1   
 23  10  13  1   
 24  10  38  1   
 25  10  39  1   
 26  11  40  1   
 27  12  14  1   
 28  12  41  1   
 29  12  42  1   
 30  13  15  1   
 31  13  16  2   
 32  14  17  ar  
 33  14  18  ar  
 34  15  19  2   
 35  15  43  1   
 36  16  20  1   
 37  16  44  1   
 38  17  21  ar  
 39  18  22  ar  
 40  18  45  1   
 41  19  20  1   
 42  20  46  1   
 43  21  23  ar  
 44  21  24  ar  
 45  22  23  ar  
 46  22  47  1   
 47  23  25  ar  
 48  24  26  ar  
 49  24  48  1   
 50  25  27  ar  
 51  25  49  1   
 52  26  27  ar  
 53  26  50  1   
 54  27  51  1   
@<TRIPOS>SUBSTRUCTURE
  1 ****   6 GROUP 4 **** **** 0

# MOE 2024.06 (io_trps.svl 2023.06)
