@<TRIPOS>MOLECULE
NONAME
57 60 1 0 0 
SMALL
USER_CHARGES


@<TRIPOS>ATOM
  1 O        3.2300     0.6150    -1.9260 O.2   1 <1>  -0.5700 
  2 C        3.4830    -0.2830    -1.1570 C.2   1 <1>   0.5690 
  3 N        2.8830    -0.4110     0.0660 N.am  1 <1>  -0.6600 
  4 C        4.5160    -1.3240    -1.5440 C.3   1 <1>  -0.0990 
  5 C        3.3380    -1.4730     0.9960 C.3   1 <1>   0.1400 
  6 C        1.8210     0.5080     0.5510 C.3   1 <1>   0.0600 
  7 C        4.0200    -2.7350    -1.1730 C.3   1 <1>  -0.0800 
  8 C        3.4230    -2.8200     0.2510 C.3   1 <1>  -0.0800 
  9 C        5.1200    -3.8020    -1.2640 C.3   1 <1>  -0.1600 
 10 C        4.2640    -3.8540     1.0100 C.3   1 <1>  -0.1600 
 11 C        4.8840    -4.7280    -0.0750 C.3   1 <1>   0.2200 
 12 N        6.1000    -5.4910     0.3430 N.am  1 <1>  -0.6600 
 13 C        7.3510    -4.9620     0.6270 C.2   1 <1>   0.5440 
 14 C        5.9680    -6.9610     0.1240 C.3   1 <1>   0.0600 
 15 O        8.3370    -5.6260     0.3690 O.2   1 <1>  -0.5700 
 16 C        7.5450    -3.6630     1.2420 C.ar  1 <1>   0.0860 
 17 C        7.9430    -2.5570     0.4980 C.ar  1 <1>  -0.1500 
 18 C        7.3480    -3.4860     2.6100 C.ar  1 <1>  -0.1500 
 19 C        8.0820    -1.2940     1.0580 C.ar  1 <1>   0.0000 
 20 C        7.4920    -2.2420     3.1960 C.ar  1 <1>  -0.1500 
 21 C        8.4640    -0.1670     0.2360 C.ar  1 <1>   0.0000 
 22 C        7.8470    -1.1540     2.4210 C.ar  1 <1>  -0.1500 
 23 C        7.6100     0.9190     0.0120 C.ar  1 <1>   0.0820 
 24 C        9.7180    -0.1600    -0.3670 C.ar  1 <1>  -0.1500 
 25 O        6.3890     0.8970     0.6090 O.3   1 <1>  -0.3620 
 26 C        8.0210     1.9710    -0.8050 C.ar  1 <1>  -0.1500 
 27 C       10.1220     0.8860    -1.1740 C.ar  1 <1>  -0.1500 
 28 C        5.4430     1.9270     0.4140 C.3   1 <1>   0.0400 
 29 C        9.2710     1.9540    -1.3940 C.ar  1 <1>  -0.1500 
 30 H        4.7110    -1.2630    -2.5990 H     1 <1>   0.0800 
 31 H        5.4250    -1.0940    -1.0190 H     1 <1>   0.0800 
 32 H        4.3090    -1.1950     1.3720 H     1 <1>   0.0800 
 33 H        2.6620    -1.5580     1.8300 H     1 <1>   0.0800 
 34 H        2.1450     0.9940     1.4540 H     1 <1>   0.0800 
 35 H        0.9220    -0.0490     0.7470 H     1 <1>   0.0800 
 36 H        1.6060     1.2590    -0.1900 H     1 <1>   0.0800 
 37 H        3.2350    -2.9950    -1.8650 H     1 <1>   0.0800 
 38 H        2.4220    -3.2080     0.1620 H     1 <1>   0.0800 
 39 H        6.0830    -3.3400    -1.1990 H     1 <1>   0.0800 
 40 H        5.0610    -4.3450    -2.1910 H     1 <1>   0.0800 
 41 H        3.6620    -4.4360     1.6850 H     1 <1>   0.0800 
 42 H        5.0180    -3.3410     1.5640 H     1 <1>   0.0800 
 43 H        4.1230    -5.4290    -0.3770 H     1 <1>   0.0800 
 44 H        5.0580    -7.3210     0.5700 H     1 <1>   0.0800 
 45 H        6.7940    -7.4880     0.5720 H     1 <1>   0.0800 
 46 H        5.9580    -7.1700    -0.9310 H     1 <1>   0.0800 
 47 H        8.1470    -2.6850    -0.5500 H     1 <1>   0.1500 
 48 H        7.0720    -4.3360     3.2100 H     1 <1>   0.1500 
 49 H        7.3280    -2.1190     4.2530 H     1 <1>   0.1500 
 50 H        7.9490    -0.1800     2.8690 H     1 <1>   0.1500 
 51 H       10.3840    -0.9880    -0.1980 H     1 <1>   0.1500 
 52 H        7.3820     2.8110    -0.9960 H     1 <1>   0.1500 
 53 H       11.0960     0.8700    -1.6310 H     1 <1>   0.1500 
 54 H        4.5600     1.6790     0.9730 H     1 <1>   0.0800 
 55 H        5.2030     1.9890    -0.6330 H     1 <1>   0.0800 
 56 H        5.8550     2.8530     0.7720 H     1 <1>   0.0800 
 57 H        9.5830     2.7690    -2.0240 H     1 <1>   0.1500 
@<TRIPOS>BOND
  1   1   2  2   
  2   2   3  am  
  3   2   4  1   
  4   3   5  1   
  5   3   6  1   
  6   4   7  1   
  7   4  30  1   
  8   4  31  1   
  9   5   8  1   
 10   5  32  1   
 11   5  33  1   
 12   6  34  1   
 13   6  35  1   
 14   6  36  1   
 15   7   8  1   
 16   7   9  1   
 17   7  37  1   
 18   8  10  1   
 19   8  38  1   
 20   9  11  1   
 21   9  39  1   
 22   9  40  1   
 23  10  11  1   
 24  10  41  1   
 25  10  42  1   
 26  11  12  1   
 27  11  43  1   
 28  12  13  am  
 29  12  14  1   
 30  13  15  2   
 31  13  16  1   
 32  14  44  1   
 33  14  45  1   
 34  14  46  1   
 35  16  17  ar  
 36  16  18  ar  
 37  17  19  ar  
 38  17  47  1   
 39  18  20  ar  
 40  18  48  1   
 41  19  21  1   
 42  19  22  ar  
 43  20  22  ar  
 44  20  49  1   
 45  21  23  ar  
 46  21  24  ar  
 47  22  50  1   
 48  23  25  1   
 49  23  26  ar  
 50  24  27  ar  
 51  24  51  1   
 52  25  28  1   
 53  26  29  ar  
 54  26  52  1   
 55  27  29  ar  
 56  27  53  1   
 57  28  54  1   
 58  28  55  1   
 59  28  56  1   
 60  29  57  1   
@<TRIPOS>SUBSTRUCTURE
  1 ****  17 GROUP 4 **** **** 0

# MOE 2024.06 (io_trps.svl 2023.06)
