@<TRIPOS>MOLECULE
NONAME
32 33 1 0 0 
SMALL
USER_CHARGES


@<TRIPOS>ATOM
  1 O        2.8400    -0.8920    -1.4680 O.2   1 <1>  -0.5700 
  2 C        2.0880    -1.0830    -0.5410 C.2   1 <1>   0.5690 
  3 N        1.5730    -0.0730     0.2270 N.am  1 <1>  -0.4940 
  4 C        1.7200    -2.5150    -0.2190 C.3   1 <1>   0.1570 
  5 C        1.6810     1.3340     0.1160 C.2   1 <1>  -0.0880 
  6 N        0.2850    -2.6230     0.0830 N.pl3 1 <1>   0.3140 
  7 N        2.7650     2.0770    -0.2570 N.pl3 1 <1>   0.3140 
  8 C        0.6880     2.2150     0.3790 C.2   1 <1>  -0.1500 
  9 N       -0.2410    -2.1170     1.2190 N.2   1 <1>  -0.7070 
 10 C       -0.6650    -3.2040    -0.6760 C.2   1 <1>  -0.3020 
 11 N        2.4660     3.4030    -0.2510 N.2   1 <1>  -0.7070 
 12 C        4.1300     1.5870    -0.5780 C.3   1 <1>   0.0960 
 13 C        1.2300     3.4670     0.1300 C.2   1 <1>   0.1390 
 14 C       -1.5080    -2.3970     1.1530 C.2   1 <1>   0.1390 
 15 C       -1.8350    -3.0760    -0.0140 C.2   1 <1>  -0.1500 
 16 C        5.2400     2.5580    -0.1390 C.3   1 <1>  -0.1600 
 17 C        6.6320     1.9720    -0.4080 C.3   1 <1>  -0.2400 
 18 H        0.8410    -0.4020     0.8790 H     1 <1>   0.3700 
 19 H        2.2780    -2.8440     0.6360 H     1 <1>   0.0800 
 20 H        1.9520    -3.1450    -1.0560 H     1 <1>   0.0800 
 21 H       -0.3160     2.0140     0.7040 H     1 <1>   0.1500 
 22 H       -0.4650    -3.6670    -1.6250 H     1 <1>   0.1500 
 23 H        4.1810     1.4220    -1.6390 H     1 <1>   0.0800 
 24 H        4.2740     0.6480    -0.0790 H     1 <1>   0.0800 
 25 H        0.6940     4.3950     0.2380 H     1 <1>   0.1500 
 26 H       -2.2180    -2.1300     1.9190 H     1 <1>   0.1500 
 27 H       -2.8160    -3.4140    -0.2990 H     1 <1>   0.1500 
 28 H        5.1370     2.7640     0.9120 H     1 <1>   0.0800 
 29 H        5.1380     3.4840    -0.6790 H     1 <1>   0.0800 
 30 H        6.7680     1.0570     0.1400 H     1 <1>   0.0800 
 31 H        7.3890     2.6720    -0.1000 H     1 <1>   0.0800 
 32 H        6.7580     1.7720    -1.4580 H     1 <1>   0.0800 
@<TRIPOS>BOND
  1   1   2  2   
  2   2   3  am  
  3   2   4  1   
  4   3   5  1   
  5   3  18  1   
  6   4   6  1   
  7   4  19  1   
  8   4  20  1   
  9   5   7  1   
 10   5   8  2   
 11   6   9  1   
 12   6  10  1   
 13   7  11  1   
 14   7  12  1   
 15   8  13  1   
 16   8  21  1   
 17   9  14  2   
 18  10  15  2   
 19  10  22  1   
 20  11  13  2   
 21  12  16  1   
 22  12  23  1   
 23  12  24  1   
 24  13  25  1   
 25  14  15  1   
 26  14  26  1   
 27  15  27  1   
 28  16  17  1   
 29  16  28  1   
 30  16  29  1   
 31  17  30  1   
 32  17  31  1   
 33  17  32  1   
@<TRIPOS>SUBSTRUCTURE
  1 ****   3 GROUP 4 **** **** 0

# MOE 2024.06 (io_trps.svl 2023.06)
