@<TRIPOS>MOLECULE
NONAME
50 52 1 0 0 
SMALL
USER_CHARGES


@<TRIPOS>ATOM
  1 S        1.4760     1.6130     0.4260 S.o2  1 <1>   1.3330 
  2 O        0.9590     0.3370    -0.0170 O.2   1 <1>  -0.6500 
  3 O        0.6150     2.7740     0.4000 O.2   1 <1>  -0.6500 
  4 N        2.0100     1.4190     2.0270 N.am  1 <1>  -0.8490 
  5 C        2.9760     1.9530    -0.4970 C.3   1 <1>  -0.0550 
  6 C        2.3570     2.6870     2.6770 C.3   1 <1>   0.1160 
  7 C        1.0300     0.6960     2.8420 C.3   1 <1>   0.1160 
  8 C        3.9580     0.7650    -0.5880 C.3   1 <1>  -0.0800 
  9 C        5.1370     0.9860    -1.5240 C.3   1 <1>   0.2200 
 10 C        4.6410     0.3890     0.7330 C.3   1 <1>   0.1200 
 11 N        5.6830     2.3540    -1.3670 N.am  1 <1>  -0.7300 
 12 C        6.1360    -0.0120    -0.9580 C.3   1 <1>   0.1200 
 13 O        5.9610     0.0450     0.4240 O.3   1 <1>  -0.5600 
 14 C        5.4660     3.3920    -2.2120 C.2   1 <1>   0.5690 
 15 O        4.8000     3.2650    -3.2110 O.2   1 <1>  -0.5700 
 16 C        6.0580     4.7510    -1.8820 C.3   1 <1>   0.0440 
 17 C        5.9440     5.0890    -0.3950 C.ar  1 <1>  -0.1440 
 18 C        4.6830     5.3840     0.1890 C.ar  1 <1>   0.0000 
 19 C        7.0820     5.0940     0.3680 C.ar  1 <1>  -0.1500 
 20 C        4.6350     5.6830     1.5710 C.ar  1 <1>   0.0000 
 21 C        3.4590     5.3900    -0.5230 C.ar  1 <1>  -0.1500 
 22 C        7.0270     5.3890     1.7330 C.ar  1 <1>  -0.1500 
 23 C        5.8290     5.6780     2.3180 C.ar  1 <1>  -0.1500 
 24 C        3.3950     5.9770     2.1740 C.ar  1 <1>  -0.1500 
 25 C        2.2680     5.6600     0.0910 C.ar  1 <1>  -0.1500 
 26 C        2.2340     5.9620     1.4550 C.ar  1 <1>  -0.1500 
 27 H        2.6990     2.2320    -1.4960 H     1 <1>   0.0800 
 28 H        3.4730     2.7910    -0.0580 H     1 <1>   0.0800 
 29 H        2.7380     2.5040     3.6670 H     1 <1>   0.0800 
 30 H        1.4930     3.3270     2.7470 H     1 <1>   0.0800 
 31 H        3.1190     3.1970     2.1140 H     1 <1>   0.0800 
 32 H        1.4000     0.5690     3.8450 H     1 <1>   0.0800 
 33 H        0.8510    -0.2800     2.4230 H     1 <1>   0.0800 
 34 H        0.0980     1.2360     2.8720 H     1 <1>   0.0800 
 35 H        3.4180    -0.1000    -0.9350 H     1 <1>   0.0800 
 36 H        4.8960     0.7880    -2.5560 H     1 <1>   0.0800 
 37 H        4.1600    -0.4490     1.2080 H     1 <1>   0.0800 
 38 H        4.6770     1.2210     1.4150 H     1 <1>   0.0800 
 39 H        6.1710     2.5130    -0.4790 H     1 <1>   0.3700 
 40 H        7.1540     0.2270    -1.2080 H     1 <1>   0.0800 
 41 H        5.9010    -1.0120    -1.2800 H     1 <1>   0.0800 
 42 H        7.0870     4.7420    -2.1870 H     1 <1>   0.0800 
 43 H        5.5630     5.5060    -2.4650 H     1 <1>   0.0800 
 44 H        8.0450     4.8730    -0.0590 H     1 <1>   0.1500 
 45 H        3.4530     5.1730    -1.5750 H     1 <1>   0.1500 
 46 H        7.9380     5.3870     2.3080 H     1 <1>   0.1500 
 47 H        5.7810     5.9100     3.3670 H     1 <1>   0.1500 
 48 H        3.3770     6.2170     3.2220 H     1 <1>   0.1500 
 49 H        1.3440     5.6450    -0.4620 H     1 <1>   0.1500 
 50 H        1.2850     6.1800     1.9150 H     1 <1>   0.1500 
@<TRIPOS>BOND
  1   1   2  2   
  2   1   3  2   
  3   1   4  am  
  4   1   5  1   
  5   4   6  1   
  6   4   7  1   
  7   5   8  1   
  8   5  27  1   
  9   5  28  1   
 10   6  29  1   
 11   6  30  1   
 12   6  31  1   
 13   7  32  1   
 14   7  33  1   
 15   7  34  1   
 16   8   9  1   
 17   8  10  1   
 18   8  35  1   
 19   9  11  1   
 20   9  12  1   
 21   9  36  1   
 22  10  13  1   
 23  10  37  1   
 24  10  38  1   
 25  11  14  am  
 26  11  39  1   
 27  12  13  1   
 28  12  40  1   
 29  12  41  1   
 30  14  15  2   
 31  14  16  1   
 32  16  17  1   
 33  16  42  1   
 34  16  43  1   
 35  17  18  ar  
 36  17  19  ar  
 37  18  20  ar  
 38  18  21  ar  
 39  19  22  ar  
 40  19  44  1   
 41  20  23  ar  
 42  20  24  ar  
 43  21  25  ar  
 44  21  45  1   
 45  22  23  ar  
 46  22  46  1   
 47  23  47  1   
 48  24  26  ar  
 49  24  48  1   
 50  25  26  ar  
 51  25  49  1   
 52  26  50  1   
@<TRIPOS>SUBSTRUCTURE
  1 ****   5 GROUP 4 **** **** 0

# MOE 2024.06 (io_trps.svl 2023.06)
