@<TRIPOS>MOLECULE
NONAME
34 35 1 0 0 
SMALL
USER_CHARGES


@<TRIPOS>ATOM
  1 O       -0.1000    -0.2090     0.4330 O.2   1 <1>  -0.5700 
  2 C        0.9490    -0.7690     0.1650 C.2   1 <1>   0.7150 
  3 N        2.0980    -0.0480    -0.0330 N.am  1 <1>  -0.4930 
  4 C        0.9920    -2.2010     0.0520 C.2   1 <1>   0.0550 
  5 C        2.3230     1.3510     0.0180 C.2   1 <1>   0.0630 
  6 O        2.1100    -2.8290    -0.2350 O.3   1 <1>  -0.0190 
  7 C        0.0490    -3.1600     0.1880 C.2   1 <1>  -0.1500 
  8 C        3.5360     2.0100    -0.1970 C.2   1 <1>   0.1080 
  9 C        1.4480     2.3430     0.2790 C.2   1 <1>  -0.3020 
 10 N        1.9690    -4.1170    -0.2970 N.2   1 <1>  -0.4100 
 11 C        0.7270    -4.3490    -0.0440 C.2   1 <1>   0.1080 
 12 N        3.4260     3.2970    -0.0810 N.2   1 <1>  -0.7070 
 13 C        4.8520     1.3430    -0.5300 C.3   1 <1>  -0.0590 
 14 N        2.1320     3.5030     0.2150 N.pl3 1 <1>   0.3140 
 15 C        0.1140    -5.7440    -0.0120 C.3   1 <1>   0.1010 
 16 C        1.5870     4.8480     0.4260 C.3   1 <1>   0.0160 
 17 C       -0.9790    -5.8850    -1.0780 C.3   1 <1>  -0.2400 
 18 C       -0.4470    -6.0610     1.3800 C.3   1 <1>  -0.2400 
 19 H        2.9180    -0.6110    -0.2520 H     1 <1>   0.3700 
 20 H       -0.9930    -3.0410     0.4230 H     1 <1>   0.1500 
 21 H        0.3990     2.2840     0.5020 H     1 <1>   0.1500 
 22 H        5.1330     0.6740     0.2610 H     1 <1>   0.0800 
 23 H        5.6180     2.0880    -0.6430 H     1 <1>   0.0800 
 24 H        4.7620     0.7970    -1.4510 H     1 <1>   0.0800 
 25 H        0.8930    -6.4540    -0.2310 H     1 <1>   0.0800 
 26 H        1.0020     4.8560     1.3270 H     1 <1>   0.0800 
 27 H        0.9730     5.1130    -0.4140 H     1 <1>   0.0800 
 28 H        2.3990     5.5460     0.5160 H     1 <1>   0.0800 
 29 H       -1.7900    -5.2060    -0.8850 H     1 <1>   0.0800 
 30 H       -1.3630    -6.8890    -1.0880 H     1 <1>   0.0800 
 31 H       -0.5710    -5.6660    -2.0490 H     1 <1>   0.0800 
 32 H       -1.2460    -5.3870     1.6320 H     1 <1>   0.0800 
 33 H        0.3300    -5.9650     2.1170 H     1 <1>   0.0800 
 34 H       -0.8230    -7.0680     1.4090 H     1 <1>   0.0800 
@<TRIPOS>BOND
  1   1   2  2   
  2   2   3  am  
  3   2   4  1   
  4   3   5  1   
  5   3  19  1   
  6   4   6  1   
  7   4   7  2   
  8   5   8  1   
  9   5   9  2   
 10   6  10  1   
 11   7  11  1   
 12   7  20  1   
 13   8  12  2   
 14   8  13  1   
 15   9  14  1   
 16   9  21  1   
 17  10  11  2   
 18  11  15  1   
 19  12  14  1   
 20  13  22  1   
 21  13  23  1   
 22  13  24  1   
 23  14  16  1   
 24  15  17  1   
 25  15  18  1   
 26  15  25  1   
 27  16  26  1   
 28  16  27  1   
 29  16  28  1   
 30  17  29  1   
 31  17  30  1   
 32  17  31  1   
 33  18  32  1   
 34  18  33  1   
 35  18  34  1   
@<TRIPOS>SUBSTRUCTURE
  1 ****   2 GROUP 4 **** **** 0

# MOE 2024.06 (io_trps.svl 2023.06)
