@<TRIPOS>MOLECULE
NONAME
55 58 1 0 0 
SMALL
USER_CHARGES


@<TRIPOS>ATOM
  1 O        0.4820     1.6230     0.5310 O.2   1 <1>  -0.5700 
  2 C       -0.2150     2.4980     0.0800 C.2   1 <1>   0.5690 
  3 N       -1.4320     2.3320    -0.4770 N.am  1 <1>  -0.6600 
  4 C        0.1620     3.9510     0.1030 C.3   1 <1>  -0.0990 
  5 C       -2.0590     3.6120    -0.8550 C.3   1 <1>   0.1400 
  6 C       -2.1530     1.0460    -0.5850 C.3   1 <1>   0.2840 
  7 C       -1.1850     4.6540    -0.1410 C.3   1 <1>  -0.0190 
  8 C       -3.3400     1.0620     0.3640 C.ar  1 <1>  -0.1440 
  9 C       -1.0710     5.9560    -0.9140 C.2   1 <1>   0.5690 
 10 C       -4.6460     1.1150    -0.0800 C.ar  1 <1>  -0.1500 
 11 C       -3.1590     1.0330     1.7320 C.ar  1 <1>  -0.1500 
 12 O       -0.7260     5.9200    -2.0710 O.2   1 <1>  -0.5700 
 13 N       -1.3850     7.1170    -0.2650 N.am  1 <1>  -0.4940 
 14 C       -5.6790     1.1420     0.8420 C.ar  1 <1>   0.1600 
 15 C       -4.2620     1.0630     2.5680 C.ar  1 <1>   0.1600 
 16 C       -1.3290     8.4520    -0.7260 C.2   1 <1>  -0.0880 
 17 N       -5.5180     1.1210     2.1550 N.ar  1 <1>  -0.6200 
 18 N       -0.3130     9.0370    -1.4270 N.pl3 1 <1>   0.3140 
 19 C       -2.2570     9.4160    -0.5200 C.2   1 <1>  -0.1810 
 20 N       -0.5790    10.3460    -1.6650 N.2   1 <1>  -0.7070 
 21 C        0.9880     8.4580    -1.8430 C.3   1 <1>   0.2390 
 22 C       -1.7380    10.5540    -1.1250 C.2   1 <1>   0.1390 
 23 C       -3.5920     9.3340     0.1970 C.3   1 <1>  -0.0590 
 24 C        1.7430     7.7990    -0.6880 C.ar  1 <1>  -0.1430 
 25 C        1.8470     8.4240     0.5460 C.ar  1 <1>  -0.1500 
 26 C        2.3380     6.5600    -0.8720 C.ar  1 <1>  -0.1500 
 27 C        2.5240     7.8180     1.5920 C.ar  1 <1>  -0.1430 
 28 C        3.0220     5.9530     0.1670 C.ar  1 <1>  -0.1500 
 29 C        3.1120     6.5790     1.3970 C.ar  1 <1>  -0.1500 
 30 C        2.6270     8.5130     2.9370 C.3   1 <1>  -0.0970 
 31 H        0.8500     4.1310    -0.7020 H     1 <1>   0.0800 
 32 H        0.6050     4.2290     1.0410 H     1 <1>   0.0800 
 33 H       -3.0810     3.6630    -0.5200 H     1 <1>   0.0800 
 34 H       -2.0150     3.7250    -1.9260 H     1 <1>   0.0800 
 35 H       -1.4920     0.2370    -0.3240 H     1 <1>   0.0800 
 36 H       -2.4780     0.9030    -1.6010 H     1 <1>   0.0800 
 37 H       -1.6390     4.8460     0.8150 H     1 <1>   0.0800 
 38 H       -4.8720     1.1370    -1.1310 H     1 <1>   0.1500 
 39 H       -2.1680     0.9910     2.1480 H     1 <1>   0.1500 
 40 H       -1.7170     7.0200     0.6940 H     1 <1>   0.3700 
 41 H       -6.6930     1.1820     0.4800 H     1 <1>   0.1500 
 42 H       -4.1020     1.0390     3.6330 H     1 <1>   0.1500 
 43 H        1.5910     9.2510    -2.2440 H     1 <1>   0.0800 
 44 H        0.8050     7.7540    -2.6320 H     1 <1>   0.0800 
 45 H       -2.2330    11.5110    -1.1490 H     1 <1>   0.1500 
 46 H       -3.8170     8.3190     0.4660 H     1 <1>   0.0800 
 47 H       -4.3730     9.6990    -0.4460 H     1 <1>   0.0800 
 48 H       -3.5660     9.9350     1.0880 H     1 <1>   0.0800 
 49 H        1.3960     9.3910     0.6940 H     1 <1>   0.1500 
 50 H        2.2690     6.0620    -1.8240 H     1 <1>   0.1500 
 51 H        3.4840     4.9920     0.0180 H     1 <1>   0.1500 
 52 H        3.6460     6.1000     2.1980 H     1 <1>   0.1500 
 53 H        1.7500     9.1080     3.1200 H     1 <1>   0.0800 
 54 H        3.4900     9.1540     2.9480 H     1 <1>   0.0800 
 55 H        2.7200     7.7920     3.7290 H     1 <1>   0.0800 
@<TRIPOS>BOND
  1   1   2  2   
  2   2   3  am  
  3   2   4  1   
  4   3   5  1   
  5   3   6  1   
  6   4   7  1   
  7   4  31  1   
  8   4  32  1   
  9   5   7  1   
 10   5  33  1   
 11   5  34  1   
 12   6   8  1   
 13   6  35  1   
 14   6  36  1   
 15   7   9  1   
 16   7  37  1   
 17   8  10  ar  
 18   8  11  ar  
 19   9  12  2   
 20   9  13  am  
 21  10  14  ar  
 22  10  38  1   
 23  11  15  ar  
 24  11  39  1   
 25  13  16  1   
 26  13  40  1   
 27  14  17  ar  
 28  14  41  1   
 29  15  17  ar  
 30  15  42  1   
 31  16  18  1   
 32  16  19  2   
 33  18  20  1   
 34  18  21  1   
 35  19  22  1   
 36  19  23  1   
 37  20  22  2   
 38  21  24  1   
 39  21  43  1   
 40  21  44  1   
 41  22  45  1   
 42  23  46  1   
 43  23  47  1   
 44  23  48  1   
 45  24  25  ar  
 46  24  26  ar  
 47  25  27  ar  
 48  25  49  1   
 49  26  28  ar  
 50  26  50  1   
 51  27  29  ar  
 52  27  30  1   
 53  28  29  ar  
 54  28  51  1   
 55  29  52  1   
 56  30  53  1   
 57  30  54  1   
 58  30  55  1   
@<TRIPOS>SUBSTRUCTURE
  1 ****   7 GROUP 4 **** **** 0

# MOE 2024.06 (io_trps.svl 2023.06)
