@<TRIPOS>MOLECULE
NONAME
41 43 1 0 0 
SMALL
USER_CHARGES


@<TRIPOS>ATOM
  1 O       -0.0370     0.2480     0.3160 O.3   1 <1>  -0.3630 
  2 C       -1.0730     1.0180    -0.1230 C.ar  1 <1>   0.3920 
  3 C       -0.1750    -1.1570     0.4200 C.3   1 <1>   0.0400 
  4 N       -2.2160     0.4180    -0.4240 N.ar  1 <1>  -0.6200 
  5 C       -0.8580     2.4220    -0.2210 C.ar  1 <1>   0.4100 
  6 C       -3.1350     1.2830    -0.8290 C.ar  1 <1>   0.1600 
  7 N       -1.7980     3.2650    -0.6240 N.ar  1 <1>  -0.6200 
  8 N        0.3730     2.9820     0.0990 N.pl3 1 <1>  -0.8690 
  9 C       -2.9320     2.6500    -0.9230 C.ar  1 <1>   0.1600 
 10 C        0.4930     4.3690     0.6310 C.3   1 <1>   0.2090 
 11 C        0.7270     5.3700    -0.5050 C.3   1 <1>   0.2090 
 12 N        0.9070     6.7490     0.0530 N.pl3 1 <1>  -0.8380 
 13 C        2.1790     7.3540     0.0510 C.ar  1 <1>   0.1000 
 14 C       -0.3250     7.5800    -0.0530 C.3   1 <1>   0.2090 
 15 C        2.3240     8.7390    -0.0800 C.ar  1 <1>  -0.1430 
 16 C        3.3370     6.5910     0.2010 C.ar  1 <1>  -0.1500 
 17 C       -0.0900     8.9840     0.4960 C.3   1 <1>  -0.1600 
 18 C        3.5820     9.3190    -0.0900 C.ar  1 <1>  -0.1500 
 19 C        1.1010     9.6310    -0.2100 C.3   1 <1>  -0.0170 
 20 C        4.5910     7.1720     0.1930 C.ar  1 <1>  -0.1500 
 21 C        4.7170     8.5400     0.0430 C.ar  1 <1>  -0.1500 
 22 H        0.7540    -1.5630     0.7760 H     1 <1>   0.0800 
 23 H       -0.4050    -1.5570    -0.5520 H     1 <1>   0.0800 
 24 H       -0.9660    -1.3780     1.1150 H     1 <1>   0.0800 
 25 H       -4.0960     0.8820    -1.0970 H     1 <1>   0.1500 
 26 H        1.0110     2.3090     0.5360 H     1 <1>   0.4000 
 27 H       -3.7440     3.2690    -1.2620 H     1 <1>   0.1500 
 28 H        1.3180     4.4160     1.3180 H     1 <1>   0.0800 
 29 H       -0.4070     4.6360     1.1580 H     1 <1>   0.0800 
 30 H       -0.1180     5.3500    -1.1700 H     1 <1>   0.0800 
 31 H        1.5940     5.0820    -1.0700 H     1 <1>   0.0800 
 32 H       -1.1200     7.1070     0.4970 H     1 <1>   0.0800 
 33 H       -0.6170     7.6430    -1.0880 H     1 <1>   0.0800 
 34 H        3.2620     5.5310     0.3340 H     1 <1>   0.1500 
 35 H        0.1060     8.9170     1.5520 H     1 <1>   0.0800 
 36 H       -0.9720     9.5820     0.3530 H     1 <1>   0.0800 
 37 H        3.6850    10.3840    -0.1990 H     1 <1>   0.1500 
 38 H        0.8790     9.7660    -1.2540 H     1 <1>   0.0800 
 39 H        1.2960    10.5940     0.2260 H     1 <1>   0.0800 
 40 H        5.4690     6.5610     0.3050 H     1 <1>   0.1500 
 41 H        5.6910     8.9970     0.0340 H     1 <1>   0.1500 
@<TRIPOS>BOND
  1   1   2  1   
  2   1   3  1   
  3   2   4  ar  
  4   2   5  ar  
  5   3  22  1   
  6   3  23  1   
  7   3  24  1   
  8   4   6  ar  
  9   5   7  ar  
 10   5   8  1   
 11   6   9  ar  
 12   6  25  1   
 13   7   9  ar  
 14   8  10  1   
 15   8  26  1   
 16   9  27  1   
 17  10  11  1   
 18  10  28  1   
 19  10  29  1   
 20  11  12  1   
 21  11  30  1   
 22  11  31  1   
 23  12  13  1   
 24  12  14  1   
 25  13  15  ar  
 26  13  16  ar  
 27  14  17  1   
 28  14  32  1   
 29  14  33  1   
 30  15  18  ar  
 31  15  19  1   
 32  16  20  ar  
 33  16  34  1   
 34  17  19  1   
 35  17  35  1   
 36  17  36  1   
 37  18  21  ar  
 38  18  37  1   
 39  19  38  1   
 40  19  39  1   
 41  20  21  ar  
 42  20  40  1   
 43  21  41  1   
@<TRIPOS>SUBSTRUCTURE
  1 ****  11 GROUP 4 **** **** 0

# MOE 2024.06 (io_trps.svl 2023.06)
