@<TRIPOS>MOLECULE
NONAME
52 54 1 0 0 
SMALL
USER_CHARGES


@<TRIPOS>ATOM
  1 O        4.6630    -1.5560     1.9960 O.2   1 <1>  -0.5700 
  2 C        4.0220    -1.8390     0.9980 C.2   1 <1>   0.5440 
  3 N        4.4500    -1.2660    -0.1780 N.am  1 <1>  -0.6600 
  4 C        2.8260    -2.6600     1.0680 C.ar  1 <1>   0.0860 
  5 C        5.9170    -1.1460    -0.4570 C.3   1 <1>   0.1400 
  6 C        3.5770    -0.3030    -0.8950 C.3   1 <1>   0.1400 
  7 C        2.0970    -2.7750     2.2530 C.ar  1 <1>  -0.1500 
  8 C        2.3540    -3.3690    -0.0410 C.ar  1 <1>  -0.1500 
  9 C        6.5140     0.2060    -0.0140 C.3   1 <1>   0.3430 
 10 C        3.3590     0.9490    -0.0330 C.3   1 <1>  -0.1600 
 11 C        0.9490    -3.5410     2.3240 C.ar  1 <1>  -0.1500 
 12 C        1.2060    -4.1380     0.0220 C.ar  1 <1>  -0.1500 
 13 N        5.6490     0.8980     0.9920 N.4   1 <1>  -0.9590 
 14 C        4.6200     1.7450     0.3280 C.3   1 <1>   0.3430 
 15 C        0.4910    -4.2270     1.2110 C.ar  1 <1>   0.0830 
 16 C        6.4680     1.6610     1.9790 C.3   1 <1>   0.5230 
 17 O       -0.6400    -4.9520     1.3600 O.3   1 <1>  -0.3620 
 18 C        7.0870     2.8960     1.3400 C.2   1 <1>  -0.0400 
 19 C       -1.1820    -5.7120     0.3030 C.3   1 <1>   0.0400 
 20 O        7.9330     2.7520     0.3350 O.3   1 <1>  -0.2800 
 21 C        6.9190     4.2040     1.6290 C.2   1 <1>  -0.1500 
 22 C        8.3250     3.9540    -0.0400 C.2   1 <1>  -0.0400 
 23 C        7.7300     4.8970     0.7230 C.2   1 <1>  -0.1500 
 24 C        9.3190     4.0620    -1.1850 C.3   1 <1>   0.0200 
 25 C        9.6810     5.5130    -1.5170 C.3   1 <1>  -0.2400 
 26 H        6.1030    -1.2990    -1.5060 H     1 <1>   0.0800 
 27 H        6.4330    -1.9320     0.0710 H     1 <1>   0.0800 
 28 H        2.6250    -0.7670    -1.0970 H     1 <1>   0.0800 
 29 H        4.0190    -0.0380    -1.8410 H     1 <1>   0.0800 
 30 H        2.4380    -2.2570     3.1330 H     1 <1>   0.1500 
 31 H        2.8980    -3.3210    -0.9670 H     1 <1>   0.1500 
 32 H        6.6480     0.8420    -0.8730 H     1 <1>   0.0800 
 33 H        7.4920     0.0250     0.4000 H     1 <1>   0.0800 
 34 H        2.8400     0.6790     0.8700 H     1 <1>   0.0800 
 35 H        2.7020     1.6090    -0.5710 H     1 <1>   0.0800 
 36 H        0.3980    -3.6180     3.2450 H     1 <1>   0.1500 
 37 H        0.8830    -4.6630    -0.8580 H     1 <1>   0.1500 
 38 H        5.1660     0.1230     1.4960 H     1 <1>   0.4500 
 39 H        4.3340     2.5460     0.9910 H     1 <1>   0.0800 
 40 H        5.0410     2.1940    -0.5580 H     1 <1>   0.0800 
 41 H        7.2500     1.0320     2.3710 H     1 <1>   0.0800 
 42 H        5.8440     1.9690     2.8010 H     1 <1>   0.0800 
 43 H       -2.0680    -6.2030     0.6650 H     1 <1>   0.0800 
 44 H       -0.4590    -6.4460    -0.0070 H     1 <1>   0.0800 
 45 H       -1.4360    -5.0530    -0.5080 H     1 <1>   0.0800 
 46 H        6.3100     4.6710     2.3840 H     1 <1>   0.1500 
 47 H        7.8370     5.9680     0.6770 H     1 <1>   0.1500 
 48 H        8.8980     3.5930    -2.0570 H     1 <1>   0.0800 
 49 H       10.2130     3.5260    -0.9190 H     1 <1>   0.0800 
 50 H        8.8020     6.0620    -1.8070 H     1 <1>   0.0800 
 51 H       10.3840     5.5400    -2.3300 H     1 <1>   0.0800 
 52 H       10.1270     5.9920    -0.6630 H     1 <1>   0.0800 
@<TRIPOS>BOND
  1   1   2  2   
  2   2   3  am  
  3   2   4  1   
  4   3   5  1   
  5   3   6  1   
  6   4   7  ar  
  7   4   8  ar  
  8   5   9  1   
  9   5  26  1   
 10   5  27  1   
 11   6  10  1   
 12   6  28  1   
 13   6  29  1   
 14   7  11  ar  
 15   7  30  1   
 16   8  12  ar  
 17   8  31  1   
 18   9  13  1   
 19   9  32  1   
 20   9  33  1   
 21  10  14  1   
 22  10  34  1   
 23  10  35  1   
 24  11  15  ar  
 25  11  36  1   
 26  12  15  ar  
 27  12  37  1   
 28  13  14  1   
 29  13  16  1   
 30  13  38  1   
 31  14  39  1   
 32  14  40  1   
 33  15  17  1   
 34  16  18  1   
 35  16  41  1   
 36  16  42  1   
 37  17  19  1   
 38  18  20  1   
 39  18  21  2   
 40  19  43  1   
 41  19  44  1   
 42  19  45  1   
 43  20  22  1   
 44  21  23  1   
 45  21  46  1   
 46  22  23  2   
 47  22  24  1   
 48  23  47  1   
 49  24  25  1   
 50  24  48  1   
 51  24  49  1   
 52  25  50  1   
 53  25  51  1   
 54  25  52  1   
@<TRIPOS>SUBSTRUCTURE
  1 ****   3 GROUP 4 **** **** 0

# MOE 2024.06 (io_trps.svl 2023.06)
