@<TRIPOS>MOLECULE
NONAME
44 45 1 0 0 
SMALL
USER_CHARGES


@<TRIPOS>ATOM
  1 CL       0.1820     0.5520    -0.5180 Cl    1 <1>  -0.1770 
  2 C        1.7050     1.3890    -0.3450 C.ar  1 <1>   0.1770 
  3 C        2.8690     0.6560    -0.2110 C.ar  1 <1>  -0.1500 
  4 C        1.7210     2.7720    -0.3450 C.ar  1 <1>  -0.1500 
  5 C        4.0740     1.3250    -0.0740 C.ar  1 <1>  -0.1500 
  6 C        2.9280     3.4380    -0.2080 C.ar  1 <1>  -0.1500 
  7 C        4.1120     2.7130    -0.0710 C.ar  1 <1>   0.0830 
  8 O        5.3330     3.2850     0.0700 O.3   1 <1>  -0.3630 
  9 C        5.4780     4.6880     0.1410 C.3   1 <1>   0.1200 
 10 C        6.9670     5.0140     0.2670 C.3   1 <1>   0.1400 
 11 N        7.1700     6.4500     0.5930 N.am  1 <1>  -0.7300 
 12 C        6.8950     7.4800    -0.2500 C.2   1 <1>   0.5690 
 13 O        6.3900     7.2920    -1.3300 O.2   1 <1>  -0.5700 
 14 C        7.2410     8.9000     0.1970 C.3   1 <1>  -0.0190 
 15 C        6.2530     9.9540    -0.3440 C.3   1 <1>  -0.1600 
 16 C        8.6940     9.2620    -0.1910 C.3   1 <1>  -0.1600 
 17 C        6.5260    11.3610     0.2320 C.3   1 <1>   0.2000 
 18 C        8.9700    10.7790    -0.2230 C.3   1 <1>  -0.1600 
 19 O        6.2140    12.3140    -0.7530 O.3   1 <1>  -0.5600 
 20 C        8.0000    11.5520     0.6760 C.3   1 <1>   0.2000 
 21 C        4.8550    12.5730    -0.9250 C.3   1 <1>   0.0400 
 22 O        8.3260    12.8900     0.6070 O.3   1 <1>  -0.6800 
 23 H        2.8300    -0.4180    -0.2150 H     1 <1>   0.1500 
 24 H        0.8000     3.3150    -0.4530 H     1 <1>   0.1500 
 25 H        4.9920     0.7760     0.0310 H     1 <1>   0.1500 
 26 H        2.9260     4.5120    -0.2130 H     1 <1>   0.1500 
 27 H        5.0780     5.1190    -0.7600 H     1 <1>   0.0800 
 28 H        4.9410     5.0370     1.0050 H     1 <1>   0.0800 
 29 H        7.4580     4.7910    -0.6660 H     1 <1>   0.0800 
 30 H        7.4010     4.4130     1.0460 H     1 <1>   0.0800 
 31 H        7.6320     6.6390     1.4840 H     1 <1>   0.3700 
 32 H        7.1660     8.9190     1.2700 H     1 <1>   0.0800 
 33 H        5.2470     9.6600    -0.1060 H     1 <1>   0.0800 
 34 H        6.3490     9.9830    -1.4170 H     1 <1>   0.0800 
 35 H        9.3650     8.7900     0.5060 H     1 <1>   0.0800 
 36 H        8.9140     8.8620    -1.1670 H     1 <1>   0.0800 
 37 H        5.9000    11.5370     1.0910 H     1 <1>   0.0800 
 38 H        8.8480    11.1320    -1.2330 H     1 <1>   0.0800 
 39 H        9.9840    10.9700     0.0810 H     1 <1>   0.0800 
 40 H        8.1290    11.2340     1.6960 H     1 <1>   0.0800 
 41 H        4.7530    13.3290    -1.6830 H     1 <1>   0.0800 
 42 H        4.4410    12.9320     0.0010 H     1 <1>   0.0800 
 43 H        4.3540    11.6760    -1.2440 H     1 <1>   0.0800 
 44 H        7.7900    13.2560    -0.1340 H     1 <1>   0.4000 
@<TRIPOS>BOND
  1   1   2  1   
  2   2   3  ar  
  3   2   4  ar  
  4   3   5  ar  
  5   3  23  1   
  6   4   6  ar  
  7   4  24  1   
  8   5   7  ar  
  9   5  25  1   
 10   6   7  ar  
 11   6  26  1   
 12   7   8  1   
 13   8   9  1   
 14   9  10  1   
 15   9  27  1   
 16   9  28  1   
 17  10  11  1   
 18  10  29  1   
 19  10  30  1   
 20  11  12  am  
 21  11  31  1   
 22  12  13  2   
 23  12  14  1   
 24  14  15  1   
 25  14  16  1   
 26  14  32  1   
 27  15  17  1   
 28  15  33  1   
 29  15  34  1   
 30  16  18  1   
 31  16  35  1   
 32  16  36  1   
 33  17  19  1   
 34  17  20  1   
 35  17  37  1   
 36  18  20  1   
 37  18  38  1   
 38  18  39  1   
 39  19  21  1   
 40  20  22  1   
 41  20  40  1   
 42  21  41  1   
 43  21  42  1   
 44  21  43  1   
 45  22  44  1   
@<TRIPOS>SUBSTRUCTURE
  1 ****  13 GROUP 4 **** **** 0

# MOE 2024.06 (io_trps.svl 2023.06)
