@<TRIPOS>MOLECULE
NONAME
39 41 1 0 0 
SMALL
USER_CHARGES


@<TRIPOS>ATOM
  1 O       -1.6500     1.0280    -0.7230 O.co2 1 <1>  -0.9000 
  2 C       -1.5560     2.0970    -0.1170 C.2   1 <1>   0.9060 
  3 O       -2.2550     2.3760     0.8670 O.co2 1 <1>  -0.9000 
  4 C       -0.5520     3.1110    -0.6030 C.3   1 <1>  -0.1860 
  5 C       -1.1850     4.5050    -0.7180 C.3   1 <1>   0.2000 
  6 C        0.6950     3.0820     0.2970 C.3   1 <1>   0.1400 
  7 O       -1.6040     4.9110     0.5350 O.3   1 <1>  -0.6800 
  8 C       -0.1840     5.5390    -1.2540 C.3   1 <1>  -0.1600 
  9 N        1.3970     4.4040     0.3010 N.am  1 <1>  -0.6600 
 10 C        1.2800     5.1720    -0.9670 C.3   1 <1>   0.1400 
 11 C        1.7180     4.9610     1.5120 C.2   1 <1>   0.5690 
 12 O        2.1920     4.2990     2.4080 O.2   1 <1>  -0.5700 
 13 C        1.4130     6.4170     1.8070 C.3   1 <1>   0.1570 
 14 N        2.4060     7.3330     1.2070 N.pl3 1 <1>   0.0480 
 15 C        2.1270     8.4480     0.4470 C.ar  1 <1>  -0.1520 
 16 C        3.7670     7.2020     1.2650 C.2   1 <1>  -0.3020 
 17 C        3.3320     9.0030     0.0240 C.ar  1 <1>   0.0000 
 18 C        0.9110     9.0350     0.0800 C.ar  1 <1>  -0.1500 
 19 C        4.3550     8.1950     0.5600 C.2   1 <1>  -0.1500 
 20 C        3.3290    10.1470    -0.7790 C.ar  1 <1>  -0.1500 
 21 C        0.9210    10.1610    -0.7110 C.ar  1 <1>  -0.1500 
 22 C        2.1310    10.7170    -1.1420 C.ar  1 <1>  -0.1500 
 23 H       -0.2580     2.7990    -1.5870 H     1 <1>   0.0800 
 24 H       -2.0600     4.4640    -1.3450 H     1 <1>   0.0800 
 25 H        1.3690     2.3100    -0.0310 H     1 <1>   0.0800 
 26 H        0.3910     2.8470     1.3040 H     1 <1>   0.0800 
 27 H       -2.0110     4.0940     0.9510 H     1 <1>   0.4000 
 28 H       -0.2960     5.6040    -2.3200 H     1 <1>   0.0800 
 29 H       -0.4120     6.5100    -0.8560 H     1 <1>   0.0800 
 30 H        1.8950     6.0540    -0.9480 H     1 <1>   0.0800 
 31 H        1.6480     4.5470    -1.7620 H     1 <1>   0.0800 
 32 H        1.4110     6.5650     2.8690 H     1 <1>   0.0800 
 33 H        0.4340     6.6430     1.4330 H     1 <1>   0.0800 
 34 H        4.2330     6.3960     1.8070 H     1 <1>   0.1500 
 35 H       -0.0190     8.6110     0.4140 H     1 <1>   0.1500 
 36 H        5.4050     8.3720     0.4090 H     1 <1>   0.1500 
 37 H        4.2670    10.5630    -1.1000 H     1 <1>   0.1500 
 38 H       -0.0030    10.6270    -1.0040 H     1 <1>   0.1500 
 39 H        2.1130    11.5980    -1.7590 H     1 <1>   0.1500 
@<TRIPOS>BOND
  1   1   2  ar  
  2   2   3  ar  
  3   2   4  1   
  4   4   5  1   
  5   4   6  1   
  6   4  23  1   
  7   5   7  1   
  8   5   8  1   
  9   5  24  1   
 10   6   9  1   
 11   6  25  1   
 12   6  26  1   
 13   7  27  1   
 14   8  10  1   
 15   8  28  1   
 16   8  29  1   
 17   9  10  1   
 18   9  11  am  
 19  10  30  1   
 20  10  31  1   
 21  11  12  2   
 22  11  13  1   
 23  13  14  1   
 24  13  32  1   
 25  13  33  1   
 26  14  15  1   
 27  14  16  1   
 28  15  17  ar  
 29  15  18  ar  
 30  16  19  2   
 31  16  34  1   
 32  17  19  1   
 33  17  20  ar  
 34  18  21  ar  
 35  18  35  1   
 36  19  36  1   
 37  20  22  ar  
 38  20  37  1   
 39  21  22  ar  
 40  21  38  1   
 41  22  39  1   
@<TRIPOS>SUBSTRUCTURE
  1 ****  10 GROUP 4 **** **** 0

# MOE 2024.06 (io_trps.svl 2023.06)
