@<TRIPOS>MOLECULE
NONAME
52 54 1 0 0 
SMALL
USER_CHARGES


@<TRIPOS>ATOM
  1 O       -0.2840     0.2870    -1.0800 O.2   1 <1>  -0.5700 
  2 C       -1.2660     0.8830    -0.7050 C.2   1 <1>   0.5690 
  3 N       -2.3860     0.2180    -0.2940 N.am  1 <1>  -0.6600 
  4 C       -1.2590     2.4040    -0.6960 C.3   1 <1>  -0.0990 
  5 C       -3.6750     0.8250     0.1230 C.3   1 <1>   0.1400 
  6 C       -2.4570    -1.2610    -0.2350 C.3   1 <1>   0.1400 
  7 C        0.1240     3.0200    -0.9520 C.3   1 <1>  -0.0160 
  8 C       -4.6360    -0.3560     0.2550 C.3   1 <1>   0.2000 
  9 C       -3.7490    -1.5680     0.5240 C.3   1 <1>  -0.0800 
 10 C        0.0470     4.5400    -0.8560 C.ar  1 <1>  -0.1440 
 11 O       -5.5290    -0.1730     1.2970 O.3   1 <1>  -0.6800 
 12 C       -4.3970    -2.9010     0.1210 C.3   1 <1>   0.0210 
 13 C        0.2860     5.2340     0.3270 C.ar  1 <1>  -0.1440 
 14 C       -0.2830     5.2490    -2.0020 C.ar  1 <1>  -0.1500 
 15 C       -3.4280    -4.0530     0.3010 C.2   1 <1>   0.1080 
 16 C        0.1900     6.6180     0.3380 C.ar  1 <1>  -0.1500 
 17 C        0.6600     4.5220     1.6210 C.3   1 <1>  -0.0970 
 18 C       -0.3780     6.6280    -1.9800 C.ar  1 <1>  -0.1500 
 19 N       -2.8740    -4.3340     1.4390 N.2   1 <1>  -0.7070 
 20 C       -3.0170    -4.9140    -0.7110 C.2   1 <1>  -0.1500 
 21 C       -0.1430     7.3210    -0.8070 C.ar  1 <1>  -0.1440 
 22 N       -2.0860    -5.3950     1.1810 N.pl3 1 <1>   0.3000 
 23 C       -2.1540    -5.7640    -0.1150 C.2   1 <1>  -0.3320 
 24 C       -0.2410     8.8360    -0.7730 C.3   1 <1>  -0.0970 
 25 C       -1.3780    -6.9230    -0.7130 C.3   1 <1>  -0.0600 
 26 H       -1.9410     2.7510    -1.4490 H     1 <1>   0.0800 
 27 H       -1.6150     2.7420     0.2590 H     1 <1>   0.0800 
 28 H       -3.5440     1.3180     1.0700 H     1 <1>   0.0800 
 29 H       -4.0250     1.5210    -0.6190 H     1 <1>   0.0800 
 30 H       -2.4930    -1.6500    -1.2380 H     1 <1>   0.0800 
 31 H       -1.5970    -1.6690     0.2720 H     1 <1>   0.0800 
 32 H        0.4660     2.7360    -1.9320 H     1 <1>   0.0800 
 33 H        0.8360     2.6290    -0.2490 H     1 <1>   0.0800 
 34 H       -5.1960    -0.4700    -0.6570 H     1 <1>   0.0800 
 35 H       -3.4940    -1.6050     1.5690 H     1 <1>   0.0800 
 36 H       -5.0690    -0.2570     2.1560 H     1 <1>   0.4000 
 37 H       -4.7170    -2.8630    -0.9050 H     1 <1>   0.0800 
 38 H       -5.2610    -3.0800     0.7350 H     1 <1>   0.0800 
 39 H       -0.4690     4.7270    -2.9240 H     1 <1>   0.1500 
 40 H        0.3770     7.1590     1.2480 H     1 <1>   0.1500 
 41 H        0.6850     5.2090     2.4470 H     1 <1>   0.0800 
 42 H        1.6330     4.0760     1.5230 H     1 <1>   0.0800 
 43 H       -0.0570     3.7540     1.8470 H     1 <1>   0.0800 
 44 H       -0.6330     7.1570    -2.8810 H     1 <1>   0.1500 
 45 H       -3.3320    -4.8860    -1.7380 H     1 <1>   0.1500 
 46 H       -1.5140    -5.8400     1.9090 H     1 <1>   0.2700 
 47 H       -0.8930     9.1900    -1.5510 H     1 <1>   0.0800 
 48 H        0.7340     9.2650    -0.9140 H     1 <1>   0.0800 
 49 H       -0.6320     9.1640     0.1730 H     1 <1>   0.0800 
 50 H       -1.6020    -7.0150    -1.7610 H     1 <1>   0.0800 
 51 H       -1.6450    -7.8420    -0.2240 H     1 <1>   0.0800 
 52 H       -0.3210    -6.7590    -0.6030 H     1 <1>   0.0800 
@<TRIPOS>BOND
  1   1   2  2   
  2   2   3  am  
  3   2   4  1   
  4   3   5  1   
  5   3   6  1   
  6   4   7  1   
  7   4  26  1   
  8   4  27  1   
  9   5   8  1   
 10   5  28  1   
 11   5  29  1   
 12   6   9  1   
 13   6  30  1   
 14   6  31  1   
 15   7  10  1   
 16   7  32  1   
 17   7  33  1   
 18   8   9  1   
 19   8  11  1   
 20   8  34  1   
 21   9  12  1   
 22   9  35  1   
 23  10  13  ar  
 24  10  14  ar  
 25  11  36  1   
 26  12  15  1   
 27  12  37  1   
 28  12  38  1   
 29  13  16  ar  
 30  13  17  1   
 31  14  18  ar  
 32  14  39  1   
 33  15  19  2   
 34  15  20  1   
 35  16  21  ar  
 36  16  40  1   
 37  17  41  1   
 38  17  42  1   
 39  17  43  1   
 40  18  21  ar  
 41  18  44  1   
 42  19  22  1   
 43  20  23  2   
 44  20  45  1   
 45  21  24  1   
 46  22  23  1   
 47  22  46  1   
 48  23  25  1   
 49  24  47  1   
 50  24  48  1   
 51  24  49  1   
 52  25  50  1   
 53  25  51  1   
 54  25  52  1   
@<TRIPOS>SUBSTRUCTURE
  1 ****   2 GROUP 4 **** **** 0

# MOE 2024.06 (io_trps.svl 2023.06)
