@<TRIPOS>MOLECULE
NONAME
56 58 1 0 0 
SMALL
USER_CHARGES


@<TRIPOS>ATOM
  1 O        2.0930     0.2950    -2.9500 O.2   1 <1>  -0.5700 
  2 C        2.6030     0.0790    -1.8730 C.2   1 <1>   0.7150 
  3 N        2.6400    -1.2300    -1.5120 N.am  1 <1>  -0.7300 
  4 C        3.1130     1.1690    -1.0930 C.2   1 <1>  -0.2370 
  5 C        2.8290    -1.9330    -0.2130 C.3   1 <1>   0.1400 
  6 N        3.9450     1.0830    -0.0280 N.pl3 1 <1>   0.3140 
  7 C        2.8970     2.5000    -1.2630 C.2   1 <1>  -0.1500 
  8 C        3.3190    -1.0640     0.9560 C.3   1 <1>   0.2000 
  9 N        4.2560     2.2800     0.4810 N.2   1 <1>  -0.7070 
 10 C        4.4770    -0.1400     0.5870 C.3   1 <1>   0.0960 
 11 C        3.6150     3.1600    -0.2710 C.2   1 <1>   0.2030 
 12 O        3.7370    -1.9120     1.9740 O.3   1 <1>  -0.6800 
 13 C        3.6550     4.6020    -0.0830 C.2   1 <1>   0.7160 
 14 O        3.0770     5.3760    -0.8260 O.2   1 <1>  -0.5700 
 15 N        4.3750     5.1130     0.9610 N.am  1 <1>  -0.7300 
 16 C        4.3990     6.5240     1.3990 C.3   1 <1>   0.1400 
 17 C        5.2490     7.3750     0.4380 C.3   1 <1>  -0.0800 
 18 C        6.7000     6.8720     0.3240 C.3   1 <1>  -0.1600 
 19 C        5.2460     8.8500     0.8660 C.3   1 <1>  -0.1600 
 20 C        7.5250     7.7610    -0.6040 C.3   1 <1>   0.3430 
 21 C        6.0990     9.7040    -0.0720 C.3   1 <1>   0.3430 
 22 N        7.4930     9.1690    -0.1150 N.4   1 <1>  -0.9590 
 23 C        8.4020    10.0260    -0.9300 C.3   1 <1>   0.3430 
 24 C        8.6800    11.3810    -0.2500 C.3   1 <1>  -0.0800 
 25 C        9.6990    12.1690    -1.0830 C.3   1 <1>  -0.2400 
 26 C        9.2100    11.2280     1.1870 C.3   1 <1>  -0.2400 
 27 H        2.2480    -1.8220    -2.2490 H     1 <1>   0.3700 
 28 H        3.5400    -2.7240    -0.3780 H     1 <1>   0.0800 
 29 H        1.8920    -2.3830     0.0690 H     1 <1>   0.0800 
 30 H        2.2910     2.9770    -2.0150 H     1 <1>   0.1500 
 31 H        2.5020    -0.4870     1.3560 H     1 <1>   0.0800 
 32 H        5.0120     0.1460     1.4750 H     1 <1>   0.0800 
 33 H        5.1500    -0.6120    -0.1030 H     1 <1>   0.0800 
 34 H        4.5120    -2.4470     1.7110 H     1 <1>   0.4000 
 35 H        4.7770     4.4060     1.5860 H     1 <1>   0.3700 
 36 H        4.7950     6.5760     2.3990 H     1 <1>   0.0800 
 37 H        3.3880     6.8970     1.4160 H     1 <1>   0.0800 
 38 H        4.7910     7.3190    -0.5360 H     1 <1>   0.0800 
 39 H        6.7060     5.8730    -0.0770 H     1 <1>   0.0800 
 40 H        7.1620     6.8330     1.2950 H     1 <1>   0.0800 
 41 H        5.6110     8.9510     1.8730 H     1 <1>   0.0800 
 42 H        4.2360     9.2240     0.8470 H     1 <1>   0.0800 
 43 H        7.1180     7.7120    -1.6020 H     1 <1>   0.0800 
 44 H        8.5420     7.4020    -0.6340 H     1 <1>   0.0800 
 45 H        6.1010    10.7230     0.2790 H     1 <1>   0.0800 
 46 H        5.6720     9.6870    -1.0620 H     1 <1>   0.0800 
 47 H        7.8570     9.1700     0.8460 H     1 <1>   0.4500 
 48 H        7.9750    10.1920    -1.9060 H     1 <1>   0.0800 
 49 H        9.3430     9.5180    -1.0630 H     1 <1>   0.0800 
 50 H        7.7730    11.9600    -0.2280 H     1 <1>   0.0800 
 51 H       10.6430    11.6530    -1.1310 H     1 <1>   0.0800 
 52 H        9.8690    13.1390    -0.6470 H     1 <1>   0.0800 
 53 H        9.3390    12.3180    -2.0870 H     1 <1>   0.0800 
 54 H       10.0970    10.6180     1.2060 H     1 <1>   0.0800 
 55 H        8.4720    10.7940     1.8370 H     1 <1>   0.0800 
 56 H        9.4630    12.1940     1.5900 H     1 <1>   0.0800 
@<TRIPOS>BOND
  1   1   2  2   
  2   2   3  am  
  3   2   4  1   
  4   3   5  1   
  5   3  27  1   
  6   4   6  1   
  7   4   7  2   
  8   5   8  1   
  9   5  28  1   
 10   5  29  1   
 11   6   9  1   
 12   6  10  1   
 13   7  11  1   
 14   7  30  1   
 15   8  10  1   
 16   8  12  1   
 17   8  31  1   
 18   9  11  2   
 19  10  32  1   
 20  10  33  1   
 21  11  13  1   
 22  12  34  1   
 23  13  14  2   
 24  13  15  am  
 25  15  16  1   
 26  15  35  1   
 27  16  17  1   
 28  16  36  1   
 29  16  37  1   
 30  17  18  1   
 31  17  19  1   
 32  17  38  1   
 33  18  20  1   
 34  18  39  1   
 35  18  40  1   
 36  19  21  1   
 37  19  41  1   
 38  19  42  1   
 39  20  22  1   
 40  20  43  1   
 41  20  44  1   
 42  21  22  1   
 43  21  45  1   
 44  21  46  1   
 45  22  23  1   
 46  22  47  1   
 47  23  24  1   
 48  23  48  1   
 49  23  49  1   
 50  24  25  1   
 51  24  26  1   
 52  24  50  1   
 53  25  51  1   
 54  25  52  1   
 55  25  53  1   
 56  26  54  1   
 57  26  55  1   
 58  26  56  1   
@<TRIPOS>SUBSTRUCTURE
  1 ****  13 GROUP 4 **** **** 0

# MOE 2024.06 (io_trps.svl 2023.06)
