@<TRIPOS>MOLECULE
NONAME
49 52 1 0 0 
SMALL
USER_CHARGES


@<TRIPOS>ATOM
  1 O        0.0460    -0.1820     0.6230 O.2   1 <1>  -0.5700 
  2 C       -0.9170     0.4390     0.2170 C.2   1 <1>   0.7160 
  3 N       -1.9420    -0.2580    -0.3330 N.am  1 <1>  -0.7300 
  4 C       -1.0020     1.8660     0.3240 C.2   1 <1>  -0.0860 
  5 C       -2.1000    -1.7070    -0.3710 C.3   1 <1>   0.3580 
  6 C       -2.1770     2.6240     0.2090 C.2   1 <1>   0.3720 
  7 C       -0.0500     2.8100     0.5630 C.2   1 <1>   0.0870 
  8 C       -3.0400    -2.0170    -1.5200 C.2   1 <1>  -0.2880 
  9 C       -2.6850    -2.1760     0.9700 C.3   1 <1>  -0.1600 
 10 N       -1.9440     3.8770     0.3690 N.2   1 <1>  -0.4100 
 11 N       -3.4590     2.1070    -0.0280 N.pl3 1 <1>  -0.8210 
 12 O       -0.6610     3.9680     0.5840 O.3   1 <1>  -0.0190 
 13 C        1.3770     2.7660     0.7660 C.ar  1 <1>   0.0530 
 14 C       -4.1050    -2.8210    -1.4270 C.2   1 <1>  -0.2880 
 15 C       -3.3380    -3.5630     0.8560 C.3   1 <1>  -0.1600 
 16 C       -4.3380     2.9530    -0.8940 C.3   1 <1>   0.2090 
 17 C       -4.1890     1.7360     1.2210 C.3   1 <1>   0.2090 
 18 C        1.9890     3.6280     1.6770 C.ar  1 <1>  -0.1500 
 19 C        2.2020     1.8910     0.0600 C.ar  1 <1>  -0.1500 
 20 C       -4.4950    -3.5560    -0.1550 C.3   1 <1>  -0.0220 
 21 C       -5.6820     2.2470    -1.1510 C.3   1 <1>   0.1200 
 22 C       -5.5350     1.0700     0.8790 C.3   1 <1>   0.1200 
 23 C        3.3570     3.6140     1.8800 C.ar  1 <1>  -0.1500 
 24 C        3.5700     1.8690     0.2590 C.ar  1 <1>  -0.1500 
 25 O       -6.3060     1.9020     0.0570 O.3   1 <1>  -0.5600 
 26 C        4.1520     2.7310     1.1710 C.ar  1 <1>  -0.1500 
 27 H       -2.7870     0.2870    -0.5470 H     1 <1>   0.3700 
 28 H       -1.1450    -2.1750    -0.5480 H     1 <1>   0.0800 
 29 H       -2.7580    -1.5210    -2.4320 H     1 <1>   0.1500 
 30 H       -3.4330    -1.4770     1.3000 H     1 <1>   0.0800 
 31 H       -1.8980    -2.2030     1.7030 H     1 <1>   0.0800 
 32 H       -4.7720    -3.0120    -2.2520 H     1 <1>   0.1500 
 33 H       -3.7010    -3.8800     1.8180 H     1 <1>   0.0800 
 34 H       -2.5950    -4.2720     0.5340 H     1 <1>   0.0800 
 35 H       -3.8430     3.1410    -1.8310 H     1 <1>   0.0800 
 36 H       -4.5220     3.9020    -0.4170 H     1 <1>   0.0800 
 37 H       -4.3670     2.6180     1.8140 H     1 <1>   0.0800 
 38 H       -3.5910     1.0570     1.8030 H     1 <1>   0.0800 
 39 H        1.3820     4.3180     2.2350 H     1 <1>   0.1500 
 40 H        1.7680     1.2160    -0.6550 H     1 <1>   0.1500 
 41 H       -4.7600    -4.5720    -0.3920 H     1 <1>   0.0800 
 42 H       -5.3580    -3.0780     0.2740 H     1 <1>   0.0800 
 43 H       -5.5320     1.3520    -1.7280 H     1 <1>   0.0800 
 44 H       -6.3470     2.8990    -1.6880 H     1 <1>   0.0800 
 45 H       -6.0970     0.8860     1.7770 H     1 <1>   0.0800 
 46 H       -5.3750     0.1350     0.3700 H     1 <1>   0.0800 
 47 H        3.8040     4.2880     2.5900 H     1 <1>   0.1500 
 48 H        4.1830     1.1790    -0.2950 H     1 <1>   0.1500 
 49 H        5.2160     2.7160     1.3270 H     1 <1>   0.1500 
@<TRIPOS>BOND
  1   1   2  2   
  2   2   3  am  
  3   2   4  1   
  4   3   5  1   
  5   3  27  1   
  6   4   6  1   
  7   4   7  2   
  8   5   8  1   
  9   5   9  1   
 10   5  28  1   
 11   6  10  2   
 12   6  11  1   
 13   7  12  1   
 14   7  13  1   
 15   8  14  2   
 16   8  29  1   
 17   9  15  1   
 18   9  30  1   
 19   9  31  1   
 20  10  12  1   
 21  11  16  1   
 22  11  17  1   
 23  13  18  ar  
 24  13  19  ar  
 25  14  20  1   
 26  14  32  1   
 27  15  20  1   
 28  15  33  1   
 29  15  34  1   
 30  16  21  1   
 31  16  35  1   
 32  16  36  1   
 33  17  22  1   
 34  17  37  1   
 35  17  38  1   
 36  18  23  ar  
 37  18  39  1   
 38  19  24  ar  
 39  19  40  1   
 40  20  41  1   
 41  20  42  1   
 42  21  25  1   
 43  21  43  1   
 44  21  44  1   
 45  22  25  1   
 46  22  45  1   
 47  22  46  1   
 48  23  26  ar  
 49  23  47  1   
 50  24  26  ar  
 51  24  48  1   
 52  26  49  1   
@<TRIPOS>SUBSTRUCTURE
  1 ****   2 GROUP 4 **** **** 0

# MOE 2024.06 (io_trps.svl 2023.06)
