@<TRIPOS>MOLECULE
NONAME
52 56 1 0 0 
SMALL
USER_CHARGES


@<TRIPOS>ATOM
  1 O        3.3520     1.6430    -3.1710 O.2   1 <1>  -0.5700 
  2 C        3.9580     0.7150    -2.6430 C.2   1 <1>   0.6160 
  3 N        3.8640     0.4990    -1.2760 N.am  1 <1>  -0.4690 
  4 C        4.7640    -0.1610    -3.4170 C.2   1 <1>  -0.1360 
  5 C        4.6080    -0.5170    -0.6760 C.2   1 <1>  -0.0290 
  6 C        2.8880     1.3360    -0.5110 C.3   1 <1>   0.1400 
  7 C        5.4590    -1.1750    -2.8390 C.2   1 <1>  -0.1500 
  8 C        5.3790    -1.3430    -1.4370 C.2   1 <1>  -0.1500 
  9 C        4.5840    -0.6740     0.8480 C.3   1 <1>   0.0580 
 10 C        3.0410     1.2540     1.0170 C.3   1 <1>  -0.0800 
 11 C        5.7270     0.1480     1.4690 C.3   1 <1>   0.2090 
 12 C        3.2440    -0.2100     1.4310 C.3   1 <1>  -0.1600 
 13 C        4.1840     2.1530     1.5410 C.3   1 <1>   0.2090 
 14 N        5.5290     1.6040     1.2180 N.pl3 1 <1>  -0.8380 
 15 C        6.4910     2.2980     0.5210 C.ar  1 <1>   0.4100 
 16 N        7.7380     2.1780     0.9660 N.ar  1 <1>  -0.6200 
 17 C        6.1700     3.0620    -0.6000 C.ar  1 <1>  -0.1500 
 18 C        8.6670     2.8320     0.2920 C.ar  1 <1>   0.1600 
 19 C        7.1490     3.7380    -1.2850 C.ar  1 <1>  -0.1500 
 20 C        8.4580     3.6400    -0.8230 C.ar  1 <1>   0.0860 
 21 C        9.5660     4.3180    -1.4540 C.2   1 <1>   0.5440 
 22 O       10.6270     3.7350    -1.5800 O.2   1 <1>  -0.5700 
 23 N        9.4700     5.6170    -1.9110 N.am  1 <1>  -0.6600 
 24 C       10.4920     6.2120    -2.8260 C.3   1 <1>   0.1400 
 25 C        8.5380     6.6330    -1.3360 C.3   1 <1>   0.1400 
 26 C       11.1620     7.4300    -2.1720 C.3   1 <1>   0.1200 
 27 C        9.3200     7.8360    -0.7800 C.3   1 <1>   0.1200 
 28 O       10.1960     8.3500    -1.7420 O.3   1 <1>  -0.5600 
 29 H        4.7900     0.0250    -4.4730 H     1 <1>   0.1500 
 30 H        2.9690     2.3620    -0.8240 H     1 <1>   0.0800 
 31 H        1.9010     0.9980    -0.7770 H     1 <1>   0.0800 
 32 H        6.0740    -1.8480    -3.4120 H     1 <1>   0.1500 
 33 H        5.9610    -2.1320    -0.9960 H     1 <1>   0.1500 
 34 H        4.7380    -1.7080     1.0990 H     1 <1>   0.0800 
 35 H        2.1270     1.6170     1.4510 H     1 <1>   0.0800 
 36 H        6.6640    -0.1720     1.0460 H     1 <1>   0.0800 
 37 H        5.7690    -0.0180     2.5310 H     1 <1>   0.0800 
 38 H        2.4460    -0.8210     1.0450 H     1 <1>   0.0800 
 39 H        3.2540    -0.2980     2.5030 H     1 <1>   0.0800 
 40 H        4.1070     2.2240     2.6120 H     1 <1>   0.0800 
 41 H        4.0860     3.1490     1.1450 H     1 <1>   0.0800 
 42 H        5.1530     3.0990    -0.9350 H     1 <1>   0.1500 
 43 H        9.6800     2.7290     0.6440 H     1 <1>   0.1500 
 44 H        6.9190     4.3190    -2.1600 H     1 <1>   0.1500 
 45 H       11.2440     5.4870    -3.0830 H     1 <1>   0.0800 
 46 H       10.0110     6.5210    -3.7370 H     1 <1>   0.0800 
 47 H        7.8660     6.9740    -2.1050 H     1 <1>   0.0800 
 48 H        7.9520     6.2070    -0.5420 H     1 <1>   0.0800 
 49 H       11.8000     7.9290    -2.8800 H     1 <1>   0.0800 
 50 H       11.7540     7.1250    -1.3260 H     1 <1>   0.0800 
 51 H        9.8910     7.5480     0.0860 H     1 <1>   0.0800 
 52 H        8.6420     8.6230    -0.5000 H     1 <1>   0.0800 
@<TRIPOS>BOND
  1   1   2  2   
  2   2   3  am  
  3   2   4  1   
  4   3   5  1   
  5   3   6  1   
  6   4   7  2   
  7   4  29  1   
  8   5   8  2   
  9   5   9  1   
 10   6  10  1   
 11   6  30  1   
 12   6  31  1   
 13   7   8  1   
 14   7  32  1   
 15   8  33  1   
 16   9  11  1   
 17   9  12  1   
 18   9  34  1   
 19  10  12  1   
 20  10  13  1   
 21  10  35  1   
 22  11  14  1   
 23  11  36  1   
 24  11  37  1   
 25  12  38  1   
 26  12  39  1   
 27  13  14  1   
 28  13  40  1   
 29  13  41  1   
 30  14  15  1   
 31  15  16  ar  
 32  15  17  ar  
 33  16  18  ar  
 34  17  19  ar  
 35  17  42  1   
 36  18  20  ar  
 37  18  43  1   
 38  19  20  ar  
 39  19  44  1   
 40  20  21  1   
 41  21  22  2   
 42  21  23  am  
 43  23  24  1   
 44  23  25  1   
 45  24  26  1   
 46  24  45  1   
 47  24  46  1   
 48  25  27  1   
 49  25  47  1   
 50  25  48  1   
 51  26  28  1   
 52  26  49  1   
 53  26  50  1   
 54  27  28  1   
 55  27  51  1   
 56  27  52  1   
@<TRIPOS>SUBSTRUCTURE
  1 ****  17 GROUP 4 **** **** 0

# MOE 2024.06 (io_trps.svl 2023.06)
