@<TRIPOS>MOLECULE
NONAME
50 52 1 0 0 
SMALL
USER_CHARGES


@<TRIPOS>ATOM
  1 O       -1.3910    -1.1000    -0.1900 O.3   1 <1>  -0.5600 
  2 C       -0.1780    -1.5970    -0.6690 C.3   1 <1>   0.1200 
  3 C       -2.3430    -2.0880     0.0850 C.3   1 <1>   0.1200 
  4 C        0.4700    -2.5310     0.3700 C.3   1 <1>   0.2090 
  5 C       -1.8220    -3.0560     1.1610 C.3   1 <1>   0.2090 
  6 N       -0.4760    -3.6290     0.7790 N.pl3 1 <1>  -0.8380 
  7 C       -0.2370    -4.9690     0.7980 C.ar  1 <1>   0.7710 
  8 N       -1.2380    -5.8060     1.0320 N.ar  1 <1>  -0.6200 
  9 N        1.0150    -5.4170     0.5850 N.ar  1 <1>  -0.1790 
 10 C       -0.9870    -7.0930     1.0290 C.ar  1 <1>   0.4100 
 11 C        1.3200    -6.7370     0.5820 C.ar  1 <1>   0.2180 
 12 N       -2.0520    -7.8730     1.2600 N.pl3 1 <1>  -0.8690 
 13 C        0.3040    -7.6040     0.8060 C.ar  1 <1>  -0.1500 
 14 C        2.7610    -7.1650     0.3350 C.3   1 <1>  -0.0170 
 15 C       -2.2000    -9.3420     1.2260 C.3   1 <1>   0.2090 
 16 C        3.2530    -6.7670    -1.0630 C.3   1 <1>  -0.2400 
 17 C       -3.5730    -9.6700     0.6480 C.3   1 <1>  -0.1600 
 18 C       -3.8170   -11.1850     0.5860 C.3   1 <1>  -0.0170 
 19 C       -5.2140   -11.4900     0.0720 C.ar  1 <1>   0.1670 
 20 N       -6.2080   -11.2370     0.9090 N.ar  1 <1>  -0.6200 
 21 C       -5.3870   -12.0020    -1.2060 C.ar  1 <1>  -0.1500 
 22 C       -7.4220   -11.5030     0.4540 C.ar  1 <1>   0.1600 
 23 C       -6.6580   -12.2750    -1.6660 C.ar  1 <1>  -0.1500 
 24 C       -7.6990   -12.0140    -0.8020 C.ar  1 <1>  -0.1500 
 25 H        0.4620    -0.7540    -0.8650 H     1 <1>   0.0800 
 26 H       -0.3600    -2.1150    -1.5950 H     1 <1>   0.0800 
 27 H       -2.5710    -2.6160    -0.8250 H     1 <1>   0.0800 
 28 H       -3.2350    -1.5960     0.4300 H     1 <1>   0.0800 
 29 H        0.7310    -1.9460     1.2370 H     1 <1>   0.0800 
 30 H        1.3770    -2.9230    -0.0510 H     1 <1>   0.0800 
 31 H       -2.5620    -3.8220     1.3120 H     1 <1>   0.0800 
 32 H       -1.7270    -2.5190     2.0890 H     1 <1>   0.0800 
 33 H        1.7210    -4.7090     0.4440 H     1 <1>   0.4570 
 34 H       -2.9280    -7.3780     1.4620 H     1 <1>   0.4000 
 35 H        0.4570    -8.6650     0.8260 H     1 <1>   0.1500 
 36 H        2.8370    -8.2360     0.4340 H     1 <1>   0.0800 
 37 H        3.4030    -6.7310     1.0830 H     1 <1>   0.0800 
 38 H       -2.1200    -9.7310     2.2280 H     1 <1>   0.0800 
 39 H       -1.4330    -9.7850     0.6140 H     1 <1>   0.0800 
 40 H        2.6200    -7.1950    -1.8220 H     1 <1>   0.0800 
 41 H        4.2530    -7.1380    -1.2160 H     1 <1>   0.0800 
 42 H        3.2720    -5.6990    -1.1880 H     1 <1>   0.0800 
 43 H       -3.6560    -9.2590    -0.3430 H     1 <1>   0.0800 
 44 H       -4.3330    -9.2240     1.2670 H     1 <1>   0.0800 
 45 H       -3.7190   -11.6100     1.5690 H     1 <1>   0.0800 
 46 H       -3.0840   -11.6480    -0.0500 H     1 <1>   0.0800 
 47 H       -4.5390   -12.1860    -1.8400 H     1 <1>   0.1500 
 48 H       -8.2430   -11.3020     1.1210 H     1 <1>   0.1500 
 49 H       -6.8290   -12.6730    -2.6510 H     1 <1>   0.1500 
 50 H       -8.7150   -12.2030    -1.0960 H     1 <1>   0.1500 
@<TRIPOS>BOND
  1   1   2  1   
  2   1   3  1   
  3   2   4  1   
  4   2  25  1   
  5   2  26  1   
  6   3   5  1   
  7   3  27  1   
  8   3  28  1   
  9   4   6  1   
 10   4  29  1   
 11   4  30  1   
 12   5   6  1   
 13   5  31  1   
 14   5  32  1   
 15   6   7  1   
 16   7   8  ar  
 17   7   9  ar  
 18   8  10  ar  
 19   9  11  ar  
 20   9  33  1   
 21  10  12  1   
 22  10  13  ar  
 23  11  13  ar  
 24  11  14  1   
 25  12  15  1   
 26  12  34  1   
 27  13  35  1   
 28  14  16  1   
 29  14  36  1   
 30  14  37  1   
 31  15  17  1   
 32  15  38  1   
 33  15  39  1   
 34  16  40  1   
 35  16  41  1   
 36  16  42  1   
 37  17  18  1   
 38  17  43  1   
 39  17  44  1   
 40  18  19  1   
 41  18  45  1   
 42  18  46  1   
 43  19  20  ar  
 44  19  21  ar  
 45  20  22  ar  
 46  21  23  ar  
 47  21  47  1   
 48  22  24  ar  
 49  22  48  1   
 50  23  24  ar  
 51  23  49  1   
 52  24  50  1   
@<TRIPOS>SUBSTRUCTURE
  1 ****  12 GROUP 4 **** **** 0

# MOE 2024.06 (io_trps.svl 2023.06)
