@<TRIPOS>MOLECULE
NONAME
50 51 1 0 0 
SMALL
USER_CHARGES


@<TRIPOS>ATOM
  1 O        0.3320    -0.1050    -1.5320 O.3   1 <1>  -0.5600 
  2 C        1.5410    -0.8100    -1.6790 C.3   1 <1>   0.2000 
  3 C        0.4170     1.2790    -1.6930 C.3   1 <1>   0.1200 
  4 C        2.6380    -0.2550    -0.7280 C.3   1 <1>   0.5660 
  5 C        1.2780    -2.2960    -1.3850 C.3   1 <1>   0.1200 
  6 C        1.3820     1.8730    -0.6520 C.3   1 <1>   0.3430 
  7 N        2.7440     1.2450    -0.7370 N.4   1 <1>  -0.9590 
  8 C        4.0070    -0.8230    -1.0800 C.ar  1 <1>  -0.1430 
  9 O        1.1290    -2.4950    -0.0140 O.3   1 <1>  -0.6800 
 10 C        3.6540     1.7060     0.3500 C.3   1 <1>   0.3430 
 11 C        4.6620    -1.6150    -0.1470 C.ar  1 <1>  -0.1500 
 12 C        4.6200    -0.5680    -2.3030 C.ar  1 <1>  -0.1500 
 13 C        4.0460     3.1680     0.1350 C.3   1 <1>  -0.1600 
 14 C        5.9140    -2.1400    -0.4160 C.ar  1 <1>   0.0830 
 15 C        5.8770    -1.0820    -2.5730 C.ar  1 <1>  -0.1500 
 16 C        5.0800     3.6090     1.1780 C.3   1 <1>  -0.1600 
 17 O        6.4710    -2.9200     0.5410 O.3   1 <1>  -0.3620 
 18 C        6.5390    -1.8510    -1.6330 C.ar  1 <1>   0.0830 
 19 C        5.4850     5.0700     0.9670 C.3   1 <1>  -0.2400 
 20 C        6.6990    -4.2730     0.2060 C.3   1 <1>   0.0400 
 21 O        7.7800    -2.2900    -1.9530 O.3   1 <1>  -0.3630 
 22 C        8.8500    -1.7960    -1.1760 C.3   1 <1>   0.0400 
 23 H        1.8470    -0.7110    -2.7050 H     1 <1>   0.0800 
 24 H        0.7370     1.4960    -2.6980 H     1 <1>   0.0800 
 25 H       -0.5710     1.6820    -1.5530 H     1 <1>   0.0800 
 26 H        2.3840    -0.5740     0.2690 H     1 <1>   0.0800 
 27 H        2.1040    -2.9010    -1.7180 H     1 <1>   0.0800 
 28 H        0.3790    -2.6190    -1.8840 H     1 <1>   0.0800 
 29 H        0.9640     1.7090     0.3280 H     1 <1>   0.0800 
 30 H        1.4550     2.9360    -0.8070 H     1 <1>   0.0800 
 31 H        3.1790     1.4910    -1.6300 H     1 <1>   0.4500 
 32 H        0.7350    -3.3750     0.1660 H     1 <1>   0.4000 
 33 H        3.1770     1.5890     1.3110 H     1 <1>   0.0800 
 34 H        4.5530     1.1100     0.3500 H     1 <1>   0.0800 
 35 H        4.2090    -1.8480     0.8020 H     1 <1>   0.1500 
 36 H        4.1410     0.0260    -3.0620 H     1 <1>   0.1500 
 37 H        4.4750     3.2860    -0.8460 H     1 <1>   0.0800 
 38 H        3.1830     3.8030     0.2200 H     1 <1>   0.0800 
 39 H        6.3590    -0.8870    -3.5160 H     1 <1>   0.1500 
 40 H        4.6750     3.4990     2.1700 H     1 <1>   0.0800 
 41 H        5.9610     2.9900     1.1090 H     1 <1>   0.0800 
 42 H        4.6320     5.7200     1.0600 H     1 <1>   0.0800 
 43 H        5.9220     5.2080    -0.0070 H     1 <1>   0.0800 
 44 H        6.2120     5.3600     1.7060 H     1 <1>   0.0800 
 45 H        7.0290    -4.7870     1.0900 H     1 <1>   0.0800 
 46 H        7.4560    -4.3330    -0.5540 H     1 <1>   0.0800 
 47 H        5.7790    -4.7040    -0.1480 H     1 <1>   0.0800 
 48 H        9.7690    -2.1580    -1.6020 H     1 <1>   0.0800 
 49 H        8.7540    -2.1490    -0.1660 H     1 <1>   0.0800 
 50 H        8.8320    -0.7210    -1.2020 H     1 <1>   0.0800 
@<TRIPOS>BOND
  1   1   2  1   
  2   1   3  1   
  3   2   4  1   
  4   2   5  1   
  5   2  23  1   
  6   3   6  1   
  7   3  24  1   
  8   3  25  1   
  9   4   7  1   
 10   4   8  1   
 11   4  26  1   
 12   5   9  1   
 13   5  27  1   
 14   5  28  1   
 15   6   7  1   
 16   6  29  1   
 17   6  30  1   
 18   7  10  1   
 19   7  31  1   
 20   8  11  ar  
 21   8  12  ar  
 22   9  32  1   
 23  10  13  1   
 24  10  33  1   
 25  10  34  1   
 26  11  14  ar  
 27  11  35  1   
 28  12  15  ar  
 29  12  36  1   
 30  13  16  1   
 31  13  37  1   
 32  13  38  1   
 33  14  17  1   
 34  14  18  ar  
 35  15  18  ar  
 36  15  39  1   
 37  16  19  1   
 38  16  40  1   
 39  16  41  1   
 40  17  20  1   
 41  18  21  1   
 42  19  42  1   
 43  19  43  1   
 44  19  44  1   
 45  20  45  1   
 46  20  46  1   
 47  20  47  1   
 48  21  22  1   
 49  22  48  1   
 50  22  49  1   
 51  22  50  1   
@<TRIPOS>SUBSTRUCTURE
  1 ****   8 GROUP 4 **** **** 0

# MOE 2024.06 (io_trps.svl 2023.06)
