@<TRIPOS>MOLECULE
NONAME
57 60 1 0 0 
SMALL
USER_CHARGES


@<TRIPOS>ATOM
  1 O        0.8870     0.5320     0.5740 O.3   1 <1>  -0.6800 
  2 C        1.3880    -0.4810    -0.2430 C.3   1 <1>   0.3440 
  3 C        1.1010    -1.8610     0.3670 C.ar  1 <1>   0.1660 
  4 C        2.8890    -0.2420    -0.5320 C.3   1 <1>  -0.0800 
  5 N        0.8810    -2.8430    -0.4990 N.ar  1 <1>  -0.6200 
  6 C        1.0770    -2.0400     1.7460 C.ar  1 <1>  -0.1500 
  7 C        3.7740    -0.2620     0.7340 C.3   1 <1>  -0.1600 
  8 C        3.1110     1.0730    -1.3110 C.3   1 <1>  -0.1600 
  9 C        0.6310    -4.0340     0.0220 C.ar  1 <1>   0.1600 
 10 C        0.8150    -3.2860     2.2760 C.ar  1 <1>  -0.1500 
 11 C        5.2450     0.0050     0.4030 C.3   1 <1>   0.2090 
 12 C        4.5930     1.3310    -1.5970 C.3   1 <1>   0.2090 
 13 C        0.5870    -4.3050     1.3780 C.ar  1 <1>  -0.1500 
 14 N        5.3570     1.2920    -0.3260 N.pl3 1 <1>  -0.8380 
 15 C        6.3920     2.1290    -0.0960 C.ar  1 <1>   0.4100 
 16 N        7.5960     1.6320    -0.2920 N.ar  1 <1>  -0.6200 
 17 C        6.1830     3.4570     0.3460 C.ar  1 <1>  -0.1430 
 18 C        8.6380     2.4180    -0.0800 C.ar  1 <1>   0.7710 
 19 C        7.2750     4.2330     0.5690 C.ar  1 <1>   0.2180 
 20 C        4.7650     3.9770     0.6000 C.3   1 <1>  -0.0170 
 21 N        8.4900     3.6870     0.3310 N.ar  1 <1>  -0.1790 
 22 N        9.8970     1.9350    -0.2850 N.pl3 1 <1>  -0.8380 
 23 C        7.2080     5.6710     1.0730 C.3   1 <1>  -0.0170 
 24 C        4.7100     5.5000     0.7830 C.3   1 <1>  -0.1600 
 25 C       11.1890     2.5910     0.0940 C.3   1 <1>   0.1290 
 26 C       10.1140     0.5790    -0.8920 C.3   1 <1>   0.1290 
 27 C        5.8410     5.9950     1.6890 C.3   1 <1>  -0.1600 
 28 H       -0.0600     0.3620     0.7390 H     1 <1>   0.4000 
 29 H        0.8480    -0.4180    -1.1730 H     1 <1>   0.0800 
 30 H        3.2130    -1.0500    -1.1650 H     1 <1>   0.0800 
 31 H        1.2660    -1.2110     2.4050 H     1 <1>   0.1500 
 32 H        3.7040    -1.2190     1.2160 H     1 <1>   0.0800 
 33 H        3.4380     0.4860     1.4300 H     1 <1>   0.0800 
 34 H        2.7190     1.8990    -0.7450 H     1 <1>   0.0800 
 35 H        2.5770     1.0360    -2.2430 H     1 <1>   0.0800 
 36 H        0.4510    -4.8390    -0.6700 H     1 <1>   0.1500 
 37 H        0.7900    -3.4530     3.3390 H     1 <1>   0.1500 
 38 H        5.6360    -0.7880    -0.2130 H     1 <1>   0.0800 
 39 H        5.8240     0.0450     1.3100 H     1 <1>   0.0800 
 40 H        4.7180     2.2870    -2.0750 H     1 <1>   0.0800 
 41 H        4.9740     0.5720    -2.2590 H     1 <1>   0.0800 
 42 H        0.3770    -5.3010     1.7230 H     1 <1>   0.1500 
 43 H        4.3780     3.4920     1.4800 H     1 <1>   0.0800 
 44 H        4.1210     3.7170    -0.2190 H     1 <1>   0.0800 
 45 H        9.3490     4.2070     0.4380 H     1 <1>   0.4570 
 46 H        7.3880     6.3370     0.2460 H     1 <1>   0.0800 
 47 H        7.9670     5.8440     1.8150 H     1 <1>   0.0800 
 48 H        3.7570     5.7720     1.2060 H     1 <1>   0.0800 
 49 H        4.7870     5.9790    -0.1790 H     1 <1>   0.0800 
 50 H       11.0480     3.3630     0.8290 H     1 <1>   0.0800 
 51 H       11.6560     3.0110    -0.7810 H     1 <1>   0.0800 
 52 H       11.8570     1.8580     0.5170 H     1 <1>   0.0800 
 53 H        9.2650     0.2650    -1.4750 H     1 <1>   0.0800 
 54 H       10.2830    -0.1460    -0.1140 H     1 <1>   0.0800 
 55 H       10.9700     0.5960    -1.5460 H     1 <1>   0.0800 
 56 H        5.7510     7.0590     1.8380 H     1 <1>   0.0800 
 57 H        5.7550     5.5210     2.6530 H     1 <1>   0.0800 
@<TRIPOS>BOND
  1   1   2  1   
  2   1  28  1   
  3   2   3  1   
  4   2   4  1   
  5   2  29  1   
  6   3   5  ar  
  7   3   6  ar  
  8   4   7  1   
  9   4   8  1   
 10   4  30  1   
 11   5   9  ar  
 12   6  10  ar  
 13   6  31  1   
 14   7  11  1   
 15   7  32  1   
 16   7  33  1   
 17   8  12  1   
 18   8  34  1   
 19   8  35  1   
 20   9  13  ar  
 21   9  36  1   
 22  10  13  ar  
 23  10  37  1   
 24  11  14  1   
 25  11  38  1   
 26  11  39  1   
 27  12  14  1   
 28  12  40  1   
 29  12  41  1   
 30  13  42  1   
 31  14  15  1   
 32  15  16  ar  
 33  15  17  ar  
 34  16  18  ar  
 35  17  19  ar  
 36  17  20  1   
 37  18  21  ar  
 38  18  22  1   
 39  19  21  ar  
 40  19  23  1   
 41  20  24  1   
 42  20  43  1   
 43  20  44  1   
 44  21  45  1   
 45  22  25  1   
 46  22  26  1   
 47  23  27  1   
 48  23  46  1   
 49  23  47  1   
 50  24  27  1   
 51  24  48  1   
 52  24  49  1   
 53  25  50  1   
 54  25  51  1   
 55  25  52  1   
 56  26  53  1   
 57  26  54  1   
 58  26  55  1   
 59  27  56  1   
 60  27  57  1   
@<TRIPOS>SUBSTRUCTURE
  1 ****  14 GROUP 4 **** **** 0

# MOE 2024.06 (io_trps.svl 2023.06)
