@<TRIPOS>MOLECULE
NONAME
47 48 1 0 0 
SMALL
USER_CHARGES


@<TRIPOS>ATOM
  1 O       -0.3650     1.2140    -0.9030 O.2   1 <1>  -0.5700 
  2 C       -0.5870     2.4010    -0.8580 C.2   1 <1>   0.5690 
  3 N       -1.4830     2.9780     0.0070 N.am  1 <1>  -0.6600 
  4 C        0.1680     3.2960    -1.8370 C.3   1 <1>   0.1810 
  5 C       -1.7250     4.4610    -0.0210 C.3   1 <1>   0.3640 
  6 C       -2.2080     2.2490     1.0860 C.3   1 <1>   0.2200 
  7 O        0.4030     4.5690    -1.2990 O.3   1 <1>  -0.5600 
  8 C       -3.1790     4.7210    -0.4280 C.ar  1 <1>  -0.1440 
  9 C       -0.7740     5.2770    -0.9430 C.3   1 <1>   0.2610 
 10 C       -1.2150     1.6930     2.1050 C.3   1 <1>  -0.2400 
 11 C       -3.1130     1.1570     0.5130 C.3   1 <1>  -0.2400 
 12 C       -3.7440     4.0820    -1.5250 C.ar  1 <1>  -0.1500 
 13 C       -3.9530     5.6140     0.2990 C.ar  1 <1>  -0.1500 
 14 C       -0.4050     6.6090    -0.2740 C.2   1 <1>   0.5690 
 15 C       -5.0570     4.3290    -1.8850 C.ar  1 <1>  -0.1500 
 16 C       -5.2660     5.8630    -0.0600 C.ar  1 <1>  -0.1500 
 17 O       -1.2620     7.2860     0.2440 O.2   1 <1>  -0.5700 
 18 N        0.8900     7.0150    -0.2660 N.am  1 <1>  -0.7300 
 19 C       -5.8200     5.2190    -1.1520 C.ar  1 <1>  -0.1500 
 20 C        1.3790     8.2630     0.3220 C.3   1 <1>   0.2010 
 21 C        2.9000     8.4660     0.1720 C.2   1 <1>   0.5690 
 22 O        3.5930     7.6250    -0.3960 O.2   1 <1>  -0.5700 
 23 N        3.4340     9.5820     0.6790 N.am  1 <1>  -0.7300 
 24 C        4.8620     9.8810     0.5950 C.3   1 <1>   0.0600 
 25 H       -0.3900     3.3980    -2.7490 H     1 <1>   0.0800 
 26 H        1.1230     2.8530    -2.0570 H     1 <1>   0.0800 
 27 H       -1.5870     4.8200     0.9850 H     1 <1>   0.0800 
 28 H       -2.8460     2.9480     1.6040 H     1 <1>   0.0800 
 29 H       -1.2880     5.5110    -1.8580 H     1 <1>   0.0800 
 30 H       -0.5990     0.9310     1.6630 H     1 <1>   0.0800 
 31 H       -1.7470     1.2570     2.9300 H     1 <1>   0.0800 
 32 H       -0.5890     2.4810     2.4810 H     1 <1>   0.0800 
 33 H       -2.5370     0.3760     0.0510 H     1 <1>   0.0800 
 34 H       -3.7890     1.5750    -0.2090 H     1 <1>   0.0800 
 35 H       -3.6940     0.7190     1.3030 H     1 <1>   0.0800 
 36 H       -3.1680     3.3800    -2.1020 H     1 <1>   0.1500 
 37 H       -3.5360     6.1320     1.1470 H     1 <1>   0.1500 
 38 H       -5.4870     3.8260    -2.7340 H     1 <1>   0.1500 
 39 H       -5.8560     6.5590     0.5100 H     1 <1>   0.1500 
 40 H        1.5840     6.4040    -0.6860 H     1 <1>   0.3700 
 41 H       -6.8410     5.4130    -1.4300 H     1 <1>   0.1500 
 42 H        0.8740     9.1040    -0.1520 H     1 <1>   0.0800 
 43 H        1.1350     8.2790     1.3840 H     1 <1>   0.0800 
 44 H        2.8340    10.2490     1.1370 H     1 <1>   0.3700 
 45 H        5.4350     9.0960     1.0930 H     1 <1>   0.0800 
 46 H        5.0780    10.8380     1.0710 H     1 <1>   0.0800 
 47 H        5.1700     9.9240    -0.4520 H     1 <1>   0.0800 
@<TRIPOS>BOND
  1   1   2  2   
  2   2   3  am  
  3   2   4  1   
  4   3   5  1   
  5   3   6  1   
  6   4   7  1   
  7   4  25  1   
  8   4  26  1   
  9   5   8  1   
 10   5   9  1   
 11   5  27  1   
 12   6  10  1   
 13   6  11  1   
 14   6  28  1   
 15   7   9  1   
 16   8  12  ar  
 17   8  13  ar  
 18   9  14  1   
 19   9  29  1   
 20  10  30  1   
 21  10  31  1   
 22  10  32  1   
 23  11  33  1   
 24  11  34  1   
 25  11  35  1   
 26  12  15  ar  
 27  12  36  1   
 28  13  16  ar  
 29  13  37  1   
 30  14  17  2   
 31  14  18  am  
 32  15  19  ar  
 33  15  38  1   
 34  16  19  ar  
 35  16  39  1   
 36  18  20  1   
 37  18  40  1   
 38  19  41  1   
 39  20  21  1   
 40  20  42  1   
 41  20  43  1   
 42  21  22  2   
 43  21  23  am  
 44  23  24  1   
 45  23  44  1   
 46  24  45  1   
 47  24  46  1   
 48  24  47  1   
@<TRIPOS>SUBSTRUCTURE
  1 ****   9 GROUP 4 **** **** 0

# MOE 2024.06 (io_trps.svl 2023.06)
