@<TRIPOS>MOLECULE
NONAME
41 44 1 0 0 
SMALL
USER_CHARGES


@<TRIPOS>ATOM
  1 S       -2.1630     2.1730    -1.8830 S.3   1 <1>  -0.1570 
  2 C       -2.9190     1.1160    -0.6740 C.2   1 <1>   0.2420 
  3 C       -0.5430     1.6940    -1.3100 C.2   1 <1>  -0.0490 
  4 N       -4.1470     0.8550    -0.3920 N.2   1 <1>  -0.5650 
  5 N       -1.9760     0.4950     0.0560 N.pl3 1 <1>   0.3340 
  6 C       -0.6480     0.8160    -0.2980 C.2   1 <1>  -0.1810 
  7 C       -4.0290    -0.0410     0.6480 C.2   1 <1>   0.1410 
  8 C       -2.6970    -0.2510     0.9070 C.2   1 <1>  -0.3020 
  9 C       -5.1430    -0.6900     1.3380 C.2   1 <1>   0.7160 
 10 O       -4.9320    -1.7500     1.9080 O.2   1 <1>  -0.5700 
 11 N       -6.4290    -0.1780     1.3890 N.am  1 <1>  -0.6600 
 12 C       -6.7830     1.2470     1.1560 C.3   1 <1>   0.1400 
 13 C       -7.6130    -1.0400     1.6460 C.3   1 <1>   0.1400 
 14 C       -7.6790     1.3350    -0.0790 C.3   1 <1>  -0.1600 
 15 C       -8.5410    -0.9780     0.4290 C.3   1 <1>  -0.1600 
 16 C       -8.9330     0.4620     0.0800 C.3   1 <1>   0.4180 
 17 O       -9.6940     0.9320     1.1670 O.3   1 <1>  -0.5600 
 18 C       -9.7710     0.4700    -1.1970 C.2   1 <1>  -0.2880 
 19 C      -10.5310     2.0320     0.9430 C.3   1 <1>   0.1200 
 20 C      -10.9910     1.0040    -1.2910 C.2   1 <1>  -0.2760 
 21 C      -11.6150     1.6850    -0.0870 C.3   1 <1>  -0.0220 
 22 C      -11.8460     0.9820    -2.5460 C.3   1 <1>  -0.1020 
 23 H        0.2990     2.1380    -1.8130 H     1 <1>   0.1500 
 24 H        0.1460     0.3470     0.2520 H     1 <1>   0.1500 
 25 H       -2.2550    -0.8960     1.6430 H     1 <1>   0.1500 
 26 H       -5.9060     1.8560     1.0320 H     1 <1>   0.0800 
 27 H       -7.3150     1.6180     2.0160 H     1 <1>   0.0800 
 28 H       -8.1280    -0.6850     2.5220 H     1 <1>   0.0800 
 29 H       -7.3160    -2.0600     1.8210 H     1 <1>   0.0800 
 30 H       -7.1160     0.9980    -0.9310 H     1 <1>   0.0800 
 31 H       -7.9530     2.3550    -0.2670 H     1 <1>   0.0800 
 32 H       -9.4300    -1.5500     0.6170 H     1 <1>   0.0800 
 33 H       -8.0360    -1.4250    -0.4080 H     1 <1>   0.0800 
 34 H       -9.2740    -0.0100    -2.0200 H     1 <1>   0.1500 
 35 H       -9.9330     2.8550     0.5970 H     1 <1>   0.0800 
 36 H      -10.9810     2.3000     1.8820 H     1 <1>   0.0800 
 37 H      -12.1060     2.5930    -0.3850 H     1 <1>   0.0800 
 38 H      -12.3470     1.0360     0.3600 H     1 <1>   0.0800 
 39 H      -12.7730     0.4730    -2.3520 H     1 <1>   0.0800 
 40 H      -11.3340     0.4690    -3.3400 H     1 <1>   0.0800 
 41 H      -12.0590     1.9850    -2.8690 H     1 <1>   0.0800 
@<TRIPOS>BOND
  1   1   2  1   
  2   1   3  1   
  3   2   4  2   
  4   2   5  1   
  5   3   6  2   
  6   3  23  1   
  7   4   7  1   
  8   5   6  1   
  9   5   8  1   
 10   6  24  1   
 11   7   8  2   
 12   7   9  1   
 13   8  25  1   
 14   9  10  2   
 15   9  11  am  
 16  11  12  1   
 17  11  13  1   
 18  12  14  1   
 19  12  26  1   
 20  12  27  1   
 21  13  15  1   
 22  13  28  1   
 23  13  29  1   
 24  14  16  1   
 25  14  30  1   
 26  14  31  1   
 27  15  16  1   
 28  15  32  1   
 29  15  33  1   
 30  16  17  1   
 31  16  18  1   
 32  17  19  1   
 33  18  20  2   
 34  18  34  1   
 35  19  21  1   
 36  19  35  1   
 37  19  36  1   
 38  20  21  1   
 39  20  22  1   
 40  21  37  1   
 41  21  38  1   
 42  22  39  1   
 43  22  40  1   
 44  22  41  1   
@<TRIPOS>SUBSTRUCTURE
  1 ****  12 GROUP 4 **** **** 0

# MOE 2024.06 (io_trps.svl 2023.06)
