@<TRIPOS>MOLECULE
NONAME
51 53 1 0 0 
SMALL
USER_CHARGES


@<TRIPOS>ATOM
  1 O       -1.6610    -0.7850     0.8290 O.2   1 <1>  -0.5700 
  2 C       -1.9400     0.2930     0.3150 C.2   1 <1>   0.6160 
  3 N       -1.4820     1.4710     0.9140 N.am  1 <1>  -0.4690 
  4 C       -2.7140     0.3790    -0.8840 C.2   1 <1>   0.0290 
  5 C       -1.7010     2.6950     0.3080 C.2   1 <1>  -0.0290 
  6 C       -0.7140     1.3660     2.1950 C.3   1 <1>   0.0600 
  7 C       -3.2390    -0.8220    -1.4680 C.2   1 <1>   0.6160 
  8 C       -2.9220     1.6060    -1.4560 C.2   1 <1>  -0.1500 
  9 C       -2.4070     2.7680    -0.8550 C.2   1 <1>  -0.1500 
 10 C       -1.1430     3.9640     0.9370 C.3   1 <1>  -0.1020 
 11 O       -2.8690    -1.1340    -2.5880 O.2   1 <1>  -0.5700 
 12 N       -4.2080    -1.5890    -0.8550 N.am  1 <1>  -0.6600 
 13 C       -4.6810    -2.8650    -1.4940 C.3   1 <1>   0.1400 
 14 C       -4.8840    -1.2030     0.4260 C.3   1 <1>   0.1400 
 15 C       -5.5310    -3.6930    -0.5210 C.3   1 <1>   0.2000 
 16 C       -6.3880    -1.4300     0.2720 C.3   1 <1>  -0.1600 
 17 O       -5.9340    -4.8820    -1.1090 O.3   1 <1>  -0.6800 
 18 C       -6.7620    -2.9290     0.0310 C.3   1 <1>  -0.1060 
 19 C       -7.0910    -3.6910     1.3200 C.2   1 <1>   0.9060 
 20 C       -7.9770    -2.9890    -0.9440 C.3   1 <1>  -0.0160 
 21 O       -6.9230    -3.1650     2.4260 O.co2 1 <1>  -0.9000 
 22 O       -7.4570    -4.8720     1.2140 O.co2 1 <1>  -0.9000 
 23 C       -9.1420    -2.0690    -0.5780 C.ar  1 <1>  -0.1440 
 24 C       -9.9230    -2.3330     0.5370 C.ar  1 <1>  -0.1500 
 25 C       -9.4370    -0.9620    -1.3610 C.ar  1 <1>  -0.1500 
 26 C      -10.9780    -1.5020     0.8680 C.ar  1 <1>  -0.1500 
 27 C      -10.4940    -0.1300    -1.0330 C.ar  1 <1>  -0.1500 
 28 C      -11.2660    -0.4000     0.0840 C.ar  1 <1>  -0.1500 
 29 H       -0.9440     2.1890     2.8450 H     1 <1>   0.0800 
 30 H        0.3390     1.3600     1.9790 H     1 <1>   0.0800 
 31 H       -0.9650     0.4600     2.7190 H     1 <1>   0.0800 
 32 H       -3.4820     1.6940    -2.3720 H     1 <1>   0.1500 
 33 H       -2.5870     3.7090    -1.3440 H     1 <1>   0.1500 
 34 H       -0.0790     3.8760     1.0700 H     1 <1>   0.0800 
 35 H       -1.6080     4.1420     1.8890 H     1 <1>   0.0800 
 36 H       -1.3300     4.8160     0.3090 H     1 <1>   0.0800 
 37 H       -5.2630    -2.6220    -2.3640 H     1 <1>   0.0800 
 38 H       -3.8270    -3.4440    -1.7970 H     1 <1>   0.0800 
 39 H       -4.5000    -1.8010     1.2370 H     1 <1>   0.0800 
 40 H       -4.7070    -0.1690     0.6570 H     1 <1>   0.0800 
 41 H       -4.8910    -3.9700     0.3010 H     1 <1>   0.0800 
 42 H       -6.9020    -1.0580     1.1420 H     1 <1>   0.0800 
 43 H       -6.7100    -0.8250    -0.5560 H     1 <1>   0.0800 
 44 H       -6.5300    -5.3130    -0.4380 H     1 <1>   0.4000 
 45 H       -7.6380    -2.7410    -1.9330 H     1 <1>   0.0800 
 46 H       -8.3580    -3.9940    -0.9970 H     1 <1>   0.0800 
 47 H       -9.7060    -3.1900     1.1560 H     1 <1>   0.1500 
 48 H       -8.8410    -0.7450    -2.2290 H     1 <1>   0.1500 
 49 H      -11.5690    -1.7200     1.7400 H     1 <1>   0.1500 
 50 H      -10.7140     0.7250    -1.6460 H     1 <1>   0.1500 
 51 H      -12.0860     0.2450     0.3430 H     1 <1>   0.1500 
@<TRIPOS>BOND
  1   1   2  2   
  2   2   3  am  
  3   2   4  1   
  4   3   5  1   
  5   3   6  1   
  6   4   7  1   
  7   4   8  2   
  8   5   9  2   
  9   5  10  1   
 10   6  29  1   
 11   6  30  1   
 12   6  31  1   
 13   7  11  2   
 14   7  12  am  
 15   8   9  1   
 16   8  32  1   
 17   9  33  1   
 18  10  34  1   
 19  10  35  1   
 20  10  36  1   
 21  12  13  1   
 22  12  14  1   
 23  13  15  1   
 24  13  37  1   
 25  13  38  1   
 26  14  16  1   
 27  14  39  1   
 28  14  40  1   
 29  15  17  1   
 30  15  18  1   
 31  15  41  1   
 32  16  18  1   
 33  16  42  1   
 34  16  43  1   
 35  17  44  1   
 36  18  19  1   
 37  18  20  1   
 38  19  21  ar  
 39  19  22  ar  
 40  20  23  1   
 41  20  45  1   
 42  20  46  1   
 43  23  24  ar  
 44  23  25  ar  
 45  24  26  ar  
 46  24  47  1   
 47  25  27  ar  
 48  25  48  1   
 49  26  28  ar  
 50  26  49  1   
 51  27  28  ar  
 52  27  50  1   
 53  28  51  1   
@<TRIPOS>SUBSTRUCTURE
  1 ****  14 GROUP 4 **** **** 0

# MOE 2024.06 (io_trps.svl 2023.06)
