@<TRIPOS>MOLECULE
NONAME
47 49 1 0 0 
SMALL
USER_CHARGES


@<TRIPOS>ATOM
  1 O       -2.4140     1.2470     1.7440 O.2   1 <1>  -0.5700 
  2 C       -2.9140     1.3110     0.6430 C.2   1 <1>   0.5690 
  3 N       -3.6030     0.2090     0.1780 N.am  1 <1>  -0.6600 
  4 C       -2.7760     2.6510    -0.1460 C.3   1 <1>   0.3170 
  5 C       -4.6880     0.1530    -0.8390 C.3   1 <1>   0.1400 
  6 C       -3.5570    -1.0840     0.9200 C.3   1 <1>   0.1400 
  7 N       -1.4220     3.2510     0.1340 N.pl3 1 <1>   0.0480 
  8 C       -3.8950     3.6130     0.3080 C.3   1 <1>  -0.2400 
  9 C       -2.8520     2.5130    -1.6840 C.3   1 <1>  -0.2400 
 10 C       -5.5290    -1.0660    -0.4610 C.3   1 <1>   0.2000 
 11 C       -4.5340    -2.0200     0.1980 C.3   1 <1>  -0.0800 
 12 C       -0.2280     2.6130    -0.0520 C.2   1 <1>  -0.3020 
 13 C       -1.1120     4.5350     0.4910 C.2   1 <1>  -0.3020 
 14 O       -6.4570    -0.6750     0.4910 O.3   1 <1>  -0.6800 
 15 C       -3.8170    -2.8860    -0.8540 C.3   1 <1>   0.0210 
 16 C        0.8010     3.4660     0.1880 C.2   1 <1>  -0.1500 
 17 C        0.2360     4.6940     0.5350 C.2   1 <1>  -0.1500 
 18 C       -2.8170    -3.8280    -0.2120 C.2   1 <1>   0.1080 
 19 N       -3.1710    -4.7910     0.5800 N.2   1 <1>  -0.7070 
 20 C       -1.4380    -3.7680    -0.3850 C.2   1 <1>  -0.1500 
 21 N       -2.0140    -5.3800     0.9380 N.pl3 1 <1>   0.3000 
 22 C       -0.9500    -4.7770     0.3670 C.2   1 <1>  -0.3320 
 23 C        0.4900    -5.2080     0.5790 C.3   1 <1>  -0.0600 
 24 H       -5.2880     1.0460    -0.8420 H     1 <1>   0.0800 
 25 H       -4.2510     0.0000    -1.8100 H     1 <1>   0.0800 
 26 H       -2.5520    -1.4700     0.9460 H     1 <1>   0.0800 
 27 H       -3.8840    -0.9200     1.9330 H     1 <1>   0.0800 
 28 H       -4.8580     3.1690     0.1410 H     1 <1>   0.0800 
 29 H       -3.8510     4.5400    -0.2350 H     1 <1>   0.0800 
 30 H       -3.8000     3.8110     1.3620 H     1 <1>   0.0800 
 31 H       -3.8570     2.3500    -2.0200 H     1 <1>   0.0800 
 32 H       -2.2350     1.6970    -2.0150 H     1 <1>   0.0800 
 33 H       -2.5050     3.4180    -2.1520 H     1 <1>   0.0800 
 34 H       -6.0600    -1.4930    -1.2940 H     1 <1>   0.0800 
 35 H       -5.0260    -2.6770     0.8960 H     1 <1>   0.0800 
 36 H       -0.1690     1.5790    -0.3410 H     1 <1>   0.1500 
 37 H       -1.8560     5.2820     0.7000 H     1 <1>   0.1500 
 38 H       -5.9880    -0.2860     1.2570 H     1 <1>   0.4000 
 39 H       -3.3060    -2.2680    -1.5700 H     1 <1>   0.0800 
 40 H       -4.5400    -3.4820    -1.3820 H     1 <1>   0.0800 
 41 H        1.8570     3.2630     0.1320 H     1 <1>   0.1500 
 42 H        0.7900     5.5820     0.7850 H     1 <1>   0.1500 
 43 H       -0.9020    -3.0590    -0.9900 H     1 <1>   0.1500 
 44 H       -1.9860    -6.1880     1.5700 H     1 <1>   0.2700 
 45 H        1.1530    -4.5710     0.0200 H     1 <1>   0.0800 
 46 H        0.6280    -6.2220     0.2470 H     1 <1>   0.0800 
 47 H        0.7490    -5.1410     1.6210 H     1 <1>   0.0800 
@<TRIPOS>BOND
  1   1   2  2   
  2   2   3  am  
  3   2   4  1   
  4   3   5  1   
  5   3   6  1   
  6   4   7  1   
  7   4   8  1   
  8   4   9  1   
  9   5  10  1   
 10   5  24  1   
 11   5  25  1   
 12   6  11  1   
 13   6  26  1   
 14   6  27  1   
 15   7  12  1   
 16   7  13  1   
 17   8  28  1   
 18   8  29  1   
 19   8  30  1   
 20   9  31  1   
 21   9  32  1   
 22   9  33  1   
 23  10  11  1   
 24  10  14  1   
 25  10  34  1   
 26  11  15  1   
 27  11  35  1   
 28  12  16  2   
 29  12  36  1   
 30  13  17  2   
 31  13  37  1   
 32  14  38  1   
 33  15  18  1   
 34  15  39  1   
 35  15  40  1   
 36  16  17  1   
 37  16  41  1   
 38  17  42  1   
 39  18  19  2   
 40  18  20  1   
 41  19  21  1   
 42  20  22  2   
 43  20  43  1   
 44  21  22  1   
 45  21  44  1   
 46  22  23  1   
 47  23  45  1   
 48  23  46  1   
 49  23  47  1   
@<TRIPOS>SUBSTRUCTURE
  1 ****   3 GROUP 4 **** **** 0

# MOE 2024.06 (io_trps.svl 2023.06)
