@<TRIPOS>MOLECULE
NONAME
50 51 1 0 0 
SMALL
USER_CHARGES


@<TRIPOS>ATOM
  1 O       -3.8270     2.1840    -1.5480 O.2   1 <1>  -0.5700 
  2 C       -3.0800     1.5050    -0.8730 C.2   1 <1>   0.5690 
  3 N       -3.3800     0.1690    -0.7170 N.am  1 <1>  -0.6600 
  4 C       -1.8690     2.2220    -0.2100 C.3   1 <1>   0.0610 
  5 C       -2.7610    -0.7330     0.3110 C.3   1 <1>   0.3210 
  6 C       -4.3350    -0.4990    -1.6670 C.3   1 <1>   0.1400 
  7 C       -0.5600     1.4070    -0.1860 C.3   1 <1>  -0.1600 
  8 C       -1.4350     3.4520    -1.0340 C.3   1 <1>  -0.1600 
  9 C       -2.2450     2.6920     1.2150 C.3   1 <1>  -0.2400 
 10 C       -3.7280    -1.7830     0.8610 C.2   1 <1>   0.0460 
 11 C       -5.8130    -0.4210    -1.2240 C.3   1 <1>   0.3430 
 12 C        0.6010     2.4090    -0.1980 C.3   1 <1>  -0.1600 
 13 C        0.0180     3.7430    -0.6630 C.3   1 <1>  -0.1600 
 14 N       -4.7760    -1.4290     1.6370 N.2   1 <1>  -0.5650 
 15 C       -3.6860    -3.1290     0.7000 C.2   1 <1>  -0.3320 
 16 N       -6.2170     0.9660    -0.8310 N.4   1 <1>  -0.9590 
 17 C       -5.3280    -2.5560     1.9490 C.2   1 <1>   0.0360 
 18 N       -4.7160    -3.6280     1.4080 N.pl3 1 <1>   0.0330 
 19 C       -2.7240    -4.0250    -0.0650 C.3   1 <1>  -0.0600 
 20 C       -6.1900     1.1210     0.6530 C.3   1 <1>   0.2630 
 21 C       -7.5200     1.3840    -1.4140 C.3   1 <1>   0.2630 
 22 H       -2.4150    -0.1610     1.1480 H     1 <1>   0.0800 
 23 H       -1.9130    -1.2250    -0.1280 H     1 <1>   0.0800 
 24 H       -4.0590    -1.5320    -1.7930 H     1 <1>   0.0800 
 25 H       -4.2450    -0.0370    -2.6360 H     1 <1>   0.0800 
 26 H       -0.5010     0.8090    -1.0800 H     1 <1>   0.0800 
 27 H       -0.4790     0.7630     0.6710 H     1 <1>   0.0800 
 28 H       -2.0710     4.3050    -0.8680 H     1 <1>   0.0800 
 29 H       -1.4710     3.2060    -2.0820 H     1 <1>   0.0800 
 30 H       -2.5190     1.8650     1.8430 H     1 <1>   0.0800 
 31 H       -3.0820     3.3660     1.1690 H     1 <1>   0.0800 
 32 H       -1.4260     3.2070     1.6840 H     1 <1>   0.0800 
 33 H       -5.9750    -1.0970    -0.4020 H     1 <1>   0.0800 
 34 H       -6.4260    -0.7580    -2.0430 H     1 <1>   0.0800 
 35 H        1.3820     2.0760    -0.8600 H     1 <1>   0.0800 
 36 H        1.0110     2.5180     0.7910 H     1 <1>   0.0800 
 37 H        0.0550     4.4560     0.1430 H     1 <1>   0.0800 
 38 H        0.5610     4.1430    -1.5030 H     1 <1>   0.0800 
 39 H       -5.4600     1.5860    -1.2020 H     1 <1>   0.4500 
 40 H       -6.1930    -2.6570     2.5840 H     1 <1>   0.1500 
 41 H       -4.9710    -4.6130     1.5350 H     1 <1>   0.2700 
 42 H       -1.9870    -3.4450    -0.5900 H     1 <1>   0.0800 
 43 H       -3.2600    -4.6200    -0.7830 H     1 <1>   0.0800 
 44 H       -2.2140    -4.6840     0.6160 H     1 <1>   0.0800 
 45 H       -6.8850     0.4400     1.1160 H     1 <1>   0.0800 
 46 H       -6.4450     2.1300     0.9310 H     1 <1>   0.0800 
 47 H       -5.2020     0.9040     1.0270 H     1 <1>   0.0800 
 48 H       -8.3140     0.7540    -1.0480 H     1 <1>   0.0800 
 49 H       -7.4860     1.3150    -2.4890 H     1 <1>   0.0800 
 50 H       -7.7350     2.4060    -1.1450 H     1 <1>   0.0800 
@<TRIPOS>BOND
  1   1   2  2   
  2   2   3  am  
  3   2   4  1   
  4   3   5  1   
  5   3   6  1   
  6   4   7  1   
  7   4   8  1   
  8   4   9  1   
  9   5  10  1   
 10   5  22  1   
 11   5  23  1   
 12   6  11  1   
 13   6  24  1   
 14   6  25  1   
 15   7  12  1   
 16   7  26  1   
 17   7  27  1   
 18   8  13  1   
 19   8  28  1   
 20   8  29  1   
 21   9  30  1   
 22   9  31  1   
 23   9  32  1   
 24  10  14  1   
 25  10  15  2   
 26  11  16  1   
 27  11  33  1   
 28  11  34  1   
 29  12  13  1   
 30  12  35  1   
 31  12  36  1   
 32  13  37  1   
 33  13  38  1   
 34  14  17  2   
 35  15  18  1   
 36  15  19  1   
 37  16  20  1   
 38  16  21  1   
 39  16  39  1   
 40  17  18  1   
 41  17  40  1   
 42  18  41  1   
 43  19  42  1   
 44  19  43  1   
 45  19  44  1   
 46  20  45  1   
 47  20  46  1   
 48  20  47  1   
 49  21  48  1   
 50  21  49  1   
 51  21  50  1   
@<TRIPOS>SUBSTRUCTURE
  1 ****   3 GROUP 4 **** **** 0

# MOE 2024.06 (io_trps.svl 2023.06)
