@<TRIPOS>MOLECULE
NONAME
48 51 1 0 0 
SMALL
USER_CHARGES


@<TRIPOS>ATOM
  1 S       -1.8530    -0.5280     0.5160 S.3   1 <1>  -0.0800 
  2 C       -1.8950    -2.1750    -0.0910 C.2   1 <1>  -0.1400 
  3 C       -3.4760    -0.2200    -0.0700 C.2   1 <1>  -0.1100 
  4 C       -3.0770    -2.4240    -0.6920 C.2   1 <1>  -0.1500 
  5 C       -0.6450    -2.9950     0.1540 C.3   1 <1>   0.5230 
  6 C       -3.9760    -1.3100    -0.6770 C.2   1 <1>  -0.1500 
  7 N       -0.9920    -4.4370     0.1580 N.4   1 <1>  -0.9590 
  8 C       -1.8930    -4.8260     1.2810 C.3   1 <1>   0.3430 
  9 C        0.1700    -5.3450     0.0600 C.3   1 <1>   0.3430 
 10 C       -2.9690    -5.8040     0.7700 C.3   1 <1>   0.1100 
 11 C       -0.1850    -6.5080    -0.8670 C.3   1 <1>  -0.1600 
 12 N       -2.6410    -6.4100    -0.5540 N.3   1 <1>  -0.8100 
 13 C       -1.4510    -7.2860    -0.4900 C.3   1 <1>   0.1100 
 14 C       -3.8210    -7.1460    -1.1100 C.3   1 <1>   0.2900 
 15 C       -4.3220    -8.3660    -0.3230 C.2   1 <1>   0.2980 
 16 O       -5.3990    -8.9570    -0.7520 O.3   1 <1>  -0.2800 
 17 N       -3.8090    -8.8910     0.7210 N.2   1 <1>  -0.3380 
 18 C       -5.5170    -9.9180     0.1350 C.2   1 <1>   0.4250 
 19 N       -4.5850    -9.9020     1.0250 N.2   1 <1>  -0.3380 
 20 C       -6.6170   -10.8570     0.0460 C.ar  1 <1>   0.0530 
 21 C       -6.7590   -11.8870     0.9790 C.ar  1 <1>  -0.1500 
 22 C       -7.5780   -10.7760    -0.9690 C.ar  1 <1>  -0.1500 
 23 C       -7.8130   -12.7700     0.8770 C.ar  1 <1>   0.1900 
 24 C       -8.6320   -11.6710    -1.0590 C.ar  1 <1>  -0.1500 
 25 F       -7.9240   -13.7230     1.7610 F     1 <1>  -0.1900 
 26 C       -8.7590   -12.6850    -0.1260 C.ar  1 <1>  -0.1500 
 27 H       -3.8890     0.7600     0.1030 H     1 <1>   0.1500 
 28 H       -3.3780    -3.3450    -1.1620 H     1 <1>   0.1500 
 29 H       -0.2140    -2.7220     1.1030 H     1 <1>   0.0800 
 30 H        0.0720    -2.7830    -0.6220 H     1 <1>   0.0800 
 31 H       -4.9540    -1.3780    -1.1250 H     1 <1>   0.1500 
 32 H       -1.5670    -4.6500    -0.6760 H     1 <1>   0.4500 
 33 H       -2.3840    -3.9590     1.6940 H     1 <1>   0.0800 
 34 H       -1.3270    -5.2900     2.0710 H     1 <1>   0.0800 
 35 H        0.4380    -5.7150     1.0370 H     1 <1>   0.0800 
 36 H        1.0190    -4.8220    -0.3490 H     1 <1>   0.0800 
 37 H       -3.8920    -5.2550     0.6820 H     1 <1>   0.0800 
 38 H       -3.1260    -6.5650     1.5150 H     1 <1>   0.0800 
 39 H        0.6420    -7.1970    -0.8630 H     1 <1>   0.0800 
 40 H       -0.2810    -6.1490    -1.8760 H     1 <1>   0.0800 
 41 H       -1.3520    -7.7260     0.4910 H     1 <1>   0.0800 
 42 H       -1.5560    -8.0990    -1.1920 H     1 <1>   0.0800 
 43 H       -3.5810    -7.4750    -2.1060 H     1 <1>   0.0800 
 44 H       -4.6420    -6.4560    -1.2030 H     1 <1>   0.0800 
 45 H       -6.0520   -12.0010     1.7820 H     1 <1>   0.1500 
 46 H       -7.5030    -9.9960    -1.7070 H     1 <1>   0.1500 
 47 H       -9.3540   -11.5790    -1.8530 H     1 <1>   0.1500 
 48 H       -9.5670   -13.3930    -0.1710 H     1 <1>   0.1500 
@<TRIPOS>BOND
  1   1   2  1   
  2   1   3  1   
  3   2   4  2   
  4   2   5  1   
  5   3   6  2   
  6   3  27  1   
  7   4   6  1   
  8   4  28  1   
  9   5   7  1   
 10   5  29  1   
 11   5  30  1   
 12   6  31  1   
 13   7   8  1   
 14   7   9  1   
 15   7  32  1   
 16   8  10  1   
 17   8  33  1   
 18   8  34  1   
 19   9  11  1   
 20   9  35  1   
 21   9  36  1   
 22  10  12  1   
 23  10  37  1   
 24  10  38  1   
 25  11  13  1   
 26  11  39  1   
 27  11  40  1   
 28  12  13  1   
 29  12  14  1   
 30  13  41  1   
 31  13  42  1   
 32  14  15  1   
 33  14  43  1   
 34  14  44  1   
 35  15  16  1   
 36  15  17  2   
 37  16  18  1   
 38  17  19  1   
 39  18  19  2   
 40  18  20  1   
 41  20  21  ar  
 42  20  22  ar  
 43  21  23  ar  
 44  21  45  1   
 45  22  24  ar  
 46  22  46  1   
 47  23  25  1   
 48  23  26  ar  
 49  24  26  ar  
 50  24  47  1   
 51  26  48  1   
@<TRIPOS>SUBSTRUCTURE
  1 ****  14 GROUP 4 **** **** 0

# MOE 2024.06 (io_trps.svl 2023.06)
