@<TRIPOS>MOLECULE
NONAME
63 66 1 0 0 
SMALL
USER_CHARGES


@<TRIPOS>ATOM
  1 O        1.1350    -0.9440     1.9220 O.2   1 <1>  -0.5700 
  2 C        2.1160    -1.1130     1.2500 C.2   1 <1>   0.4950 
  3 C        2.7340    -0.0830     0.4720 C.2   1 <1>  -0.1360 
  4 C        2.7430    -2.4900     1.1730 C.3   1 <1>  -0.0990 
  5 C        3.8920    -0.2080    -0.2060 C.2   1 <1>  -0.2760 
  6 C        4.2710    -2.3970     1.0040 C.3   1 <1>  -0.1600 
  7 C        4.7430    -1.4930    -0.1710 C.3   1 <1>   0.1380 
  8 C        4.4210     0.9220    -1.0900 C.3   1 <1>  -0.0220 
  9 C        6.2520    -1.1380     0.0480 C.3   1 <1>  -0.0800 
 10 C        4.5020    -2.2360    -1.4990 C.3   1 <1>  -0.2400 
 11 C        5.8750     1.2630    -0.7690 C.3   1 <1>   0.2000 
 12 C        6.7590     0.0050    -0.8780 C.3   1 <1>  -0.0800 
 13 C        7.2060    -2.3650     0.0170 C.3   1 <1>  -0.1600 
 14 O        5.9130     1.7740     0.5170 O.3   1 <1>  -0.6800 
 15 C        8.2380     0.2970    -0.5510 C.3   1 <1>  -0.0800 
 16 C        8.6880    -1.9980     0.2450 C.3   1 <1>  -0.1600 
 17 C        9.1780    -0.9080    -0.7310 C.3   1 <1>   0.0000 
 18 C        8.9440     1.4480    -1.2610 C.3   1 <1>  -0.1600 
 19 C       10.5370    -0.2370    -0.3880 C.3   1 <1>  -0.0800 
 20 C        9.1830    -1.4710    -2.1740 C.3   1 <1>  -0.2400 
 21 C       10.4360     1.1810    -1.0040 C.3   1 <1>  -0.1600 
 22 C       11.9190    -0.9300    -0.6060 C.3   1 <1>  -0.0800 
 23 C       12.0190    -2.2460     0.1920 C.3   1 <1>  -0.1600 
 24 C       12.3760    -1.1520    -2.0630 C.3   1 <1>  -0.2400 
 25 C       13.4620    -2.7560     0.3750 C.3   1 <1>  -0.2660 
 26 C       13.5180    -3.9820     1.2580 C.2   1 <1>   0.9060 
 27 O       13.8190    -3.8400     2.4470 O.co2 1 <1>  -0.9000 
 28 O       13.2570    -5.0810     0.7600 O.co2 1 <1>  -0.9000 
 29 H        2.1680     0.8310     0.4550 H     1 <1>   0.1500 
 30 H        2.5100    -3.0320     2.0720 H     1 <1>   0.0800 
 31 H        2.3060    -3.0170     0.3450 H     1 <1>   0.0800 
 32 H        4.6650    -3.3920     0.8910 H     1 <1>   0.0800 
 33 H        4.6630    -2.0030     1.9250 H     1 <1>   0.0800 
 34 H        3.8200     1.8080    -0.9850 H     1 <1>   0.0800 
 35 H        4.3580     0.6210    -2.1200 H     1 <1>   0.0800 
 36 H        6.3270    -0.7520     1.0500 H     1 <1>   0.0800 
 37 H        4.9390    -3.2180    -1.4810 H     1 <1>   0.0800 
 38 H        4.9200    -1.6990    -2.3290 H     1 <1>   0.0800 
 39 H        3.4480    -2.3470    -1.6780 H     1 <1>   0.0800 
 40 H        6.2290     2.0320    -1.4350 H     1 <1>   0.0800 
 41 H        6.6970    -0.3160    -1.8990 H     1 <1>   0.0800 
 42 H        6.9270    -3.0670     0.7810 H     1 <1>   0.0800 
 43 H        7.1220    -2.8760    -0.9240 H     1 <1>   0.0800 
 44 H        5.4430     1.1560     1.1090 H     1 <1>   0.4000 
 45 H        8.2600     0.5600     0.4950 H     1 <1>   0.0800 
 46 H        9.2810    -2.8880     0.1400 H     1 <1>   0.0800 
 47 H        8.8100    -1.6550     1.2580 H     1 <1>   0.0800 
 48 H        8.7380     1.4180    -2.3160 H     1 <1>   0.0800 
 49 H        8.6390     2.4010    -0.8650 H     1 <1>   0.0800 
 50 H       10.4990    -0.0710     0.6770 H     1 <1>   0.0800 
 51 H        9.7610    -2.3750    -2.2040 H     1 <1>   0.0800 
 52 H        9.6130    -0.7700    -2.8660 H     1 <1>   0.0800 
 53 H        8.2030    -1.7210    -2.5260 H     1 <1>   0.0800 
 54 H       10.8370     1.9040    -0.3150 H     1 <1>   0.0800 
 55 H       10.9670     1.2700    -1.9310 H     1 <1>   0.0800 
 56 H       12.6380    -0.2570    -0.1700 H     1 <1>   0.0800 
 57 H       11.6000    -2.1050     1.1740 H     1 <1>   0.0800 
 58 H       11.4540    -3.0190    -0.2970 H     1 <1>   0.0800 
 59 H       11.8940    -2.0050    -2.4990 H     1 <1>   0.0800 
 60 H       13.4340    -1.3390    -2.0830 H     1 <1>   0.0800 
 61 H       12.1940    -0.2980    -2.6840 H     1 <1>   0.0800 
 62 H       14.0700    -1.9980     0.8290 H     1 <1>   0.0800 
 63 H       13.8920    -3.0270    -0.5680 H     1 <1>   0.0800 
@<TRIPOS>BOND
  1   1   2  2   
  2   2   3  1   
  3   2   4  1   
  4   3   5  2   
  5   3  29  1   
  6   4   6  1   
  7   4  30  1   
  8   4  31  1   
  9   5   7  1   
 10   5   8  1   
 11   6   7  1   
 12   6  32  1   
 13   6  33  1   
 14   7   9  1   
 15   7  10  1   
 16   8  11  1   
 17   8  34  1   
 18   8  35  1   
 19   9  12  1   
 20   9  13  1   
 21   9  36  1   
 22  10  37  1   
 23  10  38  1   
 24  10  39  1   
 25  11  12  1   
 26  11  14  1   
 27  11  40  1   
 28  12  15  1   
 29  12  41  1   
 30  13  16  1   
 31  13  42  1   
 32  13  43  1   
 33  14  44  1   
 34  15  17  1   
 35  15  18  1   
 36  15  45  1   
 37  16  17  1   
 38  16  46  1   
 39  16  47  1   
 40  17  19  1   
 41  17  20  1   
 42  18  21  1   
 43  18  48  1   
 44  18  49  1   
 45  19  21  1   
 46  19  22  1   
 47  19  50  1   
 48  20  51  1   
 49  20  52  1   
 50  20  53  1   
 51  21  54  1   
 52  21  55  1   
 53  22  23  1   
 54  22  24  1   
 55  22  56  1   
 56  23  25  1   
 57  23  57  1   
 58  23  58  1   
 59  24  59  1   
 60  24  60  1   
 61  24  61  1   
 62  25  26  1   
 63  25  62  1   
 64  25  63  1   
 65  26  27  ar  
 66  26  28  ar  
@<TRIPOS>SUBSTRUCTURE
  1 ****  16 GROUP 4 **** **** 0

# MOE 2024.06 (io_trps.svl 2023.06)
