@<TRIPOS>MOLECULE
NONAME
50 53 1 0 0 
SMALL
USER_CHARGES


@<TRIPOS>ATOM
  1 O       -0.7190     0.2980     0.6940 O.2   1 <1>  -0.5700 
  2 C       -1.6880     0.9140     0.2930 C.2   1 <1>   0.7150 
  3 N       -2.8540     0.2310     0.0380 N.am  1 <1>  -0.6600 
  4 C       -1.5960     2.3370     0.0880 C.2   1 <1>  -0.2370 
  5 C       -4.2060     0.8280     0.1270 C.3   1 <1>   0.1400 
  6 C       -2.9310    -1.2440     0.1280 C.3   1 <1>   0.1400 
  7 N       -2.2830     2.9980    -0.9020 N.pl3 1 <1>   0.0330 
  8 C       -0.8480     3.2630     0.7570 C.2   1 <1>  -0.1500 
  9 C       -5.1230    -0.3000     0.6200 C.3   1 <1>  -0.0800 
 10 C       -4.4220    -1.5910     0.1580 C.3   1 <1>  -0.0800 
 11 C       -1.9860     4.3320    -0.8450 C.ar  1 <1>  -0.1520 
 12 C       -1.0830     4.5290     0.1920 C.ar  1 <1>   0.0000 
 13 C       -6.6280    -0.1860     0.2190 C.3   1 <1>   0.2800 
 14 C       -4.9510    -2.0450    -1.2120 C.3   1 <1>  -0.1600 
 15 C       -2.4320     5.4050    -1.6190 C.ar  1 <1>  -0.1500 
 16 C       -0.6120     5.8190     0.4630 C.ar  1 <1>  -0.1500 
 17 O       -6.7610     0.5310    -0.9560 O.3   1 <1>  -0.6800 
 18 C       -7.2090    -1.5850    -0.0570 C.3   1 <1>  -0.1600 
 19 C       -7.4770     0.5380     1.2870 C.3   1 <1>  -0.1600 
 20 C       -6.4570    -2.3600    -1.1610 C.3   1 <1>  -0.1600 
 21 C       -1.9620     6.6670    -1.3400 C.ar  1 <1>  -0.1500 
 22 C       -1.0480     6.8810    -0.2970 C.ar  1 <1>  -0.1430 
 23 C       -7.0610     1.9860     1.6010 C.3   1 <1>  -0.2400 
 24 C       -0.5570     8.2920    -0.0280 C.3   1 <1>  -0.0970 
 25 H       -4.2170     1.6650     0.8030 H     1 <1>   0.0800 
 26 H       -4.4850     1.1600    -0.8570 H     1 <1>   0.0800 
 27 H       -2.4280    -1.6970    -0.7090 H     1 <1>   0.0800 
 28 H       -2.4580    -1.5670     1.0400 H     1 <1>   0.0800 
 29 H       -2.8970     2.5510    -1.5890 H     1 <1>   0.2700 
 30 H       -0.1810     3.0790     1.5800 H     1 <1>   0.1500 
 31 H       -5.0670    -0.3020     1.6940 H     1 <1>   0.0800 
 32 H       -4.5860    -2.3850     0.8660 H     1 <1>   0.0800 
 33 H       -4.7830    -1.2550    -1.9260 H     1 <1>   0.0800 
 34 H       -4.4120    -2.9110    -1.5540 H     1 <1>   0.0800 
 35 H       -3.1320     5.2390    -2.4190 H     1 <1>   0.1500 
 36 H        0.0870     5.9500     1.2680 H     1 <1>   0.1500 
 37 H       -7.6960     0.5250    -1.2290 H     1 <1>   0.4000 
 38 H       -7.1460    -2.1540     0.8540 H     1 <1>   0.0800 
 39 H       -8.2530    -1.5190    -0.3090 H     1 <1>   0.0800 
 40 H       -8.5060     0.5400     0.9710 H     1 <1>   0.0800 
 41 H       -7.4370    -0.0290     2.2010 H     1 <1>   0.0800 
 42 H       -6.5990    -3.4150    -0.9980 H     1 <1>   0.0800 
 43 H       -6.8850    -2.1230    -2.1200 H     1 <1>   0.0800 
 44 H       -2.2940     7.5060    -1.9260 H     1 <1>   0.1500 
 45 H       -7.0350     2.5800     0.7050 H     1 <1>   0.0800 
 46 H       -6.0920     2.0150     2.0660 H     1 <1>   0.0800 
 47 H       -7.7680     2.4280     2.2800 H     1 <1>   0.0800 
 48 H       -0.0600     8.6780    -0.9010 H     1 <1>   0.0800 
 49 H        0.1350     8.3060     0.7940 H     1 <1>   0.0800 
 50 H       -1.3880     8.9290     0.2120 H     1 <1>   0.0800 
@<TRIPOS>BOND
  1   1   2  2   
  2   2   3  am  
  3   2   4  1   
  4   3   5  1   
  5   3   6  1   
  6   4   7  1   
  7   4   8  2   
  8   5   9  1   
  9   5  25  1   
 10   5  26  1   
 11   6  10  1   
 12   6  27  1   
 13   6  28  1   
 14   7  11  1   
 15   7  29  1   
 16   8  12  1   
 17   8  30  1   
 18   9  10  1   
 19   9  13  1   
 20   9  31  1   
 21  10  14  1   
 22  10  32  1   
 23  11  12  ar  
 24  11  15  ar  
 25  12  16  ar  
 26  13  17  1   
 27  13  18  1   
 28  13  19  1   
 29  14  20  1   
 30  14  33  1   
 31  14  34  1   
 32  15  21  ar  
 33  15  35  1   
 34  16  22  ar  
 35  16  36  1   
 36  17  37  1   
 37  18  20  1   
 38  18  38  1   
 39  18  39  1   
 40  19  23  1   
 41  19  40  1   
 42  19  41  1   
 43  20  42  1   
 44  20  43  1   
 45  21  22  ar  
 46  21  44  1   
 47  22  24  1   
 48  23  45  1   
 49  23  46  1   
 50  23  47  1   
 51  24  48  1   
 52  24  49  1   
 53  24  50  1   
@<TRIPOS>SUBSTRUCTURE
  1 ****   5 GROUP 4 **** **** 0

# MOE 2024.06 (io_trps.svl 2023.06)
