@<TRIPOS>MOLECULE
NONAME
53 55 1 0 0 
SMALL
USER_CHARGES


@<TRIPOS>ATOM
  1 F       -0.8810     0.0560    -1.8150 F     1 <1>  -0.1900 
  2 C       -2.0750     0.3780    -1.3870 C.ar  1 <1>   0.1900 
  3 C       -2.2680     1.2610    -0.3180 C.ar  1 <1>   0.0820 
  4 C       -3.1410    -0.2020    -2.0490 C.ar  1 <1>  -0.1500 
  5 O       -1.3030     1.8960     0.4080 O.3   1 <1>  -0.3630 
  6 C       -3.5710     1.5330     0.0620 C.ar  1 <1>  -0.1500 
  7 C       -4.4300     0.0920    -1.6430 C.ar  1 <1>  -0.1500 
  8 C        0.0760     1.7570     0.1430 C.3   1 <1>   0.0400 
  9 C       -4.6710     0.9600    -0.5770 C.ar  1 <1>   0.0530 
 10 C       -6.0090     1.2750    -0.1480 C.2   1 <1>   0.0870 
 11 O       -6.3530     2.5270     0.0110 O.3   1 <1>  -0.0190 
 12 C       -7.0980     0.5180     0.1640 C.2   1 <1>  -0.0860 
 13 N       -7.5920     2.6700     0.3950 N.2   1 <1>  -0.4100 
 14 C       -8.0640     1.4790     0.4920 C.2   1 <1>   0.3720 
 15 C       -7.2700    -0.9030     0.2020 C.2   1 <1>   0.7160 
 16 N       -9.3880     1.2150     0.8810 N.pl3 1 <1>  -0.8210 
 17 O       -6.3840    -1.6660    -0.1380 O.2   1 <1>  -0.5700 
 18 N       -8.4500    -1.4390     0.6330 N.am  1 <1>  -0.7300 
 19 C       -9.7020     1.7680     2.2310 C.3   1 <1>   0.1290 
 20 C      -10.3750     1.7110    -0.1220 C.3   1 <1>   0.1290 
 21 C       -8.9130    -2.8460     0.8070 C.3   1 <1>   0.2200 
 22 C       -7.8500    -3.7640     1.4260 C.3   1 <1>   0.3430 
 23 C       -9.1890    -3.4750    -0.5590 C.3   1 <1>  -0.1600 
 24 N       -7.0660    -4.2620     0.2690 N.4   1 <1>  -0.9590 
 25 C       -8.0330    -4.4370    -0.8440 C.3   1 <1>   0.3430 
 26 C       -6.1790    -5.4110     0.5610 C.3   1 <1>   0.3430 
 27 C       -5.2250    -5.6220    -0.6070 C.3   1 <1>  -0.2400 
 28 H       -2.9590    -0.8710    -2.8700 H     1 <1>   0.1500 
 29 H       -3.7350     2.2130     0.8800 H     1 <1>   0.1500 
 30 H       -5.2620    -0.3520    -2.1590 H     1 <1>   0.1500 
 31 H        0.6140     2.3680     0.8450 H     1 <1>   0.0800 
 32 H        0.2770     2.0910    -0.8590 H     1 <1>   0.0800 
 33 H        0.3550     0.7260     0.2700 H     1 <1>   0.0800 
 34 H       -9.1540    -0.7100     0.8500 H     1 <1>   0.3700 
 35 H       -8.9580     1.4500     2.9410 H     1 <1>   0.0800 
 36 H      -10.6660     1.4190     2.5590 H     1 <1>   0.0800 
 37 H       -9.7090     2.8450     2.2010 H     1 <1>   0.0800 
 38 H      -10.1260     1.3360    -1.1000 H     1 <1>   0.0800 
 39 H      -10.3630     2.7890    -0.1540 H     1 <1>   0.0800 
 40 H      -11.3650     1.3780     0.1360 H     1 <1>   0.0800 
 41 H       -9.7980    -2.8400     1.4220 H     1 <1>   0.0800 
 42 H       -8.3330    -4.5910     1.9190 H     1 <1>   0.0800 
 43 H       -7.2330    -3.2300     2.1300 H     1 <1>   0.0800 
 44 H       -9.2740    -2.7360    -1.3360 H     1 <1>   0.0800 
 45 H      -10.1040    -4.0390    -0.5290 H     1 <1>   0.0800 
 46 H       -6.4750    -3.4450    -0.0010 H     1 <1>   0.4500 
 47 H       -7.5660    -4.2130    -1.7900 H     1 <1>   0.0800 
 48 H       -8.3990    -5.4510    -0.8610 H     1 <1>   0.0800 
 49 H       -6.7640    -6.3020     0.7300 H     1 <1>   0.0800 
 50 H       -5.6050    -5.2060     1.4510 H     1 <1>   0.0800 
 51 H       -5.7550    -5.9040    -1.4990 H     1 <1>   0.0800 
 52 H       -4.5400    -6.4160    -0.3660 H     1 <1>   0.0800 
 53 H       -4.6510    -4.7310    -0.7920 H     1 <1>   0.0800 
@<TRIPOS>BOND
  1   1   2  1   
  2   2   3  ar  
  3   2   4  ar  
  4   3   5  1   
  5   3   6  ar  
  6   4   7  ar  
  7   4  28  1   
  8   5   8  1   
  9   6   9  ar  
 10   6  29  1   
 11   7   9  ar  
 12   7  30  1   
 13   8  31  1   
 14   8  32  1   
 15   8  33  1   
 16   9  10  1   
 17  10  11  1   
 18  10  12  2   
 19  11  13  1   
 20  12  14  1   
 21  12  15  1   
 22  13  14  2   
 23  14  16  1   
 24  15  17  2   
 25  15  18  am  
 26  16  19  1   
 27  16  20  1   
 28  18  21  1   
 29  18  34  1   
 30  19  35  1   
 31  19  36  1   
 32  19  37  1   
 33  20  38  1   
 34  20  39  1   
 35  20  40  1   
 36  21  22  1   
 37  21  23  1   
 38  21  41  1   
 39  22  24  1   
 40  22  42  1   
 41  22  43  1   
 42  23  25  1   
 43  23  44  1   
 44  23  45  1   
 45  24  25  1   
 46  24  26  1   
 47  24  46  1   
 48  25  47  1   
 49  25  48  1   
 50  26  27  1   
 51  26  49  1   
 52  26  50  1   
 53  27  51  1   
 54  27  52  1   
 55  27  53  1   
@<TRIPOS>SUBSTRUCTURE
  1 ****  17 GROUP 4 **** **** 0

# MOE 2024.06 (io_trps.svl 2023.06)
