@<TRIPOS>MOLECULE
NONAME
47 50 1 0 0 
SMALL
USER_CHARGES


@<TRIPOS>ATOM
  1 O       -0.7890    -0.5590     0.8140 O.3   1 <1>  -0.6800 
  2 C       -1.4990    -1.4780     0.0610 C.3   1 <1>   0.2000 
  3 C       -2.2520    -2.4260     1.0080 C.3   1 <1>   0.2090 
  4 C       -2.4680    -0.7120    -0.8460 C.3   1 <1>  -0.1600 
  5 N       -3.1190    -3.3680     0.2220 N.pl3 1 <1>  -0.8380 
  6 C       -3.4030    -1.6900    -1.5790 C.3   1 <1>  -0.1600 
  7 C       -3.0960    -4.7230     0.3340 C.ar  1 <1>   0.4100 
  8 C       -4.1250    -2.6430    -0.6160 C.3   1 <1>   0.2090 
  9 N       -4.2100    -5.3810     0.0750 N.ar  1 <1>  -0.6200 
 10 C       -1.9220    -5.4070     0.7110 C.ar  1 <1>  -0.1500 
 11 C       -4.2160    -6.6990     0.2040 C.ar  1 <1>   0.7710 
 12 C       -1.9520    -6.7530     0.8390 C.ar  1 <1>   0.2110 
 13 N       -3.1240    -7.3820     0.5840 N.ar  1 <1>  -0.1790 
 14 N       -5.3560    -7.3830    -0.0520 N.pl3 1 <1>  -0.8380 
 15 C       -5.5950    -8.8580    -0.0410 C.3   1 <1>   0.2090 
 16 C       -6.6400    -6.6860    -0.3760 C.3   1 <1>   0.2090 
 17 C       -6.9920    -9.0230    -0.6360 C.3   1 <1>  -0.0800 
 18 C       -7.7150    -7.7530    -0.1740 C.3   1 <1>  -0.0800 
 19 C       -7.6960   -10.3430    -0.2740 C.3   1 <1>  -0.0220 
 20 C       -8.1460    -7.7900     1.3140 C.3   1 <1>  -0.0220 
 21 C       -8.3440   -10.2970     1.0950 C.2   1 <1>  -0.2880 
 22 C       -8.5400    -9.1750     1.7900 C.2   1 <1>  -0.2880 
 23 H       -0.3410     0.0820     0.2290 H     1 <1>   0.4000 
 24 H       -0.7950    -2.0410    -0.5260 H     1 <1>   0.0800 
 25 H       -2.8820    -1.8410     1.6550 H     1 <1>   0.0800 
 26 H       -1.5490    -2.9540     1.6250 H     1 <1>   0.0800 
 27 H       -3.0640    -0.0450    -0.2470 H     1 <1>   0.0800 
 28 H       -1.9190    -0.1350    -1.5680 H     1 <1>   0.0800 
 29 H       -2.8370    -2.2780    -2.2800 H     1 <1>   0.0800 
 30 H       -4.1360    -1.1350    -2.1380 H     1 <1>   0.0800 
 31 H       -4.7220    -3.3320    -1.1890 H     1 <1>   0.0800 
 32 H       -4.7850    -2.0860     0.0280 H     1 <1>   0.0800 
 33 H       -1.0180    -4.8540     0.8780 H     1 <1>   0.1500 
 34 H       -1.0910    -7.3340     1.1280 H     1 <1>   0.1500 
 35 H       -3.2460    -8.3840     0.6680 H     1 <1>   0.4570 
 36 H       -4.8680    -9.3870    -0.6340 H     1 <1>   0.0800 
 37 H       -5.5890    -9.2210     0.9740 H     1 <1>   0.0800 
 38 H       -6.8020    -5.8290     0.2580 H     1 <1>   0.0800 
 39 H       -6.6200    -6.3660    -1.4040 H     1 <1>   0.0800 
 40 H       -6.8880    -8.9910    -1.7070 H     1 <1>   0.0800 
 41 H       -8.5770    -7.5630    -0.7890 H     1 <1>   0.0800 
 42 H       -8.4680   -10.5420    -0.9970 H     1 <1>   0.0800 
 43 H       -6.9920   -11.1550    -0.3160 H     1 <1>   0.0800 
 44 H       -7.3470    -7.4470     1.9490 H     1 <1>   0.0800 
 45 H       -8.9760    -7.1180     1.4510 H     1 <1>   0.0800 
 46 H       -8.6500   -11.2660     1.4550 H     1 <1>   0.1500 
 47 H       -9.0030    -9.1700     2.7640 H     1 <1>   0.1500 
@<TRIPOS>BOND
  1   1   2  1   
  2   1  23  1   
  3   2   3  1   
  4   2   4  1   
  5   2  24  1   
  6   3   5  1   
  7   3  25  1   
  8   3  26  1   
  9   4   6  1   
 10   4  27  1   
 11   4  28  1   
 12   5   7  1   
 13   5   8  1   
 14   6   8  1   
 15   6  29  1   
 16   6  30  1   
 17   7   9  ar  
 18   7  10  ar  
 19   8  31  1   
 20   8  32  1   
 21   9  11  ar  
 22  10  12  ar  
 23  10  33  1   
 24  11  13  ar  
 25  11  14  1   
 26  12  13  ar  
 27  12  34  1   
 28  13  35  1   
 29  14  15  1   
 30  14  16  1   
 31  15  17  1   
 32  15  36  1   
 33  15  37  1   
 34  16  18  1   
 35  16  38  1   
 36  16  39  1   
 37  17  18  1   
 38  17  19  1   
 39  17  40  1   
 40  18  20  1   
 41  18  41  1   
 42  19  21  1   
 43  19  42  1   
 44  19  43  1   
 45  20  22  1   
 46  20  44  1   
 47  20  45  1   
 48  21  22  2   
 49  21  46  1   
 50  22  47  1   
@<TRIPOS>SUBSTRUCTURE
  1 ****   9 GROUP 4 **** **** 0

# MOE 2024.06 (io_trps.svl 2023.06)
