@<TRIPOS>MOLECULE
NONAME
14 13 1 0 0 
SMALL
USER_CHARGES


@<TRIPOS>ATOM
  1 O        3.5160     1.4690    -0.5840 O.3   1 <1>  -0.6500 
  2 C        4.8970     1.3760    -0.6430 C.3   1 <1>   0.3940 
  3 C        5.3150     0.1770     0.2280 C.3   1 <1>   0.0230 
  4 C        5.5200     2.7030    -0.1740 C.3   1 <1>   0.0230 
  5 O        4.4400    -0.8990     0.0440 O.3   1 <1>  -0.6700 
  6 O        4.9040     3.7760    -0.8060 O.3   1 <1>  -0.6700 
  7 H        3.2170     0.5380    -0.4680 H     1 <1>   0.4260 
  8 H        5.1690     1.1860    -1.6660 H     1 <1>   0.0420 
  9 H        5.2920     0.4470     1.2700 H     1 <1>   0.0480 
 10 H        6.3090    -0.1410    -0.0290 H     1 <1>   0.0480 
 11 H        6.5710     2.7360    -0.4000 H     1 <1>   0.0480 
 12 H        5.3850     2.8240     0.8860 H     1 <1>   0.0480 
 13 H        4.7290    -1.6730     0.5730 H     1 <1>   0.4450 
 14 H        3.9380     3.5920    -0.8330 H     1 <1>   0.4450 
@<TRIPOS>BOND
  1   1   2  1   
  2   1   7  1   
  3   2   3  1   
  4   2   4  1   
  5   2   8  1   
  6   3   5  1   
  7   3   9  1   
  8   3  10  1   
  9   4   6  1   
 10   4  11  1   
 11   4  12  1   
 12   5  13  1   
 13   6  14  1   
@<TRIPOS>SUBSTRUCTURE
  1 ****   2 GROUP 4 **** **** 0

# MOE 2024.06 (io_trps.svl 2023.06)
