@<TRIPOS>MOLECULE
NONAME
37 39 1 0 0 
SMALL
USER_CHARGES


@<TRIPOS>ATOM
  1 S        0.1230     1.6020    -1.0960 S.3   1 <1>  -0.0800 
  2 C        1.4380     1.6490     0.0840 C.2   1 <1>  -0.0450 
  3 C       -0.1150    -0.1170    -0.8730 C.2   1 <1>  -0.1100 
  4 C        2.0880     2.9090     0.3410 C.2   1 <1>   0.7150 
  5 C        1.6210     0.3950     0.5760 C.2   1 <1>  -0.1500 
  6 C        0.7510    -0.5970     0.0370 C.2   1 <1>  -0.1500 
  7 O        1.5270     3.9690     0.1310 O.2   1 <1>  -0.5700 
  8 N        3.3970     2.9700     0.7760 N.am  1 <1>  -0.6600 
  9 C        3.8530     4.1290     1.6100 C.3   1 <1>   0.1400 
 10 C        4.4600     2.1520     0.1290 C.3   1 <1>   0.1400 
 11 C        4.8990     5.0570     0.9410 C.3   1 <1>   0.4230 
 12 C        5.1680     2.9190    -1.0140 C.3   1 <1>  -0.0800 
 13 N        4.6380     5.3830    -0.5150 N.4   1 <1>  -0.9590 
 14 C        6.3430     4.5240     1.1230 C.3   1 <1>   0.1200 
 15 C        6.6800     3.1180    -0.7660 C.3   1 <1>   0.1200 
 16 C        4.4410     4.2130    -1.4390 C.3   1 <1>   0.3430 
 17 C        3.5270     6.3670    -0.6820 C.3   1 <1>   0.2630 
 18 O        6.9690     4.3190    -0.1140 O.3   1 <1>  -0.5600 
 19 H       -0.8880    -0.5920    -1.4520 H     1 <1>   0.1500 
 20 H        2.3500     0.1300     1.3220 H     1 <1>   0.1500 
 21 H        0.8090    -1.6240     0.3560 H     1 <1>   0.1500 
 22 H        3.0020     4.7300     1.8800 H     1 <1>   0.0800 
 23 H        4.2520     3.7500     2.5340 H     1 <1>   0.0800 
 24 H        5.1650     1.8300     0.8760 H     1 <1>   0.0800 
 25 H        4.0210     1.2590    -0.2840 H     1 <1>   0.0800 
 26 H        4.8660     5.9790     1.4970 H     1 <1>   0.0800 
 27 H        5.1100     2.2550    -1.8590 H     1 <1>   0.0800 
 28 H        5.5350     5.7960    -0.8190 H     1 <1>   0.4500 
 29 H        6.3800     3.6150     1.6980 H     1 <1>   0.0800 
 30 H        6.9220     5.2630     1.6490 H     1 <1>   0.0800 
 31 H        7.1960     3.1560    -1.7110 H     1 <1>   0.0800 
 32 H        7.1010     2.3070    -0.1970 H     1 <1>   0.0800 
 33 H        3.3880     4.0000    -1.5220 H     1 <1>   0.0800 
 34 H        4.7840     4.4930    -2.4220 H     1 <1>   0.0800 
 35 H        2.5930     5.9360    -0.3580 H     1 <1>   0.0800 
 36 H        3.4290     6.6490    -1.7180 H     1 <1>   0.0800 
 37 H        3.7170     7.2540    -0.1010 H     1 <1>   0.0800 
@<TRIPOS>BOND
  1   1   2  1   
  2   1   3  1   
  3   2   4  1   
  4   2   5  2   
  5   3   6  2   
  6   3  19  1   
  7   4   7  2   
  8   4   8  am  
  9   5   6  1   
 10   5  20  1   
 11   6  21  1   
 12   8   9  1   
 13   8  10  1   
 14   9  11  1   
 15   9  22  1   
 16   9  23  1   
 17  10  12  1   
 18  10  24  1   
 19  10  25  1   
 20  11  13  1   
 21  11  14  1   
 22  11  26  1   
 23  12  15  1   
 24  12  16  1   
 25  12  27  1   
 26  13  16  1   
 27  13  17  1   
 28  13  28  1   
 29  14  18  1   
 30  14  29  1   
 31  14  30  1   
 32  15  18  1   
 33  15  31  1   
 34  15  32  1   
 35  16  33  1   
 36  16  34  1   
 37  17  35  1   
 38  17  36  1   
 39  17  37  1   
@<TRIPOS>SUBSTRUCTURE
  1 ****   8 GROUP 4 **** **** 0

# MOE 2024.06 (io_trps.svl 2023.06)
