@<TRIPOS>MOLECULE
NONAME
58 60 1 0 0 
SMALL
USER_CHARGES


@<TRIPOS>ATOM
  1 O       -0.2370     1.8020    -1.4620 O.2   1 <1>  -0.5700 
  2 C       -1.4200     1.9710    -1.6940 C.2   1 <1>   0.5440 
  3 N       -1.7910     3.0250    -2.5040 N.am  1 <1>  -0.6600 
  4 C       -2.4000     1.0830    -1.0940 C.ar  1 <1>   0.0860 
  5 C       -3.0720     3.7580    -2.3360 C.3   1 <1>   0.1400 
  6 C       -0.7990     3.7330    -3.3550 C.3   1 <1>   0.1400 
  7 C       -3.4480     0.5410    -1.8320 C.ar  1 <1>  -0.1500 
  8 C       -2.3260     0.7330     0.2510 C.ar  1 <1>  -0.1500 
  9 C       -2.7810     5.1000    -1.6600 C.3   1 <1>  -0.1600 
 10 C       -0.4520     5.0690    -2.6980 C.3   1 <1>  -0.1600 
 11 C       -4.3860    -0.2920    -1.2500 C.ar  1 <1>  -0.1500 
 12 C       -3.2620    -0.1000     0.8360 C.ar  1 <1>  -0.1500 
 13 C       -1.7160     5.9140    -2.4250 C.3   1 <1>  -0.0190 
 14 C       -4.3170    -0.6290     0.0980 C.ar  1 <1>  -0.1430 
 15 C       -1.3850     7.2110    -1.6920 C.2   1 <1>   0.5690 
 16 C       -5.3870    -1.5640     0.7040 C.3   1 <1>   0.1430 
 17 O       -1.7350     8.2550    -2.1900 O.2   1 <1>  -0.5700 
 18 N       -0.7180     7.1220    -0.5050 N.am  1 <1>  -0.4930 
 19 C       -5.1760    -1.8350     2.2030 C.3   1 <1>  -0.2400 
 20 C       -6.7770    -0.9300     0.5400 C.3   1 <1>  -0.2400 
 21 C       -5.3560    -2.9180    -0.0200 C.3   1 <1>  -0.2400 
 22 C       -0.3110     8.1490     0.3820 C.2   1 <1>   0.0630 
 23 C        0.4070     7.9940     1.5700 C.2   1 <1>   0.1080 
 24 C       -0.5180     9.4780     0.2890 C.2   1 <1>  -0.3020 
 25 N        0.6250     9.1250     2.1660 N.2   1 <1>  -0.7070 
 26 C        0.8940     6.6780     2.1360 C.3   1 <1>  -0.0590 
 27 N        0.0530    10.0450     1.3700 N.pl3 1 <1>   0.3140 
 28 C        0.0750    11.4750     1.6920 C.3   1 <1>   0.0160 
 29 H       -3.7640     3.1970    -1.7320 H     1 <1>   0.0800 
 30 H       -3.5190     3.9170    -3.3030 H     1 <1>   0.0800 
 31 H       -1.2220     3.8950    -4.3310 H     1 <1>   0.0800 
 32 H        0.0910     3.1360    -3.4720 H     1 <1>   0.0800 
 33 H       -3.5230     0.7750    -2.8790 H     1 <1>   0.1500 
 34 H       -1.5150     1.1230     0.8410 H     1 <1>   0.1500 
 35 H       -2.4510     4.9070    -0.6540 H     1 <1>   0.0800 
 36 H       -3.6910     5.6700    -1.5990 H     1 <1>   0.0800 
 37 H        0.2160     5.6160    -3.3390 H     1 <1>   0.0800 
 38 H        0.0730     4.8580    -1.7830 H     1 <1>   0.0800 
 39 H       -5.1760    -0.6820    -1.8650 H     1 <1>   0.1500 
 40 H       -3.1410    -0.3250     1.8790 H     1 <1>   0.1500 
 41 H       -2.1360     6.1860    -3.3780 H     1 <1>   0.0800 
 42 H       -0.4700     6.1810    -0.2090 H     1 <1>   0.3700 
 43 H       -5.2130    -0.9170     2.7620 H     1 <1>   0.0800 
 44 H       -4.2250    -2.3100     2.3710 H     1 <1>   0.0800 
 45 H       -5.9430    -2.4860     2.5820 H     1 <1>   0.0800 
 46 H       -6.7990     0.0340     1.0170 H     1 <1>   0.0800 
 47 H       -7.5320    -1.5500     0.9880 H     1 <1>   0.0800 
 48 H       -7.0250    -0.7990    -0.4960 H     1 <1>   0.0800 
 49 H       -4.3760    -3.3540     0.0590 H     1 <1>   0.0800 
 50 H       -5.5910    -2.8060    -1.0630 H     1 <1>   0.0800 
 51 H       -6.0690    -3.5970     0.4110 H     1 <1>   0.0800 
 52 H       -1.0320    10.0310    -0.4740 H     1 <1>   0.1500 
 53 H        1.5330     6.1880     1.4250 H     1 <1>   0.0800 
 54 H        0.0560     6.0470     2.3640 H     1 <1>   0.0800 
 55 H        1.4510     6.8550     3.0380 H     1 <1>   0.0800 
 56 H        0.4060    12.0250     0.8320 H     1 <1>   0.0800 
 57 H        0.7510    11.6400     2.5100 H     1 <1>   0.0800 
 58 H       -0.9140    11.7860     1.9710 H     1 <1>   0.0800 
@<TRIPOS>BOND
  1   1   2  2   
  2   2   3  am  
  3   2   4  1   
  4   3   5  1   
  5   3   6  1   
  6   4   7  ar  
  7   4   8  ar  
  8   5   9  1   
  9   5  29  1   
 10   5  30  1   
 11   6  10  1   
 12   6  31  1   
 13   6  32  1   
 14   7  11  ar  
 15   7  33  1   
 16   8  12  ar  
 17   8  34  1   
 18   9  13  1   
 19   9  35  1   
 20   9  36  1   
 21  10  13  1   
 22  10  37  1   
 23  10  38  1   
 24  11  14  ar  
 25  11  39  1   
 26  12  14  ar  
 27  12  40  1   
 28  13  15  1   
 29  13  41  1   
 30  14  16  1   
 31  15  17  2   
 32  15  18  am  
 33  16  19  1   
 34  16  20  1   
 35  16  21  1   
 36  18  22  1   
 37  18  42  1   
 38  19  43  1   
 39  19  44  1   
 40  19  45  1   
 41  20  46  1   
 42  20  47  1   
 43  20  48  1   
 44  21  49  1   
 45  21  50  1   
 46  21  51  1   
 47  22  23  1   
 48  22  24  2   
 49  23  25  2   
 50  23  26  1   
 51  24  27  1   
 52  24  52  1   
 53  25  27  1   
 54  26  53  1   
 55  26  54  1   
 56  26  55  1   
 57  27  28  1   
 58  28  56  1   
 59  28  57  1   
 60  28  58  1   
@<TRIPOS>SUBSTRUCTURE
  1 ****   9 GROUP 4 **** **** 0

# MOE 2024.06 (io_trps.svl 2023.06)
