@<TRIPOS>MOLECULE
NONAME
46 48 1 0 0 
SMALL
USER_CHARGES


@<TRIPOS>ATOM
  1 CL      -2.0580     1.3250     2.1720 Cl    1 <1>  -0.1770 
  2 C       -2.8810    -0.0340     1.4430 C.ar  1 <1>   0.1770 
  3 C       -2.5920    -1.3320     1.8250 C.ar  1 <1>   0.1900 
  4 C       -3.8360     0.1990     0.4700 C.ar  1 <1>  -0.1500 
  5 F       -1.6930    -1.5610     2.7440 F     1 <1>  -0.1900 
  6 C       -3.2420    -2.4070     1.2500 C.ar  1 <1>  -0.1500 
  7 C       -4.5150    -0.8620    -0.1260 C.ar  1 <1>  -0.0090 
  8 C       -4.1990    -2.1600     0.2770 C.ar  1 <1>  -0.1500 
  9 S       -5.7660    -0.5540    -1.4060 S.o2  1 <1>   1.4470 
 10 O       -6.6700    -1.6810    -1.4880 O.2   1 <1>  -0.6500 
 11 O       -5.0950    -0.0880    -2.5990 O.2   1 <1>  -0.6500 
 12 N       -6.6450     0.7480    -0.7670 N.am  1 <1>  -0.8490 
 13 C       -7.5140     0.3420     0.3400 C.3   1 <1>   0.1960 
 14 C       -7.3950     1.4590    -1.8060 C.3   1 <1>   0.1960 
 15 C       -8.1810     1.5690     0.9660 C.3   1 <1>  -0.1600 
 16 C       -8.0230     2.7220    -1.2120 C.3   1 <1>  -0.1600 
 17 C       -8.9910     2.3790    -0.0630 C.3   1 <1>   0.2800 
 18 O       -9.2970     3.5900     0.5860 O.3   1 <1>  -0.5600 
 19 C      -10.2950     1.6140    -0.5150 C.3   1 <1>   0.2000 
 20 C      -10.4230     4.2900     0.1670 C.3   1 <1>   0.1200 
 21 O      -10.6110     1.8910    -1.8580 O.3   1 <1>  -0.6800 
 22 C      -11.5180     1.9640     0.3790 C.3   1 <1>   0.2800 
 23 C      -11.6980     3.4920     0.4860 C.3   1 <1>  -0.1600 
 24 O      -11.2920     1.4730     1.6500 O.3   1 <1>  -0.6800 
 25 C      -12.8150     1.2800    -0.0720 C.3   1 <1>  -0.2400 
 26 H       -4.0540     1.2110     0.1750 H     1 <1>   0.1500 
 27 H       -3.0020    -3.4100     1.5570 H     1 <1>   0.1500 
 28 H       -4.7140    -2.9910    -0.1810 H     1 <1>   0.1500 
 29 H       -8.2590    -0.3550    -0.0080 H     1 <1>   0.0800 
 30 H       -6.9290    -0.1540     1.0970 H     1 <1>   0.0800 
 31 H       -6.7290     1.7530    -2.6000 H     1 <1>   0.0800 
 32 H       -8.1510     0.8150    -2.2250 H     1 <1>   0.0800 
 33 H       -7.4100     2.1940     1.3820 H     1 <1>   0.0800 
 34 H       -8.8080     1.2500     1.7750 H     1 <1>   0.0800 
 35 H       -8.5210     3.2680    -1.9910 H     1 <1>   0.0800 
 36 H       -7.2310     3.3460    -0.8380 H     1 <1>   0.0800 
 37 H      -10.1350     0.5530    -0.4760 H     1 <1>   0.0800 
 38 H      -10.4330     5.2340     0.6840 H     1 <1>   0.0800 
 39 H      -10.3280     4.4810    -0.8880 H     1 <1>   0.0800 
 40 H      -10.8050     2.8400    -1.9610 H     1 <1>   0.4000 
 41 H      -12.4490     3.8170    -0.2110 H     1 <1>   0.0800 
 42 H      -12.0500     3.7620     1.4650 H     1 <1>   0.0800 
 43 H      -12.0210     1.7390     2.2390 H     1 <1>   0.4000 
 44 H      -13.0910     1.6080    -1.0580 H     1 <1>   0.0800 
 45 H      -13.6250     1.5120     0.5960 H     1 <1>   0.0800 
 46 H      -12.6770     0.2140    -0.1070 H     1 <1>   0.0800 
@<TRIPOS>BOND
  1   1   2  1   
  2   2   3  ar  
  3   2   4  ar  
  4   3   5  1   
  5   3   6  ar  
  6   4   7  ar  
  7   4  26  1   
  8   6   8  ar  
  9   6  27  1   
 10   7   8  ar  
 11   7   9  1   
 12   8  28  1   
 13   9  10  2   
 14   9  11  2   
 15   9  12  am  
 16  12  13  1   
 17  12  14  1   
 18  13  15  1   
 19  13  29  1   
 20  13  30  1   
 21  14  16  1   
 22  14  31  1   
 23  14  32  1   
 24  15  17  1   
 25  15  33  1   
 26  15  34  1   
 27  16  17  1   
 28  16  35  1   
 29  16  36  1   
 30  17  18  1   
 31  17  19  1   
 32  18  20  1   
 33  19  21  1   
 34  19  22  1   
 35  19  37  1   
 36  20  23  1   
 37  20  38  1   
 38  20  39  1   
 39  21  40  1   
 40  22  23  1   
 41  22  24  1   
 42  22  25  1   
 43  23  41  1   
 44  23  42  1   
 45  24  43  1   
 46  25  44  1   
 47  25  45  1   
 48  25  46  1   
@<TRIPOS>SUBSTRUCTURE
  1 ****  13 GROUP 4 **** **** 0

# MOE 2024.06 (io_trps.svl 2023.06)
