@<TRIPOS>MOLECULE
NONAME
55 58 1 0 0 
SMALL
USER_CHARGES


@<TRIPOS>ATOM
  1 O       -1.3900    -1.2200     1.2340 O.3   1 <1>  -0.5600 
  2 C       -0.0970    -1.6960     1.4610 C.3   1 <1>   0.1200 
  3 C       -2.3170    -2.2180     0.9100 C.3   1 <1>   0.1200 
  4 C        0.4510    -2.3950     0.2020 C.3   1 <1>   0.2090 
  5 C       -1.8950    -2.9470    -0.3770 C.3   1 <1>   0.2090 
  6 N       -0.4860    -3.4780    -0.2610 N.pl3 1 <1>  -0.8380 
  7 C       -0.1980    -4.7940    -0.4620 C.ar  1 <1>   0.7710 
  8 N       -1.1900    -5.6590    -0.6200 N.ar  1 <1>  -0.6200 
  9 N        1.0900    -5.1840    -0.5020 N.ar  1 <1>  -0.1790 
 10 C       -0.8840    -6.9270    -0.7600 C.ar  1 <1>   0.4100 
 11 C        1.4480    -6.4740    -0.7010 C.ar  1 <1>   0.2180 
 12 N       -1.9330    -7.7570    -0.7940 N.pl3 1 <1>  -0.8690 
 13 C        0.4460    -7.3720    -0.8470 C.ar  1 <1>  -0.1500 
 14 C        2.9240    -6.8430    -0.7450 C.3   1 <1>  -0.0170 
 15 C       -1.9940    -9.2140    -0.5410 C.3   1 <1>   0.6130 
 16 C        3.6520    -6.1840    -1.9240 C.3   1 <1>  -0.2400 
 17 C       -3.4780    -9.5680    -0.5090 C.ar  1 <1>  -0.1440 
 18 C       -1.2720    -9.6790     0.7460 C.2   1 <1>   0.0060 
 19 C       -4.0810   -10.1830    -1.5990 C.ar  1 <1>  -0.1500 
 20 C       -4.2450    -9.2780     0.6130 C.ar  1 <1>  -0.1500 
 21 N       -0.5400    -8.9340     1.5270 N.2   1 <1>  -0.5650 
 22 N       -1.3470   -10.9700     1.1740 N.pl3 1 <1>   0.0480 
 23 C       -5.4240   -10.5140    -1.5620 C.ar  1 <1>  -0.1500 
 24 C       -5.5880    -9.6090     0.6490 C.ar  1 <1>  -0.1500 
 25 C       -0.1360    -9.7660     2.5020 C.2   1 <1>   0.0770 
 26 C       -0.6160   -11.0090     2.3010 C.2   1 <1>  -0.3020 
 27 C       -2.0720   -12.1260     0.6050 C.3   1 <1>   0.0160 
 28 C       -6.1780   -10.2280    -0.4370 C.ar  1 <1>  -0.1500 
 29 H       -0.1220    -2.3730     2.2980 H     1 <1>   0.0800 
 30 H        0.5180    -0.8520     1.7180 H     1 <1>   0.0800 
 31 H       -3.2730    -1.7440     0.7720 H     1 <1>   0.0800 
 32 H       -2.3890    -2.9080     1.7330 H     1 <1>   0.0800 
 33 H        1.4250    -2.7840     0.4310 H     1 <1>   0.0800 
 34 H        0.5590    -1.6600    -0.5780 H     1 <1>   0.0800 
 35 H       -1.9460    -2.2530    -1.1980 H     1 <1>   0.0800 
 36 H       -2.6100    -3.7260    -0.5760 H     1 <1>   0.0800 
 37 H        1.7780    -4.4530    -0.4070 H     1 <1>   0.4570 
 38 H       -2.8530    -7.3300    -0.6700 H     1 <1>   0.4000 
 39 H        0.6370    -8.4160    -1.0030 H     1 <1>   0.1500 
 40 H        3.0200    -7.9130    -0.8340 H     1 <1>   0.0800 
 41 H        3.3960    -6.5590     0.1800 H     1 <1>   0.0800 
 42 H       -1.5340    -9.7150    -1.3750 H     1 <1>   0.0800 
 43 H        3.1890    -6.4630    -2.8560 H     1 <1>   0.0800 
 44 H        4.6760    -6.5150    -1.9500 H     1 <1>   0.0800 
 45 H        3.6500    -5.1120    -1.8420 H     1 <1>   0.0800 
 46 H       -3.5140   -10.4050    -2.4860 H     1 <1>   0.1500 
 47 H       -3.7960    -8.7940     1.4660 H     1 <1>   0.1500 
 48 H       -5.8870   -10.9910    -2.4090 H     1 <1>   0.1500 
 49 H       -6.1740    -9.3820     1.5240 H     1 <1>   0.1500 
 50 H        0.4860    -9.4240     3.3130 H     1 <1>   0.1500 
 51 H       -0.4800   -11.8960     2.8930 H     1 <1>   0.1500 
 52 H       -1.9310   -12.1570    -0.4600 H     1 <1>   0.0800 
 53 H       -3.1190   -12.0340     0.8280 H     1 <1>   0.0800 
 54 H       -1.6960   -13.0350     1.0380 H     1 <1>   0.0800 
 55 H       -7.2230   -10.4850    -0.4090 H     1 <1>   0.1500 
@<TRIPOS>BOND
  1   1   2  1   
  2   1   3  1   
  3   2   4  1   
  4   2  29  1   
  5   2  30  1   
  6   3   5  1   
  7   3  31  1   
  8   3  32  1   
  9   4   6  1   
 10   4  33  1   
 11   4  34  1   
 12   5   6  1   
 13   5  35  1   
 14   5  36  1   
 15   6   7  1   
 16   7   8  ar  
 17   7   9  ar  
 18   8  10  ar  
 19   9  11  ar  
 20   9  37  1   
 21  10  12  1   
 22  10  13  ar  
 23  11  13  ar  
 24  11  14  1   
 25  12  15  1   
 26  12  38  1   
 27  13  39  1   
 28  14  16  1   
 29  14  40  1   
 30  14  41  1   
 31  15  17  1   
 32  15  18  1   
 33  15  42  1   
 34  16  43  1   
 35  16  44  1   
 36  16  45  1   
 37  17  19  ar  
 38  17  20  ar  
 39  18  21  2   
 40  18  22  1   
 41  19  23  ar  
 42  19  46  1   
 43  20  24  ar  
 44  20  47  1   
 45  21  25  1   
 46  22  26  1   
 47  22  27  1   
 48  23  28  ar  
 49  23  48  1   
 50  24  28  ar  
 51  24  49  1   
 52  25  26  2   
 53  25  50  1   
 54  26  51  1   
 55  27  52  1   
 56  27  53  1   
 57  27  54  1   
 58  28  55  1   
@<TRIPOS>SUBSTRUCTURE
  1 ****  10 GROUP 4 **** **** 0

# MOE 2024.06 (io_trps.svl 2023.06)
