@<TRIPOS>MOLECULE
NONAME
31 32 1 0 0 
SMALL
USER_CHARGES


@<TRIPOS>ATOM
  1 S       -0.0150     0.0130     0.4970 S.3   1 <1>  -0.0800 
  2 C       -1.2220    -0.8820    -0.3630 C.2   1 <1>   0.4420 
  3 C       -0.1580     1.2440    -0.7150 C.2   1 <1>   0.1980 
  4 N       -1.6190    -0.2700    -1.4190 N.2   1 <1>  -0.3380 
  5 N       -1.5900    -2.0920     0.1810 N.am  1 <1>  -0.4940 
  6 N       -1.0100     0.9390    -1.6130 N.2   1 <1>  -0.3380 
  7 C        0.7280     2.4850    -0.5870 C.3   1 <1>   0.3800 
  8 C       -2.4530    -3.0420    -0.2870 C.2   1 <1>   0.7150 
  9 O        0.7000     2.9360     0.7400 O.3   1 <1>  -0.5600 
 10 C        0.2630     3.6310    -1.4920 C.3   1 <1>  -0.2400 
 11 O       -2.9620    -2.9240    -1.3820 O.2   1 <1>  -0.5700 
 12 C       -2.7200    -4.1800     0.5470 C.2   1 <1>  -0.2370 
 13 C        1.8320     3.6260     1.1720 C.3   1 <1>   0.0400 
 14 N       -3.4820    -5.2520     0.1890 N.pl3 1 <1>   0.3140 
 15 C       -2.3070    -4.4520     1.8200 C.2   1 <1>  -0.1500 
 16 N       -3.5570    -6.1680     1.1660 N.2   1 <1>  -0.7070 
 17 C       -4.1860    -5.4910    -1.0840 C.3   1 <1>   0.0160 
 18 C       -2.8520    -5.6800     2.1380 C.2   1 <1>   0.1390 
 19 H       -1.1620    -2.3170     1.0700 H     1 <1>   0.3700 
 20 H        1.7360     2.2000    -0.8340 H     1 <1>   0.0800 
 21 H       -0.7320     3.9320    -1.2170 H     1 <1>   0.0800 
 22 H        0.2440     3.2990    -2.5150 H     1 <1>   0.0800 
 23 H        0.9260     4.4720    -1.4250 H     1 <1>   0.0800 
 24 H        1.6850     3.8940     2.2030 H     1 <1>   0.0800 
 25 H        1.9590     4.5200     0.5860 H     1 <1>   0.0800 
 26 H        2.6950     2.9880     1.0860 H     1 <1>   0.0800 
 27 H       -1.6910    -3.8680     2.4790 H     1 <1>   0.1500 
 28 H       -4.9120    -4.7160    -1.2390 H     1 <1>   0.0800 
 29 H       -4.6800    -6.4440    -1.0450 H     1 <1>   0.0800 
 30 H       -3.4750    -5.4870    -1.8890 H     1 <1>   0.0800 
 31 H       -2.7190    -6.1900     3.0790 H     1 <1>   0.1500 
@<TRIPOS>BOND
  1   1   2  1   
  2   1   3  1   
  3   2   4  2   
  4   2   5  1   
  5   3   6  2   
  6   3   7  1   
  7   4   6  1   
  8   5   8  am  
  9   5  19  1   
 10   7   9  1   
 11   7  10  1   
 12   7  20  1   
 13   8  11  2   
 14   8  12  1   
 15   9  13  1   
 16  10  21  1   
 17  10  22  1   
 18  10  23  1   
 19  12  14  1   
 20  12  15  2   
 21  13  24  1   
 22  13  25  1   
 23  13  26  1   
 24  14  16  1   
 25  14  17  1   
 26  15  18  1   
 27  15  27  1   
 28  16  18  2   
 29  17  28  1   
 30  17  29  1   
 31  17  30  1   
 32  18  31  1   
@<TRIPOS>SUBSTRUCTURE
  1 ****   2 GROUP 4 **** **** 0

# MOE 2024.06 (io_trps.svl 2023.06)
