@<TRIPOS>MOLECULE
NONAME
57 59 1 0 0 
SMALL
USER_CHARGES


@<TRIPOS>ATOM
  1 O        3.9470    -3.2880     1.5240 O.2   1 <1>  -0.5700 
  2 C        3.3810    -3.2610     0.4540 C.2   1 <1>   0.5690 
  3 N        4.1320    -3.3700    -0.6960 N.am  1 <1>  -0.6600 
  4 C        1.8710    -3.0270     0.4280 C.3   1 <1>   0.2370 
  5 C        5.5830    -3.7370    -0.5930 C.3   1 <1>   0.1400 
  6 C        3.6980    -2.9440    -2.0610 C.3   1 <1>   0.1400 
  7 N        1.6600    -1.5720     0.2730 N.pl3 1 <1>   0.3140 
  8 C        1.1200    -3.5650     1.6640 C.3   1 <1>  -0.2400 
  9 C        6.4240    -2.5290    -0.1350 C.3   1 <1>   0.3430 
 10 C        4.1450    -1.5030    -2.3710 C.3   1 <1>  -0.1600 
 11 N        1.1120    -1.0540    -0.8450 N.2   1 <1>  -0.7070 
 12 C        1.9980    -0.5940     1.1410 C.2   1 <1>  -0.3020 
 13 N        5.7950    -1.2350    -0.5580 N.4   1 <1>  -0.9590 
 14 C        5.5950    -1.1470    -2.0310 C.3   1 <1>   0.3430 
 15 C        1.0810     0.2280    -0.6420 C.2   1 <1>   0.1390 
 16 C        1.6320     0.5780     0.5850 C.2   1 <1>  -0.1810 
 17 C        6.4860    -0.0550     0.0410 C.3   1 <1>   0.3430 
 18 C        1.7550     1.9770     1.1540 C.3   1 <1>  -0.0590 
 19 C        5.5750     1.1820     0.0730 C.3   1 <1>   0.1100 
 20 N        6.2750     2.3030     0.7110 N.3   1 <1>  -0.8100 
 21 C        7.2310     2.9780    -0.1990 C.3   1 <1>   0.1100 
 22 C        5.3190     3.3040     1.2380 C.3   1 <1>   0.1100 
 23 C        7.9000     4.1850     0.4840 C.3   1 <1>   0.1200 
 24 C        6.0500     4.5010     1.8720 C.3   1 <1>   0.1200 
 25 O        6.9300     5.0750     0.9500 O.3   1 <1>  -0.5600 
 26 H        1.4630    -3.5120    -0.4370 H     1 <1>   0.0800 
 27 H        5.9420    -4.0920    -1.5430 H     1 <1>   0.0800 
 28 H        5.7060    -4.5410     0.1140 H     1 <1>   0.0800 
 29 H        2.6280    -3.0090    -2.1600 H     1 <1>   0.0800 
 30 H        4.1190    -3.6190    -2.7880 H     1 <1>   0.0800 
 31 H        1.4810    -3.1030     2.5650 H     1 <1>   0.0800 
 32 H        1.2690    -4.6260     1.7460 H     1 <1>   0.0800 
 33 H        0.0650    -3.3750     1.5660 H     1 <1>   0.0800 
 34 H        7.4270    -2.6120    -0.5200 H     1 <1>   0.0800 
 35 H        6.4790    -2.5560     0.9420 H     1 <1>   0.0800 
 36 H        3.4980    -0.8070    -1.8730 H     1 <1>   0.0800 
 37 H        3.9990    -1.3390    -3.4240 H     1 <1>   0.0800 
 38 H        2.4580    -0.7910     2.0940 H     1 <1>   0.1500 
 39 H        4.8470    -1.2890    -0.1480 H     1 <1>   0.4500 
 40 H        5.7920    -0.1420    -2.3670 H     1 <1>   0.0800 
 41 H        6.2730    -1.8100    -2.5440 H     1 <1>   0.0800 
 42 H        0.6710     0.9300    -1.3500 H     1 <1>   0.1500 
 43 H        7.3800     0.1680    -0.5170 H     1 <1>   0.0800 
 44 H        6.7660    -0.2800     1.0570 H     1 <1>   0.0800 
 45 H        2.2520     1.9490     2.1070 H     1 <1>   0.0800 
 46 H        0.7750     2.4000     1.2920 H     1 <1>   0.0800 
 47 H        2.3120     2.6040     0.4830 H     1 <1>   0.0800 
 48 H        4.7020     0.9370     0.6540 H     1 <1>   0.0800 
 49 H        5.2630     1.4630    -0.9170 H     1 <1>   0.0800 
 50 H        6.7200     3.3270    -1.0810 H     1 <1>   0.0800 
 51 H        7.9980     2.2890    -0.5030 H     1 <1>   0.0800 
 52 H        4.6950     2.8460     1.9850 H     1 <1>   0.0800 
 53 H        4.6880     3.6670     0.4440 H     1 <1>   0.0800 
 54 H        8.5220     4.7150    -0.2140 H     1 <1>   0.0800 
 55 H        8.5040     3.8660     1.3160 H     1 <1>   0.0800 
 56 H        6.6100     4.1890     2.7370 H     1 <1>   0.0800 
 57 H        5.3450     5.2570     2.1680 H     1 <1>   0.0800 
@<TRIPOS>BOND
  1   1   2  2   
  2   2   3  am  
  3   2   4  1   
  4   3   5  1   
  5   3   6  1   
  6   4   7  1   
  7   4   8  1   
  8   4  26  1   
  9   5   9  1   
 10   5  27  1   
 11   5  28  1   
 12   6  10  1   
 13   6  29  1   
 14   6  30  1   
 15   7  11  1   
 16   7  12  1   
 17   8  31  1   
 18   8  32  1   
 19   8  33  1   
 20   9  13  1   
 21   9  34  1   
 22   9  35  1   
 23  10  14  1   
 24  10  36  1   
 25  10  37  1   
 26  11  15  2   
 27  12  16  2   
 28  12  38  1   
 29  13  14  1   
 30  13  17  1   
 31  13  39  1   
 32  14  40  1   
 33  14  41  1   
 34  15  16  1   
 35  15  42  1   
 36  16  18  1   
 37  17  19  1   
 38  17  43  1   
 39  17  44  1   
 40  18  45  1   
 41  18  46  1   
 42  18  47  1   
 43  19  20  1   
 44  19  48  1   
 45  19  49  1   
 46  20  21  1   
 47  20  22  1   
 48  21  23  1   
 49  21  50  1   
 50  21  51  1   
 51  22  24  1   
 52  22  52  1   
 53  22  53  1   
 54  23  25  1   
 55  23  54  1   
 56  23  55  1   
 57  24  25  1   
 58  24  56  1   
 59  24  57  1   
@<TRIPOS>SUBSTRUCTURE
  1 ****  13 GROUP 4 **** **** 0

# MOE 2024.06 (io_trps.svl 2023.06)
