@<TRIPOS>MOLECULE
NONAME
44 45 1 0 0 
SMALL
USER_CHARGES


@<TRIPOS>ATOM
  1 O        0.4280    -0.4100     1.9060 O.2   1 <1>  -0.5700 
  2 C       -0.0010     0.3150     1.0420 C.2   1 <1>   0.5690 
  3 N       -0.9950    -0.0730     0.1840 N.am  1 <1>  -0.6600 
  4 C        0.5970     1.7030     0.9580 C.3   1 <1>  -0.0990 
  5 C       -1.5800    -1.4540     0.2800 C.3   1 <1>   0.3640 
  6 C       -1.6420     0.8460    -0.8130 C.3   1 <1>   0.1400 
  7 C       -0.2370     2.6730     1.7910 C.3   1 <1>   0.1400 
  8 C       -0.9700    -2.4230    -0.7480 C.ar  1 <1>  -0.1440 
  9 C       -3.1390    -1.4240     0.1790 C.3   1 <1>   0.2000 
 10 C       -2.8070     0.1790    -1.5570 C.3   1 <1>   0.1200 
 11 N        0.0980     4.0660     1.4200 N.am  1 <1>  -0.7300 
 12 C       -1.2390    -3.7780    -0.6040 C.ar  1 <1>  -0.1500 
 13 C       -0.1540    -2.0230    -1.8030 C.ar  1 <1>  -0.1500 
 14 O       -3.6770    -0.4060    -0.6390 O.3   1 <1>  -0.5600 
 15 C       -3.7750    -1.2450     1.5630 C.3   1 <1>   0.1200 
 16 C       -0.4020     4.7010     0.3320 C.2   1 <1>   0.5690 
 17 C       -0.7320    -4.7070    -1.4960 C.ar  1 <1>  -0.1500 
 18 C        0.3550    -2.9490    -2.6970 C.ar  1 <1>  -0.1500 
 19 O       -3.6440    -2.4140     2.3080 O.3   1 <1>  -0.6800 
 20 O       -1.1280     4.1510    -0.4590 O.2   1 <1>  -0.5700 
 21 C       -0.0180     6.1400     0.1080 C.3   1 <1>  -0.1790 
 22 C        0.0650    -4.2920    -2.5470 C.ar  1 <1>  -0.1500 
 23 H        1.6000     1.6740     1.3390 H     1 <1>   0.0800 
 24 H        0.6390     2.0170    -0.0670 H     1 <1>   0.0800 
 25 H       -1.3340    -1.8660     1.2440 H     1 <1>   0.0800 
 26 H       -2.0240     1.7140    -0.3060 H     1 <1>   0.0800 
 27 H       -0.9130     1.1780    -1.5300 H     1 <1>   0.0800 
 28 H       -0.0540     2.5140     2.8400 H     1 <1>   0.0800 
 29 H       -1.2860     2.5100     1.6080 H     1 <1>   0.0800 
 30 H       -3.4880    -2.3530    -0.2320 H     1 <1>   0.0800 
 31 H       -2.4610    -0.5760    -2.2410 H     1 <1>   0.0800 
 32 H       -3.3600     0.9170    -2.1110 H     1 <1>   0.0800 
 33 H        0.7340     4.5590     2.0490 H     1 <1>   0.3700 
 34 H       -1.8470    -4.1220     0.2150 H     1 <1>   0.1500 
 35 H        0.1030    -0.9900    -1.9400 H     1 <1>   0.1500 
 36 H       -4.8240    -1.0230     1.4730 H     1 <1>   0.0800 
 37 H       -3.2820    -0.4520     2.0980 H     1 <1>   0.0800 
 38 H       -0.9530    -5.7520    -1.3690 H     1 <1>   0.1500 
 39 H        0.9820    -2.6230    -3.5080 H     1 <1>   0.1500 
 40 H       -4.3110    -3.0740     2.0340 H     1 <1>   0.4000 
 41 H        1.0420     6.2140    -0.0380 H     1 <1>   0.0800 
 42 H       -0.3080     6.7300     0.9570 H     1 <1>   0.0800 
 43 H       -0.5180     6.5170    -0.7650 H     1 <1>   0.0800 
 44 H        0.4610    -5.0120    -3.2410 H     1 <1>   0.1500 
@<TRIPOS>BOND
  1   1   2  2   
  2   2   3  am  
  3   2   4  1   
  4   3   5  1   
  5   3   6  1   
  6   4   7  1   
  7   4  23  1   
  8   4  24  1   
  9   5   8  1   
 10   5   9  1   
 11   5  25  1   
 12   6  10  1   
 13   6  26  1   
 14   6  27  1   
 15   7  11  1   
 16   7  28  1   
 17   7  29  1   
 18   8  12  ar  
 19   8  13  ar  
 20   9  14  1   
 21   9  15  1   
 22   9  30  1   
 23  10  14  1   
 24  10  31  1   
 25  10  32  1   
 26  11  16  am  
 27  11  33  1   
 28  12  17  ar  
 29  12  34  1   
 30  13  18  ar  
 31  13  35  1   
 32  15  19  1   
 33  15  36  1   
 34  15  37  1   
 35  16  20  2   
 36  16  21  1   
 37  17  22  ar  
 38  17  38  1   
 39  18  22  ar  
 40  18  39  1   
 41  19  40  1   
 42  21  41  1   
 43  21  42  1   
 44  21  43  1   
 45  22  44  1   
@<TRIPOS>SUBSTRUCTURE
  1 ****   3 GROUP 4 **** **** 0

# MOE 2024.06 (io_trps.svl 2023.06)
