@<TRIPOS>MOLECULE
NONAME
48 50 1 0 0 
SMALL
USER_CHARGES


@<TRIPOS>ATOM
  1 O        0.9870    -0.7810    -1.2510 O.2   1 <1>  -0.5750 
  2 C        2.0630    -0.4460    -0.8150 C.2   1 <1>   0.6860 
  3 N        2.5390     0.8530    -0.9340 N.am  1 <1>  -0.4420 
  4 N        2.8310    -1.3840    -0.1880 N.am  1 <1>  -0.4950 
  5 C        3.7960     1.1270    -0.4160 C.2   1 <1>   0.4200 
  6 C        1.7290     1.9090    -1.6090 C.3   1 <1>   0.0520 
  7 C        4.0670    -1.1290     0.3340 C.2   1 <1>   0.6990 
  8 N        4.4660     2.3130    -0.4290 N.pl3 1 <1>  -0.7040 
  9 C        4.5690     0.2070     0.2060 C.2   1 <1>   0.2700 
 10 O        4.6800    -2.0270     0.8760 O.2   1 <1>  -0.5750 
 11 C        5.6350     2.1320     0.1810 C.cat 1 <1>   1.0690 
 12 N        5.7520     0.8680     0.5870 N.pl3 1 <1>  -0.7680 
 13 N        6.5530     3.0680     0.3630 N.pl3 1 <1>  -0.7180 
 14 C        6.8570     0.1700     1.3080 C.3   1 <1>   0.2670 
 15 C        6.5790     4.4360    -0.1590 C.3   1 <1>   0.3850 
 16 C        8.0440     4.8310    -0.2210 C.ar  1 <1>  -0.1510 
 17 C        5.7100     5.3440     0.7240 C.3   1 <1>  -0.1680 
 18 C        8.7720     5.1090     0.9300 C.ar  1 <1>   0.1520 
 19 C        8.6920     4.8940    -1.4400 C.ar  1 <1>  -0.1580 
 20 C        5.6830     6.7910     0.2120 C.3   1 <1>  -0.1680 
 21 N       10.0580     5.4060     0.9610 N.ar  1 <1>  -0.6250 
 22 C       10.0300     5.2210    -1.4260 C.ar  1 <1>  -0.1580 
 23 C        4.7520     7.6580     1.0660 C.3   1 <1>  -0.1680 
 24 C       10.6580     5.4620    -0.2170 C.ar  1 <1>   0.1520 
 25 C        4.7210     9.0980     0.5500 C.3   1 <1>  -0.2470 
 26 H        2.4520    -2.3270    -0.1140 H     1 <1>   0.3640 
 27 H        0.7190     1.5700    -1.7730 H     1 <1>   0.0720 
 28 H        2.1650     2.1500    -2.5620 H     1 <1>   0.0720 
 29 H        1.6890     2.7930    -0.9960 H     1 <1>   0.0720 
 30 H        4.1290     3.1910    -0.8120 H     1 <1>   0.4440 
 31 H        7.4340     2.8110     0.8050 H     1 <1>   0.4440 
 32 H        6.4910    -0.2280     2.2410 H     1 <1>   0.0720 
 33 H        7.6720     0.8420     1.5150 H     1 <1>   0.0720 
 34 H        7.2250    -0.6470     0.7100 H     1 <1>   0.0720 
 35 H        6.1760     4.4420    -1.1590 H     1 <1>   0.0720 
 36 H        6.0700     5.3400     1.7380 H     1 <1>   0.0720 
 37 H        4.7010     4.9740     0.7330 H     1 <1>   0.0720 
 38 H        8.2830     5.0820     1.8890 H     1 <1>   0.1420 
 39 H        8.1910     4.6990    -2.3730 H     1 <1>   0.1420 
 40 H        5.3450     6.8130    -0.8110 H     1 <1>   0.0720 
 41 H        6.6750     7.2110     0.2410 H     1 <1>   0.0720 
 42 H       10.5890     5.2900    -2.3420 H     1 <1>   0.1420 
 43 H        5.0930     7.6610     2.0880 H     1 <1>   0.0720 
 44 H        3.7530     7.2580     1.0470 H     1 <1>   0.0720 
 45 H       11.7050     5.7140    -0.2180 H     1 <1>   0.1420 
 46 H        5.7060     9.5310     0.5820 H     1 <1>   0.0720 
 47 H        4.0680     9.6940     1.1630 H     1 <1>   0.0720 
 48 H        4.3610     9.1290    -0.4630 H     1 <1>   0.0720 
@<TRIPOS>BOND
  1   1   2  2   
  2   2   3  am  
  3   2   4  am  
  4   3   5  1   
  5   3   6  1   
  6   4   7  am  
  7   4  26  1   
  8   5   8  1   
  9   5   9  2   
 10   6  27  1   
 11   6  28  1   
 12   6  29  1   
 13   7   9  1   
 14   7  10  2   
 15   8  11  ar  
 16   8  30  1   
 17   9  12  1   
 18  11  12  ar  
 19  11  13  ar  
 20  12  14  1   
 21  13  15  1   
 22  13  31  1   
 23  14  32  1   
 24  14  33  1   
 25  14  34  1   
 26  15  16  1   
 27  15  17  1   
 28  15  35  1   
 29  16  18  ar  
 30  16  19  ar  
 31  17  20  1   
 32  17  36  1   
 33  17  37  1   
 34  18  21  ar  
 35  18  38  1   
 36  19  22  ar  
 37  19  39  1   
 38  20  23  1   
 39  20  40  1   
 40  20  41  1   
 41  21  24  ar  
 42  22  24  ar  
 43  22  42  1   
 44  23  25  1   
 45  23  43  1   
 46  23  44  1   
 47  24  45  1   
 48  25  46  1   
 49  25  47  1   
 50  25  48  1   
@<TRIPOS>SUBSTRUCTURE
  1 ****  11 GROUP 4 **** **** 0

# MOE 2024.06 (io_trps.svl 2023.06)
