@<TRIPOS>MOLECULE
NONAME
48 51 1 0 0 
SMALL
USER_CHARGES


@<TRIPOS>ATOM
  1 S       -3.6090    -0.4340    -1.0650 S.3   1 <1>  -0.1570 
  2 C       -2.6460    -1.8270    -0.5370 C.2   1 <1>   0.2420 
  3 C       -2.1760     0.6220    -0.9390 C.2   1 <1>  -0.0490 
  4 N       -2.9420    -3.0660    -0.3510 N.2   1 <1>  -0.5650 
  5 N       -1.3750    -1.4550    -0.3020 N.pl3 1 <1>   0.3340 
  6 C       -1.1110    -0.0870    -0.5280 C.2   1 <1>  -0.1810 
  7 C       -1.7360    -3.5980     0.0580 C.2   1 <1>   0.1410 
  8 C       -0.7920    -2.6020     0.0800 C.2   1 <1>  -0.3020 
  9 C       -1.5090    -5.0070     0.3760 C.2   1 <1>   0.7160 
 10 O       -0.3760    -5.4530     0.3020 O.2   1 <1>  -0.5700 
 11 N       -2.5240    -5.8790     0.7340 N.am  1 <1>  -0.6600 
 12 C       -3.8600    -5.4430     1.2320 C.3   1 <1>   0.1400 
 13 C       -2.4810    -7.3140     0.3530 C.3   1 <1>   0.1400 
 14 C       -4.8670    -5.5800     0.0720 C.3   1 <1>   0.4230 
 15 C       -3.5000    -7.5590    -0.7770 C.3   1 <1>  -0.1600 
 16 N       -6.2490    -5.0770     0.3330 N.4   1 <1>  -0.9590 
 17 C       -4.9360    -7.0310    -0.4880 C.3   1 <1>   0.0000 
 18 C       -7.0450    -4.9470    -0.9130 C.3   1 <1>   0.3430 
 19 C       -6.4090    -3.8270     1.1790 C.3   1 <1>   0.2370 
 20 C       -5.7080    -6.9460    -1.8280 C.3   1 <1>  -0.1600 
 21 C       -5.7140    -8.0190     0.4360 C.3   1 <1>   0.1200 
 22 C       -7.0930    -6.2820    -1.6670 C.3   1 <1>  -0.1600 
 23 C       -7.6630    -3.9620     2.0490 C.2   1 <1>   0.9060 
 24 O       -5.1030    -8.2030     1.6620 O.3   1 <1>  -0.6800 
 25 O       -8.1150    -5.1150     2.1570 O.co2 1 <1>  -0.9000 
 26 O       -8.1810    -2.9660     2.5490 O.co2 1 <1>  -0.9000 
 27 H       -2.3140     1.6590    -1.1930 H     1 <1>   0.1500 
 28 H       -0.1100     0.2670    -0.3600 H     1 <1>   0.1500 
 29 H        0.2480    -2.6750     0.3400 H     1 <1>   0.1500 
 30 H       -4.1450    -6.0470     2.0730 H     1 <1>   0.0800 
 31 H       -3.7990    -4.4270     1.5700 H     1 <1>   0.0800 
 32 H       -1.4950    -7.5860     0.0130 H     1 <1>   0.0800 
 33 H       -2.7020    -7.9190     1.2150 H     1 <1>   0.0800 
 34 H       -4.4610    -4.9660    -0.7140 H     1 <1>   0.0800 
 35 H       -3.1080    -7.0770    -1.6560 H     1 <1>   0.0800 
 36 H       -3.5330    -8.6130    -0.9890 H     1 <1>   0.0800 
 37 H       -6.7630    -5.7570     0.9380 H     1 <1>   0.4500 
 38 H       -8.0490    -4.6340    -0.6700 H     1 <1>   0.0800 
 39 H       -6.5970    -4.1950    -1.5410 H     1 <1>   0.0800 
 40 H       -5.5810    -3.7010     1.8480 H     1 <1>   0.0800 
 41 H       -6.4990    -2.9490     0.5670 H     1 <1>   0.0800 
 42 H       -5.1370    -6.3610    -2.5310 H     1 <1>   0.0800 
 43 H       -5.8260    -7.9280    -2.2540 H     1 <1>   0.0800 
 44 H       -5.7840    -8.9850    -0.0350 H     1 <1>   0.0800 
 45 H       -6.7130    -7.6720     0.6350 H     1 <1>   0.0800 
 46 H       -7.7710    -6.9420    -1.1550 H     1 <1>   0.0800 
 47 H       -7.5170    -6.1070    -2.6410 H     1 <1>   0.0800 
 48 H       -5.6660    -8.7430     2.2550 H     1 <1>   0.4000 
@<TRIPOS>BOND
  1   1   2  1   
  2   1   3  1   
  3   2   4  2   
  4   2   5  1   
  5   3   6  2   
  6   3  27  1   
  7   4   7  1   
  8   5   6  1   
  9   5   8  1   
 10   6  28  1   
 11   7   8  2   
 12   7   9  1   
 13   8  29  1   
 14   9  10  2   
 15   9  11  am  
 16  11  12  1   
 17  11  13  1   
 18  12  14  1   
 19  12  30  1   
 20  12  31  1   
 21  13  15  1   
 22  13  32  1   
 23  13  33  1   
 24  14  16  1   
 25  14  17  1   
 26  14  34  1   
 27  15  17  1   
 28  15  35  1   
 29  15  36  1   
 30  16  18  1   
 31  16  19  1   
 32  16  37  1   
 33  17  20  1   
 34  17  21  1   
 35  18  22  1   
 36  18  38  1   
 37  18  39  1   
 38  19  23  1   
 39  19  40  1   
 40  19  41  1   
 41  20  22  1   
 42  20  42  1   
 43  20  43  1   
 44  21  24  1   
 45  21  44  1   
 46  21  45  1   
 47  22  46  1   
 48  22  47  1   
 49  23  25  ar  
 50  23  26  ar  
 51  24  48  1   
@<TRIPOS>SUBSTRUCTURE
  1 ****  14 GROUP 4 **** **** 0

# MOE 2024.06 (io_trps.svl 2023.06)
