@<TRIPOS>MOLECULE
NONAME
53 54 1 0 0 
SMALL
USER_CHARGES


@<TRIPOS>ATOM
  1 O       -0.0190     1.1370    -1.1460 O.2   1 <1>  -0.5700 
  2 C       -1.0780     1.7200    -1.1540 C.2   1 <1>   0.5690 
  3 N       -2.2710     1.0470    -1.1910 N.am  1 <1>  -0.6600 
  4 C       -1.0660     3.2410    -1.1010 C.3   1 <1>  -0.0990 
  5 C       -3.6160     1.6760    -1.2910 C.3   1 <1>   0.1400 
  6 C       -2.3040    -0.4360    -1.1270 C.3   1 <1>   0.1400 
  7 C        0.3280     3.8470    -0.8640 C.3   1 <1>  -0.0990 
  8 C       -4.2980     1.7660     0.0800 C.3   1 <1>  -0.1600 
  9 C       -2.2780    -0.9290     0.3250 C.3   1 <1>  -0.1600 
 10 C        0.2410     5.3450    -0.6950 C.2   1 <1>   0.5690 
 11 C       -4.4300     0.4290     0.8360 C.3   1 <1>  -0.1600 
 12 C       -3.0800    -0.1010     1.3480 C.3   1 <1>  -0.1600 
 13 O        0.1110     6.0450    -1.6680 O.2   1 <1>  -0.5700 
 14 N        0.3040     5.8600     0.5520 N.am  1 <1>  -0.7300 
 15 C        0.1690     7.2890     0.8800 C.3   1 <1>   0.4000 
 16 C        1.4920     7.7810     1.4640 C.2   1 <1>   0.0060 
 17 C       -1.0120     7.4700     1.8490 C.3   1 <1>  -0.1600 
 18 N        1.7320     7.9960     2.7130 N.2   1 <1>  -0.5650 
 19 N        2.5740     8.0440     0.7130 N.pl3 1 <1>   0.3140 
 20 C       -2.3660     7.0420     1.2580 C.3   1 <1>  -0.2400 
 21 C        3.0040     8.4080     2.6780 C.2   1 <1>   0.3660 
 22 N        3.5510     8.4570     1.5110 N.2   1 <1>  -0.7070 
 23 C        2.7740     7.9310    -0.7520 C.3   1 <1>   0.0960 
 24 C        3.5840     6.6770    -1.1080 C.3   1 <1>  -0.2400 
 25 H       -1.7180     3.5560    -0.3080 H     1 <1>   0.0800 
 26 H       -1.4530     3.6190    -2.0300 H     1 <1>   0.0800 
 27 H       -4.2290     1.0950    -1.9580 H     1 <1>   0.0800 
 28 H       -3.5390     2.6610    -1.7170 H     1 <1>   0.0800 
 29 H       -1.4600    -0.8420    -1.6580 H     1 <1>   0.0800 
 30 H       -3.1930    -0.7980    -1.6130 H     1 <1>   0.0800 
 31 H        0.9650     3.6280    -1.7030 H     1 <1>   0.0800 
 32 H        0.7730     3.4100     0.0110 H     1 <1>   0.0800 
 33 H       -5.2850     2.1640    -0.0740 H     1 <1>   0.0800 
 34 H       -3.7680     2.4740     0.6910 H     1 <1>   0.0800 
 35 H       -1.2520    -0.9670     0.6490 H     1 <1>   0.0800 
 36 H       -2.6420    -1.9410     0.3320 H     1 <1>   0.0800 
 37 H       -4.9170    -0.3090     0.2230 H     1 <1>   0.0800 
 38 H       -5.0610     0.6010     1.6900 H     1 <1>   0.0800 
 39 H       -2.4760     0.7280     1.6760 H     1 <1>   0.0800 
 40 H       -3.2540    -0.7200     2.2110 H     1 <1>   0.0800 
 41 H        0.4780     5.2650     1.3620 H     1 <1>   0.3700 
 42 H       -0.0460     7.8510    -0.0130 H     1 <1>   0.0800 
 43 H       -1.0680     8.5110     2.1150 H     1 <1>   0.0800 
 44 H       -0.8200     6.9220     2.7550 H     1 <1>   0.0800 
 45 H       -2.5640     7.5770     0.3460 H     1 <1>   0.0800 
 46 H       -3.1550     7.2540     1.9580 H     1 <1>   0.0800 
 47 H       -2.3750     5.9870     1.0470 H     1 <1>   0.0800 
 48 H        3.5210     8.6790     3.5850 H     1 <1>   0.1500 
 49 H        3.3020     8.8070    -1.0820 H     1 <1>   0.0800 
 50 H        1.8210     7.9080    -1.2450 H     1 <1>   0.0800 
 51 H        4.5610     6.7280    -0.6590 H     1 <1>   0.0800 
 52 H        3.6990     6.6100    -2.1750 H     1 <1>   0.0800 
 53 H        3.0820     5.7920    -0.7630 H     1 <1>   0.0800 
@<TRIPOS>BOND
  1   1   2  2   
  2   2   3  am  
  3   2   4  1   
  4   3   5  1   
  5   3   6  1   
  6   4   7  1   
  7   4  25  1   
  8   4  26  1   
  9   5   8  1   
 10   5  27  1   
 11   5  28  1   
 12   6   9  1   
 13   6  29  1   
 14   6  30  1   
 15   7  10  1   
 16   7  31  1   
 17   7  32  1   
 18   8  11  1   
 19   8  33  1   
 20   8  34  1   
 21   9  12  1   
 22   9  35  1   
 23   9  36  1   
 24  10  13  2   
 25  10  14  am  
 26  11  12  1   
 27  11  37  1   
 28  11  38  1   
 29  12  39  1   
 30  12  40  1   
 31  14  15  1   
 32  14  41  1   
 33  15  16  1   
 34  15  17  1   
 35  15  42  1   
 36  16  18  2   
 37  16  19  1   
 38  17  20  1   
 39  17  43  1   
 40  17  44  1   
 41  18  21  1   
 42  19  22  1   
 43  19  23  1   
 44  20  45  1   
 45  20  46  1   
 46  20  47  1   
 47  21  22  2   
 48  21  48  1   
 49  23  24  1   
 50  23  49  1   
 51  23  50  1   
 52  24  51  1   
 53  24  52  1   
 54  24  53  1   
@<TRIPOS>SUBSTRUCTURE
  1 ****  10 GROUP 4 **** **** 0

# MOE 2024.06 (io_trps.svl 2023.06)
