@<TRIPOS>MOLECULE
NONAME
53 55 1 0 0 
SMALL
USER_CHARGES


@<TRIPOS>ATOM
  1 O       -0.4100     0.2280    -0.7950 O.2   1 <1>  -0.5700 
  2 C       -0.3320     1.3940    -0.4560 C.2   1 <1>   0.6900 
  3 N       -1.4640     2.1640    -0.3680 N.am  1 <1>  -0.6600 
  4 N        0.8710     1.9760    -0.1830 N.am  1 <1>  -0.5470 
  5 C       -2.7360     1.6740    -0.9730 C.3   1 <1>   0.1400 
  6 C       -1.5400     3.4000     0.4650 C.3   1 <1>   0.1400 
  7 C        2.1680     1.4450    -0.0890 C.ar  1 <1>   0.1170 
  8 C       -3.6520     2.8520    -1.3200 C.3   1 <1>  -0.1600 
  9 C       -2.9530     3.5650     1.0250 C.3   1 <1>  -0.1600 
 10 C        3.2730     2.2570    -0.3630 C.ar  1 <1>  -0.1430 
 11 C        2.3850     0.1270     0.2980 C.ar  1 <1>  -0.1500 
 12 C       -3.9860     3.7560    -0.1060 C.3   1 <1>   0.2800 
 13 C        4.5560     1.7440    -0.2470 C.ar  1 <1>  -0.1500 
 14 C        3.0950     3.7070    -0.7980 C.3   1 <1>  -0.0970 
 15 C        3.6660    -0.3790     0.4100 C.ar  1 <1>  -0.1500 
 16 O       -3.8650     5.0720    -0.5910 O.3   1 <1>  -0.5600 
 17 C       -5.4260     3.5010     0.4090 C.3   1 <1>  -0.1600 
 18 C        4.7600     0.4230     0.1400 C.ar  1 <1>   0.0820 
 19 C       -4.5170     6.0980     0.1040 C.3   1 <1>   0.1200 
 20 C       -6.4530     4.4550    -0.2070 C.3   1 <1>   0.2800 
 21 O        5.9860    -0.1500     0.2760 O.3   1 <1>  -0.3620 
 22 C       -6.0420     5.9030     0.0730 C.3   1 <1>  -0.1600 
 23 O       -6.4280     4.2880    -1.5660 O.3   1 <1>  -0.6800 
 24 C       -7.8800     4.1570     0.2450 C.3   1 <1>  -0.2400 
 25 C        7.1620     0.5720    -0.0160 C.3   1 <1>   0.0400 
 26 H        0.8220     2.9870    -0.1950 H     1 <1>   0.3700 
 27 H       -3.2250     1.0140    -0.2770 H     1 <1>   0.0800 
 28 H       -2.5170     1.1130    -1.8660 H     1 <1>   0.0800 
 29 H       -1.2900     4.2540    -0.1420 H     1 <1>   0.0800 
 30 H       -0.8420     3.3340     1.2820 H     1 <1>   0.0800 
 31 H       -4.5490     2.4580    -1.7600 H     1 <1>   0.0800 
 32 H       -3.1540     3.4270    -2.0800 H     1 <1>   0.0800 
 33 H       -2.9770     4.3910     1.7090 H     1 <1>   0.0800 
 34 H       -3.1900     2.6820     1.5910 H     1 <1>   0.0800 
 35 H        1.5480    -0.5110     0.5160 H     1 <1>   0.1500 
 36 H        5.3920     2.3800    -0.4610 H     1 <1>   0.1500 
 37 H        2.4560     3.7570    -1.6620 H     1 <1>   0.0800 
 38 H        4.0390     4.1520    -1.0550 H     1 <1>   0.0800 
 39 H        2.6590     4.2800     0.0010 H     1 <1>   0.0800 
 40 H        3.8220    -1.4000     0.7080 H     1 <1>   0.1500 
 41 H       -5.4480     3.6420     1.4750 H     1 <1>   0.0800 
 42 H       -5.7140     2.4790     0.2390 H     1 <1>   0.0800 
 43 H       -4.2520     7.0310    -0.3620 H     1 <1>   0.0800 
 44 H       -4.1570     6.1120     1.1170 H     1 <1>   0.0800 
 45 H       -6.4850     6.5600    -0.6540 H     1 <1>   0.0800 
 46 H       -6.4220     6.2040     1.0320 H     1 <1>   0.0800 
 47 H       -5.5340     4.5590    -1.8650 H     1 <1>   0.4000 
 48 H       -7.9650     4.2630     1.3110 H     1 <1>   0.0800 
 49 H       -8.1510     3.1500    -0.0200 H     1 <1>   0.0800 
 50 H       -8.5670     4.8390    -0.2230 H     1 <1>   0.0800 
 51 H        8.0020    -0.0800     0.1440 H     1 <1>   0.0800 
 52 H        7.2240     1.4180     0.6450 H     1 <1>   0.0800 
 53 H        7.1320     0.8850    -1.0450 H     1 <1>   0.0800 
@<TRIPOS>BOND
  1   1   2  2   
  2   2   3  am  
  3   2   4  am  
  4   3   5  1   
  5   3   6  1   
  6   4   7  1   
  7   4  26  1   
  8   5   8  1   
  9   5  27  1   
 10   5  28  1   
 11   6   9  1   
 12   6  29  1   
 13   6  30  1   
 14   7  10  ar  
 15   7  11  ar  
 16   8  12  1   
 17   8  31  1   
 18   8  32  1   
 19   9  12  1   
 20   9  33  1   
 21   9  34  1   
 22  10  13  ar  
 23  10  14  1   
 24  11  15  ar  
 25  11  35  1   
 26  12  16  1   
 27  12  17  1   
 28  13  18  ar  
 29  13  36  1   
 30  14  37  1   
 31  14  38  1   
 32  14  39  1   
 33  15  18  ar  
 34  15  40  1   
 35  16  19  1   
 36  17  20  1   
 37  17  41  1   
 38  17  42  1   
 39  18  21  1   
 40  19  22  1   
 41  19  43  1   
 42  19  44  1   
 43  20  22  1   
 44  20  23  1   
 45  20  24  1   
 46  21  25  1   
 47  22  45  1   
 48  22  46  1   
 49  23  47  1   
 50  24  48  1   
 51  24  49  1   
 52  24  50  1   
 53  25  51  1   
 54  25  52  1   
 55  25  53  1   
@<TRIPOS>SUBSTRUCTURE
  1 ****   3 GROUP 4 **** **** 0

# MOE 2024.06 (io_trps.svl 2023.06)
