@<TRIPOS>MOLECULE
NONAME
48 49 1 0 0 
SMALL
USER_CHARGES


@<TRIPOS>ATOM
  1 O        0.0830    -0.0880     1.2570 O.2   1 <1>  -0.5700 
  2 C        0.6690    -0.6050     0.3530 C.2   1 <1>   0.4480 
  3 C        0.7120    -2.1210     0.1870 C.3   1 <1>  -0.0190 
  4 C        1.3830     0.2310    -0.7010 C.3   1 <1>  -0.0990 
  5 C       -0.4420    -2.7790     0.9600 C.3   1 <1>   0.2090 
  6 C        2.0720    -2.7020     0.6280 C.3   1 <1>  -0.1600 
  7 C        2.3240     1.2980    -0.1090 C.3   1 <1>  -0.0800 
  8 N       -0.3780    -4.2700     0.7950 N.pl3 1 <1>  -0.8380 
  9 C        2.0710    -4.2380     0.5500 C.3   1 <1>  -0.1600 
 10 C        2.9130     2.1630    -1.2300 C.3   1 <1>  -0.2400 
 11 C        3.4600     0.6680     0.7080 C.3   1 <1>  -0.2400 
 12 C       -1.4280    -5.0040     0.3360 C.ar  1 <1>   0.4100 
 13 C        0.8950    -4.8370     1.3250 C.3   1 <1>   0.2090 
 14 N       -2.6370    -4.4870     0.4560 N.ar  1 <1>  -0.6200 
 15 C       -1.2360    -6.2720    -0.2500 C.ar  1 <1>  -0.1500 
 16 C       -3.6590    -5.2060     0.0470 C.ar  1 <1>   0.7710 
 17 C       -2.3090    -6.9890    -0.6640 C.ar  1 <1>   0.2180 
 18 N       -3.5280    -6.4260    -0.4950 N.ar  1 <1>  -0.1790 
 19 N       -4.8680    -4.6520     0.1990 N.pl3 1 <1>  -0.8690 
 20 C       -2.2120    -8.3630    -1.3040 C.3   1 <1>  -0.0970 
 21 C       -6.2500    -5.1080    -0.1210 C.3   1 <1>   0.1290 
 22 H        0.5570    -2.3420    -0.8540 H     1 <1>   0.0800 
 23 H        0.6260     0.7200    -1.2880 H     1 <1>   0.0800 
 24 H        1.9410    -0.4080    -1.3600 H     1 <1>   0.0800 
 25 H       -1.3750    -2.3850     0.5950 H     1 <1>   0.0800 
 26 H       -0.3710    -2.5360     2.0070 H     1 <1>   0.0800 
 27 H        2.2690    -2.4010     1.6440 H     1 <1>   0.0800 
 28 H        2.8600    -2.3140     0.0080 H     1 <1>   0.0800 
 29 H        1.7500     1.9370     0.5430 H     1 <1>   0.0800 
 30 H        2.9920    -4.6170     0.9560 H     1 <1>   0.0800 
 31 H        2.0100    -4.5520    -0.4770 H     1 <1>   0.0800 
 32 H        3.5020     1.5660    -1.9050 H     1 <1>   0.0800 
 33 H        3.5420     2.9310    -0.8150 H     1 <1>   0.0800 
 34 H        2.1270     2.6400    -1.7880 H     1 <1>   0.0800 
 35 H        4.0450     0.0000     0.1000 H     1 <1>   0.0800 
 36 H        3.0650     0.1240     1.5470 H     1 <1>   0.0800 
 37 H        4.1090     1.4360     1.0910 H     1 <1>   0.0800 
 38 H        0.9100    -5.9100     1.2580 H     1 <1>   0.0800 
 39 H        0.9830    -4.5780     2.3680 H     1 <1>   0.0800 
 40 H       -0.2370    -6.6430    -0.3710 H     1 <1>   0.1500 
 41 H       -4.3870    -6.8840    -0.7700 H     1 <1>   0.4570 
 42 H       -4.8260    -3.7200     0.6340 H     1 <1>   0.4000 
 43 H       -1.1840    -8.6740    -1.3740 H     1 <1>   0.0800 
 44 H       -2.6240    -8.3460    -2.2980 H     1 <1>   0.0800 
 45 H       -2.7420    -9.0910    -0.7150 H     1 <1>   0.0800 
 46 H       -6.2540    -6.0810    -0.5770 H     1 <1>   0.0800 
 47 H       -6.7140    -4.4070    -0.7960 H     1 <1>   0.0800 
 48 H       -6.8360    -5.1470     0.7830 H     1 <1>   0.0800 
@<TRIPOS>BOND
  1   1   2  2   
  2   2   3  1   
  3   2   4  1   
  4   3   5  1   
  5   3   6  1   
  6   3  22  1   
  7   4   7  1   
  8   4  23  1   
  9   4  24  1   
 10   5   8  1   
 11   5  25  1   
 12   5  26  1   
 13   6   9  1   
 14   6  27  1   
 15   6  28  1   
 16   7  10  1   
 17   7  11  1   
 18   7  29  1   
 19   8  12  1   
 20   8  13  1   
 21   9  13  1   
 22   9  30  1   
 23   9  31  1   
 24  10  32  1   
 25  10  33  1   
 26  10  34  1   
 27  11  35  1   
 28  11  36  1   
 29  11  37  1   
 30  12  14  ar  
 31  12  15  ar  
 32  13  38  1   
 33  13  39  1   
 34  14  16  ar  
 35  15  17  ar  
 36  15  40  1   
 37  16  18  ar  
 38  16  19  1   
 39  17  18  ar  
 40  17  20  1   
 41  18  41  1   
 42  19  21  1   
 43  19  42  1   
 44  20  43  1   
 45  20  44  1   
 46  20  45  1   
 47  21  46  1   
 48  21  47  1   
 49  21  48  1   
@<TRIPOS>SUBSTRUCTURE
  1 ****   5 GROUP 4 **** **** 0

# MOE 2024.06 (io_trps.svl 2023.06)
