@<TRIPOS>MOLECULE
NONAME
44 45 1 0 0 
SMALL
USER_CHARGES


@<TRIPOS>ATOM
  1 S        0.2830    -0.0370    -0.4240 S.o2  1 <1>   1.3330 
  2 O       -0.0380    -0.2520    -1.8180 O.2   1 <1>  -0.6500 
  3 O        1.6680     0.0990    -0.0290 O.2   1 <1>  -0.6500 
  4 N       -0.4050    -1.3040     0.4720 N.am  1 <1>  -0.8490 
  5 C       -0.5990     1.4090     0.1580 C.3   1 <1>  -0.0550 
  6 C        0.5180    -2.4310     0.6340 C.3   1 <1>   0.1160 
  7 C       -1.6800    -1.7790    -0.0750 C.3   1 <1>   0.1160 
  8 C       -0.1150     2.7160    -0.5030 C.3   1 <1>  -0.0800 
  9 C       -0.9790     3.9400    -0.2080 C.3   1 <1>   0.2000 
 10 C        1.3040     3.1370    -0.0800 C.3   1 <1>   0.1100 
 11 O       -1.3490     3.9230     1.1240 O.3   1 <1>  -0.6800 
 12 C        0.0110     5.0820    -0.3920 C.3   1 <1>   0.1100 
 13 N        1.2490     4.5770     0.2230 N.3   1 <1>  -0.8100 
 14 C        2.4580     5.2910    -0.2180 C.3   1 <1>   0.2480 
 15 C        2.5040     6.7260     0.3050 C.2   1 <1>  -0.0380 
 16 N        3.2290     7.6600    -0.3910 N.pl3 1 <1>  -0.5500 
 17 C        1.8880     7.1610     1.4290 C.2   1 <1>  -0.1360 
 18 C        3.3110     8.9560     0.0300 C.2   1 <1>   0.4390 
 19 C        2.0000     8.5180     1.8280 C.2   1 <1>   0.7670 
 20 N        2.7360     9.4000     1.0840 N.2   1 <1>  -0.6610 
 21 C        4.1350     9.8900    -0.8200 C.3   1 <1>  -0.1790 
 22 O        1.4440     8.9220     2.8370 O.2   1 <1>  -0.5700 
 23 H       -1.6440     1.2890    -0.0500 H     1 <1>   0.0800 
 24 H       -0.4880     1.4850     1.2230 H     1 <1>   0.0800 
 25 H        0.0590    -3.2080     1.2210 H     1 <1>   0.0800 
 26 H        1.4090    -2.1080     1.1450 H     1 <1>   0.0800 
 27 H        0.7960    -2.8290    -0.3280 H     1 <1>   0.0800 
 28 H       -2.1090    -2.5200     0.5790 H     1 <1>   0.0800 
 29 H       -1.5350    -2.2130    -1.0500 H     1 <1>   0.0800 
 30 H       -2.3760    -0.9620    -0.1610 H     1 <1>   0.0800 
 31 H       -0.1070     2.5730    -1.5700 H     1 <1>   0.0800 
 32 H       -1.8610     4.0170    -0.8210 H     1 <1>   0.0800 
 33 H        1.9990     2.9250    -0.8760 H     1 <1>   0.0800 
 34 H        1.6230     2.6090     0.8040 H     1 <1>   0.0800 
 35 H       -0.5340     4.1060     1.6390 H     1 <1>   0.4000 
 36 H       -0.3320     5.9890     0.0770 H     1 <1>   0.0800 
 37 H        0.1620     5.2590    -1.4440 H     1 <1>   0.0800 
 38 H        3.3280     4.7710     0.1460 H     1 <1>   0.0800 
 39 H        2.4950     5.2940    -1.2940 H     1 <1>   0.0800 
 40 H        3.7320     7.4080    -1.2450 H     1 <1>   0.4000 
 41 H        1.3010     6.5210     2.0590 H     1 <1>   0.1500 
 42 H        5.1510     9.5450    -0.8660 H     1 <1>   0.0800 
 43 H        4.1270    10.8780    -0.3940 H     1 <1>   0.0800 
 44 H        3.7250     9.9420    -1.8110 H     1 <1>   0.0800 
@<TRIPOS>BOND
  1   1   2  2   
  2   1   3  2   
  3   1   4  am  
  4   1   5  1   
  5   4   6  1   
  6   4   7  1   
  7   5   8  1   
  8   5  23  1   
  9   5  24  1   
 10   6  25  1   
 11   6  26  1   
 12   6  27  1   
 13   7  28  1   
 14   7  29  1   
 15   7  30  1   
 16   8   9  1   
 17   8  10  1   
 18   8  31  1   
 19   9  11  1   
 20   9  12  1   
 21   9  32  1   
 22  10  13  1   
 23  10  33  1   
 24  10  34  1   
 25  11  35  1   
 26  12  13  1   
 27  12  36  1   
 28  12  37  1   
 29  13  14  1   
 30  14  15  1   
 31  14  38  1   
 32  14  39  1   
 33  15  16  1   
 34  15  17  2   
 35  16  18  1   
 36  16  40  1   
 37  17  19  1   
 38  17  41  1   
 39  18  20  2   
 40  18  21  1   
 41  19  20  1   
 42  19  22  2   
 43  21  42  1   
 44  21  43  1   
 45  21  44  1   
@<TRIPOS>SUBSTRUCTURE
  1 ****  13 GROUP 4 **** **** 0

# MOE 2024.06 (io_trps.svl 2023.06)
