@<TRIPOS>MOLECULE
NONAME
59 63 1 0 0 
SMALL
USER_CHARGES


@<TRIPOS>ATOM
  1 O       -3.2450     2.8180     1.5320 O.2   1 <1>  -0.5700 
  2 C       -2.7140     2.3300     0.5620 C.2   1 <1>   0.5690 
  3 N       -2.8620     0.9880     0.2940 N.am  1 <1>  -0.6600 
  4 C       -1.8940     3.2630    -0.3180 C.3   1 <1>   0.1570 
  5 C       -3.4120     0.0640     1.3270 C.3   1 <1>   0.1400 
  6 C       -2.5100     0.3210    -0.9930 C.3   1 <1>   0.1400 
  7 N       -0.4960     2.7980    -0.4380 N.pl3 1 <1>   0.0480 
  8 C       -4.6690    -0.6540     0.7880 C.3   1 <1>   0.4230 
  9 C       -3.7600    -0.3790    -1.5430 C.3   1 <1>  -0.1600 
 10 C        0.1400     2.4550    -1.5920 C.ar  1 <1>  -0.1520 
 11 C        0.3880     2.5170     0.5610 C.2   1 <1>   0.1010 
 12 N       -5.3870    -1.5040     1.8310 N.4   1 <1>  -0.9590 
 13 C       -4.3960    -1.3970    -0.5530 C.3   1 <1>   0.0000 
 14 C        1.3690     1.9590    -1.2000 C.ar  1 <1>   0.2270 
 15 C       -0.2090     2.5160    -2.9460 C.ar  1 <1>  -0.1500 
 16 N        1.4970     2.0100     0.1510 N.2   1 <1>  -0.5650 
 17 C        0.0830     2.7830     2.0280 C.3   1 <1>  -0.0150 
 18 C       -6.3350    -2.5120     1.2530 C.3   1 <1>   0.3430 
 19 C       -4.5030    -2.1640     2.8490 C.3   1 <1>   0.2630 
 20 C       -5.7480    -1.8920    -1.1470 C.3   1 <1>  -0.1600 
 21 C       -3.4300    -2.5950    -0.3220 C.3   1 <1>   0.1200 
 22 C        2.2750     1.4960    -2.1520 C.ar  1 <1>  -0.1500 
 23 C        0.6920     2.0580    -3.8820 C.ar  1 <1>  -0.1500 
 24 C       -0.0750     4.1890     2.5200 C.3   1 <1>  -0.2000 
 25 C        1.1240     3.3860     2.9200 C.3   1 <1>  -0.2000 
 26 C       -6.8690    -2.0490    -0.1010 C.3   1 <1>  -0.1600 
 27 O       -3.0240    -3.1620    -1.5180 O.3   1 <1>  -0.6800 
 28 C        1.9340     1.5450    -3.4860 C.ar  1 <1>  -0.1500 
 29 H       -1.8890     4.2450     0.1160 H     1 <1>   0.0800 
 30 H       -2.3430     3.3240    -1.2890 H     1 <1>   0.0800 
 31 H       -2.6440    -0.6420     1.5860 H     1 <1>   0.0800 
 32 H       -3.6740     0.6120     2.2150 H     1 <1>   0.0800 
 33 H       -2.1710     1.0360    -1.7190 H     1 <1>   0.0800 
 34 H       -1.7120    -0.3860    -0.8320 H     1 <1>   0.0800 
 35 H       -5.3500     0.1410     0.5320 H     1 <1>   0.0800 
 36 H       -4.4740     0.3880    -1.7890 H     1 <1>   0.0800 
 37 H       -3.5010    -0.8630    -2.4690 H     1 <1>   0.0800 
 38 H       -5.9740    -0.8320     2.3480 H     1 <1>   0.4500 
 39 H       -1.1570     2.9170    -3.2550 H     1 <1>   0.1500 
 40 H       -0.5370     2.0200     2.4630 H     1 <1>   0.1000 
 41 H       -5.8280    -3.4540     1.1150 H     1 <1>   0.0800 
 42 H       -7.1570    -2.6760     1.9340 H     1 <1>   0.0800 
 43 H       -3.8260    -2.8550     2.3720 H     1 <1>   0.0800 
 44 H       -5.0980    -2.7080     3.5650 H     1 <1>   0.0800 
 45 H       -3.9240    -1.4280     3.3840 H     1 <1>   0.0800 
 46 H       -6.1060    -1.2070    -1.8980 H     1 <1>   0.0800 
 47 H       -5.6090    -2.8330    -1.6500 H     1 <1>   0.0800 
 48 H       -3.8930    -3.3720     0.2590 H     1 <1>   0.0800 
 49 H       -2.5330    -2.2830     0.1830 H     1 <1>   0.0800 
 50 H        3.2210     1.1130    -1.8180 H     1 <1>   0.1500 
 51 H        0.4530     2.0910    -4.9310 H     1 <1>   0.1500 
 52 H        0.0740     5.0070     1.8370 H     1 <1>   0.1000 
 53 H       -0.8380     4.3920     3.2510 H     1 <1>   0.1000 
 54 H        1.2020     3.0280     3.9310 H     1 <1>   0.1000 
 55 H        2.0820     3.6180     2.4880 H     1 <1>   0.1000 
 56 H       -7.5900    -2.7630    -0.4610 H     1 <1>   0.0800 
 57 H       -7.3920    -1.1160     0.0270 H     1 <1>   0.0800 
 58 H       -3.7640    -3.5710    -2.0090 H     1 <1>   0.4000 
 59 H        2.6220     1.1920    -4.2350 H     1 <1>   0.1500 
@<TRIPOS>BOND
  1   1   2  2   
  2   2   3  am  
  3   2   4  1   
  4   3   5  1   
  5   3   6  1   
  6   4   7  1   
  7   4  29  1   
  8   4  30  1   
  9   5   8  1   
 10   5  31  1   
 11   5  32  1   
 12   6   9  1   
 13   6  33  1   
 14   6  34  1   
 15   7  10  1   
 16   7  11  1   
 17   8  12  1   
 18   8  13  1   
 19   8  35  1   
 20   9  13  1   
 21   9  36  1   
 22   9  37  1   
 23  10  14  ar  
 24  10  15  ar  
 25  11  16  2   
 26  11  17  1   
 27  12  18  1   
 28  12  19  1   
 29  12  38  1   
 30  13  20  1   
 31  13  21  1   
 32  14  16  1   
 33  14  22  ar  
 34  15  23  ar  
 35  15  39  1   
 36  17  24  1   
 37  17  25  1   
 38  17  40  1   
 39  18  26  1   
 40  18  41  1   
 41  18  42  1   
 42  19  43  1   
 43  19  44  1   
 44  19  45  1   
 45  20  26  1   
 46  20  46  1   
 47  20  47  1   
 48  21  27  1   
 49  21  48  1   
 50  21  49  1   
 51  22  28  ar  
 52  22  50  1   
 53  23  28  ar  
 54  23  51  1   
 55  24  25  1   
 56  24  52  1   
 57  24  53  1   
 58  25  54  1   
 59  25  55  1   
 60  26  56  1   
 61  26  57  1   
 62  27  58  1   
 63  28  59  1   
@<TRIPOS>SUBSTRUCTURE
  1 ****   3 GROUP 4 **** **** 0

# MOE 2024.06 (io_trps.svl 2023.06)
