@<TRIPOS>MOLECULE
NONAME
48 50 1 0 0 
SMALL
USER_CHARGES


@<TRIPOS>ATOM
  1 S        0.6490    -0.0870    -0.4070 S.o2  1 <1>   1.3330 
  2 O       -0.0280    -0.2500    -1.6730 O.2   1 <1>  -0.6500 
  3 O        2.0730     0.1650    -0.3870 O.2   1 <1>  -0.6500 
  4 N        0.3340    -1.4570     0.5440 N.am  1 <1>  -0.8490 
  5 C       -0.1400     1.2400     0.5020 C.3   1 <1>  -0.0550 
  6 C       -0.9970    -2.0300     0.3160 C.3   1 <1>   0.1160 
  7 C        1.3560    -2.4940     0.3780 C.3   1 <1>   0.1160 
  8 C       -0.0150     2.6090    -0.2010 C.3   1 <1>  -0.0800 
  9 C       -0.7000     3.7610     0.5280 C.3   1 <1>   0.2000 
 10 C        1.4310     3.0900    -0.3740 C.3   1 <1>   0.2090 
 11 O       -0.3840     3.7000     1.8770 O.3   1 <1>  -0.6800 
 12 C       -0.0230     4.9930    -0.0660 C.3   1 <1>   0.2090 
 13 N        1.4020     4.5880    -0.2940 N.pl3 1 <1>  -0.8380 
 14 C        2.5080     5.3890    -0.2670 C.ar  1 <1>   0.1000 
 15 C        2.4860     6.8260    -0.3590 C.ar  1 <1>   0.0000 
 16 C        3.7670     4.8020    -0.0860 C.ar  1 <1>  -0.1500 
 17 C        3.6410     7.5490     0.0110 C.ar  1 <1>   0.3610 
 18 C        1.4070     7.5950    -0.8460 C.ar  1 <1>  -0.1500 
 19 C        4.8910     5.5340     0.1900 C.ar  1 <1>   0.2180 
 20 N        4.8050     6.8700     0.2790 N.ar  1 <1>  -0.1790 
 21 C        3.6290     8.9510     0.0530 C.ar  1 <1>  -0.1500 
 22 C        1.4150     8.9660    -0.8270 C.ar  1 <1>  -0.1500 
 23 C        6.2420     4.8760     0.4170 C.3   1 <1>  -0.0970 
 24 C        2.5270     9.6550    -0.3520 C.ar  1 <1>  -0.1500 
 25 H       -1.1810     1.0140     0.6250 H     1 <1>   0.0800 
 26 H        0.2960     1.2930     1.4800 H     1 <1>   0.0800 
 27 H       -1.1720    -2.8410     1.0030 H     1 <1>   0.0800 
 28 H       -1.0810    -2.4010    -0.6920 H     1 <1>   0.0800 
 29 H       -1.7570    -1.2840     0.4740 H     1 <1>   0.0800 
 30 H        1.1360    -3.3390     1.0080 H     1 <1>   0.0800 
 31 H        2.3220    -2.1090     0.6600 H     1 <1>   0.0800 
 32 H        1.3990    -2.8180    -0.6490 H     1 <1>   0.0800 
 33 H       -0.4490     2.5300    -1.1830 H     1 <1>   0.0800 
 34 H       -1.7710     3.7660     0.4210 H     1 <1>   0.0800 
 35 H        1.8360     2.7660    -1.3190 H     1 <1>   0.0800 
 36 H        2.0360     2.7010     0.4270 H     1 <1>   0.0800 
 37 H        0.5600     3.9410     1.9800 H     1 <1>   0.4000 
 38 H       -0.1080     5.8390     0.5940 H     1 <1>   0.0800 
 39 H       -0.4820     5.2160    -1.0130 H     1 <1>   0.0800 
 40 H        3.8640     3.7340    -0.1390 H     1 <1>   0.1500 
 41 H        0.5510     7.1070    -1.2640 H     1 <1>   0.1500 
 42 H        5.6320     7.4230     0.5080 H     1 <1>   0.4570 
 43 H        4.4950     9.4910     0.3950 H     1 <1>   0.1500 
 44 H        0.5650     9.5250    -1.1860 H     1 <1>   0.1500 
 45 H        6.1670     3.8080     0.3120 H     1 <1>   0.0800 
 46 H        6.6030     5.0890     1.4070 H     1 <1>   0.0800 
 47 H        6.9590     5.2310    -0.3030 H     1 <1>   0.0800 
 48 H        2.5080    10.7340    -0.3270 H     1 <1>   0.1500 
@<TRIPOS>BOND
  1   1   2  2   
  2   1   3  2   
  3   1   4  am  
  4   1   5  1   
  5   4   6  1   
  6   4   7  1   
  7   5   8  1   
  8   5  25  1   
  9   5  26  1   
 10   6  27  1   
 11   6  28  1   
 12   6  29  1   
 13   7  30  1   
 14   7  31  1   
 15   7  32  1   
 16   8   9  1   
 17   8  10  1   
 18   8  33  1   
 19   9  11  1   
 20   9  12  1   
 21   9  34  1   
 22  10  13  1   
 23  10  35  1   
 24  10  36  1   
 25  11  37  1   
 26  12  13  1   
 27  12  38  1   
 28  12  39  1   
 29  13  14  1   
 30  14  15  ar  
 31  14  16  ar  
 32  15  17  ar  
 33  15  18  ar  
 34  16  19  ar  
 35  16  40  1   
 36  17  20  ar  
 37  17  21  ar  
 38  18  22  ar  
 39  18  41  1   
 40  19  20  ar  
 41  19  23  1   
 42  20  42  1   
 43  21  24  ar  
 44  21  43  1   
 45  22  24  ar  
 46  22  44  1   
 47  23  45  1   
 48  23  46  1   
 49  23  47  1   
 50  24  48  1   
@<TRIPOS>SUBSTRUCTURE
  1 ****  13 GROUP 4 **** **** 0

# MOE 2024.06 (io_trps.svl 2023.06)
