@<TRIPOS>MOLECULE
NONAME
44 47 1 0 0 
SMALL
USER_CHARGES


@<TRIPOS>ATOM
  1 S       -1.1040    -0.6420    -2.5730 S.3   1 <1>  -0.4600 
  2 C       -1.9630     0.4090    -1.3580 C.3   1 <1>   0.2510 
  3 C       -1.7780    -2.2560    -2.0780 C.3   1 <1>   0.2510 
  4 C       -2.8110    -0.5780    -0.5910 C.2   1 <1>   0.1080 
  5 C       -2.7220    -1.9060    -0.9520 C.2   1 <1>  -0.1810 
  6 N       -3.6390    -0.3710     0.3820 N.2   1 <1>  -0.7070 
  7 C       -3.5650    -2.5640    -0.1240 C.2   1 <1>  -0.0880 
  8 N       -4.1110    -1.6060     0.6860 N.pl3 1 <1>   0.3140 
  9 N       -3.8280    -3.9550    -0.1300 N.am  1 <1>  -0.4940 
 10 C       -5.1440    -1.7560     1.7200 C.3   1 <1>   0.0160 
 11 C       -4.1020    -4.8350     0.8800 C.2   1 <1>   0.7150 
 12 O       -4.0960    -4.4750     2.0420 O.2   1 <1>  -0.5700 
 13 C       -4.3410    -6.2140     0.5520 C.2   1 <1>  -0.2370 
 14 N       -4.1500    -7.1740     1.5140 N.pl3 1 <1>   0.0330 
 15 C       -4.7420    -6.8540    -0.5920 C.2   1 <1>  -0.1810 
 16 C       -4.3920    -8.4100     0.9870 C.ar  1 <1>  -0.1520 
 17 C       -4.7630    -8.2410    -0.3400 C.ar  1 <1>   0.0000 
 18 C       -5.1460    -6.2750    -1.9390 C.3   1 <1>  -0.0590 
 19 C       -4.3180    -9.6820     1.5660 C.ar  1 <1>  -0.1430 
 20 C       -5.0660    -9.3660    -1.1170 C.ar  1 <1>  -0.1500 
 21 C       -4.6210   -10.7730     0.7830 C.ar  1 <1>  -0.1500 
 22 C       -3.9120    -9.8380     3.0200 C.3   1 <1>  -0.0970 
 23 C       -4.9950   -10.6220    -0.5600 C.ar  1 <1>  -0.1430 
 24 C       -5.3170   -11.8610    -1.3750 C.3   1 <1>  -0.0970 
 25 H       -2.5590     1.1290    -1.8870 H     1 <1>   0.0800 
 26 H       -1.2280     0.8800    -0.7320 H     1 <1>   0.0800 
 27 H       -0.9610    -2.8730    -1.7490 H     1 <1>   0.0800 
 28 H       -2.2840    -2.6810    -2.9250 H     1 <1>   0.0800 
 29 H       -3.6700    -4.4320    -1.0140 H     1 <1>   0.3700 
 30 H       -5.6650    -0.8240     1.8360 H     1 <1>   0.0800 
 31 H       -4.6730    -2.0230     2.6460 H     1 <1>   0.0800 
 32 H       -5.8360    -2.5230     1.4270 H     1 <1>   0.0800 
 33 H       -3.8810    -6.9760     2.4840 H     1 <1>   0.2700 
 34 H       -5.4030    -5.2360    -1.8580 H     1 <1>   0.0800 
 35 H       -6.0100    -6.7970    -2.3090 H     1 <1>   0.0800 
 36 H       -4.3440    -6.3950    -2.6450 H     1 <1>   0.0800 
 37 H       -5.3510    -9.2270    -2.1420 H     1 <1>   0.1500 
 38 H       -4.5730   -11.7640     1.1960 H     1 <1>   0.1500 
 39 H       -4.6060    -9.3130     3.6520 H     1 <1>   0.0800 
 40 H       -2.9260    -9.4390     3.1700 H     1 <1>   0.0800 
 41 H       -3.9080   -10.8740     3.3060 H     1 <1>   0.0800 
 42 H       -5.5890   -11.5990    -2.3810 H     1 <1>   0.0800 
 43 H       -6.1370   -12.3910    -0.9240 H     1 <1>   0.0800 
 44 H       -4.4600   -12.5080    -1.4080 H     1 <1>   0.0800 
@<TRIPOS>BOND
  1   1   2  1   
  2   1   3  1   
  3   2   4  1   
  4   2  25  1   
  5   2  26  1   
  6   3   5  1   
  7   3  27  1   
  8   3  28  1   
  9   4   5  1   
 10   4   6  2   
 11   5   7  2   
 12   6   8  1   
 13   7   8  1   
 14   7   9  1   
 15   8  10  1   
 16   9  11  am  
 17   9  29  1   
 18  10  30  1   
 19  10  31  1   
 20  10  32  1   
 21  11  12  2   
 22  11  13  1   
 23  13  14  1   
 24  13  15  2   
 25  14  16  1   
 26  14  33  1   
 27  15  17  1   
 28  15  18  1   
 29  16  17  ar  
 30  16  19  ar  
 31  17  20  ar  
 32  18  34  1   
 33  18  35  1   
 34  18  36  1   
 35  19  21  ar  
 36  19  22  1   
 37  20  23  ar  
 38  20  37  1   
 39  21  23  ar  
 40  21  38  1   
 41  22  39  1   
 42  22  40  1   
 43  22  41  1   
 44  23  24  1   
 45  24  42  1   
 46  24  43  1   
 47  24  44  1   
@<TRIPOS>SUBSTRUCTURE
  1 ****  13 GROUP 4 **** **** 0

# MOE 2024.06 (io_trps.svl 2023.06)
