@<TRIPOS>MOLECULE
NONAME
51 53 1 0 0 
SMALL
USER_CHARGES


@<TRIPOS>ATOM
  1 O        0.6860     3.2690    -0.9890 O.2   1 <1>  -0.5700 
  2 C       -0.4340     3.0480    -0.5560 C.2   1 <1>   0.5440 
  3 N       -0.7120     3.2630     0.7760 N.am  1 <1>  -0.4200 
  4 C       -1.4930     2.5620    -1.3960 C.ar  1 <1>   0.0860 
  5 C       -1.9760     3.0150     1.2530 C.2   1 <1>   0.4500 
  6 C        0.3360     3.7690     1.6980 C.3   1 <1>   0.1400 
  7 C       -2.7400     2.3410    -0.7980 C.ar  1 <1>   0.1790 
  8 C       -1.3430     2.3030    -2.7620 C.ar  1 <1>  -0.1500 
  9 N       -2.9490     2.5800     0.5460 N.2   1 <1>  -0.6290 
 10 C        0.3330     5.3000     1.7020 C.3   1 <1>  -0.1600 
 11 C       -3.7950     1.8710    -1.5730 C.ar  1 <1>  -0.1500 
 12 C       -2.3990     1.8370    -3.5170 C.ar  1 <1>  -0.1500 
 13 C        1.4970     5.8670     2.5390 C.3   1 <1>  -0.0990 
 14 C       -3.6320     1.6190    -2.9190 C.ar  1 <1>  -0.1500 
 15 C        1.5430     7.3920     2.5620 C.2   1 <1>   0.5690 
 16 O        0.5070     7.9950     2.4070 O.2   1 <1>  -0.5700 
 17 N        2.7270     8.0550     2.7530 N.am  1 <1>  -0.6600 
 18 C        2.7870     9.5370     2.5660 C.3   1 <1>   0.3210 
 19 C        4.0550     7.4110     2.9630 C.3   1 <1>   0.0600 
 20 C        3.3150     9.8690     1.1800 C.2   1 <1>   0.1080 
 21 N        4.4340    10.4570     0.9380 N.2   1 <1>  -0.4100 
 22 C        2.6530     9.5620    -0.0060 C.2   1 <1>  -0.1500 
 23 O        4.5210    10.5420    -0.3590 O.3   1 <1>  -0.0190 
 24 C        3.4820    10.0180    -0.9570 C.2   1 <1>  -0.0400 
 25 C        3.4070    10.0200    -2.4780 C.3   1 <1>   0.1000 
 26 C        2.0420     9.5240    -2.9710 C.3   1 <1>  -0.2400 
 27 C        4.5230     9.1490    -3.0640 C.3   1 <1>  -0.2400 
 28 H       -2.1350     3.2070     2.3000 H     1 <1>   0.0600 
 29 H        1.2980     3.4030     1.3800 H     1 <1>   0.0800 
 30 H        0.1530     3.3960     2.6910 H     1 <1>   0.0800 
 31 H       -0.3840     2.4740    -3.2210 H     1 <1>   0.1500 
 32 H       -0.6030     5.6550     2.0990 H     1 <1>   0.0800 
 33 H        0.4310     5.6600     0.6910 H     1 <1>   0.0800 
 34 H       -4.7460     1.7070    -1.0980 H     1 <1>   0.1500 
 35 H       -2.2710     1.6400    -4.5680 H     1 <1>   0.1500 
 36 H        2.4130     5.4930     2.1220 H     1 <1>   0.0800 
 37 H        1.4160     5.5230     3.5530 H     1 <1>   0.0800 
 38 H       -4.4570     1.2550    -3.5070 H     1 <1>   0.1500 
 39 H        3.4330     9.9690     3.3090 H     1 <1>   0.0800 
 40 H        1.8130     9.9770     2.6850 H     1 <1>   0.0800 
 41 H        3.9500     6.4680     3.4680 H     1 <1>   0.0800 
 42 H        4.6830     8.0460     3.5650 H     1 <1>   0.0800 
 43 H        4.5350     7.2560     2.0110 H     1 <1>   0.0800 
 44 H        1.7010     9.0680    -0.0850 H     1 <1>   0.1500 
 45 H        3.5440    11.0330    -2.8150 H     1 <1>   0.0800 
 46 H        1.8730     8.5090    -2.6580 H     1 <1>   0.0800 
 47 H        1.9950     9.5670    -4.0440 H     1 <1>   0.0800 
 48 H        1.2580    10.1440    -2.5720 H     1 <1>   0.0800 
 49 H        4.4210     8.1340    -2.7250 H     1 <1>   0.0800 
 50 H        5.4830     9.5190    -2.7490 H     1 <1>   0.0800 
 51 H        4.4870     9.1640    -4.1380 H     1 <1>   0.0800 
@<TRIPOS>BOND
  1   1   2  2   
  2   2   3  am  
  3   2   4  1   
  4   3   5  1   
  5   3   6  1   
  6   4   7  ar  
  7   4   8  ar  
  8   5   9  2   
  9   5  28  1   
 10   6  10  1   
 11   6  29  1   
 12   6  30  1   
 13   7   9  1   
 14   7  11  ar  
 15   8  12  ar  
 16   8  31  1   
 17  10  13  1   
 18  10  32  1   
 19  10  33  1   
 20  11  14  ar  
 21  11  34  1   
 22  12  14  ar  
 23  12  35  1   
 24  13  15  1   
 25  13  36  1   
 26  13  37  1   
 27  14  38  1   
 28  15  16  2   
 29  15  17  am  
 30  17  18  1   
 31  17  19  1   
 32  18  20  1   
 33  18  39  1   
 34  18  40  1   
 35  19  41  1   
 36  19  42  1   
 37  19  43  1   
 38  20  21  2   
 39  20  22  1   
 40  21  23  1   
 41  22  24  2   
 42  22  44  1   
 43  23  24  1   
 44  24  25  1   
 45  25  26  1   
 46  25  27  1   
 47  25  45  1   
 48  26  46  1   
 49  26  47  1   
 50  26  48  1   
 51  27  49  1   
 52  27  50  1   
 53  27  51  1   
@<TRIPOS>SUBSTRUCTURE
  1 ****  10 GROUP 4 **** **** 0

# MOE 2024.06 (io_trps.svl 2023.06)
