@<TRIPOS>MOLECULE
NONAME
55 58 1 0 0 
SMALL
USER_CHARGES


@<TRIPOS>ATOM
  1 O       -0.0240     0.7640     0.5800 O.2   1 <1>  -0.5700 
  2 C        0.0820     1.9730     0.5040 C.2   1 <1>   0.5440 
  3 N       -1.0260     2.7640     0.7340 N.am  1 <1>  -0.6600 
  4 C        1.3710     2.5420     0.1650 C.ar  1 <1>   0.0860 
  5 C       -2.3160     2.1840     1.2180 C.3   1 <1>   0.1400 
  6 C       -1.1330     4.1890     0.3180 C.3   1 <1>   0.1400 
  7 C        2.0150     3.4490     1.0050 C.ar  1 <1>  -0.1500 
  8 C        2.0180     2.1940    -1.0190 C.ar  1 <1>  -0.1500 
  9 C       -3.3820     2.2340     0.1060 C.3   1 <1>   0.0000 
 10 C       -2.1770     4.3240    -0.7960 C.3   1 <1>  -0.1600 
 11 C        3.2450     3.9860     0.6740 C.ar  1 <1>  -0.1500 
 12 C        3.2470     2.7320    -1.3500 C.ar  1 <1>  -0.1500 
 13 C       -4.7060     1.6260     0.6070 C.3   1 <1>   0.2000 
 14 C       -3.5280     3.6970    -0.4030 C.3   1 <1>  -0.1600 
 15 C       -3.0450     1.2790    -1.0540 C.3   1 <1>  -0.1600 
 16 C        3.8950     3.6340    -0.5090 C.ar  1 <1>   0.0860 
 17 O       -5.4850     2.5260     1.3120 O.3   1 <1>  -0.6800 
 18 C       -5.4550     1.1370    -0.6330 C.3   1 <1>  -0.1600 
 19 C       -4.3840     0.9330    -1.7130 C.3   1 <1>  -0.1600 
 20 C        5.1930     4.1790    -0.8550 C.2   1 <1>   0.5440 
 21 O        5.3450     4.7050    -1.9410 O.2   1 <1>  -0.5700 
 22 N        6.2640     4.1050     0.0110 N.am  1 <1>  -0.6600 
 23 C        7.5530     4.8140    -0.2560 C.3   1 <1>   0.1400 
 24 C        6.3540     3.1390     1.1480 C.3   1 <1>   0.1400 
 25 C        8.7170     3.8130    -0.3280 C.3   1 <1>   0.1200 
 26 C        7.5900     2.2370     0.9950 C.3   1 <1>   0.1200 
 27 O        8.7450     3.0050     0.8160 O.3   1 <1>  -0.5600 
 28 H       -2.1740     1.1700     1.5480 H     1 <1>   0.0800 
 29 H       -2.6570     2.7540     2.0650 H     1 <1>   0.0800 
 30 H       -1.4300     4.7780     1.1690 H     1 <1>   0.0800 
 31 H       -0.1890     4.5640    -0.0350 H     1 <1>   0.0800 
 32 H        1.5360     3.7280     1.9280 H     1 <1>   0.1500 
 33 H        1.5410     1.4900    -1.6800 H     1 <1>   0.1500 
 34 H       -2.3190     5.3670    -1.0170 H     1 <1>   0.0800 
 35 H       -1.7940     3.8610    -1.6880 H     1 <1>   0.0800 
 36 H        3.7180     4.6900     1.3360 H     1 <1>   0.1500 
 37 H        3.7240     2.4550    -2.2760 H     1 <1>   0.1500 
 38 H       -4.5040     0.7870     1.2530 H     1 <1>   0.0800 
 39 H       -4.2010     3.7420    -1.2410 H     1 <1>   0.0800 
 40 H       -3.9410     4.3060     0.3820 H     1 <1>   0.0800 
 41 H       -2.3430     1.6890    -1.7580 H     1 <1>   0.0800 
 42 H       -2.6150     0.3750    -0.6550 H     1 <1>   0.0800 
 43 H       -5.7290     3.2670     0.7280 H     1 <1>   0.4000 
 44 H       -5.9600     0.2120    -0.4170 H     1 <1>   0.0800 
 45 H       -6.1710     1.8660    -0.9690 H     1 <1>   0.0800 
 46 H       -4.3800    -0.0790    -2.0810 H     1 <1>   0.0800 
 47 H       -4.5690     1.6000    -2.5380 H     1 <1>   0.0800 
 48 H        7.5040     5.3680    -1.1770 H     1 <1>   0.0800 
 49 H        7.7410     5.5160     0.5370 H     1 <1>   0.0800 
 50 H        6.4280     3.6850     2.0720 H     1 <1>   0.0800 
 51 H        5.4780     2.5180     1.1950 H     1 <1>   0.0800 
 52 H        9.6540     4.3360    -0.3850 H     1 <1>   0.0800 
 53 H        8.6190     3.1830    -1.1960 H     1 <1>   0.0800 
 54 H        7.4780     1.5820     0.1480 H     1 <1>   0.0800 
 55 H        7.7260     1.6400     1.8780 H     1 <1>   0.0800 
@<TRIPOS>BOND
  1   1   2  2   
  2   2   3  am  
  3   2   4  1   
  4   3   5  1   
  5   3   6  1   
  6   4   7  ar  
  7   4   8  ar  
  8   5   9  1   
  9   5  28  1   
 10   5  29  1   
 11   6  10  1   
 12   6  30  1   
 13   6  31  1   
 14   7  11  ar  
 15   7  32  1   
 16   8  12  ar  
 17   8  33  1   
 18   9  13  1   
 19   9  14  1   
 20   9  15  1   
 21  10  14  1   
 22  10  34  1   
 23  10  35  1   
 24  11  16  ar  
 25  11  36  1   
 26  12  16  ar  
 27  12  37  1   
 28  13  17  1   
 29  13  18  1   
 30  13  38  1   
 31  14  39  1   
 32  14  40  1   
 33  15  19  1   
 34  15  41  1   
 35  15  42  1   
 36  16  20  1   
 37  17  43  1   
 38  18  19  1   
 39  18  44  1   
 40  18  45  1   
 41  19  46  1   
 42  19  47  1   
 43  20  21  2   
 44  20  22  am  
 45  22  23  1   
 46  22  24  1   
 47  23  25  1   
 48  23  48  1   
 49  23  49  1   
 50  24  26  1   
 51  24  50  1   
 52  24  51  1   
 53  25  27  1   
 54  25  52  1   
 55  25  53  1   
 56  26  27  1   
 57  26  54  1   
 58  26  55  1   
@<TRIPOS>SUBSTRUCTURE
  1 ****   4 GROUP 4 **** **** 0

# MOE 2024.06 (io_trps.svl 2023.06)
