@<TRIPOS>MOLECULE
NONAME
49 51 1 0 0 
SMALL
USER_CHARGES


@<TRIPOS>ATOM
  1 O        0.3150     0.0010    -1.0060 O.3   1 <1>  -0.5600 
  2 C        1.5380    -0.6750    -0.8420 C.3   1 <1>   0.2000 
  3 C        0.4330     1.3440    -1.3570 C.3   1 <1>   0.1200 
  4 C        2.4830     0.0640     0.1600 C.3   1 <1>   0.3340 
  5 C        1.1470    -2.1070    -0.4260 C.3   1 <1>   0.1200 
  6 C        1.1740     2.0960    -0.2490 C.3   1 <1>   0.1100 
  7 N        2.5260     1.5380    -0.0620 N.3   1 <1>  -0.8100 
  8 C        3.9160    -0.4670     0.0370 C.ar  1 <1>  -0.1440 
  9 O        2.2270    -2.8830    -0.0160 O.3   1 <1>  -0.6800 
 10 C        3.2580     2.2310     1.0140 C.3   1 <1>   0.2530 
 11 C        4.4870    -1.1990     1.0680 C.ar  1 <1>  -0.1500 
 12 C        4.6660    -0.2160    -1.1040 C.ar  1 <1>  -0.1500 
 13 C        3.4900     3.6850     0.6480 C.ar  1 <1>  -0.1430 
 14 C        5.7810    -1.6790     0.9580 C.ar  1 <1>  -0.1500 
 15 C        5.9590    -0.6950    -1.2170 C.ar  1 <1>  -0.1500 
 16 C        4.1170     4.0290    -0.5250 C.ar  1 <1>   0.1600 
 17 C        3.0870     4.7150     1.4630 C.ar  1 <1>   0.1600 
 18 C        6.5170    -1.4280    -0.1860 C.ar  1 <1>  -0.1500 
 19 N        4.3300     5.2820    -0.8660 N.ar  1 <1>  -0.6200 
 20 N        3.2830     5.9760     1.1490 N.ar  1 <1>  -0.6200 
 21 C        3.9000     6.1950    -0.0070 C.ar  1 <1>   0.4770 
 22 C        4.1470     7.6570    -0.4010 C.3   1 <1>   0.0630 
 23 C        5.0620     8.3740     0.6060 C.3   1 <1>  -0.2400 
 24 C        2.8320     8.4360    -0.5700 C.3   1 <1>  -0.2400 
 25 H        2.0080    -0.7120    -1.8080 H     1 <1>   0.0800 
 26 H        0.9610     1.4200    -2.2920 H     1 <1>   0.0800 
 27 H       -0.5590     1.7410    -1.4790 H     1 <1>   0.0800 
 28 H        2.1150    -0.1280     1.1530 H     1 <1>   0.0800 
 29 H        0.6810    -2.6080    -1.2560 H     1 <1>   0.0800 
 30 H        0.4540    -2.0720     0.3960 H     1 <1>   0.0800 
 31 H        0.6090     2.0290     0.6650 H     1 <1>   0.0800 
 32 H        1.2420     3.1340    -0.5300 H     1 <1>   0.0800 
 33 H        3.0170    -2.7200    -0.5740 H     1 <1>   0.4000 
 34 H        2.7080     2.1570     1.9360 H     1 <1>   0.0800 
 35 H        4.2210     1.7730     1.1620 H     1 <1>   0.0800 
 36 H        3.9230    -1.4090     1.9610 H     1 <1>   0.1500 
 37 H        4.2420     0.3650    -1.9060 H     1 <1>   0.1500 
 38 H        6.2130    -2.2500     1.7610 H     1 <1>   0.1500 
 39 H        6.5320    -0.4940    -2.1060 H     1 <1>   0.1500 
 40 H        4.4470     3.2560    -1.1980 H     1 <1>   0.1500 
 41 H        2.5900     4.5070     2.3950 H     1 <1>   0.1500 
 42 H        7.5230    -1.8020    -0.2720 H     1 <1>   0.1500 
 43 H        4.6490     7.6590    -1.3530 H     1 <1>   0.0800 
 44 H        4.5910     8.4240     1.5720 H     1 <1>   0.0800 
 45 H        5.2790     9.3730     0.2720 H     1 <1>   0.0800 
 46 H        5.9880     7.8350     0.7040 H     1 <1>   0.0800 
 47 H        2.3030     8.4860     0.3650 H     1 <1>   0.0800 
 48 H        2.2060     7.9410    -1.2910 H     1 <1>   0.0800 
 49 H        3.0280     9.4360    -0.9130 H     1 <1>   0.0800 
@<TRIPOS>BOND
  1   1   2  1   
  2   1   3  1   
  3   2   4  1   
  4   2   5  1   
  5   2  25  1   
  6   3   6  1   
  7   3  26  1   
  8   3  27  1   
  9   4   7  1   
 10   4   8  1   
 11   4  28  1   
 12   5   9  1   
 13   5  29  1   
 14   5  30  1   
 15   6   7  1   
 16   6  31  1   
 17   6  32  1   
 18   7  10  1   
 19   8  11  ar  
 20   8  12  ar  
 21   9  33  1   
 22  10  13  1   
 23  10  34  1   
 24  10  35  1   
 25  11  14  ar  
 26  11  36  1   
 27  12  15  ar  
 28  12  37  1   
 29  13  16  ar  
 30  13  17  ar  
 31  14  18  ar  
 32  14  38  1   
 33  15  18  ar  
 34  15  39  1   
 35  16  19  ar  
 36  16  40  1   
 37  17  20  ar  
 38  17  41  1   
 39  18  42  1   
 40  19  21  ar  
 41  20  21  ar  
 42  21  22  1   
 43  22  23  1   
 44  22  24  1   
 45  22  43  1   
 46  23  44  1   
 47  23  45  1   
 48  23  46  1   
 49  24  47  1   
 50  24  48  1   
 51  24  49  1   
@<TRIPOS>SUBSTRUCTURE
  1 ****   7 GROUP 4 **** **** 0

# MOE 2024.06 (io_trps.svl 2023.06)
