@<TRIPOS>MOLECULE
NONAME
46 47 1 0 0 
SMALL
USER_CHARGES


@<TRIPOS>ATOM
  1 CL       1.2570     1.0950    -1.8700 Cl    1 <1>  -0.1770 
  2 C        1.8680    -0.4460    -1.3260 C.ar  1 <1>   0.1770 
  3 C        2.6470    -0.5000    -0.1880 C.ar  1 <1>  -0.1500 
  4 C        1.5490    -1.5820    -2.0420 C.ar  1 <1>  -0.1500 
  5 C        3.1360    -1.7260     0.2520 C.ar  1 <1>   0.0830 
  6 C        2.0330    -2.8110    -1.6180 C.ar  1 <1>  -0.1440 
  7 O        3.8660    -1.8330     1.3970 O.3   1 <1>  -0.3620 
  8 C        2.8450    -2.8850    -0.4880 C.ar  1 <1>   0.0830 
  9 C        1.6680    -4.0760    -2.3690 C.3   1 <1>   0.4870 
 10 C        4.2080    -0.7060     2.1790 C.3   1 <1>   0.0400 
 11 O        3.3080    -4.1280    -0.1570 O.3   1 <1>  -0.3630 
 12 N        0.8770    -4.9200    -1.4430 N.4   1 <1>  -0.9590 
 13 C        4.6690    -4.2780     0.2090 C.3   1 <1>   0.0400 
 14 C        0.8500    -6.3380    -1.8590 C.3   1 <1>   0.5230 
 15 C       -0.4880    -4.3450    -1.1920 C.3   1 <1>   0.3430 
 16 C        0.3210    -7.1410    -0.7010 C.2   1 <1>  -0.3320 
 17 C       -0.8310    -4.2690     0.3020 C.3   1 <1>   0.1200 
 18 N        0.9930    -7.4440     0.4340 N.pl3 1 <1>   0.0480 
 19 C       -0.9050    -7.7000    -0.5820 C.2   1 <1>   0.0770 
 20 O       -2.0000    -3.5390     0.4230 O.3   1 <1>  -0.6800 
 21 C        0.1090    -8.1530     1.1700 C.2   1 <1>   0.0360 
 22 C        2.3780    -7.1260     0.8330 C.3   1 <1>   0.0160 
 23 N       -1.0370    -8.3200     0.5980 N.2   1 <1>  -0.5650 
 24 H        2.8460     0.4200     0.3280 H     1 <1>   0.1500 
 25 H        0.9290    -1.4830    -2.9160 H     1 <1>   0.1500 
 26 H        2.5750    -4.5830    -2.6550 H     1 <1>   0.0800 
 27 H        1.1000    -3.8450    -3.2550 H     1 <1>   0.0800 
 28 H        4.7920    -1.0440     3.0160 H     1 <1>   0.0800 
 29 H        3.3070    -0.2360     2.5310 H     1 <1>   0.0800 
 30 H        4.7910    -0.0270     1.5810 H     1 <1>   0.0800 
 31 H        1.4050    -4.8730    -0.5590 H     1 <1>   0.4500 
 32 H        4.9830    -5.2770    -0.0310 H     1 <1>   0.0800 
 33 H        4.7680    -4.1130     1.2670 H     1 <1>   0.0800 
 34 H        5.2670    -3.5670    -0.3360 H     1 <1>   0.0800 
 35 H        1.8410    -6.6800    -2.1130 H     1 <1>   0.0800 
 36 H        0.2100    -6.4620    -2.7170 H     1 <1>   0.0800 
 37 H       -1.2380    -4.9330    -1.6950 H     1 <1>   0.0800 
 38 H       -0.5310    -3.3410    -1.5800 H     1 <1>   0.0800 
 39 H       -0.0620    -3.7540     0.8510 H     1 <1>   0.0800 
 40 H       -1.0040    -5.2470     0.7190 H     1 <1>   0.0800 
 41 H       -1.7240    -7.6900    -1.2850 H     1 <1>   0.1500 
 42 H       -2.3170    -3.5220     1.3510 H     1 <1>   0.4000 
 43 H        0.3540    -8.5420     2.1440 H     1 <1>   0.1500 
 44 H        3.0060    -7.0580    -0.0360 H     1 <1>   0.0800 
 45 H        2.7520    -7.9050     1.4730 H     1 <1>   0.0800 
 46 H        2.3930    -6.1940     1.3690 H     1 <1>   0.0800 
@<TRIPOS>BOND
  1   1   2  1   
  2   2   3  ar  
  3   2   4  ar  
  4   3   5  ar  
  5   3  24  1   
  6   4   6  ar  
  7   4  25  1   
  8   5   7  1   
  9   5   8  ar  
 10   6   8  ar  
 11   6   9  1   
 12   7  10  1   
 13   8  11  1   
 14   9  12  1   
 15   9  26  1   
 16   9  27  1   
 17  10  28  1   
 18  10  29  1   
 19  10  30  1   
 20  11  13  1   
 21  12  14  1   
 22  12  15  1   
 23  12  31  1   
 24  13  32  1   
 25  13  33  1   
 26  13  34  1   
 27  14  16  1   
 28  14  35  1   
 29  14  36  1   
 30  15  17  1   
 31  15  37  1   
 32  15  38  1   
 33  16  18  1   
 34  16  19  2   
 35  17  20  1   
 36  17  39  1   
 37  17  40  1   
 38  18  21  1   
 39  18  22  1   
 40  19  23  1   
 41  19  41  1   
 42  20  42  1   
 43  21  23  2   
 44  21  43  1   
 45  22  44  1   
 46  22  45  1   
 47  22  46  1   
@<TRIPOS>SUBSTRUCTURE
  1 ****  12 GROUP 4 **** **** 0

# MOE 2024.06 (io_trps.svl 2023.06)
