@<TRIPOS>MOLECULE
NONAME
41 43 1 0 0 
SMALL
USER_CHARGES


@<TRIPOS>ATOM
  1 F       -0.4150    -1.3670     1.4940 F     1 <1>  -0.3400 
  2 C       -0.3160    -1.4940     0.1730 C.3   1 <1>   0.7810 
  3 F       -1.5770    -1.4940    -0.2550 F     1 <1>  -0.3400 
  4 C        0.3670    -2.8190    -0.1890 C.2   1 <1>   0.1080 
  5 N        1.4190    -2.9180    -0.9580 N.2   1 <1>  -0.7070 
  6 C       -0.0490    -4.0620     0.2580 C.2   1 <1>  -0.1500 
  7 N        1.6920    -4.2320    -1.0080 N.pl3 1 <1>   0.3140 
  8 C        0.8080    -4.9700    -0.2880 C.2   1 <1>  -0.2370 
  9 C        2.8390    -4.7210    -1.7930 C.3   1 <1>   0.0160 
 10 C        0.8540    -6.4020    -0.1790 C.2   1 <1>   0.7150 
 11 O        1.9250    -6.9800    -0.1770 O.2   1 <1>  -0.5700 
 12 N       -0.2950    -7.1530    -0.0920 N.am  1 <1>  -0.6600 
 13 C       -1.6470    -6.6840    -0.4840 C.3   1 <1>   0.1400 
 14 C       -0.2640    -8.6340     0.0040 C.3   1 <1>   0.1400 
 15 C       -2.4280    -7.9580    -0.8030 C.3   1 <1>   0.2000 
 16 C       -1.7310    -9.0700    -0.0220 C.3   1 <1>  -0.0800 
 17 O       -3.7530    -7.8600    -0.4080 O.3   1 <1>  -0.6800 
 18 C       -1.9670   -10.4600    -0.6380 C.3   1 <1>  -0.0170 
 19 C       -1.3200   -11.5620     0.1860 C.ar  1 <1>   0.1670 
 20 N       -0.0260   -11.7610    -0.0060 N.ar  1 <1>  -0.6200 
 21 C       -2.0860   -12.3000     1.0870 C.ar  1 <1>   0.1600 
 22 C        0.4460   -12.7350     0.7550 C.ar  1 <1>   0.1600 
 23 N       -1.6160   -13.2720     1.8510 N.ar  1 <1>  -0.6200 
 24 C       -0.3230   -13.4650     1.6530 C.ar  1 <1>   0.1600 
 25 H        0.1820    -0.6270    -0.2210 H     1 <1>   0.0800 
 26 H       -0.8840    -4.2400     0.9130 H     1 <1>   0.1500 
 27 H        2.5110    -5.4970    -2.4590 H     1 <1>   0.0800 
 28 H        3.5820    -5.1110    -1.1220 H     1 <1>   0.0800 
 29 H        3.2550    -3.9090    -2.3590 H     1 <1>   0.0800 
 30 H       -2.0930    -6.1630     0.3440 H     1 <1>   0.0800 
 31 H       -1.5930    -6.0410    -1.3460 H     1 <1>   0.0800 
 32 H        0.2710    -9.0320    -0.8430 H     1 <1>   0.0800 
 33 H        0.2270    -8.9500     0.9090 H     1 <1>   0.0800 
 34 H       -2.4010    -8.1460    -1.8630 H     1 <1>   0.0800 
 35 H       -2.0810    -9.0650     0.9950 H     1 <1>   0.0800 
 36 H       -3.8140    -7.6800     0.5500 H     1 <1>   0.4000 
 37 H       -1.5710   -10.4920    -1.6380 H     1 <1>   0.0800 
 38 H       -3.0260   -10.6400    -0.7060 H     1 <1>   0.0800 
 39 H       -3.1330   -12.0750     1.1830 H     1 <1>   0.1500 
 40 H        1.4920   -12.9670     0.6640 H     1 <1>   0.1500 
 41 H        0.1520   -14.2390     2.2290 H     1 <1>   0.1500 
@<TRIPOS>BOND
  1   1   2  1   
  2   2   3  1   
  3   2   4  1   
  4   2  25  1   
  5   4   5  2   
  6   4   6  1   
  7   5   7  1   
  8   6   8  2   
  9   6  26  1   
 10   7   8  1   
 11   7   9  1   
 12   8  10  1   
 13   9  27  1   
 14   9  28  1   
 15   9  29  1   
 16  10  11  2   
 17  10  12  am  
 18  12  13  1   
 19  12  14  1   
 20  13  15  1   
 21  13  30  1   
 22  13  31  1   
 23  14  16  1   
 24  14  32  1   
 25  14  33  1   
 26  15  16  1   
 27  15  17  1   
 28  15  34  1   
 29  16  18  1   
 30  16  35  1   
 31  17  36  1   
 32  18  19  1   
 33  18  37  1   
 34  18  38  1   
 35  19  20  ar  
 36  19  21  ar  
 37  20  22  ar  
 38  21  23  ar  
 39  21  39  1   
 40  22  24  ar  
 41  22  40  1   
 42  23  24  ar  
 43  24  41  1   
@<TRIPOS>SUBSTRUCTURE
  1 ****  12 GROUP 4 **** **** 0

# MOE 2024.06 (io_trps.svl 2023.06)
