@<TRIPOS>MOLECULE
NONAME
55 58 1 0 0 
SMALL
USER_CHARGES


@<TRIPOS>ATOM
  1 S        4.7650    -2.8090    -0.4330 S.3   1 <1>  -0.0800 
  2 C        4.8660    -3.5220     1.1600 C.2   1 <1>   0.2280 
  3 C        3.0420    -3.0380    -0.3920 C.2   1 <1>  -0.1100 
  4 N        3.7550    -3.9280     1.6340 N.2   1 <1>  -0.5650 
  5 C        2.7030    -3.6230     0.7670 C.2   1 <1>   0.0460 
  6 C        1.2700    -3.9260     1.1950 C.3   1 <1>   0.3210 
  7 N        0.8530    -5.3020     0.7820 N.am  1 <1>  -0.6600 
  8 C       -0.0120    -5.4540    -0.2730 C.2   1 <1>   0.5690 
  9 C        1.4200    -6.3980     1.6220 C.3   1 <1>   0.1400 
 10 O       -0.2970    -4.5140    -0.9730 O.2   1 <1>  -0.5700 
 11 C       -0.6510    -6.7780    -0.6530 C.3   1 <1>  -0.0990 
 12 C        1.8100    -7.6910     0.8470 C.3   1 <1>   0.2800 
 13 C       -0.5820    -7.8960     0.3870 C.3   1 <1>   0.1200 
 14 O        0.7010    -8.4530     0.4710 O.3   1 <1>  -0.5600 
 15 C        2.6270    -7.4400    -0.4330 C.3   1 <1>  -0.1600 
 16 C        2.6290    -8.6150     1.7590 C.3   1 <1>  -0.1600 
 17 C        3.9860    -6.8400    -0.1160 C.3   1 <1>   0.3430 
 18 C        4.0190    -8.0510     2.0580 C.3   1 <1>   0.3430 
 19 N        4.7360    -7.7590     0.7890 N.4   1 <1>  -0.9590 
 20 C        6.1190    -7.2760     1.0380 C.3   1 <1>   0.4860 
 21 C        6.8700    -7.2080    -0.2740 C.ar  1 <1>  -0.1430 
 22 C        7.0860    -8.3730    -1.0040 C.ar  1 <1>   0.3930 
 23 C        7.3430    -6.0070    -0.7660 C.ar  1 <1>  -0.1500 
 24 O        6.6000    -9.5300    -0.4940 O.3   1 <1>  -0.3630 
 25 N        7.7180    -8.4150    -2.1690 N.ar  1 <1>  -0.6200 
 26 C        8.0070    -6.0460    -1.9740 C.ar  1 <1>  -0.1500 
 27 C        6.8430   -10.7660    -1.1460 C.3   1 <1>   0.0400 
 28 C        8.1650    -7.2570    -2.6240 C.ar  1 <1>   0.1600 
 29 H        5.8430    -3.5670     1.6100 H     1 <1>   0.1500 
 30 H        2.4590    -2.6980    -1.2320 H     1 <1>   0.1500 
 31 H        0.6170    -3.1910     0.7560 H     1 <1>   0.0800 
 32 H        1.1850    -3.8230     2.2620 H     1 <1>   0.0800 
 33 H        0.7300    -6.6360     2.4130 H     1 <1>   0.0800 
 34 H        2.2990    -6.0160     2.1040 H     1 <1>   0.0800 
 35 H       -0.2340    -7.1230    -1.5800 H     1 <1>   0.0800 
 36 H       -1.6900    -6.5750    -0.8370 H     1 <1>   0.0800 
 37 H       -1.2400    -8.6920     0.0860 H     1 <1>   0.0800 
 38 H       -0.9020    -7.5610     1.3590 H     1 <1>   0.0800 
 39 H        2.1190    -6.7680    -1.0960 H     1 <1>   0.0800 
 40 H        2.7680    -8.3650    -0.9630 H     1 <1>   0.0800 
 41 H        2.7410    -9.5780     1.2910 H     1 <1>   0.0800 
 42 H        2.1040    -8.7640     2.6860 H     1 <1>   0.0800 
 43 H        3.8540    -5.8820     0.3540 H     1 <1>   0.0800 
 44 H        4.5320    -6.6940    -1.0350 H     1 <1>   0.0800 
 45 H        4.5760    -8.7700     2.6390 H     1 <1>   0.0800 
 46 H        3.9280    -7.1480     2.6400 H     1 <1>   0.0800 
 47 H        4.8610    -8.6490     0.2760 H     1 <1>   0.4500 
 48 H        6.6330    -7.9580     1.6970 H     1 <1>   0.0800 
 49 H        6.0940    -6.3040     1.5020 H     1 <1>   0.0800 
 50 H        7.2140    -5.0720    -0.2480 H     1 <1>   0.1500 
 51 H        8.4030    -5.1470    -2.4130 H     1 <1>   0.1500 
 52 H        6.3950   -11.5540    -0.5690 H     1 <1>   0.0800 
 53 H        7.9070   -10.9210    -1.2160 H     1 <1>   0.0800 
 54 H        6.4090   -10.7360    -2.1310 H     1 <1>   0.0800 
 55 H        8.6870    -7.2740    -3.5670 H     1 <1>   0.1500 
@<TRIPOS>BOND
  1   1   2  1   
  2   1   3  1   
  3   2   4  2   
  4   2  29  1   
  5   3   5  2   
  6   3  30  1   
  7   4   5  1   
  8   5   6  1   
  9   6   7  1   
 10   6  31  1   
 11   6  32  1   
 12   7   8  am  
 13   7   9  1   
 14   8  10  2   
 15   8  11  1   
 16   9  12  1   
 17   9  33  1   
 18   9  34  1   
 19  11  13  1   
 20  11  35  1   
 21  11  36  1   
 22  12  14  1   
 23  12  15  1   
 24  12  16  1   
 25  13  14  1   
 26  13  37  1   
 27  13  38  1   
 28  15  17  1   
 29  15  39  1   
 30  15  40  1   
 31  16  18  1   
 32  16  41  1   
 33  16  42  1   
 34  17  19  1   
 35  17  43  1   
 36  17  44  1   
 37  18  19  1   
 38  18  45  1   
 39  18  46  1   
 40  19  20  1   
 41  19  47  1   
 42  20  21  1   
 43  20  48  1   
 44  20  49  1   
 45  21  22  ar  
 46  21  23  ar  
 47  22  24  1   
 48  22  25  ar  
 49  23  26  ar  
 50  23  50  1   
 51  24  27  1   
 52  25  28  ar  
 53  26  28  ar  
 54  26  51  1   
 55  27  52  1   
 56  27  53  1   
 57  27  54  1   
 58  28  55  1   
@<TRIPOS>SUBSTRUCTURE
  1 ****  17 GROUP 4 **** **** 0

# MOE 2024.06 (io_trps.svl 2023.06)
