@<TRIPOS>MOLECULE
NONAME
51 53 1 0 0 
SMALL
USER_CHARGES


@<TRIPOS>ATOM
  1 O       -0.9960     0.5330    -0.7590 O.2   1 <1>  -0.5700 
  2 C       -1.4610     0.7810     0.3370 C.2   1 <1>   0.5440 
  3 N       -1.9750    -0.2490     1.0680 N.am  1 <1>  -0.7300 
  4 C       -1.4740     2.1470     0.8340 C.ar  1 <1>   0.0860 
  5 C       -1.9320    -1.6810     0.6890 C.3   1 <1>   0.2200 
  6 C       -1.3420     3.2170    -0.0520 C.ar  1 <1>  -0.1500 
  7 C       -1.6030     2.4560     2.1890 C.ar  1 <1>  -0.1500 
  8 C       -3.3020    -2.1790     0.2470 C.3   1 <1>  -0.0800 
  9 C       -1.7330    -2.5070     1.9520 C.3   1 <1>   0.1200 
 10 C       -1.3220     4.5340     0.3800 C.ar  1 <1>  -0.1430 
 11 C       -1.6010     3.7650     2.6320 C.ar  1 <1>  -0.1500 
 12 C       -3.9890    -2.5340     1.5720 C.3   1 <1>   0.1200 
 13 C       -4.1080    -1.2210    -0.6500 C.3   1 <1>  -0.0160 
 14 O       -2.9910    -2.5450     2.5530 O.3   1 <1>  -0.5600 
 15 C       -1.4600     4.8050     1.7320 C.ar  1 <1>  -0.1500 
 16 C       -1.1380     5.6580    -0.6230 C.3   1 <1>   0.4860 
 17 C       -5.4030    -1.8710    -1.1110 C.ar  1 <1>  -0.1430 
 18 N        0.2510     5.5860    -1.1640 N.4   1 <1>  -0.9590 
 19 C       -6.6110    -1.6280    -0.4880 C.ar  1 <1>  -0.1500 
 20 C       -5.4340    -2.7430    -2.1810 C.ar  1 <1>  -0.1500 
 21 C        1.2720     5.8530    -0.1020 C.3   1 <1>   0.2630 
 22 C        0.4330     6.4970    -2.3340 C.3   1 <1>   0.2630 
 23 C       -7.7570    -2.2540    -0.9490 C.ar  1 <1>   0.1600 
 24 C       -6.6360    -3.3170    -2.5620 C.ar  1 <1>   0.1600 
 25 N       -7.7980    -3.0950    -1.9700 N.ar  1 <1>  -0.6200 
 26 H       -2.4570    -0.0810     1.9530 H     1 <1>   0.3700 
 27 H       -1.1640    -1.8630    -0.0440 H     1 <1>   0.0800 
 28 H       -1.2540     2.9890    -1.1010 H     1 <1>   0.1500 
 29 H       -1.6990     1.6640     2.9120 H     1 <1>   0.1500 
 30 H       -3.1560    -3.0980    -0.2940 H     1 <1>   0.0800 
 31 H       -1.0170    -2.0750     2.6280 H     1 <1>   0.0800 
 32 H       -1.4490    -3.5170     1.7100 H     1 <1>   0.0800 
 33 H       -1.7070     3.9750     3.6850 H     1 <1>   0.1500 
 34 H       -4.4510    -3.5050     1.5310 H     1 <1>   0.0800 
 35 H       -4.7180    -1.7960     1.8570 H     1 <1>   0.0800 
 36 H       -3.5170    -0.9560    -1.5090 H     1 <1>   0.0800 
 37 H       -4.3350    -0.3120    -0.1220 H     1 <1>   0.0800 
 38 H       -1.4610     5.8180     2.1010 H     1 <1>   0.1500 
 39 H       -1.3070     6.6110    -0.1490 H     1 <1>   0.0800 
 40 H       -1.8530     5.5400    -1.4200 H     1 <1>   0.0800 
 41 H        0.3830     4.6110    -1.4760 H     1 <1>   0.4500 
 42 H       -6.6740    -0.9580     0.3490 H     1 <1>   0.1500 
 43 H       -4.5370    -2.9800    -2.7210 H     1 <1>   0.1500 
 44 H        1.1580     6.8510     0.2890 H     1 <1>   0.0800 
 45 H        2.2670     5.7510    -0.5050 H     1 <1>   0.0800 
 46 H        1.1600     5.1510     0.7090 H     1 <1>   0.0800 
 47 H        0.2930     7.5240    -2.0370 H     1 <1>   0.0800 
 48 H       -0.2790     6.2600    -3.1090 H     1 <1>   0.0800 
 49 H        1.4260     6.3880    -2.7400 H     1 <1>   0.0800 
 50 H       -8.6900    -2.0530    -0.4510 H     1 <1>   0.1500 
 51 H       -6.6410    -3.9940    -3.3990 H     1 <1>   0.1500 
@<TRIPOS>BOND
  1   1   2  2   
  2   2   3  am  
  3   2   4  1   
  4   3   5  1   
  5   3  26  1   
  6   4   6  ar  
  7   4   7  ar  
  8   5   8  1   
  9   5   9  1   
 10   5  27  1   
 11   6  10  ar  
 12   6  28  1   
 13   7  11  ar  
 14   7  29  1   
 15   8  12  1   
 16   8  13  1   
 17   8  30  1   
 18   9  14  1   
 19   9  31  1   
 20   9  32  1   
 21  10  15  ar  
 22  10  16  1   
 23  11  15  ar  
 24  11  33  1   
 25  12  14  1   
 26  12  34  1   
 27  12  35  1   
 28  13  17  1   
 29  13  36  1   
 30  13  37  1   
 31  15  38  1   
 32  16  18  1   
 33  16  39  1   
 34  16  40  1   
 35  17  19  ar  
 36  17  20  ar  
 37  18  21  1   
 38  18  22  1   
 39  18  41  1   
 40  19  23  ar  
 41  19  42  1   
 42  20  24  ar  
 43  20  43  1   
 44  21  44  1   
 45  21  45  1   
 46  21  46  1   
 47  22  47  1   
 48  22  48  1   
 49  22  49  1   
 50  23  25  ar  
 51  23  50  1   
 52  24  25  ar  
 53  24  51  1   
@<TRIPOS>SUBSTRUCTURE
  1 ****   2 GROUP 4 **** **** 0

# MOE 2024.06 (io_trps.svl 2023.06)
