@<TRIPOS>MOLECULE
NONAME
58 61 1 0 0 
SMALL
USER_CHARGES


@<TRIPOS>ATOM
  1 O       -2.2990    -1.6050     0.8370 O.3   1 <1>  -0.5600 
  2 C       -2.9470    -2.8280     1.0340 C.3   1 <1>   0.1200 
  3 C       -1.2650    -1.6530    -0.0980 C.3   1 <1>   0.1200 
  4 C       -1.9570    -3.8870     1.5480 C.3   1 <1>   0.2090 
  5 C       -0.1730    -2.6400     0.3580 C.3   1 <1>   0.2090 
  6 N       -0.7520    -4.0020     0.6430 N.pl3 1 <1>  -0.8380 
  7 C       -0.3090    -5.2010     0.1790 C.ar  1 <1>   0.7710 
  8 N       -1.0370    -6.2930     0.3900 N.ar  1 <1>  -0.6200 
  9 N        0.8630    -5.2590    -0.4800 N.ar  1 <1>  -0.1790 
 10 C       -0.5890    -7.4370    -0.0640 C.ar  1 <1>   0.4100 
 11 C        1.3600    -6.4200    -0.9710 C.ar  1 <1>   0.2180 
 12 N       -1.3930    -8.4780     0.2120 N.pl3 1 <1>  -0.8690 
 13 C        0.6240    -7.5410    -0.7680 C.ar  1 <1>  -0.1500 
 14 C        2.6940    -6.4000    -1.7070 C.3   1 <1>  -0.0170 
 15 C       -1.2140    -9.9350    -0.0290 C.3   1 <1>   0.2890 
 16 C        3.8510    -5.9700    -0.7960 C.3   1 <1>  -0.2400 
 17 C       -2.1800   -10.4170    -1.1180 C.3   1 <1>   0.3430 
 18 C       -1.7120   -10.6820     1.2010 C.3   1 <1>  -0.1600 
 19 N       -3.4960   -10.5240    -0.4280 N.4   1 <1>  -0.9590 
 20 C       -3.2080   -10.9250     0.9810 C.3   1 <1>   0.3430 
 21 C       -4.4920   -11.3940    -1.1110 C.3   1 <1>   0.4860 
 22 C       -5.7990   -11.2970    -0.3520 C.ar  1 <1>  -0.1430 
 23 C       -6.6050   -10.1750    -0.4860 C.ar  1 <1>  -0.1500 
 24 C       -6.1980   -12.3280     0.4870 C.ar  1 <1>  -0.1500 
 25 C       -7.7900   -10.0800     0.2230 C.ar  1 <1>  -0.1500 
 26 C       -7.3830   -12.2310     1.1950 C.ar  1 <1>  -0.1500 
 27 C       -8.1780   -11.1070     1.0650 C.ar  1 <1>  -0.1500 
 28 H       -3.7300    -2.6700     1.7560 H     1 <1>   0.0800 
 29 H       -3.3930    -3.1390     0.1050 H     1 <1>   0.0800 
 30 H       -1.6740    -1.9420    -1.0510 H     1 <1>   0.0800 
 31 H       -0.8590    -0.6600    -0.1840 H     1 <1>   0.0800 
 32 H       -2.4810    -4.8210     1.6460 H     1 <1>   0.0800 
 33 H       -1.6310    -3.5990     2.5340 H     1 <1>   0.0800 
 34 H        0.2810    -2.2520     1.2560 H     1 <1>   0.0800 
 35 H        0.5810    -2.6800    -0.4060 H     1 <1>   0.0800 
 36 H        1.3720    -4.3890    -0.5580 H     1 <1>   0.4570 
 37 H       -2.1810    -8.2300     0.8190 H     1 <1>   0.4000 
 38 H        0.9510    -8.4970    -1.1280 H     1 <1>   0.1500 
 39 H        2.9080    -7.3840    -2.0900 H     1 <1>   0.0800 
 40 H        2.6340    -5.7370    -2.5530 H     1 <1>   0.0800 
 41 H       -0.1890   -10.1700    -0.2600 H     1 <1>   0.0800 
 42 H        3.9270    -6.6260     0.0550 H     1 <1>   0.0800 
 43 H        3.7290    -4.9600    -0.4470 H     1 <1>   0.0800 
 44 H        4.7800    -6.0230    -1.3390 H     1 <1>   0.0800 
 45 H       -1.8680   -11.3890    -1.4630 H     1 <1>   0.0800 
 46 H       -2.2100    -9.7300    -1.9480 H     1 <1>   0.0800 
 47 H       -1.2210   -11.6370     1.2630 H     1 <1>   0.0800 
 48 H       -1.5180   -10.1500     2.1160 H     1 <1>   0.0800 
 49 H       -3.9080    -9.5820    -0.3880 H     1 <1>   0.4500 
 50 H       -3.8010   -10.3350     1.6630 H     1 <1>   0.0800 
 51 H       -3.4380   -11.9670     1.1390 H     1 <1>   0.0800 
 52 H       -4.6430   -11.0640    -2.1270 H     1 <1>   0.0800 
 53 H       -4.1510   -12.4160    -1.1290 H     1 <1>   0.0800 
 54 H       -6.3310    -9.3650    -1.1410 H     1 <1>   0.1500 
 55 H       -5.6010   -13.2170     0.6000 H     1 <1>   0.1500 
 56 H       -8.4170    -9.2100     0.1200 H     1 <1>   0.1500 
 57 H       -7.6940   -13.0310     1.8460 H     1 <1>   0.1500 
 58 H       -9.1010   -11.0320     1.6150 H     1 <1>   0.1500 
@<TRIPOS>BOND
  1   1   2  1   
  2   1   3  1   
  3   2   4  1   
  4   2  28  1   
  5   2  29  1   
  6   3   5  1   
  7   3  30  1   
  8   3  31  1   
  9   4   6  1   
 10   4  32  1   
 11   4  33  1   
 12   5   6  1   
 13   5  34  1   
 14   5  35  1   
 15   6   7  1   
 16   7   8  ar  
 17   7   9  ar  
 18   8  10  ar  
 19   9  11  ar  
 20   9  36  1   
 21  10  12  1   
 22  10  13  ar  
 23  11  13  ar  
 24  11  14  1   
 25  12  15  1   
 26  12  37  1   
 27  13  38  1   
 28  14  16  1   
 29  14  39  1   
 30  14  40  1   
 31  15  17  1   
 32  15  18  1   
 33  15  41  1   
 34  16  42  1   
 35  16  43  1   
 36  16  44  1   
 37  17  19  1   
 38  17  45  1   
 39  17  46  1   
 40  18  20  1   
 41  18  47  1   
 42  18  48  1   
 43  19  20  1   
 44  19  21  1   
 45  19  49  1   
 46  20  50  1   
 47  20  51  1   
 48  21  22  1   
 49  21  52  1   
 50  21  53  1   
 51  22  23  ar  
 52  22  24  ar  
 53  23  25  ar  
 54  23  54  1   
 55  24  26  ar  
 56  24  55  1   
 57  25  27  ar  
 58  25  56  1   
 59  26  27  ar  
 60  26  57  1   
 61  27  58  1   
@<TRIPOS>SUBSTRUCTURE
  1 ****  12 GROUP 4 **** **** 0

# MOE 2024.06 (io_trps.svl 2023.06)
