@<TRIPOS>MOLECULE
NONAME
43 44 1 0 0 
SMALL
USER_CHARGES


@<TRIPOS>ATOM
  1 O        3.7670     1.0820     0.1340 O.2   1 <1>  -0.5700 
  2 C        2.6420     0.7030    -0.1290 C.2   1 <1>   0.5440 
  3 N        1.7900     1.5720    -0.7540 N.am  1 <1>  -0.7300 
  4 C        2.2060    -0.6390     0.2170 C.ar  1 <1>   0.0860 
  5 C        2.0600     3.0080    -1.0140 C.3   1 <1>   0.1400 
  6 C        2.7020    -1.2810     1.3510 C.ar  1 <1>  -0.1500 
  7 C        1.2820    -1.3390    -0.5600 C.ar  1 <1>  -0.1500 
  8 C        2.9610     3.1770    -2.2440 C.3   1 <1>  -0.0990 
  9 C        2.2870    -2.5530     1.7030 C.ar  1 <1>  -0.1500 
 10 C        0.8630    -2.6110    -0.2120 C.ar  1 <1>  -0.1500 
 11 C        4.2400     3.8900    -1.8760 C.2   1 <1>   0.5690 
 12 C        1.3610    -3.2250     0.9240 C.ar  1 <1>  -0.1440 
 13 O        4.4380     5.0100    -2.2850 O.2   1 <1>  -0.5700 
 14 N        5.1040     3.2740    -1.0390 N.am  1 <1>  -0.7300 
 15 C        0.9050    -4.6210     1.3070 C.3   1 <1>  -0.0970 
 16 C        6.3780     3.8190    -0.5130 C.3   1 <1>   0.1400 
 17 C        6.2510     4.1720     0.9760 C.3   1 <1>   0.0200 
 18 C        5.3000     5.3190     1.2870 C.2   1 <1>   0.0060 
 19 N        5.0510     5.7480     2.4740 N.2   1 <1>  -0.3380 
 20 N        4.6090     6.0140     0.3750 N.pl3 1 <1>   0.0330 
 21 N        4.1600     6.7460     2.3600 N.2   1 <1>  -0.3380 
 22 C        3.9090     6.8820     1.1010 C.2   1 <1>   0.2700 
 23 N        3.0270     7.8090     0.5870 N.pl3 1 <1>  -0.8840 
 24 H        0.8170     1.2850    -0.8760 H     1 <1>   0.3700 
 25 H        2.5230     3.4410    -0.1400 H     1 <1>   0.0800 
 26 H        1.1270     3.5210    -1.1740 H     1 <1>   0.0800 
 27 H        3.4240    -0.7690     1.9640 H     1 <1>   0.1500 
 28 H        0.8890    -0.8890    -1.4540 H     1 <1>   0.1500 
 29 H        2.4460     3.7610    -2.9840 H     1 <1>   0.0800 
 30 H        3.2080     2.2260    -2.6800 H     1 <1>   0.0800 
 31 H        2.6900    -3.0180     2.5860 H     1 <1>   0.1500 
 32 H        0.1490    -3.1260    -0.8320 H     1 <1>   0.1500 
 33 H        4.7990     2.3750    -0.6190 H     1 <1>   0.3700 
 34 H        0.9280    -4.7450     2.3750 H     1 <1>   0.0800 
 35 H        1.5540    -5.3520     0.8590 H     1 <1>   0.0800 
 36 H       -0.1010    -4.7960     0.9690 H     1 <1>   0.0800 
 37 H        6.6660     4.6910    -1.0760 H     1 <1>   0.0800 
 38 H        7.1450     3.0740    -0.6390 H     1 <1>   0.0800 
 39 H        7.2230     4.4450     1.3440 H     1 <1>   0.0800 
 40 H        5.9370     3.3000     1.5210 H     1 <1>   0.0800 
 41 H        4.5710     5.8680    -0.6400 H     1 <1>   0.2700 
 42 H        2.6890     8.4400     1.3180 H     1 <1>   0.4000 
 43 H        3.3710     8.3340    -0.2190 H     1 <1>   0.4000 
@<TRIPOS>BOND
  1   1   2  2   
  2   2   3  am  
  3   2   4  1   
  4   3   5  1   
  5   3  24  1   
  6   4   6  ar  
  7   4   7  ar  
  8   5   8  1   
  9   5  25  1   
 10   5  26  1   
 11   6   9  ar  
 12   6  27  1   
 13   7  10  ar  
 14   7  28  1   
 15   8  11  1   
 16   8  29  1   
 17   8  30  1   
 18   9  12  ar  
 19   9  31  1   
 20  10  12  ar  
 21  10  32  1   
 22  11  13  2   
 23  11  14  am  
 24  12  15  1   
 25  14  16  1   
 26  14  33  1   
 27  15  34  1   
 28  15  35  1   
 29  15  36  1   
 30  16  17  1   
 31  16  37  1   
 32  16  38  1   
 33  17  18  1   
 34  17  39  1   
 35  17  40  1   
 36  18  19  2   
 37  18  20  1   
 38  19  21  1   
 39  20  22  1   
 40  20  41  1   
 41  21  22  2   
 42  22  23  1   
 43  23  42  1   
 44  23  43  1   
@<TRIPOS>SUBSTRUCTURE
  1 ****   1 GROUP 4 **** **** 0

# MOE 2024.06 (io_trps.svl 2023.06)
