@<TRIPOS>MOLECULE
NONAME
48 50 1 0 0 
SMALL
USER_CHARGES


@<TRIPOS>ATOM
  1 O        0.7520     0.9490    -0.7920 O.3   1 <1>  -0.6800 
  2 C        0.1230     2.1140    -0.4030 C.3   1 <1>   0.2000 
  3 C       -0.1200     2.9780    -1.6400 C.3   1 <1>  -0.1600 
  4 C        1.0220     2.8280     0.6030 C.3   1 <1>  -0.1600 
  5 C       -0.7170     4.3270    -1.2350 C.3   1 <1>   0.2090 
  6 C        0.4190     4.1770     0.9940 C.3   1 <1>   0.2090 
  7 N        0.1590     4.9840    -0.2270 N.pl3 1 <1>  -0.8380 
  8 C        0.1040     6.3570    -0.0920 C.ar  1 <1>   0.4100 
  9 N       -1.0470     6.9560    -0.3410 N.ar  1 <1>  -0.6200 
 10 C        1.2070     7.0770     0.2990 C.ar  1 <1>  -0.1500 
 11 C       -1.0470     8.2640    -0.1770 C.ar  1 <1>   0.4700 
 12 C        1.0890     8.4380     0.4330 C.ar  1 <1>   0.4100 
 13 N       -0.0570     9.0500     0.1950 N.ar  1 <1>  -0.6200 
 14 N        2.1640     9.1950     0.8260 N.pl3 1 <1>  -0.8690 
 15 C        2.2580    10.6350     0.5860 C.3   1 <1>   0.4270 
 16 C        3.7060    10.9580     0.2270 C.2   1 <1>  -0.2760 
 17 C        1.8450    11.3700     1.8540 C.3   1 <1>  -0.2400 
 18 C        4.7840    10.3550     0.7530 C.2   1 <1>  -0.2880 
 19 C        3.8280    12.0670    -0.8150 C.3   1 <1>  -0.0220 
 20 C        6.2210    10.6620     0.3650 C.3   1 <1>  -0.0220 
 21 C        5.2580    12.6200    -0.9100 C.3   1 <1>  -0.1600 
 22 C        6.2890    11.4860    -0.9280 C.3   1 <1>  -0.1600 
 23 H        0.2250     0.4900    -1.4730 H     1 <1>   0.4000 
 24 H       -0.8140     1.8500     0.0590 H     1 <1>   0.0800 
 25 H       -0.7970     2.4850    -2.3110 H     1 <1>   0.0800 
 26 H        0.8100     3.1580    -2.1510 H     1 <1>   0.0800 
 27 H        1.9930     2.9960     0.1720 H     1 <1>   0.0800 
 28 H        1.1350     2.2210     1.4820 H     1 <1>   0.0800 
 29 H       -1.6990     4.1930    -0.8150 H     1 <1>   0.0800 
 30 H       -0.8040     4.9600    -2.1030 H     1 <1>   0.0800 
 31 H        1.0940     4.7010     1.6490 H     1 <1>   0.0800 
 32 H       -0.5100     4.0280     1.5190 H     1 <1>   0.0800 
 33 H        2.1350     6.5830     0.4900 H     1 <1>   0.1500 
 34 H       -1.9840     8.7570    -0.3740 H     1 <1>   0.1500 
 35 H        3.0820     8.7770     0.6820 H     1 <1>   0.4000 
 36 H        1.6080    10.9060    -0.2310 H     1 <1>   0.0800 
 37 H        2.4890    11.0910     2.6670 H     1 <1>   0.0800 
 38 H        0.8290    11.1230     2.1010 H     1 <1>   0.0800 
 39 H        1.9170    12.4300     1.7010 H     1 <1>   0.0800 
 40 H        4.7200     9.5980     1.5170 H     1 <1>   0.1500 
 41 H        3.1640    12.8780    -0.5700 H     1 <1>   0.0800 
 42 H        3.5310    11.6730    -1.7720 H     1 <1>   0.0800 
 43 H        6.7630     9.7430     0.2250 H     1 <1>   0.0800 
 44 H        6.6870    11.2060     1.1680 H     1 <1>   0.0800 
 45 H        5.4470    13.2520    -0.0590 H     1 <1>   0.0800 
 46 H        5.3540    13.2200    -1.7970 H     1 <1>   0.0800 
 47 H        6.0860    10.8410    -1.7660 H     1 <1>   0.0800 
 48 H        7.2800    11.8880    -1.0480 H     1 <1>   0.0800 
@<TRIPOS>BOND
  1   1   2  1   
  2   1  23  1   
  3   2   3  1   
  4   2   4  1   
  5   2  24  1   
  6   3   5  1   
  7   3  25  1   
  8   3  26  1   
  9   4   6  1   
 10   4  27  1   
 11   4  28  1   
 12   5   7  1   
 13   5  29  1   
 14   5  30  1   
 15   6   7  1   
 16   6  31  1   
 17   6  32  1   
 18   7   8  1   
 19   8   9  ar  
 20   8  10  ar  
 21   9  11  ar  
 22  10  12  ar  
 23  10  33  1   
 24  11  13  ar  
 25  11  34  1   
 26  12  13  ar  
 27  12  14  1   
 28  14  15  1   
 29  14  35  1   
 30  15  16  1   
 31  15  17  1   
 32  15  36  1   
 33  16  18  2   
 34  16  19  1   
 35  17  37  1   
 36  17  38  1   
 37  17  39  1   
 38  18  20  1   
 39  18  40  1   
 40  19  21  1   
 41  19  41  1   
 42  19  42  1   
 43  20  22  1   
 44  20  43  1   
 45  20  44  1   
 46  21  22  1   
 47  21  45  1   
 48  21  46  1   
 49  22  47  1   
 50  22  48  1   
@<TRIPOS>SUBSTRUCTURE
  1 ****  10 GROUP 4 **** **** 0

# MOE 2024.06 (io_trps.svl 2023.06)
