@<TRIPOS>MOLECULE
NONAME
50 54 1 0 0 
SMALL
USER_CHARGES


@<TRIPOS>ATOM
  1 O       -0.4190    -0.1980     1.3320 O.2   1 <1>  -0.5700 
  2 C       -1.4290     0.4390     1.0980 C.2   1 <1>   0.7150 
  3 N       -2.5360    -0.2270     0.6310 N.am  1 <1>  -0.6600 
  4 C       -1.4600     1.8590     1.2980 C.2   1 <1>  -0.2370 
  5 C       -3.6670     0.4270    -0.0720 C.3   1 <1>   0.1400 
  6 C       -2.5280    -1.6860     0.3760 C.3   1 <1>   0.1400 
  7 N       -0.4670     2.6920     0.8560 N.pl3 1 <1>   0.2940 
  8 C       -2.4070     2.6310     1.9260 C.2   1 <1>  -0.1500 
  9 C       -4.2380    -0.6580    -0.9830 C.3   1 <1>   0.2000 
 10 C       -3.8500    -1.9850    -0.3340 C.3   1 <1>  -0.0800 
 11 C       -0.8000     3.9580     1.2080 C.2   1 <1>  -0.3020 
 12 C        0.7430     2.3090     0.0900 C.3   1 <1>  -0.0910 
 13 C       -1.9890     3.9560     1.8680 C.2   1 <1>  -0.1500 
 14 O       -5.6170    -0.5650    -1.0870 O.3   1 <1>  -0.6800 
 15 C       -3.7540    -3.1390    -1.3450 C.3   1 <1>  -0.0170 
 16 C        1.1990     3.1330    -1.0790 C.3   1 <1>  -0.2000 
 17 C        0.5840     1.7890    -1.3080 C.3   1 <1>  -0.2000 
 18 C       -3.3940    -4.4480    -0.6500 C.ar  1 <1>  -0.1440 
 19 C       -4.3460    -5.2130     0.0640 C.ar  1 <1>   0.0000 
 20 C       -2.1130    -4.9160    -0.6930 C.ar  1 <1>  -0.1500 
 21 C       -3.8960    -6.3990     0.6950 C.ar  1 <1>   0.3100 
 22 C       -5.7140    -4.8760     0.1880 C.ar  1 <1>  -0.1500 
 23 C       -1.7740    -6.1070    -0.0400 C.ar  1 <1>   0.1600 
 24 N       -2.6110    -6.8310     0.6330 N.ar  1 <1>  -0.6200 
 25 C       -4.8150    -7.1730     1.4220 C.ar  1 <1>  -0.1500 
 26 C       -6.5850    -5.6540     0.9020 C.ar  1 <1>  -0.1500 
 27 C       -6.1320    -6.8160     1.5300 C.ar  1 <1>  -0.1500 
 28 H       -4.3950     0.7420     0.6540 H     1 <1>   0.0800 
 29 H       -3.3240     1.2700    -0.6470 H     1 <1>   0.0800 
 30 H       -1.6870    -1.9250    -0.2530 H     1 <1>   0.0800 
 31 H       -2.4440    -2.2330     1.3000 H     1 <1>   0.0800 
 32 H       -3.3140     2.2900     2.3960 H     1 <1>   0.1500 
 33 H       -3.8150    -0.5640    -1.9700 H     1 <1>   0.0800 
 34 H       -4.5670    -2.2280     0.4300 H     1 <1>   0.0800 
 35 H       -0.1720     4.7980     0.9710 H     1 <1>   0.1500 
 36 H        1.4780     1.8400     0.7210 H     1 <1>   0.1000 
 37 H       -2.5180     4.8010     2.2760 H     1 <1>   0.1500 
 38 H       -6.0320    -0.6480    -0.2070 H     1 <1>   0.4000 
 39 H       -3.0070    -2.9050    -2.0830 H     1 <1>   0.0800 
 40 H       -4.6850    -3.2480    -1.8730 H     1 <1>   0.0800 
 41 H        0.6390     4.0080    -1.3600 H     1 <1>   0.1000 
 42 H        2.2550     3.2430    -1.2560 H     1 <1>   0.1000 
 43 H        1.2190     0.9810    -1.6300 H     1 <1>   0.1000 
 44 H       -0.4030     1.7370    -1.7360 H     1 <1>   0.1000 
 45 H       -1.3360    -4.3910    -1.2190 H     1 <1>   0.1500 
 46 H       -6.0860    -3.9890    -0.2900 H     1 <1>   0.1500 
 47 H       -0.7520    -6.4390    -0.0980 H     1 <1>   0.1500 
 48 H       -4.4440    -8.0640     1.8940 H     1 <1>   0.1500 
 49 H       -7.6240    -5.3860     0.9890 H     1 <1>   0.1500 
 50 H       -6.8250    -7.4200     2.0900 H     1 <1>   0.1500 
@<TRIPOS>BOND
  1   1   2  2   
  2   2   3  am  
  3   2   4  1   
  4   3   5  1   
  5   3   6  1   
  6   4   7  1   
  7   4   8  2   
  8   5   9  1   
  9   5  28  1   
 10   5  29  1   
 11   6  10  1   
 12   6  30  1   
 13   6  31  1   
 14   7  11  1   
 15   7  12  1   
 16   8  13  1   
 17   8  32  1   
 18   9  10  1   
 19   9  14  1   
 20   9  33  1   
 21  10  15  1   
 22  10  34  1   
 23  11  13  2   
 24  11  35  1   
 25  12  16  1   
 26  12  17  1   
 27  12  36  1   
 28  13  37  1   
 29  14  38  1   
 30  15  18  1   
 31  15  39  1   
 32  15  40  1   
 33  16  17  1   
 34  16  41  1   
 35  16  42  1   
 36  17  43  1   
 37  17  44  1   
 38  18  19  ar  
 39  18  20  ar  
 40  19  21  ar  
 41  19  22  ar  
 42  20  23  ar  
 43  20  45  1   
 44  21  24  ar  
 45  21  25  ar  
 46  22  26  ar  
 47  22  46  1   
 48  23  24  ar  
 49  23  47  1   
 50  25  27  ar  
 51  25  48  1   
 52  26  27  ar  
 53  26  49  1   
 54  27  50  1   
@<TRIPOS>SUBSTRUCTURE
  1 ****   6 GROUP 4 **** **** 0

# MOE 2024.06 (io_trps.svl 2023.06)
