@<TRIPOS>MOLECULE
NONAME
44 47 1 0 0 
SMALL
USER_CHARGES


@<TRIPOS>ATOM
  1 O        2.4840    -0.4470    -2.4670 O.2   1 <1>  -0.5700 
  2 C        2.4480    -1.1820    -1.4900 C.2   1 <1>   0.5650 
  3 N        2.9570    -0.7960    -0.2260 N.pl3 1 <1>   0.5610 
  4 C        1.8780    -2.4860    -1.5790 C.2   1 <1>  -0.1360 
  5 N        3.5500     0.3350     0.2280 N.2   1 <1>  -0.7070 
  6 C        2.8900    -1.6510     0.8270 C.2   1 <1>   0.2700 
  7 C        1.8160    -3.3300    -0.5140 C.2   1 <1>  -0.0380 
  8 C        3.7740     0.0590     1.4680 C.2   1 <1>   0.3660 
  9 N        3.3890    -1.1520     1.8990 N.2   1 <1>  -0.5650 
 10 N        2.3290    -2.9130     0.6980 N.pl3 1 <1>  -0.5840 
 11 C        1.2090    -4.7290    -0.5860 C.3   1 <1>   0.2480 
 12 N        0.0440    -4.7670    -1.4930 N.3   1 <1>  -0.8100 
 13 C       -0.2740    -6.0870    -2.0690 C.3   1 <1>   0.2530 
 14 C       -1.1310    -3.9820    -1.0800 C.3   1 <1>   0.1100 
 15 C        0.0660    -7.3060    -1.2040 C.ar  1 <1>  -0.1430 
 16 C       -1.7760    -4.4060     0.2460 C.3   1 <1>  -0.1600 
 17 C       -0.2910    -7.4890     0.1390 C.ar  1 <1>   0.0830 
 18 C        0.8050    -8.3020    -1.8340 C.ar  1 <1>  -0.1500 
 19 C       -2.1070    -5.8950     0.3810 C.3   1 <1>   0.1200 
 20 O       -0.9730    -6.5660     0.8720 O.3   1 <1>  -0.3630 
 21 C        0.1100    -8.6510     0.8080 C.ar  1 <1>   0.0830 
 22 C        1.1990    -9.4460    -1.1660 C.ar  1 <1>  -0.1500 
 23 O       -0.1860    -8.8740     2.1120 O.3   1 <1>  -0.3620 
 24 C        0.8550    -9.6180     0.1600 C.ar  1 <1>  -0.1500 
 25 C       -1.5260    -9.1980     2.4060 C.3   1 <1>   0.0400 
 26 H        1.4940    -2.7700    -2.5420 H     1 <1>   0.1500 
 27 H        4.2470     0.7530     2.1470 H     1 <1>   0.1500 
 28 H        2.3090    -3.4990     1.5420 H     1 <1>   0.4000 
 29 H        0.9180    -5.0480     0.3980 H     1 <1>   0.0800 
 30 H        1.9670    -5.4070    -0.9410 H     1 <1>   0.0800 
 31 H        0.2820    -6.1590    -2.9870 H     1 <1>   0.0800 
 32 H       -1.3110    -6.1310    -2.3520 H     1 <1>   0.0800 
 33 H       -1.8710    -4.0350    -1.8610 H     1 <1>   0.0800 
 34 H       -0.8450    -2.9470    -1.0000 H     1 <1>   0.0800 
 35 H       -2.6970    -3.8580     0.3310 H     1 <1>   0.0800 
 36 H       -1.1600    -4.0960     1.0720 H     1 <1>   0.0800 
 37 H        1.0920    -8.1950    -2.8670 H     1 <1>   0.1500 
 38 H       -2.4400    -6.3420    -0.5370 H     1 <1>   0.0800 
 39 H       -2.8780    -6.0250     1.1200 H     1 <1>   0.0800 
 40 H        1.7750   -10.2010    -1.6740 H     1 <1>   0.1500 
 41 H        1.1610   -10.4970     0.6970 H     1 <1>   0.1500 
 42 H       -1.5870    -9.4590     3.4470 H     1 <1>   0.0800 
 43 H       -1.8230   -10.0330     1.7960 H     1 <1>   0.0800 
 44 H       -2.1480    -8.3450     2.2060 H     1 <1>   0.0800 
@<TRIPOS>BOND
  1   1   2  2   
  2   2   3  1   
  3   2   4  1   
  4   3   5  1   
  5   3   6  1   
  6   4   7  2   
  7   4  26  1   
  8   5   8  2   
  9   6   9  2   
 10   6  10  1   
 11   7  10  1   
 12   7  11  1   
 13   8   9  1   
 14   8  27  1   
 15  10  28  1   
 16  11  12  1   
 17  11  29  1   
 18  11  30  1   
 19  12  13  1   
 20  12  14  1   
 21  13  15  1   
 22  13  31  1   
 23  13  32  1   
 24  14  16  1   
 25  14  33  1   
 26  14  34  1   
 27  15  17  ar  
 28  15  18  ar  
 29  16  19  1   
 30  16  35  1   
 31  16  36  1   
 32  17  20  1   
 33  17  21  ar  
 34  18  22  ar  
 35  18  37  1   
 36  19  20  1   
 37  19  38  1   
 38  19  39  1   
 39  21  23  1   
 40  21  24  ar  
 41  22  24  ar  
 42  22  40  1   
 43  23  25  1   
 44  24  41  1   
 45  25  42  1   
 46  25  43  1   
 47  25  44  1   
@<TRIPOS>SUBSTRUCTURE
  1 ****  11 GROUP 4 **** **** 0

# MOE 2024.06 (io_trps.svl 2023.06)
