@<TRIPOS>MOLECULE
NONAME
46 49 1 0 0 
SMALL
USER_CHARGES


@<TRIPOS>ATOM
  1 O       -0.9900    -0.2060    -1.7260 O.2   1 <1>  -0.5700 
  2 C       -1.7490    -0.8330    -1.0080 C.2   1 <1>   0.5410 
  3 C       -1.8610    -2.2430    -1.0720 C.2   1 <1>  -0.1360 
  4 C       -2.5860    -0.1910    -0.0570 C.2   1 <1>  -0.1360 
  5 C       -2.7270    -2.9340    -0.2770 C.2   1 <1>   0.0910 
  6 C       -3.4250    -0.9150     0.7180 C.2   1 <1>  -0.0620 
  7 O       -3.4840    -2.2460     0.6040 O.3   1 <1>  -0.1530 
  8 C       -2.8820    -4.3780    -0.2900 C.2   1 <1>   0.6160 
  9 C       -4.3580    -0.3410     1.7650 C.3   1 <1>  -0.1020 
 10 O       -1.9710    -5.0620    -0.7190 O.2   1 <1>  -0.5700 
 11 N       -4.0210    -5.0220     0.1450 N.am  1 <1>  -0.6600 
 12 C       -4.0240    -6.4780     0.4970 C.3   1 <1>   0.1400 
 13 C       -5.4000    -4.4540     0.0260 C.3   1 <1>   0.1400 
 14 C       -4.9940    -7.2680    -0.4010 C.3   1 <1>   0.3440 
 15 C       -6.3060    -5.3590    -0.8410 C.3   1 <1>   0.2950 
 16 O       -6.2660    -6.6740    -0.3700 O.3   1 <1>  -0.5600 
 17 C       -5.0940    -8.7180     0.0640 C.ar  1 <1>  -0.1440 
 18 C       -7.7870    -4.9420    -0.8730 C.3   1 <1>  -0.1950 
 19 C       -4.2420    -9.6710    -0.4760 C.ar  1 <1>  -0.1500 
 20 C       -6.0140    -9.1070     1.0290 C.ar  1 <1>  -0.1500 
 21 C       -8.2530    -3.5210    -0.7570 C.3   1 <1>  -0.2000 
 22 C       -8.5590    -4.5080     0.3350 C.3   1 <1>  -0.2000 
 23 C       -4.3050   -10.9890    -0.0580 C.ar  1 <1>  -0.1500 
 24 C       -6.0790   -10.4250     1.4480 C.ar  1 <1>  -0.1500 
 25 C       -5.2240   -11.3670     0.9040 C.ar  1 <1>  -0.1500 
 26 H       -1.2240    -2.7410    -1.7790 H     1 <1>   0.1500 
 27 H       -2.5050     0.8780     0.0010 H     1 <1>   0.1500 
 28 H       -5.3770    -0.5870     1.5240 H     1 <1>   0.0800 
 29 H       -4.2630     0.7290     1.8130 H     1 <1>   0.0800 
 30 H       -4.1210    -0.7510     2.7300 H     1 <1>   0.0800 
 31 H       -3.0370    -6.8970     0.4020 H     1 <1>   0.0800 
 32 H       -4.3270    -6.5940     1.5220 H     1 <1>   0.0800 
 33 H       -5.8200    -4.3540     1.0100 H     1 <1>   0.0800 
 34 H       -5.3650    -3.4800    -0.4260 H     1 <1>   0.0800 
 35 H       -4.6420    -7.2460    -1.4180 H     1 <1>   0.0800 
 36 H       -5.9330    -5.3570    -1.8520 H     1 <1>   0.0800 
 37 H       -8.3230    -5.5530    -1.5790 H     1 <1>   0.1000 
 38 H       -3.5200    -9.3930    -1.2250 H     1 <1>   0.1500 
 39 H       -6.6860    -8.3820     1.4550 H     1 <1>   0.1500 
 40 H       -7.5650    -2.7250    -0.5350 H     1 <1>   0.1000 
 41 H       -9.0600    -3.1930    -1.3910 H     1 <1>   0.1000 
 42 H       -9.5670    -4.8690     0.4460 H     1 <1>   0.1000 
 43 H       -8.0570    -4.4180     1.2820 H     1 <1>   0.1000 
 44 H       -3.6410   -11.7210    -0.4830 H     1 <1>   0.1500 
 45 H       -6.7970   -10.7150     2.1950 H     1 <1>   0.1500 
 46 H       -5.2750   -12.3920     1.2290 H     1 <1>   0.1500 
@<TRIPOS>BOND
  1   1   2  2   
  2   2   3  1   
  3   2   4  1   
  4   3   5  2   
  5   3  26  1   
  6   4   6  2   
  7   4  27  1   
  8   5   7  1   
  9   5   8  1   
 10   6   7  1   
 11   6   9  1   
 12   8  10  2   
 13   8  11  am  
 14   9  28  1   
 15   9  29  1   
 16   9  30  1   
 17  11  12  1   
 18  11  13  1   
 19  12  14  1   
 20  12  31  1   
 21  12  32  1   
 22  13  15  1   
 23  13  33  1   
 24  13  34  1   
 25  14  16  1   
 26  14  17  1   
 27  14  35  1   
 28  15  16  1   
 29  15  18  1   
 30  15  36  1   
 31  17  19  ar  
 32  17  20  ar  
 33  18  21  1   
 34  18  22  1   
 35  18  37  1   
 36  19  23  ar  
 37  19  38  1   
 38  20  24  ar  
 39  20  39  1   
 40  21  22  1   
 41  21  40  1   
 42  21  41  1   
 43  22  42  1   
 44  22  43  1   
 45  23  25  ar  
 46  23  44  1   
 47  24  25  ar  
 48  24  45  1   
 49  25  46  1   
@<TRIPOS>SUBSTRUCTURE
  1 ****  11 GROUP 4 **** **** 0

# MOE 2024.06 (io_trps.svl 2023.06)
