@<TRIPOS>MOLECULE
NONAME
47 49 1 0 0 
SMALL
USER_CHARGES


@<TRIPOS>ATOM
  1 O        0.1390    -0.1150    -0.0220 O.2   1 <1>  -0.5700 
  2 C        1.1820    -0.7380    -0.0320 C.2   1 <1>   0.5440 
  3 N        2.3820    -0.0730    -0.1190 N.am  1 <1>  -0.4940 
  4 C        1.1760    -2.1840     0.0070 C.ar  1 <1>   0.0860 
  5 C        2.6600     1.2940    -0.0060 C.2   1 <1>   0.2040 
  6 C        0.1550    -2.9140    -0.6050 C.ar  1 <1>  -0.1500 
  7 C        2.1810    -2.9130     0.6480 C.ar  1 <1>  -0.1500 
  8 O        1.7840     2.1530     0.4600 O.3   1 <1>  -0.0190 
  9 C        3.7870     1.9780    -0.2940 C.2   1 <1>  -0.1810 
 10 C        0.1360    -4.2970    -0.6050 C.ar  1 <1>  -0.1430 
 11 C        2.1730    -4.2920     0.6550 C.ar  1 <1>  -0.1500 
 12 N        2.2670     3.3690     0.5000 N.2   1 <1>  -0.4100 
 13 C        3.4680     3.2910     0.0510 C.2   1 <1>   0.1080 
 14 C        5.1070     1.4810    -0.8600 C.3   1 <1>  -0.0590 
 15 C        1.1580    -5.0060     0.0280 C.ar  1 <1>   0.1000 
 16 C       -1.0000    -5.0390    -1.2930 C.3   1 <1>  -0.0970 
 17 C        4.3860     4.4950    -0.0710 C.3   1 <1>   0.0210 
 18 N        1.1640    -6.3910     0.0470 N.pl3 1 <1>  -0.8380 
 19 C        5.2800     4.6420     1.1650 C.3   1 <1>  -0.2400 
 20 C        0.7990    -7.0650     1.3250 C.3   1 <1>   0.2090 
 21 C        2.2500    -7.1020    -0.6850 C.3   1 <1>   0.2090 
 22 C        0.5630    -8.5700     1.0990 C.3   1 <1>   0.1200 
 23 C        1.9330    -8.6040    -0.8030 C.3   1 <1>   0.1200 
 24 O        1.6600    -9.1600     0.4550 O.3   1 <1>  -0.5600 
 25 H        3.1810    -0.6590    -0.3370 H     1 <1>   0.3700 
 26 H       -0.6360    -2.3680    -1.0890 H     1 <1>   0.1500 
 27 H        2.9730    -2.3950     1.1590 H     1 <1>   0.1500 
 28 H        2.9520    -4.8360     1.1550 H     1 <1>   0.1500 
 29 H        5.0660     0.4240    -1.0490 H     1 <1>   0.0800 
 30 H        5.9020     1.6760    -0.1630 H     1 <1>   0.0800 
 31 H        5.3210     1.9860    -1.7850 H     1 <1>   0.0800 
 32 H       -1.6950    -4.3560    -1.7480 H     1 <1>   0.0800 
 33 H       -1.5260    -5.6400    -0.5750 H     1 <1>   0.0800 
 34 H       -0.6010    -5.6840    -2.0550 H     1 <1>   0.0800 
 35 H        3.7830     5.3800    -0.1810 H     1 <1>   0.0800 
 36 H        4.9920     4.4000    -0.9530 H     1 <1>   0.0800 
 37 H        4.6690     4.7530     2.0450 H     1 <1>   0.0800 
 38 H        5.9080     5.5090     1.0680 H     1 <1>   0.0800 
 39 H        5.9010     3.7730     1.2860 H     1 <1>   0.0800 
 40 H       -0.0940    -6.6150     1.7230 H     1 <1>   0.0800 
 41 H        1.5900    -6.9340     2.0410 H     1 <1>   0.0800 
 42 H        3.1820    -6.9780    -0.1620 H     1 <1>   0.0800 
 43 H        2.3540    -6.6770    -1.6680 H     1 <1>   0.0800 
 44 H       -0.3140    -8.7220     0.4940 H     1 <1>   0.0800 
 45 H        0.4270    -9.0700     2.0410 H     1 <1>   0.0800 
 46 H        2.7730    -9.1300    -1.2200 H     1 <1>   0.0800 
 47 H        1.0790    -8.7560    -1.4390 H     1 <1>   0.0800 
@<TRIPOS>BOND
  1   1   2  2   
  2   2   3  am  
  3   2   4  1   
  4   3   5  1   
  5   3  25  1   
  6   4   6  ar  
  7   4   7  ar  
  8   5   8  1   
  9   5   9  2   
 10   6  10  ar  
 11   6  26  1   
 12   7  11  ar  
 13   7  27  1   
 14   8  12  1   
 15   9  13  1   
 16   9  14  1   
 17  10  15  ar  
 18  10  16  1   
 19  11  15  ar  
 20  11  28  1   
 21  12  13  2   
 22  13  17  1   
 23  14  29  1   
 24  14  30  1   
 25  14  31  1   
 26  15  18  1   
 27  16  32  1   
 28  16  33  1   
 29  16  34  1   
 30  17  19  1   
 31  17  35  1   
 32  17  36  1   
 33  18  20  1   
 34  18  21  1   
 35  19  37  1   
 36  19  38  1   
 37  19  39  1   
 38  20  22  1   
 39  20  40  1   
 40  20  41  1   
 41  21  23  1   
 42  21  42  1   
 43  21  43  1   
 44  22  24  1   
 45  22  44  1   
 46  22  45  1   
 47  23  24  1   
 48  23  46  1   
 49  23  47  1   
@<TRIPOS>SUBSTRUCTURE
  1 ****   4 GROUP 4 **** **** 0

# MOE 2024.06 (io_trps.svl 2023.06)
