@<TRIPOS>MOLECULE
NONAME
47 50 1 0 0 
SMALL
USER_CHARGES


@<TRIPOS>ATOM
  1 O        0.2770    -0.4670     0.3880 O.3   1 <1>  -0.5600 
  2 C        0.0150    -1.7630    -0.0600 C.3   1 <1>   0.2000 
  3 C        0.0830     0.5310    -0.5800 C.3   1 <1>   0.2640 
  4 C       -0.5030    -2.5940     1.1250 C.3   1 <1>   0.2090 
  5 C        1.3120    -2.3590    -0.6310 C.3   1 <1>  -0.1600 
  6 C        0.4000     1.9290    -0.0510 C.ar  1 <1>   0.1660 
  7 N       -0.6510    -4.0320     0.7380 N.pl3 1 <1>  -0.8380 
  8 C        1.1180    -3.8460    -0.9750 C.3   1 <1>  -0.1600 
  9 N        0.2130     2.9150    -0.9200 N.ar  1 <1>  -0.6200 
 10 C        0.8490     2.1300     1.2490 C.ar  1 <1>  -0.1500 
 11 C       -1.8740    -4.5140     0.3290 C.ar  1 <1>   0.4100 
 12 C        0.5940    -4.6540     0.2190 C.3   1 <1>   0.2090 
 13 C        0.4830     4.1340    -0.4800 C.ar  1 <1>   0.1600 
 14 C        1.1260     3.4050     1.6930 C.ar  1 <1>  -0.1500 
 15 N       -2.5930    -3.7320    -0.4250 N.ar  1 <1>  -0.6200 
 16 C       -2.3120    -5.8130     0.6940 C.ar  1 <1>   0.0000 
 17 C        0.9340     4.4310     0.7940 C.ar  1 <1>  -0.1500 
 18 C       -3.7430    -4.2300    -0.8830 C.ar  1 <1>   0.4770 
 19 C       -3.5250    -6.2260     0.1340 C.ar  1 <1>   0.3100 
 20 C       -1.6420    -6.6910     1.5710 C.ar  1 <1>  -0.1500 
 21 N       -4.2360    -5.4060    -0.6660 N.ar  1 <1>  -0.6200 
 22 C       -4.5360    -3.2900    -1.7590 C.3   1 <1>  -0.0970 
 23 C       -4.0130    -7.5080     0.4220 C.ar  1 <1>  -0.1500 
 24 C       -2.1390    -7.9390     1.8450 C.ar  1 <1>  -0.1500 
 25 C       -3.3360    -8.3570     1.2600 C.ar  1 <1>  -0.1500 
 26 H       -0.7560    -1.7360    -0.8110 H     1 <1>   0.0800 
 27 H       -0.9450     0.5030    -0.8960 H     1 <1>   0.0800 
 28 H        0.7190     0.3260    -1.4220 H     1 <1>   0.0800 
 29 H       -1.4540    -2.2060     1.4430 H     1 <1>   0.0800 
 30 H        0.1900    -2.5230     1.9450 H     1 <1>   0.0800 
 31 H        2.0940    -2.2650     0.1020 H     1 <1>   0.0800 
 32 H        1.6030    -1.8260    -1.5180 H     1 <1>   0.0800 
 33 H        2.0510    -4.2650    -1.3040 H     1 <1>   0.0800 
 34 H        0.4130    -3.9390    -1.7830 H     1 <1>   0.0800 
 35 H        0.9830     1.2960     1.9140 H     1 <1>   0.1500 
 36 H        0.3990    -5.6670    -0.0930 H     1 <1>   0.0800 
 37 H        1.3310    -4.6770     1.0030 H     1 <1>   0.0800 
 38 H        0.3360     4.9430    -1.1750 H     1 <1>   0.1500 
 39 H        1.4750     3.5880     2.6950 H     1 <1>   0.1500 
 40 H        1.1300     5.4490     1.0750 H     1 <1>   0.1500 
 41 H       -0.7290    -6.3600     2.0310 H     1 <1>   0.1500 
 42 H       -4.7710    -2.4000    -1.2060 H     1 <1>   0.0800 
 43 H       -5.4490    -3.7550    -2.0810 H     1 <1>   0.0800 
 44 H       -3.9520    -3.0280    -2.6210 H     1 <1>   0.0800 
 45 H       -4.9390    -7.8040    -0.0340 H     1 <1>   0.1500 
 46 H       -1.6180    -8.6040     2.5120 H     1 <1>   0.1500 
 47 H       -3.7170    -9.3400     1.4770 H     1 <1>   0.1500 
@<TRIPOS>BOND
  1   1   2  1   
  2   1   3  1   
  3   2   4  1   
  4   2   5  1   
  5   2  26  1   
  6   3   6  1   
  7   3  27  1   
  8   3  28  1   
  9   4   7  1   
 10   4  29  1   
 11   4  30  1   
 12   5   8  1   
 13   5  31  1   
 14   5  32  1   
 15   6   9  ar  
 16   6  10  ar  
 17   7  11  1   
 18   7  12  1   
 19   8  12  1   
 20   8  33  1   
 21   8  34  1   
 22   9  13  ar  
 23  10  14  ar  
 24  10  35  1   
 25  11  15  ar  
 26  11  16  ar  
 27  12  36  1   
 28  12  37  1   
 29  13  17  ar  
 30  13  38  1   
 31  14  17  ar  
 32  14  39  1   
 33  15  18  ar  
 34  16  19  ar  
 35  16  20  ar  
 36  17  40  1   
 37  18  21  ar  
 38  18  22  1   
 39  19  21  ar  
 40  19  23  ar  
 41  20  24  ar  
 42  20  41  1   
 43  22  42  1   
 44  22  43  1   
 45  22  44  1   
 46  23  25  ar  
 47  23  45  1   
 48  24  25  ar  
 49  24  46  1   
 50  25  47  1   
@<TRIPOS>SUBSTRUCTURE
  1 ****   4 GROUP 4 **** **** 0

# MOE 2024.06 (io_trps.svl 2023.06)
