@<TRIPOS>MOLECULE
NONAME
39 41 1 0 0 
SMALL
USER_CHARGES


@<TRIPOS>ATOM
  1 CL       0.4860    -0.2550    -1.2840 Cl    1 <1>  -0.1230 
  2 C        2.1910    -0.3250    -0.8700 C.2   1 <1>   0.1230 
  3 C        3.0160     0.7370    -0.4840 C.2   1 <1>   0.2030 
  4 C        2.9440    -1.4360    -0.8710 C.2   1 <1>  -0.3020 
  5 N        4.2400     0.2730    -0.2560 N.2   1 <1>  -0.7070 
  6 C        2.6350     2.1280    -0.3440 C.2   1 <1>   0.7160 
  7 N        4.1780    -1.0480    -0.4970 N.pl3 1 <1>   0.3140 
  8 O        1.5030     2.5340    -0.5460 O.2   1 <1>  -0.5700 
  9 N        3.6280     2.9960     0.0380 N.am  1 <1>  -0.4940 
 10 C        5.3480    -1.9250    -0.3550 C.3   1 <1>   0.0160 
 11 C        3.6360     4.3970     0.2400 C.2   1 <1>  -0.0880 
 12 N        4.7100     5.1290     0.6560 N.pl3 1 <1>   0.3140 
 13 C        2.6220     5.2770     0.0730 C.2   1 <1>  -0.1500 
 14 N        4.3930     6.4450     0.7580 N.2   1 <1>  -0.7070 
 15 C        6.0780     4.6580     1.0230 C.3   1 <1>   0.2710 
 16 C        3.1500     6.5160     0.4060 C.2   1 <1>   0.1080 
 17 C        6.7500     3.8830    -0.1270 C.3   1 <1>  -0.1950 
 18 C        6.0530     3.8230     2.3110 C.3   1 <1>  -0.2400 
 19 C        2.3910     7.8210     0.3750 C.3   1 <1>  -0.0590 
 20 C        8.2210     4.0200    -0.3770 C.3   1 <1>  -0.2000 
 21 C        7.2330     4.5920    -1.3530 C.3   1 <1>  -0.2000 
 22 H        2.6770    -2.4480    -1.1100 H     1 <1>   0.1500 
 23 H        4.5110     2.4940     0.1600 H     1 <1>   0.3700 
 24 H        5.1430    -2.6710     0.3890 H     1 <1>   0.0800 
 25 H        6.1960    -1.3380    -0.0530 H     1 <1>   0.0800 
 26 H        5.5540    -2.3950    -1.2990 H     1 <1>   0.0800 
 27 H        1.6160     5.0770    -0.2470 H     1 <1>   0.1500 
 28 H        6.6600     5.5430     1.2130 H     1 <1>   0.0800 
 29 H        6.3500     2.8940    -0.2560 H     1 <1>   0.1000 
 30 H        5.4890     2.9180     2.1750 H     1 <1>   0.0800 
 31 H        5.6160     4.3970     3.1080 H     1 <1>   0.0800 
 32 H        7.0570     3.5600     2.5920 H     1 <1>   0.0800 
 33 H        1.3780     7.6590     0.0580 H     1 <1>   0.0800 
 34 H        2.8720     8.4980    -0.3070 H     1 <1>   0.0800 
 35 H        2.3890     8.2570     1.3570 H     1 <1>   0.0800 
 36 H        8.7830     3.1490    -0.6680 H     1 <1>   0.1000 
 37 H        8.8030     4.7050     0.2160 H     1 <1>   0.1000 
 38 H        7.1160     5.6610    -1.4130 H     1 <1>   0.1000 
 39 H        7.1020     4.1120    -2.3080 H     1 <1>   0.1000 
@<TRIPOS>BOND
  1   1   2  1   
  2   2   3  1   
  3   2   4  2   
  4   3   5  2   
  5   3   6  1   
  6   4   7  1   
  7   4  22  1   
  8   5   7  1   
  9   6   8  2   
 10   6   9  am  
 11   7  10  1   
 12   9  11  1   
 13   9  23  1   
 14  10  24  1   
 15  10  25  1   
 16  10  26  1   
 17  11  12  1   
 18  11  13  2   
 19  12  14  1   
 20  12  15  1   
 21  13  16  1   
 22  13  27  1   
 23  14  16  2   
 24  15  17  1   
 25  15  18  1   
 26  15  28  1   
 27  16  19  1   
 28  17  20  1   
 29  17  21  1   
 30  17  29  1   
 31  18  30  1   
 32  18  31  1   
 33  18  32  1   
 34  19  33  1   
 35  19  34  1   
 36  19  35  1   
 37  20  21  1   
 38  20  36  1   
 39  20  37  1   
 40  21  38  1   
 41  21  39  1   
@<TRIPOS>SUBSTRUCTURE
  1 ****   9 GROUP 4 **** **** 0

# MOE 2024.06 (io_trps.svl 2023.06)
