@<TRIPOS>MOLECULE
NONAME
40 42 1 0 0 
SMALL
USER_CHARGES


@<TRIPOS>ATOM
  1 F       -1.1390     1.1720    -0.0450 F     1 <1>  -0.3400 
  2 C       -2.3950     1.0870    -0.4650 C.3   1 <1>   0.6800 
  3 F       -2.5220     2.0670    -1.3460 F     1 <1>  -0.3400 
  4 C       -2.5910    -0.2540    -1.1660 C.3   1 <1>  -0.1600 
  5 C       -3.3310     1.3350     0.7140 C.3   1 <1>  -0.1600 
  6 C       -2.5430    -1.3870    -0.1410 C.3   1 <1>   0.1400 
  7 C       -3.2760     0.1550     1.6850 C.3   1 <1>   0.1400 
  8 N       -3.5400    -1.1050     0.9310 N.am  1 <1>  -0.6600 
  9 C       -4.5790    -1.9420     1.2800 C.2   1 <1>   0.5690 
 10 O       -5.2480    -1.7180     2.2650 O.2   1 <1>  -0.5700 
 11 C       -4.9400    -3.1640     0.4150 C.3   1 <1>   0.2610 
 12 O       -4.0020    -4.2110     0.6070 O.3   1 <1>  -0.5600 
 13 C       -6.3930    -3.6450     0.6780 C.3   1 <1>   0.3640 
 14 C       -4.1820    -5.3340    -0.2300 C.3   1 <1>   0.1810 
 15 N       -6.6220    -5.0100     0.1430 N.am  1 <1>  -0.7300 
 16 C       -7.3950    -2.6930     0.0330 C.ar  1 <1>  -0.1440 
 17 C       -5.6320    -5.8260    -0.2770 C.2   1 <1>   0.5690 
 18 C       -8.0250    -1.7260     0.8050 C.ar  1 <1>   0.1600 
 19 C       -7.6910    -2.7530    -1.3180 C.ar  1 <1>  -0.1500 
 20 O       -5.8830    -6.9190    -0.7140 O.2   1 <1>  -0.5700 
 21 N       -8.9010    -0.8440     0.3500 N.ar  1 <1>  -0.6200 
 22 C       -8.6020    -1.8420    -1.8060 C.ar  1 <1>  -0.1500 
 23 C       -9.1700    -0.9220    -0.9420 C.ar  1 <1>   0.1600 
 24 H       -3.5500    -0.2640    -1.6500 H     1 <1>   0.0800 
 25 H       -1.8260    -0.3900    -1.9090 H     1 <1>   0.0800 
 26 H       -3.0530     2.2430     1.2170 H     1 <1>   0.0800 
 27 H       -4.3390     1.4340     0.3550 H     1 <1>   0.0800 
 28 H       -1.5620    -1.4410     0.3010 H     1 <1>   0.0800 
 29 H       -2.7310    -2.3280    -0.6250 H     1 <1>   0.0800 
 30 H       -4.0030     0.3000     2.4670 H     1 <1>   0.0800 
 31 H       -2.3040     0.0950     2.1450 H     1 <1>   0.0800 
 32 H       -4.8760    -2.8620    -0.6140 H     1 <1>   0.0800 
 33 H       -6.5670    -3.6820     1.7410 H     1 <1>   0.0800 
 34 H       -3.8620    -5.0730    -1.2220 H     1 <1>   0.0800 
 35 H       -3.5520    -6.1220     0.1410 H     1 <1>   0.0800 
 36 H       -7.5840    -5.3550     0.1270 H     1 <1>   0.3700 
 37 H       -7.7970    -1.6670     1.8570 H     1 <1>   0.1500 
 38 H       -7.2390    -3.4790    -1.9720 H     1 <1>   0.1500 
 39 H       -8.8750    -1.8420    -2.8460 H     1 <1>   0.1500 
 40 H       -9.8830    -0.2160    -1.3330 H     1 <1>   0.1500 
@<TRIPOS>BOND
  1   1   2  1   
  2   2   3  1   
  3   2   4  1   
  4   2   5  1   
  5   4   6  1   
  6   4  24  1   
  7   4  25  1   
  8   5   7  1   
  9   5  26  1   
 10   5  27  1   
 11   6   8  1   
 12   6  28  1   
 13   6  29  1   
 14   7   8  1   
 15   7  30  1   
 16   7  31  1   
 17   8   9  am  
 18   9  10  2   
 19   9  11  1   
 20  11  12  1   
 21  11  13  1   
 22  11  32  1   
 23  12  14  1   
 24  13  15  1   
 25  13  16  1   
 26  13  33  1   
 27  14  17  1   
 28  14  34  1   
 29  14  35  1   
 30  15  17  am  
 31  15  36  1   
 32  16  18  ar  
 33  16  19  ar  
 34  17  20  2   
 35  18  21  ar  
 36  18  37  1   
 37  19  22  ar  
 38  19  38  1   
 39  21  23  ar  
 40  22  23  ar  
 41  22  39  1   
 42  23  40  1   
@<TRIPOS>SUBSTRUCTURE
  1 ****  11 GROUP 4 **** **** 0

# MOE 2024.06 (io_trps.svl 2023.06)
