@<TRIPOS>MOLECULE
NONAME
41 43 1 0 0 
SMALL
USER_CHARGES


@<TRIPOS>ATOM
  1 CL       0.9450    -0.2510    -2.1950 Cl    1 <1>  -0.1770 
  2 C        1.6880    -1.2890    -0.9870 C.ar  1 <1>   0.1770 
  3 C        1.1160    -2.4950    -0.5880 C.ar  1 <1>   0.4100 
  4 C        2.8750    -0.9160    -0.4200 C.ar  1 <1>   0.1600 
  5 N        1.7260    -3.2500     0.3120 N.ar  1 <1>  -0.6200 
  6 N       -0.0890    -2.9670    -1.0820 N.pl3 1 <1>  -0.8380 
  7 N        3.4850    -1.6630     0.4840 N.ar  1 <1>  -0.6200 
  8 C        2.8680    -2.7920     0.7910 C.ar  1 <1>   0.4770 
  9 C       -0.2940    -4.4350    -1.2960 C.3   1 <1>   0.2090 
 10 C       -1.3400    -2.2050    -0.8340 C.3   1 <1>   0.2090 
 11 C        3.5520    -3.6580     1.8200 C.3   1 <1>  -0.0960 
 12 C       -1.0340    -5.0620    -0.1040 C.3   1 <1>   0.2000 
 13 C       -2.0810    -2.8080     0.3650 C.3   1 <1>  -0.1600 
 14 O       -1.3350    -6.3870    -0.4250 O.3   1 <1>  -0.5600 
 15 C       -2.3440    -4.3130     0.1920 C.3   1 <1>  -0.1600 
 16 C       -1.4170    -7.2560     0.6630 C.3   1 <1>   0.2630 
 17 C       -1.7730    -8.6460     0.1660 C.ar  1 <1>  -0.1440 
 18 C       -1.1910    -9.1570    -0.9850 C.ar  1 <1>   0.1600 
 19 C       -2.6750    -9.4320     0.8570 C.ar  1 <1>  -0.1500 
 20 N       -1.4230   -10.3620    -1.4860 N.ar  1 <1>  -0.6200 
 21 C       -2.9330   -10.6870     0.3470 C.ar  1 <1>  -0.1500 
 22 C       -2.2900   -11.0960    -0.8090 C.ar  1 <1>   0.1600 
 23 H        3.3380     0.0100    -0.7110 H     1 <1>   0.1500 
 24 H        0.6570    -4.9210    -1.4240 H     1 <1>   0.0800 
 25 H       -0.8730    -4.5770    -2.1910 H     1 <1>   0.0800 
 26 H       -1.9590    -2.2490    -1.7140 H     1 <1>   0.0800 
 27 H       -1.1140    -1.1720    -0.6330 H     1 <1>   0.0800 
 28 H        3.2600    -4.6840     1.6970 H     1 <1>   0.0800 
 29 H        3.2760    -3.3270     2.8030 H     1 <1>   0.0800 
 30 H        4.6190    -3.5850     1.7110 H     1 <1>   0.0800 
 31 H       -0.3770    -5.0400     0.7490 H     1 <1>   0.0800 
 32 H       -3.0160    -2.2920     0.4970 H     1 <1>   0.0800 
 33 H       -1.4890    -2.6440     1.2490 H     1 <1>   0.0800 
 34 H       -2.7960    -4.6970     1.0870 H     1 <1>   0.0800 
 35 H       -3.0230    -4.4600    -0.6300 H     1 <1>   0.0800 
 36 H       -2.1710    -6.8950     1.3400 H     1 <1>   0.0800 
 37 H       -0.4610    -7.2770     1.1590 H     1 <1>   0.0800 
 38 H       -0.4940    -8.5370    -1.5250 H     1 <1>   0.1500 
 39 H       -3.1600    -9.0890     1.7540 H     1 <1>   0.1500 
 40 H       -3.6260   -11.3450     0.8380 H     1 <1>   0.1500 
 41 H       -2.4990   -12.0780    -1.1960 H     1 <1>   0.1500 
@<TRIPOS>BOND
  1   1   2  1   
  2   2   3  ar  
  3   2   4  ar  
  4   3   5  ar  
  5   3   6  1   
  6   4   7  ar  
  7   4  23  1   
  8   5   8  ar  
  9   6   9  1   
 10   6  10  1   
 11   7   8  ar  
 12   8  11  1   
 13   9  12  1   
 14   9  24  1   
 15   9  25  1   
 16  10  13  1   
 17  10  26  1   
 18  10  27  1   
 19  11  28  1   
 20  11  29  1   
 21  11  30  1   
 22  12  14  1   
 23  12  15  1   
 24  12  31  1   
 25  13  15  1   
 26  13  32  1   
 27  13  33  1   
 28  14  16  1   
 29  15  34  1   
 30  15  35  1   
 31  16  17  1   
 32  16  36  1   
 33  16  37  1   
 34  17  18  ar  
 35  17  19  ar  
 36  18  20  ar  
 37  18  38  1   
 38  19  21  ar  
 39  19  39  1   
 40  20  22  ar  
 41  21  22  ar  
 42  21  40  1   
 43  22  41  1   
@<TRIPOS>SUBSTRUCTURE
  1 ****  12 GROUP 4 **** **** 0

# MOE 2024.06 (io_trps.svl 2023.06)
