@<TRIPOS>MOLECULE
NONAME
45 48 1 0 0 
SMALL
USER_CHARGES


@<TRIPOS>ATOM
  1 CL      -1.5870    -0.2090     2.3200 Cl    1 <1>  -0.1770 
  2 C       -2.2280    -1.0500     0.9320 C.ar  1 <1>   0.1770 
  3 C       -2.6810    -0.3340    -0.1630 C.ar  1 <1>   0.1600 
  4 C       -2.2840    -2.4250     0.9340 C.ar  1 <1>  -0.1500 
  5 N       -3.1780    -0.8940    -1.2590 N.ar  1 <1>  -0.6200 
  6 C       -2.8080    -3.0420    -0.1940 C.ar  1 <1>   0.0860 
  7 C       -3.2140    -2.2200    -1.2460 C.ar  1 <1>   0.1600 
  8 C       -2.9270    -4.4800    -0.2890 C.2   1 <1>   0.5440 
  9 O       -1.9780    -5.1700     0.0250 O.2   1 <1>  -0.5700 
 10 N       -4.0870    -5.0870    -0.7180 N.am  1 <1>  -0.6600 
 11 C       -5.4470    -4.4650    -0.6290 C.3   1 <1>   0.1400 
 12 C       -4.1320    -6.5400    -1.0780 C.3   1 <1>   0.1400 
 13 C       -6.3760    -5.2900     0.2820 C.3   1 <1>   0.1900 
 14 C       -5.1010    -7.3080    -0.1650 C.3   1 <1>   0.1100 
 15 N       -6.4500    -6.6990    -0.1780 N.3   1 <1>  -0.8100 
 16 C       -7.7820    -4.6600     0.3270 C.3   1 <1>   0.1200 
 17 C       -7.4040    -7.4590     0.6660 C.3   1 <1>   0.3330 
 18 O       -8.6270    -5.4080     1.1530 O.3   1 <1>  -0.5600 
 19 C       -7.6070    -8.8740     0.1250 C.ar  1 <1>  -0.1430 
 20 C       -8.7690    -6.7400     0.7350 C.3   1 <1>   0.1200 
 21 C       -7.8440    -9.0930    -1.2250 C.ar  1 <1>  -0.1500 
 22 C       -7.5620    -9.9610     0.9860 C.ar  1 <1>  -0.1500 
 23 C       -8.0340   -10.3760    -1.7070 C.ar  1 <1>  -0.1500 
 24 C       -7.7510   -11.2450     0.5060 C.ar  1 <1>  -0.1500 
 25 C       -7.9880   -11.4540    -0.8410 C.ar  1 <1>  -0.1500 
 26 H       -2.6280     0.7400    -0.1330 H     1 <1>   0.1500 
 27 H       -1.9330    -3.0000     1.7730 H     1 <1>   0.1500 
 28 H       -3.5940    -2.6990    -2.1330 H     1 <1>   0.1500 
 29 H       -5.3820    -3.4660    -0.2370 H     1 <1>   0.0800 
 30 H       -5.8740    -4.4130    -1.6150 H     1 <1>   0.0800 
 31 H       -4.4600    -6.6400    -2.0970 H     1 <1>   0.0800 
 32 H       -3.1530    -6.9810    -1.0060 H     1 <1>   0.0800 
 33 H       -5.9720    -5.2610     1.2800 H     1 <1>   0.0800 
 34 H       -4.7070    -7.3180     0.8370 H     1 <1>   0.0800 
 35 H       -5.1550    -8.3250    -0.5120 H     1 <1>   0.0800 
 36 H       -8.2130    -4.6190    -0.6590 H     1 <1>   0.0800 
 37 H       -7.7350    -3.6640     0.7290 H     1 <1>   0.0800 
 38 H       -7.0140    -7.5200     1.6670 H     1 <1>   0.0800 
 39 H       -9.4110    -7.2390     1.4370 H     1 <1>   0.0800 
 40 H       -9.2440    -6.7480    -0.2300 H     1 <1>   0.0800 
 41 H       -7.8750    -8.2570    -1.9030 H     1 <1>   0.1500 
 42 H       -7.3790    -9.8150     2.0370 H     1 <1>   0.1500 
 43 H       -8.2170   -10.5340    -2.7560 H     1 <1>   0.1500 
 44 H       -7.7140   -12.0830     1.1800 H     1 <1>   0.1500 
 45 H       -8.1350   -12.4520    -1.2150 H     1 <1>   0.1500 
@<TRIPOS>BOND
  1   1   2  1   
  2   2   3  ar  
  3   2   4  ar  
  4   3   5  ar  
  5   3  26  1   
  6   4   6  ar  
  7   4  27  1   
  8   5   7  ar  
  9   6   7  ar  
 10   6   8  1   
 11   7  28  1   
 12   8   9  2   
 13   8  10  am  
 14  10  11  1   
 15  10  12  1   
 16  11  13  1   
 17  11  29  1   
 18  11  30  1   
 19  12  14  1   
 20  12  31  1   
 21  12  32  1   
 22  13  15  1   
 23  13  16  1   
 24  13  33  1   
 25  14  15  1   
 26  14  34  1   
 27  14  35  1   
 28  15  17  1   
 29  16  18  1   
 30  16  36  1   
 31  16  37  1   
 32  17  19  1   
 33  17  20  1   
 34  17  38  1   
 35  18  20  1   
 36  19  21  ar  
 37  19  22  ar  
 38  20  39  1   
 39  20  40  1   
 40  21  23  ar  
 41  21  41  1   
 42  22  24  ar  
 43  22  42  1   
 44  23  25  ar  
 45  23  43  1   
 46  24  25  ar  
 47  24  44  1   
 48  25  45  1   
@<TRIPOS>SUBSTRUCTURE
  1 ****  13 GROUP 4 **** **** 0

# MOE 2024.06 (io_trps.svl 2023.06)
