@<TRIPOS>MOLECULE
NONAME
41 43 1 0 0 
SMALL
USER_CHARGES


@<TRIPOS>ATOM
  1 O       -1.0360     0.5830     2.0500 O.2   1 <1>  -0.5700 
  2 C       -1.6680     1.0110     1.1010 C.2   1 <1>   0.6160 
  3 N       -2.6320     0.1920     0.5540 N.am  1 <1>  -0.6600 
  4 C       -1.4370     2.3630     0.6700 C.2   1 <1>   0.0290 
  5 C       -3.6810     0.5920    -0.4120 C.3   1 <1>   0.1400 
  6 C       -2.8550    -1.2080     1.0030 C.3   1 <1>   0.1400 
  7 C       -1.1860     2.6460    -0.7110 C.2   1 <1>   0.6160 
  8 C       -1.4270     3.4100     1.5600 C.2   1 <1>  -0.1500 
  9 C       -4.8220    -0.3860    -0.1500 C.3   1 <1>   0.2000 
 10 C       -4.1280    -1.6830     0.2800 C.3   1 <1>  -0.0800 
 11 O       -1.1500     1.8130    -1.6050 O.2   1 <1>  -0.5700 
 12 N       -0.9740     3.9470    -1.0840 N.am  1 <1>  -0.5390 
 13 C       -1.1990     4.7320     1.1230 C.2   1 <1>  -0.1500 
 14 O       -5.5570     0.0790     0.9280 O.3   1 <1>  -0.6800 
 15 C       -3.8030    -2.5680    -0.9410 C.3   1 <1>  -0.0170 
 16 C       -0.9760     4.9860    -0.1960 C.2   1 <1>  -0.0290 
 17 C       -3.3650    -3.9660    -0.5280 C.ar  1 <1>   0.1670 
 18 C       -0.7210     6.3730    -0.7490 C.3   1 <1>  -0.1020 
 19 N       -2.0700    -4.1540    -0.3370 N.ar  1 <1>  -0.6200 
 20 C       -4.3170    -4.9730    -0.3720 C.ar  1 <1>   0.1600 
 21 C       -1.7920    -5.3970     0.0170 C.ar  1 <1>   0.1600 
 22 N       -4.0430    -6.2180    -0.0170 N.ar  1 <1>  -0.6200 
 23 C       -2.7470    -6.3950     0.1720 C.ar  1 <1>   0.1600 
 24 H       -3.9910     1.6140    -0.2800 H     1 <1>   0.0800 
 25 H       -3.3060     0.4540    -1.4120 H     1 <1>   0.0800 
 26 H       -1.9940    -1.8110     0.7680 H     1 <1>   0.0800 
 27 H       -3.0020    -1.2170     2.0700 H     1 <1>   0.0800 
 28 H       -1.5890     3.2340     2.6110 H     1 <1>   0.1500 
 29 H       -5.4880    -0.4970    -0.9880 H     1 <1>   0.0800 
 30 H       -4.7570    -2.2450     0.9480 H     1 <1>   0.0800 
 31 H       -0.7920     4.0770    -2.0800 H     1 <1>   0.3700 
 32 H       -1.2040     5.5220     1.8540 H     1 <1>   0.1500 
 33 H       -4.9400     0.2800     1.6620 H     1 <1>   0.4000 
 34 H       -3.0300    -2.1130    -1.5370 H     1 <1>   0.0800 
 35 H       -4.6770    -2.6560    -1.5610 H     1 <1>   0.0800 
 36 H       -1.4740     6.6240    -1.4760 H     1 <1>   0.0800 
 37 H        0.2450     6.4100    -1.2190 H     1 <1>   0.0800 
 38 H       -0.7470     7.1060     0.0370 H     1 <1>   0.0800 
 39 H       -5.3520    -4.7390    -0.5460 H     1 <1>   0.1500 
 40 H       -0.7590    -5.6390     0.1940 H     1 <1>   0.1500 
 41 H       -2.4230    -7.3780     0.4640 H     1 <1>   0.1500 
@<TRIPOS>BOND
  1   1   2  2   
  2   2   3  am  
  3   2   4  1   
  4   3   5  1   
  5   3   6  1   
  6   4   7  1   
  7   4   8  2   
  8   5   9  1   
  9   5  24  1   
 10   5  25  1   
 11   6  10  1   
 12   6  26  1   
 13   6  27  1   
 14   7  11  2   
 15   7  12  am  
 16   8  13  1   
 17   8  28  1   
 18   9  10  1   
 19   9  14  1   
 20   9  29  1   
 21  10  15  1   
 22  10  30  1   
 23  12  16  1   
 24  12  31  1   
 25  13  16  2   
 26  13  32  1   
 27  14  33  1   
 28  15  17  1   
 29  15  34  1   
 30  15  35  1   
 31  16  18  1   
 32  17  19  ar  
 33  17  20  ar  
 34  18  36  1   
 35  18  37  1   
 36  18  38  1   
 37  19  21  ar  
 38  20  22  ar  
 39  20  39  1   
 40  21  23  ar  
 41  21  40  1   
 42  22  23  ar  
 43  23  41  1   
@<TRIPOS>SUBSTRUCTURE
  1 ****   3 GROUP 4 **** **** 0

# MOE 2024.06 (io_trps.svl 2023.06)
