@<TRIPOS>MOLECULE
NONAME
39 42 1 0 0 
SMALL
USER_CHARGES


@<TRIPOS>ATOM
  1 S        0.2000     0.4610    -0.4730 S.3   1 <1>  -0.0800 
  2 C       -1.3870     1.1840    -0.1680 C.2   1 <1>  -0.0450 
  3 C       -0.4600    -1.1540    -0.5250 C.2   1 <1>  -0.1100 
  4 C       -2.3150     0.1870    -0.1220 C.2   1 <1>  -0.1810 
  5 C       -1.4610     2.6180    -0.0050 C.2   1 <1>   0.7150 
  6 C       -1.7900    -1.1280    -0.3310 C.2   1 <1>  -0.1810 
  7 C       -3.7970     0.4050     0.1700 C.3   1 <1>   0.0210 
  8 O       -2.5150     3.1660     0.2710 O.2   1 <1>  -0.5700 
  9 N       -0.3340     3.3740    -0.1590 N.am  1 <1>  -0.4930 
 10 C       -2.6810    -2.3610    -0.3490 C.3   1 <1>   0.0210 
 11 C       -4.6600    -0.8170    -0.1710 C.3   1 <1>  -0.1600 
 12 C       -0.1540     4.7810    -0.0800 C.2   1 <1>   0.0630 
 13 C       -4.0190    -2.1070     0.3560 C.3   1 <1>  -0.1600 
 14 C        1.0450     5.4130    -0.0490 C.2   1 <1>  -0.0680 
 15 C       -1.1030     5.8060    -0.0450 C.2   1 <1>   0.1390 
 16 N        0.7650     6.7430    -0.0260 N.pl3 1 <1>   0.3140 
 17 N        2.3600     4.8880    -0.0370 N.pl3 1 <1>  -0.8530 
 18 N       -0.5650     6.9910    -0.0100 N.2   1 <1>  -0.7070 
 19 C        1.8000     7.7870     0.0350 C.3   1 <1>   0.0960 
 20 C        3.4510     5.8550     0.2640 C.3   1 <1>   0.2090 
 21 C        3.1620     7.2110    -0.3980 C.3   1 <1>  -0.1600 
 22 H        0.2220    -1.9660    -0.7070 H     1 <1>   0.1500 
 23 H       -4.1590     1.2570    -0.3780 H     1 <1>   0.0800 
 24 H       -3.9000     0.6240     1.2180 H     1 <1>   0.0800 
 25 H        0.5070     2.8650    -0.4220 H     1 <1>   0.3700 
 26 H       -2.1730    -3.1870     0.1160 H     1 <1>   0.0800 
 27 H       -2.8720    -2.6230    -1.3740 H     1 <1>   0.0800 
 28 H       -4.7730    -0.8840    -1.2390 H     1 <1>   0.0800 
 29 H       -5.6390    -0.6920     0.2590 H     1 <1>   0.0800 
 30 H       -3.8550    -2.0220     1.4160 H     1 <1>   0.0800 
 31 H       -4.6770    -2.9410     0.1840 H     1 <1>   0.0800 
 32 H       -2.1670     5.6380    -0.0500 H     1 <1>   0.1500 
 33 H        2.4440     4.0410     0.5390 H     1 <1>   0.4000 
 34 H        1.8470     8.1410     1.0480 H     1 <1>   0.0800 
 35 H        1.5070     8.5980    -0.6050 H     1 <1>   0.0800 
 36 H        4.3820     5.4620    -0.1080 H     1 <1>   0.0800 
 37 H        3.5320     5.9760     1.3310 H     1 <1>   0.0800 
 38 H        3.9410     7.9090    -0.1490 H     1 <1>   0.0800 
 39 H        3.1680     7.0830    -1.4660 H     1 <1>   0.0800 
@<TRIPOS>BOND
  1   1   2  1   
  2   1   3  1   
  3   2   4  2   
  4   2   5  1   
  5   3   6  2   
  6   3  22  1   
  7   4   6  1   
  8   4   7  1   
  9   5   8  2   
 10   5   9  am  
 11   6  10  1   
 12   7  11  1   
 13   7  23  1   
 14   7  24  1   
 15   9  12  1   
 16   9  25  1   
 17  10  13  1   
 18  10  26  1   
 19  10  27  1   
 20  11  13  1   
 21  11  28  1   
 22  11  29  1   
 23  12  14  2   
 24  12  15  1   
 25  13  30  1   
 26  13  31  1   
 27  14  16  1   
 28  14  17  1   
 29  15  18  2   
 30  15  32  1   
 31  16  18  1   
 32  16  19  1   
 33  17  20  1   
 34  17  33  1   
 35  19  21  1   
 36  19  34  1   
 37  19  35  1   
 38  20  21  1   
 39  20  36  1   
 40  20  37  1   
 41  21  38  1   
 42  21  39  1   
@<TRIPOS>SUBSTRUCTURE
  1 ****   9 GROUP 4 **** **** 0

# MOE 2024.06 (io_trps.svl 2023.06)
