@<TRIPOS>MOLECULE
NONAME
53 54 1 0 0 
SMALL
USER_CHARGES


@<TRIPOS>ATOM
  1 O       -0.3700    -0.6130     1.1690 O.2   1 <1>  -0.5700 
  2 C       -1.1240     0.3290     1.2550 C.2   1 <1>   0.5690 
  3 N       -2.4910     0.1540     1.2710 N.am  1 <1>  -0.6600 
  4 C       -0.4920     1.7150     1.3580 C.3   1 <1>   0.1810 
  5 C       -3.0990    -1.1530     0.8730 C.3   1 <1>   0.1400 
  6 C       -3.4790     1.2520     1.4590 C.3   1 <1>   0.1400 
  7 O       -0.9510     2.5580     0.3100 O.3   1 <1>  -0.3620 
  8 C       -3.9350    -0.9810    -0.4100 C.3   1 <1>   0.2000 
  9 C       -4.2500     1.4500     0.1510 C.3   1 <1>  -0.1600 
 10 C       -0.7490     3.8960     0.3430 C.ar  1 <1>   0.0830 
 11 O       -4.5420    -2.1970    -0.7160 O.3   1 <1>  -0.6800 
 12 C       -4.9890     0.1680    -0.3210 C.3   1 <1>   0.0000 
 13 C       -1.4580     4.6570    -0.5700 C.ar  1 <1>  -0.1500 
 14 C        0.1120     4.5260     1.2340 C.ar  1 <1>  -0.1500 
 15 C       -6.0900    -0.2300     0.7040 C.3   1 <1>   0.1200 
 16 C       -5.6730     0.4030    -1.7030 C.3   1 <1>  -0.1600 
 17 C       -1.3320     6.0360    -0.6030 C.ar  1 <1>  -0.1430 
 18 C        0.2420     5.9020     1.2060 C.ar  1 <1>  -0.1500 
 19 O       -7.0000     0.7960     0.9160 O.3   1 <1>  -0.6800 
 20 C       -4.7900     0.9160    -2.8630 C.3   1 <1>  -0.1600 
 21 C       -0.4750     6.6650     0.2950 C.ar  1 <1>  -0.1430 
 22 C       -2.1350     6.8270    -1.6260 C.3   1 <1>  -0.0970 
 23 C       -4.9030     2.4320    -3.0730 C.3   1 <1>  -0.2400 
 24 C       -0.3010     8.1780     0.3000 C.3   1 <1>  -0.0970 
 25 H        0.5760     1.6350     1.2770 H     1 <1>   0.0800 
 26 H       -0.7560     2.1560     2.3010 H     1 <1>   0.0800 
 27 H       -2.3290    -1.8820     0.6850 H     1 <1>   0.0800 
 28 H       -3.7090    -1.5110     1.6810 H     1 <1>   0.0800 
 29 H       -4.1470     0.9950     2.2620 H     1 <1>   0.0800 
 30 H       -2.9940     2.1720     1.7310 H     1 <1>   0.0800 
 31 H       -3.2450    -0.7790    -1.2090 H     1 <1>   0.0800 
 32 H       -4.9380     2.2680     0.2590 H     1 <1>   0.0800 
 33 H       -3.5280     1.7460    -0.5880 H     1 <1>   0.0800 
 34 H       -5.1730    -2.4640    -0.0220 H     1 <1>   0.4000 
 35 H       -2.1110     4.1510    -1.2570 H     1 <1>   0.1500 
 36 H        0.6900     3.9680     1.9460 H     1 <1>   0.1500 
 37 H       -5.6700    -0.4880     1.6590 H     1 <1>   0.0800 
 38 H       -6.6520    -1.0750     0.3430 H     1 <1>   0.0800 
 39 H       -6.1030    -0.5320    -2.0180 H     1 <1>   0.0800 
 40 H       -6.5020     1.0790    -1.5870 H     1 <1>   0.0800 
 41 H        0.9110     6.3800     1.9000 H     1 <1>   0.1500 
 42 H       -6.5390     1.6330     1.1140 H     1 <1>   0.4000 
 43 H       -3.7590     0.6460    -2.7250 H     1 <1>   0.0800 
 44 H       -5.1170     0.4380    -3.7700 H     1 <1>   0.0800 
 45 H       -2.7380     6.1740    -2.2310 H     1 <1>   0.0800 
 46 H       -1.4710     7.3700    -2.2740 H     1 <1>   0.0800 
 47 H       -2.7860     7.5220    -1.1270 H     1 <1>   0.0800 
 48 H       -4.5900     2.9760    -2.2020 H     1 <1>   0.0800 
 49 H       -5.9200     2.7030    -3.3000 H     1 <1>   0.0800 
 50 H       -4.2820     2.7320    -3.8990 H     1 <1>   0.0800 
 51 H        0.3950     8.4850     1.0590 H     1 <1>   0.0800 
 52 H       -1.2440     8.6570     0.4930 H     1 <1>   0.0800 
 53 H        0.0720     8.5080    -0.6530 H     1 <1>   0.0800 
@<TRIPOS>BOND
  1   1   2  2   
  2   2   3  am  
  3   2   4  1   
  4   3   5  1   
  5   3   6  1   
  6   4   7  1   
  7   4  25  1   
  8   4  26  1   
  9   5   8  1   
 10   5  27  1   
 11   5  28  1   
 12   6   9  1   
 13   6  29  1   
 14   6  30  1   
 15   7  10  1   
 16   8  11  1   
 17   8  12  1   
 18   8  31  1   
 19   9  12  1   
 20   9  32  1   
 21   9  33  1   
 22  10  13  ar  
 23  10  14  ar  
 24  11  34  1   
 25  12  15  1   
 26  12  16  1   
 27  13  17  ar  
 28  13  35  1   
 29  14  18  ar  
 30  14  36  1   
 31  15  19  1   
 32  15  37  1   
 33  15  38  1   
 34  16  20  1   
 35  16  39  1   
 36  16  40  1   
 37  17  21  ar  
 38  17  22  1   
 39  18  21  ar  
 40  18  41  1   
 41  19  42  1   
 42  20  23  1   
 43  20  43  1   
 44  20  44  1   
 45  21  24  1   
 46  22  45  1   
 47  22  46  1   
 48  22  47  1   
 49  23  48  1   
 50  23  49  1   
 51  23  50  1   
 52  24  51  1   
 53  24  52  1   
 54  24  53  1   
@<TRIPOS>SUBSTRUCTURE
  1 ****   9 GROUP 4 **** **** 0

# MOE 2024.06 (io_trps.svl 2023.06)
