@<TRIPOS>MOLECULE
NONAME
48 50 1 0 0 
SMALL
USER_CHARGES


@<TRIPOS>ATOM
  1 O       -1.8020     0.8520    -1.5210 O.2   1 <1>  -0.5700 
  2 C       -1.7500     0.8870    -0.3070 C.2   1 <1>   0.5440 
  3 N       -2.0030    -0.2650     0.3790 N.am  1 <1>  -0.7300 
  4 C       -1.4250     2.1170     0.3980 C.ar  1 <1>   0.0860 
  5 C       -2.3540    -1.5650    -0.2350 C.3   1 <1>   0.2200 
  6 C       -0.6530     3.1060    -0.2110 C.ar  1 <1>  -0.1500 
  7 C       -1.8660     2.3610     1.7000 C.ar  1 <1>  -0.1500 
  8 C       -3.8500    -1.7850    -0.1040 C.3   1 <1>  -0.0800 
  9 C       -1.7970    -2.7000     0.6170 C.3   1 <1>   0.1200 
 10 C       -0.3150     4.2840     0.4370 C.ar  1 <1>  -0.1430 
 11 C       -1.5380     3.5300     2.3610 C.ar  1 <1>  -0.1500 
 12 C       -3.9720    -2.3740     1.3070 C.3   1 <1>   0.1200 
 13 C       -4.3770    -2.7440    -1.1870 C.3   1 <1>  -0.0160 
 14 O       -2.7180    -2.8920     1.6490 O.3   1 <1>  -0.5600 
 15 C       -0.7630     4.4870     1.7320 C.ar  1 <1>  -0.1500 
 16 C        0.5360     5.3500    -0.2510 C.3   1 <1>   0.0630 
 17 C       -5.8830    -2.9320    -1.0760 C.ar  1 <1>  -0.1430 
 18 C       -0.1690     5.8900    -1.5000 C.3   1 <1>  -0.2400 
 19 C        1.9210     4.7990    -0.6040 C.3   1 <1>  -0.2400 
 20 C       -6.7650    -1.9470    -1.4710 C.ar  1 <1>  -0.1500 
 21 C       -6.4450    -4.0900    -0.5780 C.ar  1 <1>  -0.1500 
 22 C       -8.1280    -2.1590    -1.3470 C.ar  1 <1>   0.1600 
 23 C       -7.8230    -4.2020    -0.4960 C.ar  1 <1>   0.1600 
 24 N       -8.6780    -3.2630    -0.8670 N.ar  1 <1>  -0.6200 
 25 H       -1.9270    -0.2870     1.3980 H     1 <1>   0.3700 
 26 H       -2.0020    -1.6080    -1.2520 H     1 <1>   0.0800 
 27 H       -0.3150     2.9350    -1.2180 H     1 <1>   0.1500 
 28 H       -2.4780     1.6350     2.2020 H     1 <1>   0.1500 
 29 H       -4.3850    -0.8540    -0.1800 H     1 <1>   0.0800 
 30 H       -0.8300    -2.4740     1.0290 H     1 <1>   0.0800 
 31 H       -1.7480    -3.6120     0.0490 H     1 <1>   0.0800 
 32 H       -1.8860     3.6990     3.3650 H     1 <1>   0.1500 
 33 H       -4.7040    -3.1580     1.3760 H     1 <1>   0.0800 
 34 H       -4.2090    -1.6030     2.0200 H     1 <1>   0.0800 
 35 H       -3.8870    -3.6990    -1.1130 H     1 <1>   0.0800 
 36 H       -4.1540    -2.3390    -2.1590 H     1 <1>   0.0800 
 37 H       -0.5150     5.3930     2.2580 H     1 <1>   0.1500 
 38 H        0.6750     6.1740     0.4280 H     1 <1>   0.0800 
 39 H       -0.2900     5.1160    -2.2370 H     1 <1>   0.0800 
 40 H        0.4010     6.6910    -1.9330 H     1 <1>   0.0800 
 41 H       -1.1420     6.2650    -1.2360 H     1 <1>   0.0800 
 42 H        1.8450     4.0030    -1.3230 H     1 <1>   0.0800 
 43 H        2.3990     4.4180     0.2800 H     1 <1>   0.0800 
 44 H        2.5370     5.5770    -1.0180 H     1 <1>   0.0800 
 45 H       -6.4060    -1.0180    -1.8730 H     1 <1>   0.1500 
 46 H       -5.8270    -4.9070    -0.2520 H     1 <1>   0.1500 
 47 H       -8.8010    -1.3790    -1.6600 H     1 <1>   0.1500 
 48 H       -8.2440    -5.1120    -0.1040 H     1 <1>   0.1500 
@<TRIPOS>BOND
  1   1   2  2   
  2   2   3  am  
  3   2   4  1   
  4   3   5  1   
  5   3  25  1   
  6   4   6  ar  
  7   4   7  ar  
  8   5   8  1   
  9   5   9  1   
 10   5  26  1   
 11   6  10  ar  
 12   6  27  1   
 13   7  11  ar  
 14   7  28  1   
 15   8  12  1   
 16   8  13  1   
 17   8  29  1   
 18   9  14  1   
 19   9  30  1   
 20   9  31  1   
 21  10  15  ar  
 22  10  16  1   
 23  11  15  ar  
 24  11  32  1   
 25  12  14  1   
 26  12  33  1   
 27  12  34  1   
 28  13  17  1   
 29  13  35  1   
 30  13  36  1   
 31  15  37  1   
 32  16  18  1   
 33  16  19  1   
 34  16  38  1   
 35  17  20  ar  
 36  17  21  ar  
 37  18  39  1   
 38  18  40  1   
 39  18  41  1   
 40  19  42  1   
 41  19  43  1   
 42  19  44  1   
 43  20  22  ar  
 44  20  45  1   
 45  21  23  ar  
 46  21  46  1   
 47  22  24  ar  
 48  22  47  1   
 49  23  24  ar  
 50  23  48  1   
@<TRIPOS>SUBSTRUCTURE
  1 ****   3 GROUP 4 **** **** 0

# MOE 2024.06 (io_trps.svl 2023.06)
