@<TRIPOS>MOLECULE
NONAME
50 53 1 0 0 
SMALL
USER_CHARGES


@<TRIPOS>ATOM
  1 F        1.4370     0.7890     1.8850 F     1 <1>  -0.1900 
  2 C        2.3810     1.3180     1.1540 C.ar  1 <1>   0.1900 
  3 C        3.0120     0.5320     0.2140 C.ar  1 <1>  -0.1500 
  4 C        2.7110     2.6440     1.3520 C.ar  1 <1>  -0.1500 
  5 C        4.0160     1.0950    -0.5600 C.ar  1 <1>   0.1170 
  6 C        3.7090     3.2040     0.5720 C.ar  1 <1>  -0.1500 
  7 N        4.6920     0.3260    -1.5090 N.am  1 <1>  -0.5470 
  8 C        4.3640     2.4390    -0.3890 C.ar  1 <1>  -0.1430 
  9 C        5.8540     0.6850    -2.1010 C.2   1 <1>   0.5690 
 10 C        5.4510     3.0270    -1.3070 C.3   1 <1>   0.1250 
 11 O        6.3570     0.0150    -2.9630 O.2   1 <1>  -0.5700 
 12 C        6.5140     1.9640    -1.6460 C.3   1 <1>  -0.0990 
 13 C        6.1010     4.2980    -0.7580 C.2   1 <1>   0.5690 
 14 O        6.9930     4.2010     0.0540 O.2   1 <1>  -0.5700 
 15 N        5.6360     5.5080    -1.2110 N.am  1 <1>  -0.4940 
 16 C        5.9280     6.8440    -0.8310 C.2   1 <1>  -0.0880 
 17 N        7.1080     7.3940    -0.4110 N.pl3 1 <1>   0.3140 
 18 C        5.0270     7.8550    -0.8360 C.2   1 <1>  -0.1500 
 19 N        6.9600     8.7140    -0.1390 N.2   1 <1>  -0.7070 
 20 C        8.4400     6.7550    -0.2550 C.3   1 <1>   0.1760 
 21 C        5.7180     8.9740    -0.3980 C.2   1 <1>   0.1390 
 22 C        8.7280     6.5190     1.2350 C.3   1 <1>  -0.1600 
 23 C        9.5640     7.5980    -0.8790 C.3   1 <1>  -0.1600 
 24 C       10.0810     5.8450     1.4110 C.3   1 <1>   0.3430 
 25 C       10.9180     6.9310    -0.6590 C.3   1 <1>   0.3430 
 26 N       11.1400     6.7040     0.8000 N.4   1 <1>  -0.9590 
 27 C       12.4980     6.1350     1.0540 C.3   1 <1>   0.2630 
 28 H        2.7290    -0.4970     0.0960 H     1 <1>   0.1500 
 29 H        2.1960     3.2200     2.0990 H     1 <1>   0.1500 
 30 H        3.9560     4.2400     0.7340 H     1 <1>   0.1500 
 31 H        4.3210    -0.5840    -1.7880 H     1 <1>   0.3700 
 32 H        4.9640     3.2830    -2.2310 H     1 <1>   0.0800 
 33 H        7.1700     2.3230    -2.4180 H     1 <1>   0.0800 
 34 H        7.1020     1.7370    -0.7760 H     1 <1>   0.0800 
 35 H        4.8260     5.4390    -1.8310 H     1 <1>   0.3700 
 36 H        3.9870     7.8330    -1.1080 H     1 <1>   0.1500 
 37 H        8.4230     5.8210    -0.7800 H     1 <1>   0.0800 
 38 H        5.2820     9.9540    -0.2820 H     1 <1>   0.1500 
 39 H        7.9680     5.8890     1.6610 H     1 <1>   0.0800 
 40 H        8.7150     7.4530     1.7700 H     1 <1>   0.0800 
 41 H        9.5830     8.5850    -0.4490 H     1 <1>   0.0800 
 42 H        9.3880     7.7000    -1.9360 H     1 <1>   0.0800 
 43 H       10.0670     4.8770     0.9350 H     1 <1>   0.0800 
 44 H       10.2770     5.7050     2.4620 H     1 <1>   0.0800 
 45 H       11.6970     7.5620    -1.0570 H     1 <1>   0.0800 
 46 H       10.9450     5.9880    -1.1820 H     1 <1>   0.0800 
 47 H       11.0820     7.6250     1.2620 H     1 <1>   0.4500 
 48 H       12.5930     5.1680     0.5880 H     1 <1>   0.0800 
 49 H       12.6650     6.0240     2.1140 H     1 <1>   0.0800 
 50 H       13.2580     6.7870     0.6550 H     1 <1>   0.0800 
@<TRIPOS>BOND
  1   1   2  1   
  2   2   3  ar  
  3   2   4  ar  
  4   3   5  ar  
  5   3  28  1   
  6   4   6  ar  
  7   4  29  1   
  8   5   7  1   
  9   5   8  ar  
 10   6   8  ar  
 11   6  30  1   
 12   7   9  am  
 13   7  31  1   
 14   8  10  1   
 15   9  11  2   
 16   9  12  1   
 17  10  12  1   
 18  10  13  1   
 19  10  32  1   
 20  12  33  1   
 21  12  34  1   
 22  13  14  2   
 23  13  15  am  
 24  15  16  1   
 25  15  35  1   
 26  16  17  1   
 27  16  18  2   
 28  17  19  1   
 29  17  20  1   
 30  18  21  1   
 31  18  36  1   
 32  19  21  2   
 33  20  22  1   
 34  20  23  1   
 35  20  37  1   
 36  21  38  1   
 37  22  24  1   
 38  22  39  1   
 39  22  40  1   
 40  23  25  1   
 41  23  41  1   
 42  23  42  1   
 43  24  26  1   
 44  24  43  1   
 45  24  44  1   
 46  25  26  1   
 47  25  45  1   
 48  25  46  1   
 49  26  27  1   
 50  26  47  1   
 51  27  48  1   
 52  27  49  1   
 53  27  50  1   
@<TRIPOS>SUBSTRUCTURE
  1 ****  13 GROUP 4 **** **** 0

# MOE 2024.06 (io_trps.svl 2023.06)
