@<TRIPOS>MOLECULE
NONAME
45 47 1 0 0 
SMALL
USER_CHARGES


@<TRIPOS>ATOM
  1 O       -1.3860     0.6320    -1.7170 O.co2 1 <1>  -0.9000 
  2 C       -0.5730     0.8850    -0.8150 C.2   1 <1>   0.9060 
  3 O        0.3750     0.1560    -0.5240 O.co2 1 <1>  -0.9000 
  4 C       -0.8240     2.1700    -0.0120 C.3   1 <1>   0.3170 
  5 N       -2.3070     2.5590    -0.0120 N.4   1 <1>  -0.9590 
  6 C        0.0650     3.2650    -0.6350 C.3   1 <1>   0.1100 
  7 C       -2.5510     3.9630     0.4360 C.3   1 <1>   0.3430 
  8 C       -3.0990     1.5420     0.7340 C.3   1 <1>   0.2630 
  9 N       -0.2080     4.6170    -0.0910 N.3   1 <1>  -0.8100 
 10 C       -1.6310     4.9680    -0.2790 C.3   1 <1>   0.1100 
 11 C        0.6960     5.6110    -0.6990 C.3   1 <1>   0.2910 
 12 C        0.4880     6.9830    -0.0790 C.2   1 <1>  -0.1810 
 13 C        0.6880     7.3400     1.2500 C.2   1 <1>   0.1080 
 14 C        0.0660     8.1200    -0.6700 C.2   1 <1>  -0.3020 
 15 N        0.4090     8.5830     1.4700 N.2   1 <1>  -0.7070 
 16 C        1.1700     6.4120     2.3430 C.3   1 <1>  -0.0590 
 17 N        0.0240     9.0960     0.2730 N.pl3 1 <1>   0.5930 
 18 C       -0.3880    10.4490     0.0870 C.ar  1 <1>  -0.0230 
 19 C       -1.0240    11.1420     1.1140 C.ar  1 <1>  -0.1500 
 20 C       -0.1690    11.1100    -1.1200 C.ar  1 <1>  -0.1500 
 21 C       -1.4400    12.4500     0.9380 C.ar  1 <1>  -0.1500 
 22 C       -0.5850    12.4180    -1.2980 C.ar  1 <1>  -0.1500 
 23 C       -1.2230    13.0890    -0.2700 C.ar  1 <1>  -0.1500 
 24 H       -0.4920     1.9920     0.9940 H     1 <1>   0.0800 
 25 H       -2.5450     2.4260    -1.0140 H     1 <1>   0.4500 
 26 H       -0.0810     3.2640    -1.7030 H     1 <1>   0.0800 
 27 H        1.0940     3.0030    -0.4500 H     1 <1>   0.0800 
 28 H       -2.3670     4.0380     1.4950 H     1 <1>   0.0800 
 29 H       -3.5780     4.2300     0.2550 H     1 <1>   0.0800 
 30 H       -2.8060     1.5270     1.7710 H     1 <1>   0.0800 
 31 H       -2.9270     0.5630     0.3110 H     1 <1>   0.0800 
 32 H       -4.1510     1.7630     0.6670 H     1 <1>   0.0800 
 33 H       -1.8230     5.9430     0.1360 H     1 <1>   0.0800 
 34 H       -1.8710     4.9990    -1.3280 H     1 <1>   0.0800 
 35 H        0.5230     5.6650    -1.7610 H     1 <1>   0.0800 
 36 H        1.7180     5.3120    -0.5390 H     1 <1>   0.0800 
 37 H       -0.2120     8.3000    -1.6900 H     1 <1>   0.1500 
 38 H        2.0940     5.9500     2.0510 H     1 <1>   0.0800 
 39 H        0.4350     5.6500     2.5210 H     1 <1>   0.0800 
 40 H        1.3280     6.9650     3.2510 H     1 <1>   0.0800 
 41 H       -1.1920    10.6510     2.0580 H     1 <1>   0.1500 
 42 H        0.3330    10.6070    -1.9280 H     1 <1>   0.1500 
 43 H       -1.9310    12.9700     1.7420 H     1 <1>   0.1500 
 44 H       -0.4120    12.9160    -2.2360 H     1 <1>   0.1500 
 45 H       -1.5460    14.1060    -0.4070 H     1 <1>   0.1500 
@<TRIPOS>BOND
  1   1   2  ar  
  2   2   3  ar  
  3   2   4  1   
  4   4   5  1   
  5   4   6  1   
  6   4  24  1   
  7   5   7  1   
  8   5   8  1   
  9   5  25  1   
 10   6   9  1   
 11   6  26  1   
 12   6  27  1   
 13   7  10  1   
 14   7  28  1   
 15   7  29  1   
 16   8  30  1   
 17   8  31  1   
 18   8  32  1   
 19   9  10  1   
 20   9  11  1   
 21  10  33  1   
 22  10  34  1   
 23  11  12  1   
 24  11  35  1   
 25  11  36  1   
 26  12  13  1   
 27  12  14  2   
 28  13  15  2   
 29  13  16  1   
 30  14  17  1   
 31  14  37  1   
 32  15  17  1   
 33  16  38  1   
 34  16  39  1   
 35  16  40  1   
 36  17  18  1   
 37  18  19  ar  
 38  18  20  ar  
 39  19  21  ar  
 40  19  41  1   
 41  20  22  ar  
 42  20  42  1   
 43  21  23  ar  
 44  21  43  1   
 45  22  23  ar  
 46  22  44  1   
 47  23  45  1   
@<TRIPOS>SUBSTRUCTURE
  1 ****  12 GROUP 4 **** **** 0

# MOE 2024.06 (io_trps.svl 2023.06)
