@<TRIPOS>MOLECULE
NONAME
55 59 1 0 0 
SMALL
USER_CHARGES


@<TRIPOS>ATOM
  1 O       -1.4630     0.5670     2.8520 O.2   1 <1>  -0.5700 
  2 C       -2.4160     1.1500     2.3690 C.2   1 <1>   0.5440 
  3 N       -3.6450     0.5220     2.3620 N.am  1 <1>  -0.6600 
  4 C       -2.2250     2.4700     1.7960 C.ar  1 <1>   0.0860 
  5 C       -4.7080     0.7990     1.3580 C.3   1 <1>   0.1400 
  6 C       -3.9210    -0.6690     3.2130 C.3   1 <1>   0.1400 
  7 C       -1.1550     2.7270     0.9430 C.ar  1 <1>  -0.1500 
  8 C       -3.0940     3.5230     2.0790 C.ar  1 <1>  -0.1500 
  9 C       -4.8500    -0.4180     0.4420 C.3   1 <1>  -0.1600 
 10 C       -4.0600    -1.9020     2.3210 C.3   1 <1>  -0.1600 
 11 C       -0.9640     3.9810     0.3720 C.ar  1 <1>   0.0820 
 12 C       -2.9170     4.7730     1.5150 C.ar  1 <1>  -0.1500 
 13 C       -5.1260    -1.6990     1.2410 C.3   1 <1>   0.4600 
 14 O        0.0710     4.2580    -0.4650 O.3   1 <1>  -0.3630 
 15 C       -1.8570     5.0100     0.6570 C.ar  1 <1>  -0.1440 
 16 O       -6.3590    -1.5640     1.9180 O.3   1 <1>  -0.5600 
 17 C       -5.1860    -2.9150     0.3250 C.2   1 <1>  -0.3320 
 18 C        1.1190     3.3370    -0.6750 C.3   1 <1>   0.0400 
 19 C       -1.6730     6.3890     0.0410 C.3   1 <1>  -0.0970 
 20 C       -7.5430    -1.8140     1.1990 C.3   1 <1>   0.1200 
 21 N       -4.1440    -3.4510    -0.3810 N.pl3 1 <1>   0.0330 
 22 C       -6.2990    -3.6370     0.0910 C.2   1 <1>  -0.1810 
 23 C       -7.6150    -3.2790     0.7340 C.3   1 <1>   0.0210 
 24 C       -4.6160    -4.5400    -1.0730 C.ar  1 <1>  -0.1520 
 25 C       -5.9730    -4.6850    -0.7950 C.ar  1 <1>   0.0000 
 26 C       -3.9630    -5.4260    -1.9330 C.ar  1 <1>  -0.1500 
 27 C       -6.6920    -5.7320    -1.3800 C.ar  1 <1>  -0.1500 
 28 C       -4.6820    -6.4510    -2.5030 C.ar  1 <1>  -0.1500 
 29 C       -6.0470    -6.6040    -2.2270 C.ar  1 <1>  -0.1500 
 30 H       -4.4650     1.6620     0.7640 H     1 <1>   0.0800 
 31 H       -5.6370     0.9870     1.8700 H     1 <1>   0.0800 
 32 H       -4.8340    -0.5070     3.7610 H     1 <1>   0.0800 
 33 H       -3.1280    -0.8190     3.9270 H     1 <1>   0.0800 
 34 H       -0.4800     1.9170     0.7430 H     1 <1>   0.1500 
 35 H       -3.9150     3.3540     2.7530 H     1 <1>   0.1500 
 36 H       -3.9350    -0.5360    -0.1080 H     1 <1>   0.0800 
 37 H       -5.6310    -0.2540    -0.2750 H     1 <1>   0.0800 
 38 H       -4.3180    -2.7590     2.9160 H     1 <1>   0.0800 
 39 H       -3.1070    -2.0950     1.8650 H     1 <1>   0.0800 
 40 H       -3.6090     5.5630     1.7520 H     1 <1>   0.1500 
 41 H        1.8490     3.8030    -1.3120 H     1 <1>   0.0800 
 42 H        0.7230     2.4600    -1.1540 H     1 <1>   0.0800 
 43 H        1.5640     3.0920     0.2740 H     1 <1>   0.0800 
 44 H       -0.7240     6.7970     0.3420 H     1 <1>   0.0800 
 45 H       -2.4500     7.0630     0.3510 H     1 <1>   0.0800 
 46 H       -1.6900     6.3140    -1.0320 H     1 <1>   0.0800 
 47 H       -7.5770    -1.1530     0.3520 H     1 <1>   0.0800 
 48 H       -8.3730    -1.5900     1.8460 H     1 <1>   0.0800 
 49 H       -3.1740    -3.1210    -0.3870 H     1 <1>   0.2700 
 50 H       -8.4180    -3.3970     0.0290 H     1 <1>   0.0800 
 51 H       -7.7960    -3.9230     1.5750 H     1 <1>   0.0800 
 52 H       -2.9150    -5.3030    -2.1390 H     1 <1>   0.1500 
 53 H       -7.7370    -5.8370    -1.1580 H     1 <1>   0.1500 
 54 H       -4.2020    -7.1480    -3.1680 H     1 <1>   0.1500 
 55 H       -6.5860    -7.4140    -2.6850 H     1 <1>   0.1500 
@<TRIPOS>BOND
  1   1   2  2   
  2   2   3  am  
  3   2   4  1   
  4   3   5  1   
  5   3   6  1   
  6   4   7  ar  
  7   4   8  ar  
  8   5   9  1   
  9   5  30  1   
 10   5  31  1   
 11   6  10  1   
 12   6  32  1   
 13   6  33  1   
 14   7  11  ar  
 15   7  34  1   
 16   8  12  ar  
 17   8  35  1   
 18   9  13  1   
 19   9  36  1   
 20   9  37  1   
 21  10  13  1   
 22  10  38  1   
 23  10  39  1   
 24  11  14  1   
 25  11  15  ar  
 26  12  15  ar  
 27  12  40  1   
 28  13  16  1   
 29  13  17  1   
 30  14  18  1   
 31  15  19  1   
 32  16  20  1   
 33  17  21  1   
 34  17  22  2   
 35  18  41  1   
 36  18  42  1   
 37  18  43  1   
 38  19  44  1   
 39  19  45  1   
 40  19  46  1   
 41  20  23  1   
 42  20  47  1   
 43  20  48  1   
 44  21  24  1   
 45  21  49  1   
 46  22  23  1   
 47  22  25  1   
 48  23  50  1   
 49  23  51  1   
 50  24  25  ar  
 51  24  26  ar  
 52  25  27  ar  
 53  26  28  ar  
 54  26  52  1   
 55  27  29  ar  
 56  27  53  1   
 57  28  29  ar  
 58  28  54  1   
 59  29  55  1   
@<TRIPOS>SUBSTRUCTURE
  1 ****   9 GROUP 4 **** **** 0

# MOE 2024.06 (io_trps.svl 2023.06)
