@<TRIPOS>MOLECULE
NONAME
47 49 1 0 0 
SMALL
USER_CHARGES


@<TRIPOS>ATOM
  1 O       -1.1150     0.1830     2.8090 O.2   1 <1>  -0.5700 
  2 C       -1.6680     0.8810     1.9940 C.2   1 <1>   0.5690 
  3 N       -2.5400     0.3670     1.0760 N.am  1 <1>  -0.6600 
  4 C       -1.3480     2.3660     2.0080 C.3   1 <1>  -0.0990 
  5 C       -3.2110     1.0870    -0.0390 C.3   1 <1>   0.1400 
  6 C       -2.8950    -1.0680     1.0320 C.3   1 <1>   0.1400 
  7 C       -0.2240     2.7120     1.0180 C.3   1 <1>  -0.1600 
  8 C       -4.0710     0.0370    -0.7560 C.3   1 <1>   0.2000 
  9 C       -3.4110    -1.2960    -0.3890 C.3   1 <1>  -0.0800 
 10 C        0.1000     4.2120     1.0330 C.3   1 <1>   0.0960 
 11 O       -5.3710     0.0570    -0.2370 O.3   1 <1>  -0.5600 
 12 C       -4.3300    -2.5240    -0.5210 C.3   1 <1>   0.0200 
 13 N        1.0260     4.5490    -0.0640 N.pl3 1 <1>   0.3140 
 14 C       -6.2390     0.9640    -0.8400 C.3   1 <1>   0.0400 
 15 C       -3.5990    -3.8430    -0.3260 C.2   1 <1>  -0.0400 
 16 N        0.6140     4.7450    -1.3090 N.2   1 <1>  -0.7070 
 17 C        2.3530     4.6970    -0.0240 C.2   1 <1>   0.0360 
 18 O       -4.2910    -4.9510    -0.3410 O.3   1 <1>  -0.0190 
 19 C       -2.3110    -4.1700    -0.1320 C.2   1 <1>  -0.1500 
 20 C        1.7200     4.9980    -1.9290 C.2   1 <1>   0.3660 
 21 N        2.8310     4.9820    -1.1810 N.2   1 <1>  -0.5650 
 22 N       -3.5380    -5.9990    -0.1650 N.2   1 <1>  -0.4100 
 23 C       -2.3400    -5.5580    -0.0350 C.2   1 <1>   0.1080 
 24 C       -1.1290    -6.4350     0.1940 C.3   1 <1>  -0.0590 
 25 H       -2.2370     2.9250     1.7840 H     1 <1>   0.0800 
 26 H       -1.0420     2.6300     3.0050 H     1 <1>   0.0800 
 27 H       -3.8100     1.9000     0.3310 H     1 <1>   0.0800 
 28 H       -2.4640     1.4600    -0.7160 H     1 <1>   0.0800 
 29 H       -2.0420    -1.6840     1.2610 H     1 <1>   0.0800 
 30 H       -3.6740    -1.2530     1.7530 H     1 <1>   0.0800 
 31 H       -0.5280     2.4280     0.0250 H     1 <1>   0.0800 
 32 H        0.6580     2.1500     1.2730 H     1 <1>   0.0800 
 33 H       -4.1100     0.1870    -1.8220 H     1 <1>   0.0800 
 34 H       -2.5600    -1.4280    -1.0330 H     1 <1>   0.0800 
 35 H        0.5470     4.4930     1.9690 H     1 <1>   0.0800 
 36 H       -0.7970     4.7870     0.8920 H     1 <1>   0.0800 
 37 H       -4.7790    -2.5290    -1.4980 H     1 <1>   0.0800 
 38 H       -5.1260    -2.4640     0.2020 H     1 <1>   0.0800 
 39 H       -7.1910     0.8940    -0.3420 H     1 <1>   0.0800 
 40 H       -6.3570     0.7070    -1.8780 H     1 <1>   0.0800 
 41 H       -5.8510     1.9620    -0.7360 H     1 <1>   0.0800 
 42 H        2.9310     4.5850     0.8750 H     1 <1>   0.1500 
 43 H       -1.4360    -3.5510    -0.0630 H     1 <1>   0.1500 
 44 H        1.7720     5.2130    -2.9850 H     1 <1>   0.1500 
 45 H       -0.6450    -6.1550     1.1110 H     1 <1>   0.0800 
 46 H       -0.4390    -6.3240    -0.6220 H     1 <1>   0.0800 
 47 H       -1.4300    -7.4650     0.2590 H     1 <1>   0.0800 
@<TRIPOS>BOND
  1   1   2  2   
  2   2   3  am  
  3   2   4  1   
  4   3   5  1   
  5   3   6  1   
  6   4   7  1   
  7   4  25  1   
  8   4  26  1   
  9   5   8  1   
 10   5  27  1   
 11   5  28  1   
 12   6   9  1   
 13   6  29  1   
 14   6  30  1   
 15   7  10  1   
 16   7  31  1   
 17   7  32  1   
 18   8   9  1   
 19   8  11  1   
 20   8  33  1   
 21   9  12  1   
 22   9  34  1   
 23  10  13  1   
 24  10  35  1   
 25  10  36  1   
 26  11  14  1   
 27  12  15  1   
 28  12  37  1   
 29  12  38  1   
 30  13  16  1   
 31  13  17  1   
 32  14  39  1   
 33  14  40  1   
 34  14  41  1   
 35  15  18  1   
 36  15  19  2   
 37  16  20  2   
 38  17  21  2   
 39  17  42  1   
 40  18  22  1   
 41  19  23  1   
 42  19  43  1   
 43  20  21  1   
 44  20  44  1   
 45  22  23  2   
 46  23  24  1   
 47  24  45  1   
 48  24  46  1   
 49  24  47  1   
@<TRIPOS>SUBSTRUCTURE
  1 ****   3 GROUP 4 **** **** 0

# MOE 2024.06 (io_trps.svl 2023.06)
