@<TRIPOS>MOLECULE
NONAME
48 50 1 0 0 
SMALL
USER_CHARGES


@<TRIPOS>ATOM
  1 F        0.6130    -0.6780     1.5420 F     1 <1>  -0.1900 
  2 C        0.3490    -1.8170     0.9640 C.ar  1 <1>   0.1900 
  3 C        0.9580    -2.9620     1.4380 C.ar  1 <1>  -0.1500 
  4 C       -0.5280    -1.8370    -0.1020 C.ar  1 <1>  -0.1500 
  5 C        0.6730    -4.1710     0.8250 C.ar  1 <1>  -0.1500 
  6 C       -0.8090    -3.0500    -0.7100 C.ar  1 <1>  -0.1500 
  7 C       -0.2170    -4.2200    -0.2440 C.ar  1 <1>  -0.1430 
  8 C       -0.5450    -5.5480    -0.8990 C.3   1 <1>   0.4870 
  9 N       -1.4590    -6.3040     0.0080 N.4   1 <1>  -0.9590 
 10 C       -1.6000    -7.7420    -0.4310 C.3   1 <1>   0.3430 
 11 C       -2.7810    -5.6100     0.0970 C.3   1 <1>   0.3430 
 12 C       -2.6050    -8.5730     0.4330 C.3   1 <1>   0.4230 
 13 C       -3.7110    -6.3790     1.0400 C.3   1 <1>  -0.1600 
 14 N       -2.7450   -10.0460     0.0480 N.4   1 <1>  -0.9590 
 15 C       -3.9720    -7.8500     0.6140 C.3   1 <1>   0.0000 
 16 C       -3.9490   -10.7180     0.6490 C.3   1 <1>   0.3430 
 17 C       -2.7270   -10.3230    -1.4300 C.3   1 <1>   0.2630 
 18 C       -4.7520    -8.5550     1.7600 C.3   1 <1>  -0.1600 
 19 C       -4.8660    -7.8650    -0.6610 C.3   1 <1>   0.1200 
 20 C       -4.3720   -10.0390     1.9520 C.3   1 <1>  -0.1600 
 21 O       -4.1570    -7.4770    -1.7900 O.3   1 <1>  -0.6800 
 22 H        1.6420    -2.8990     2.2670 H     1 <1>   0.1500 
 23 H       -0.9730    -0.9190    -0.4450 H     1 <1>   0.1500 
 24 H        1.1600    -5.0590     1.1910 H     1 <1>   0.1500 
 25 H       -1.4880    -3.0610    -1.5460 H     1 <1>   0.1500 
 26 H        0.3700    -6.0970    -1.0550 H     1 <1>   0.0800 
 27 H       -1.0130    -5.3850    -1.8570 H     1 <1>   0.0800 
 28 H       -1.0250    -6.2410     0.9400 H     1 <1>   0.4500 
 29 H       -1.9340    -7.7550    -1.4540 H     1 <1>   0.0800 
 30 H       -0.6350    -8.2180    -0.3900 H     1 <1>   0.0800 
 31 H       -2.6460    -4.6070     0.4720 H     1 <1>   0.0800 
 32 H       -3.2290    -5.5410    -0.8820 H     1 <1>   0.0800 
 33 H       -2.1720    -8.5760     1.4200 H     1 <1>   0.0800 
 34 H       -3.2800    -6.3420     2.0270 H     1 <1>   0.0800 
 35 H       -4.6470    -5.8500     1.0960 H     1 <1>   0.0800 
 36 H       -1.9350   -10.5400     0.4540 H     1 <1>   0.4500 
 37 H       -4.7760   -10.6740    -0.0420 H     1 <1>   0.0800 
 38 H       -3.7350   -11.7600     0.8340 H     1 <1>   0.0800 
 39 H       -3.5510    -9.8290    -1.9190 H     1 <1>   0.0800 
 40 H       -2.8120   -11.3830    -1.6120 H     1 <1>   0.0800 
 41 H       -1.8070    -9.9800    -1.8740 H     1 <1>   0.0800 
 42 H       -4.5830    -8.0620     2.7040 H     1 <1>   0.0800 
 43 H       -5.8120    -8.4830     1.5780 H     1 <1>   0.0800 
 44 H       -5.6980    -7.1890    -0.5430 H     1 <1>   0.0800 
 45 H       -5.2660    -8.8450    -0.8510 H     1 <1>   0.0800 
 46 H       -5.2150   -10.5660     2.3650 H     1 <1>   0.0800 
 47 H       -3.5720   -10.1280     2.6670 H     1 <1>   0.0800 
 48 H       -4.7750    -7.3420    -2.5470 H     1 <1>   0.4000 
@<TRIPOS>BOND
  1   1   2  1   
  2   2   3  ar  
  3   2   4  ar  
  4   3   5  ar  
  5   3  22  1   
  6   4   6  ar  
  7   4  23  1   
  8   5   7  ar  
  9   5  24  1   
 10   6   7  ar  
 11   6  25  1   
 12   7   8  1   
 13   8   9  1   
 14   8  26  1   
 15   8  27  1   
 16   9  10  1   
 17   9  11  1   
 18   9  28  1   
 19  10  12  1   
 20  10  29  1   
 21  10  30  1   
 22  11  13  1   
 23  11  31  1   
 24  11  32  1   
 25  12  14  1   
 26  12  15  1   
 27  12  33  1   
 28  13  15  1   
 29  13  34  1   
 30  13  35  1   
 31  14  16  1   
 32  14  17  1   
 33  14  36  1   
 34  15  18  1   
 35  15  19  1   
 36  16  20  1   
 37  16  37  1   
 38  16  38  1   
 39  17  39  1   
 40  17  40  1   
 41  17  41  1   
 42  18  20  1   
 43  18  42  1   
 44  18  43  1   
 45  19  21  1   
 46  19  44  1   
 47  19  45  1   
 48  20  46  1   
 49  20  47  1   
 50  21  48  1   
@<TRIPOS>SUBSTRUCTURE
  1 ****   9 GROUP 4 **** **** 0

# MOE 2024.06 (io_trps.svl 2023.06)
