@<TRIPOS>MOLECULE
NONAME
50 53 1 0 0 
SMALL
USER_CHARGES


@<TRIPOS>ATOM
  1 S        1.9700    -1.1040     1.6070 S.3   1 <1>  -0.0800 
  2 C        0.7890    -0.5830     0.4290 C.2   1 <1>   0.1980 
  3 C        1.6660    -2.7480     1.1490 C.2   1 <1>  -0.1100 
  4 N        0.2480    -1.5400    -0.2130 N.2   1 <1>  -0.5650 
  5 C        0.5470     0.9200     0.3100 C.3   1 <1>   0.1000 
  6 C        0.7300    -2.8010     0.1750 C.2   1 <1>   0.1410 
  7 C       -0.3550     1.4120     1.4490 C.3   1 <1>  -0.2400 
  8 C       -0.0730     1.2900    -1.0450 C.3   1 <1>  -0.2400 
  9 C        0.2270    -4.0270    -0.4400 C.2   1 <1>   0.7160 
 10 O       -0.2920    -4.0470    -1.5420 O.2   1 <1>  -0.5700 
 11 N        0.3190    -5.2130     0.2360 N.am  1 <1>  -0.7300 
 12 C       -0.2520    -6.4870    -0.2490 C.3   1 <1>   0.2200 
 13 C       -1.7220    -6.5490     0.1390 C.3   1 <1>  -0.0800 
 14 C        0.3280    -7.6510     0.5420 C.3   1 <1>   0.1200 
 15 C       -1.6930    -7.2070     1.5260 C.3   1 <1>   0.1200 
 16 C       -2.5380    -7.3600    -0.8860 C.3   1 <1>  -0.0170 
 17 O       -0.3930    -7.6800     1.7330 O.3   1 <1>  -0.5600 
 18 C       -4.0300    -7.3050    -0.5770 C.ar  1 <1>  -0.1440 
 19 C       -4.8100    -6.1530    -0.8370 C.ar  1 <1>   0.0000 
 20 C       -4.6610    -8.3850    -0.0330 C.ar  1 <1>  -0.1500 
 21 C       -6.1840    -6.1990    -0.4930 C.ar  1 <1>   0.3100 
 22 C       -4.3130    -4.9610    -1.4170 C.ar  1 <1>  -0.1500 
 23 C       -6.0280    -8.3280     0.2620 C.ar  1 <1>   0.1600 
 24 N       -6.7750    -7.2910     0.0540 N.ar  1 <1>  -0.6200 
 25 C       -6.9810    -5.0670    -0.7250 C.ar  1 <1>  -0.1500 
 26 C       -5.1190    -3.8760    -1.6300 C.ar  1 <1>  -0.1500 
 27 C       -6.4700    -3.9250    -1.2790 C.ar  1 <1>  -0.1500 
 28 H        2.2240    -3.5160     1.6510 H     1 <1>   0.1500 
 29 H        1.5000     1.4160     0.3850 H     1 <1>   0.0800 
 30 H       -1.3100     0.9170     1.4040 H     1 <1>   0.0800 
 31 H       -0.5100     2.4730     1.3740 H     1 <1>   0.0800 
 32 H        0.0960     1.1980     2.4010 H     1 <1>   0.0800 
 33 H       -1.0350     0.8210    -1.1560 H     1 <1>   0.0800 
 34 H        0.5620     0.9500    -1.8440 H     1 <1>   0.0800 
 35 H       -0.1930     2.3550    -1.1290 H     1 <1>   0.0800 
 36 H        0.5260    -5.2040     1.2350 H     1 <1>   0.3700 
 37 H       -0.0830    -6.5890    -1.3080 H     1 <1>   0.0800 
 38 H       -2.1410    -5.5620     0.2120 H     1 <1>   0.0800 
 39 H        1.3760    -7.5330     0.7530 H     1 <1>   0.0800 
 40 H        0.1590    -8.5830     0.0320 H     1 <1>   0.0800 
 41 H       -2.3750    -8.0360     1.6040 H     1 <1>   0.0800 
 42 H       -1.9110    -6.4910     2.2990 H     1 <1>   0.0800 
 43 H       -2.2030    -8.3820    -0.8900 H     1 <1>   0.0800 
 44 H       -2.3730    -6.9720    -1.8760 H     1 <1>   0.0800 
 45 H       -4.1350    -9.2970     0.1850 H     1 <1>   0.1500 
 46 H       -3.2790    -4.8940    -1.7010 H     1 <1>   0.1500 
 47 H       -6.4870    -9.2030     0.6920 H     1 <1>   0.1500 
 48 H       -8.0180    -5.1290    -0.4500 H     1 <1>   0.1500 
 49 H       -4.7220    -2.9750    -2.0680 H     1 <1>   0.1500 
 50 H       -7.0920    -3.0640    -1.4510 H     1 <1>   0.1500 
@<TRIPOS>BOND
  1   1   2  1   
  2   1   3  1   
  3   2   4  2   
  4   2   5  1   
  5   3   6  2   
  6   3  28  1   
  7   4   6  1   
  8   5   7  1   
  9   5   8  1   
 10   5  29  1   
 11   6   9  1   
 12   7  30  1   
 13   7  31  1   
 14   7  32  1   
 15   8  33  1   
 16   8  34  1   
 17   8  35  1   
 18   9  10  2   
 19   9  11  am  
 20  11  12  1   
 21  11  36  1   
 22  12  13  1   
 23  12  14  1   
 24  12  37  1   
 25  13  15  1   
 26  13  16  1   
 27  13  38  1   
 28  14  17  1   
 29  14  39  1   
 30  14  40  1   
 31  15  17  1   
 32  15  41  1   
 33  15  42  1   
 34  16  18  1   
 35  16  43  1   
 36  16  44  1   
 37  18  19  ar  
 38  18  20  ar  
 39  19  21  ar  
 40  19  22  ar  
 41  20  23  ar  
 42  20  45  1   
 43  21  24  ar  
 44  21  25  ar  
 45  22  26  ar  
 46  22  46  1   
 47  23  24  ar  
 48  23  47  1   
 49  25  27  ar  
 50  25  48  1   
 51  26  27  ar  
 52  26  49  1   
 53  27  50  1   
@<TRIPOS>SUBSTRUCTURE
  1 ****  13 GROUP 4 **** **** 0

# MOE 2024.06 (io_trps.svl 2023.06)
