@<TRIPOS>MOLECULE
NONAME
50 52 1 0 0 
SMALL
USER_CHARGES


@<TRIPOS>ATOM
  1 O        0.4870     0.3140    -0.3550 O.3   1 <1>  -0.5600 
  2 C        1.5570     0.7280    -1.1350 C.3   1 <1>   0.2000 
  3 C       -0.1270    -0.8820    -0.7590 C.3   1 <1>   0.2640 
  4 C        2.8360     0.0930    -0.5740 C.3   1 <1>  -0.1600 
  5 C        1.6060     2.2540    -1.0530 C.3   1 <1>  -0.1600 
  6 C       -1.0910    -1.4090     0.3010 C.ar  1 <1>   0.1660 
  7 C        4.0760     0.6920    -1.2380 C.3   1 <1>   0.2090 
  8 C        2.8760     2.8070    -1.7000 C.3   1 <1>   0.2090 
  9 N       -1.3710    -2.7040     0.2190 N.ar  1 <1>  -0.6200 
 10 C       -1.6250    -0.5670     1.2680 C.ar  1 <1>  -0.1500 
 11 N        4.0670     2.1730    -1.0420 N.pl3 1 <1>  -0.8380 
 12 C       -2.2070    -3.1720     1.1320 C.ar  1 <1>   0.1600 
 13 C       -2.4940    -1.0690     2.2120 C.ar  1 <1>  -0.1500 
 14 C        4.9770     2.9180    -0.3550 C.ar  1 <1>   0.7710 
 15 C       -2.7870    -2.4120     2.1340 C.ar  1 <1>  -0.1500 
 16 N        4.9650     4.2350    -0.4710 N.ar  1 <1>  -0.6200 
 17 N        5.8670     2.2950     0.4350 N.ar  1 <1>  -0.1790 
 18 C        5.8480     4.9440     0.2060 C.ar  1 <1>   0.4100 
 19 C        6.8140     2.9770     1.1190 C.ar  1 <1>   0.2110 
 20 N        5.7560     6.2930     0.0820 N.pl3 1 <1>  -0.8380 
 21 C        6.8370     4.3280     1.0150 C.ar  1 <1>  -0.1430 
 22 C        5.4540     6.9300    -1.2330 C.3   1 <1>   0.1290 
 23 C        5.5500     7.1940     1.2490 C.3   1 <1>   0.1290 
 24 C        7.9200     5.1390     1.7240 C.3   1 <1>  -0.0970 
 25 H        1.3940     0.4290    -2.1580 H     1 <1>   0.0800 
 26 H        0.6310    -1.6250    -0.9310 H     1 <1>   0.0800 
 27 H       -0.6630    -0.7020    -1.6730 H     1 <1>   0.0800 
 28 H        2.8240    -0.9670    -0.7510 H     1 <1>   0.0800 
 29 H        2.8830     0.2610     0.4870 H     1 <1>   0.0800 
 30 H        1.5780     2.5660    -0.0240 H     1 <1>   0.0800 
 31 H        0.7480     2.6650    -1.5530 H     1 <1>   0.0800 
 32 H        4.0540     0.4780    -2.2950 H     1 <1>   0.0800 
 33 H        4.9630     0.2360    -0.8370 H     1 <1>   0.0800 
 34 H        2.8770     3.8790    -1.6000 H     1 <1>   0.0800 
 35 H        2.8840     2.5800    -2.7530 H     1 <1>   0.0800 
 36 H       -1.3630     0.4760     1.2830 H     1 <1>   0.1500 
 37 H       -2.4440    -4.2210     1.0800 H     1 <1>   0.1500 
 38 H       -2.9210    -0.4400     2.9740 H     1 <1>   0.1500 
 39 H       -3.4570    -2.8690     2.8390 H     1 <1>   0.1500 
 40 H        5.7630     1.2910     0.4980 H     1 <1>   0.4570 
 41 H        7.5220     2.4270     1.7180 H     1 <1>   0.1500 
 42 H        5.6920     6.2560    -2.0380 H     1 <1>   0.0800 
 43 H        6.0380     7.8260    -1.3500 H     1 <1>   0.0800 
 44 H        4.4070     7.1770    -1.2860 H     1 <1>   0.0800 
 45 H        5.4440     6.6220     2.1530 H     1 <1>   0.0800 
 46 H        4.6530     7.7730     1.1110 H     1 <1>   0.0800 
 47 H        6.3870     7.8640     1.3460 H     1 <1>   0.0800 
 48 H        8.3180     5.8840     1.0560 H     1 <1>   0.0800 
 49 H        8.7340     4.5120     2.0430 H     1 <1>   0.0800 
 50 H        7.5160     5.6340     2.5890 H     1 <1>   0.0800 
@<TRIPOS>BOND
  1   1   2  1   
  2   1   3  1   
  3   2   4  1   
  4   2   5  1   
  5   2  25  1   
  6   3   6  1   
  7   3  26  1   
  8   3  27  1   
  9   4   7  1   
 10   4  28  1   
 11   4  29  1   
 12   5   8  1   
 13   5  30  1   
 14   5  31  1   
 15   6   9  ar  
 16   6  10  ar  
 17   7  11  1   
 18   7  32  1   
 19   7  33  1   
 20   8  11  1   
 21   8  34  1   
 22   8  35  1   
 23   9  12  ar  
 24  10  13  ar  
 25  10  36  1   
 26  11  14  1   
 27  12  15  ar  
 28  12  37  1   
 29  13  15  ar  
 30  13  38  1   
 31  14  16  ar  
 32  14  17  ar  
 33  15  39  1   
 34  16  18  ar  
 35  17  19  ar  
 36  17  40  1   
 37  18  20  1   
 38  18  21  ar  
 39  19  21  ar  
 40  19  41  1   
 41  20  22  1   
 42  20  23  1   
 43  21  24  1   
 44  22  42  1   
 45  22  43  1   
 46  22  44  1   
 47  23  45  1   
 48  23  46  1   
 49  23  47  1   
 50  24  48  1   
 51  24  49  1   
 52  24  50  1   
@<TRIPOS>SUBSTRUCTURE
  1 ****   5 GROUP 4 **** **** 0

# MOE 2024.06 (io_trps.svl 2023.06)
