@<TRIPOS>MOLECULE
NONAME
58 61 1 0 0 
SMALL
USER_CHARGES


@<TRIPOS>ATOM
  1 O       -0.2280    -2.4120    -2.9090 O.2   1 <1>  -0.5700 
  2 C        0.3510    -2.6760    -1.8670 C.2   1 <1>   0.5440 
  3 N        0.4540    -1.6740    -0.9210 N.am  1 <1>  -0.6600 
  4 C        0.9050    -4.0170    -1.6950 C.ar  1 <1>   0.3960 
  5 C        1.2620    -1.7390     0.3200 C.3   1 <1>   0.1400 
  6 C       -0.0470    -0.3000    -1.1500 C.3   1 <1>   0.1400 
  7 N        0.8350    -4.6490    -0.5090 N.ar  1 <1>  -0.6200 
  8 C        1.4830    -4.6270    -2.8130 C.ar  1 <1>   0.1600 
  9 C        1.1330    -0.3570     0.9520 C.3   1 <1>  -0.1600 
 10 C        0.7670     0.5710    -0.2020 C.3   1 <1>  -0.1600 
 11 C        1.3480    -5.8590    -0.5290 C.ar  1 <1>   0.4100 
 12 N        2.0220    -5.8400    -2.8390 N.ar  1 <1>  -0.6200 
 13 N        1.2150    -6.5200     0.6630 N.pl3 1 <1>  -0.8690 
 14 C        1.9440    -6.4280    -1.6640 C.ar  1 <1>   0.1600 
 15 C        0.4120    -7.7580     0.7440 C.3   1 <1>   0.2090 
 16 C       -1.0110    -7.4310     1.2270 C.3   1 <1>  -0.0800 
 17 C       -1.8910    -8.6800     1.3250 C.3   1 <1>   0.3430 
 18 C       -1.7780    -6.4690     0.3080 C.3   1 <1>  -0.1600 
 19 N       -3.1100    -8.3930     0.5190 N.4   1 <1>  -0.9590 
 20 C       -3.2210    -6.9210     0.3900 C.3   1 <1>   0.3430 
 21 C       -4.3540    -9.0280     1.0340 C.3   1 <1>   0.4860 
 22 C       -5.4700    -8.7650     0.0400 C.ar  1 <1>  -0.1430 
 23 C       -6.5130    -7.8860     0.3230 C.ar  1 <1>  -0.1430 
 24 C       -5.4370    -9.4190    -1.1850 C.ar  1 <1>  -0.1500 
 25 C       -7.4900    -7.6620    -0.6350 C.ar  1 <1>  -0.1500 
 26 C       -6.6350    -7.1620     1.6590 C.3   1 <1>  -0.0970 
 27 C       -6.4180    -9.1900    -2.1310 C.ar  1 <1>  -0.1500 
 28 C       -7.4440    -8.3070    -1.8570 C.ar  1 <1>  -0.1500 
 29 H        2.2880    -1.9450     0.0670 H     1 <1>   0.0800 
 30 H        0.8890    -2.5000     0.9840 H     1 <1>   0.0800 
 31 H       -1.0920    -0.2630    -0.8980 H     1 <1>   0.0800 
 32 H        0.0880     0.0000    -2.1770 H     1 <1>   0.0800 
 33 H        1.4970    -4.0720    -3.7360 H     1 <1>   0.1500 
 34 H        2.0390    -0.0580     1.4480 H     1 <1>   0.0800 
 35 H        0.3320    -0.3770     1.6710 H     1 <1>   0.0800 
 36 H        0.2120     1.4340     0.1230 H     1 <1>   0.0800 
 37 H        1.6590     0.8970    -0.7070 H     1 <1>   0.0800 
 38 H        1.0070    -5.8540     1.4130 H     1 <1>   0.4000 
 39 H        2.3650    -7.4110    -1.5690 H     1 <1>   0.1500 
 40 H        0.8920    -8.4330     1.4340 H     1 <1>   0.0800 
 41 H        0.3780    -8.2340    -0.2220 H     1 <1>   0.0800 
 42 H       -0.9440    -7.0070     2.2140 H     1 <1>   0.0800 
 43 H       -2.1540    -8.8510     2.3570 H     1 <1>   0.0800 
 44 H       -1.3820    -9.5510     0.9440 H     1 <1>   0.0800 
 45 H       -1.4470    -6.5590    -0.7120 H     1 <1>   0.0800 
 46 H       -1.6700    -5.4420     0.6110 H     1 <1>   0.0800 
 47 H       -2.9740    -8.7470    -0.4370 H     1 <1>   0.4500 
 48 H       -3.7890    -6.6350    -0.4830 H     1 <1>   0.0800 
 49 H       -3.6820    -6.5040     1.2710 H     1 <1>   0.0800 
 50 H       -4.6070    -8.6250     2.0000 H     1 <1>   0.0800 
 51 H       -4.2150   -10.0920     1.1340 H     1 <1>   0.0800 
 52 H       -4.6550   -10.1200    -1.4220 H     1 <1>   0.1500 
 53 H       -8.3050    -6.9850    -0.4390 H     1 <1>   0.1500 
 54 H       -5.8290    -6.4650     1.7910 H     1 <1>   0.0800 
 55 H       -6.6350    -7.8680     2.4710 H     1 <1>   0.0800 
 56 H       -7.5580    -6.6110     1.7110 H     1 <1>   0.0800 
 57 H       -6.3900    -9.6980    -3.0810 H     1 <1>   0.1500 
 58 H       -8.2100    -8.1260    -2.5910 H     1 <1>   0.1500 
@<TRIPOS>BOND
  1   1   2  2   
  2   2   3  am  
  3   2   4  1   
  4   3   5  1   
  5   3   6  1   
  6   4   7  ar  
  7   4   8  ar  
  8   5   9  1   
  9   5  29  1   
 10   5  30  1   
 11   6  10  1   
 12   6  31  1   
 13   6  32  1   
 14   7  11  ar  
 15   8  12  ar  
 16   8  33  1   
 17   9  10  1   
 18   9  34  1   
 19   9  35  1   
 20  10  36  1   
 21  10  37  1   
 22  11  13  1   
 23  11  14  ar  
 24  12  14  ar  
 25  13  15  1   
 26  13  38  1   
 27  14  39  1   
 28  15  16  1   
 29  15  40  1   
 30  15  41  1   
 31  16  17  1   
 32  16  18  1   
 33  16  42  1   
 34  17  19  1   
 35  17  43  1   
 36  17  44  1   
 37  18  20  1   
 38  18  45  1   
 39  18  46  1   
 40  19  20  1   
 41  19  21  1   
 42  19  47  1   
 43  20  48  1   
 44  20  49  1   
 45  21  22  1   
 46  21  50  1   
 47  21  51  1   
 48  22  23  ar  
 49  22  24  ar  
 50  23  25  ar  
 51  23  26  1   
 52  24  27  ar  
 53  24  52  1   
 54  25  28  ar  
 55  25  53  1   
 56  26  54  1   
 57  26  55  1   
 58  26  56  1   
 59  27  28  ar  
 60  27  57  1   
 61  28  58  1   
@<TRIPOS>SUBSTRUCTURE
  1 ****  18 GROUP 4 **** **** 0

# MOE 2024.06 (io_trps.svl 2023.06)
