@<TRIPOS>MOLECULE
NONAME
43 45 1 0 0 
SMALL
USER_CHARGES


@<TRIPOS>ATOM
  1 O        3.6520    -1.2850    -1.8560 O.2   1 <1>  -0.5700 
  2 C        2.8780    -1.2430    -0.9170 C.2   1 <1>   0.5440 
  3 N        2.8830    -0.0800    -0.1890 N.am  1 <1>  -0.6600 
  4 C        2.0670    -2.3880    -0.5340 C.ar  1 <1>   0.0860 
  5 C        3.6880    -0.0820     1.0830 C.3   1 <1>   0.2200 
  6 C        2.6720     1.2110    -0.9150 C.3   1 <1>   0.1400 
  7 C        1.0030    -2.2700     0.3640 C.ar  1 <1>  -0.1500 
  8 C        2.3260    -3.6590    -1.0480 C.ar  1 <1>  -0.1500 
  9 C        3.2790     1.0340     2.0570 C.3   1 <1>   0.1200 
 10 C        5.2090    -0.0180     0.7780 C.3   1 <1>   0.3430 
 11 C        3.7150     2.3070    -0.6190 C.3   1 <1>  -0.0800 
 12 C        0.2490    -3.3660     0.7400 C.ar  1 <1>  -0.1500 
 13 C        1.5740    -4.7580    -0.6740 C.ar  1 <1>  -0.1500 
 14 O        3.9790     2.2100     1.7820 O.3   1 <1>  -0.5600 
 15 N        5.5090     0.4690    -0.6140 N.4   1 <1>  -0.9590 
 16 C        3.4800     2.9810     0.7420 C.3   1 <1>   0.1200 
 17 C        5.1930     1.9140    -0.8360 C.3   1 <1>   0.3430 
 18 C        0.5320    -4.6190     0.2260 C.ar  1 <1>  -0.1430 
 19 C        6.8980     0.1330    -1.0310 C.3   1 <1>   0.2630 
 20 C       -0.2960    -5.8250     0.6340 C.3   1 <1>  -0.0970 
 21 H        3.4950    -1.0110     1.5900 H     1 <1>   0.0800 
 22 H        2.6670     1.0200    -1.9760 H     1 <1>   0.0800 
 23 H        1.6910     1.5800    -0.6650 H     1 <1>   0.0800 
 24 H        0.7540    -1.3070     0.7720 H     1 <1>   0.1500 
 25 H        3.1280    -3.7890    -1.7530 H     1 <1>   0.1500 
 26 H        3.5520     0.7460     3.0570 H     1 <1>   0.0800 
 27 H        2.2170     1.2170     2.0390 H     1 <1>   0.0800 
 28 H        5.6050    -1.0130     0.8910 H     1 <1>   0.0800 
 29 H        5.6980     0.6090     1.5060 H     1 <1>   0.0800 
 30 H        3.5160     3.0850    -1.3340 H     1 <1>   0.0800 
 31 H       -0.5650    -3.2420     1.4340 H     1 <1>   0.1500 
 32 H        1.8010    -5.7240    -1.0910 H     1 <1>   0.1500 
 33 H        4.8470    -0.0730    -1.2190 H     1 <1>   0.4500 
 34 H        2.4340     3.1760     0.9180 H     1 <1>   0.0800 
 35 H        4.0020     3.9230     0.7770 H     1 <1>   0.0800 
 36 H        5.8110     2.5200    -0.1930 H     1 <1>   0.0800 
 37 H        5.4490     2.1580    -1.8540 H     1 <1>   0.0800 
 38 H        7.6110     0.6550    -0.4150 H     1 <1>   0.0800 
 39 H        7.0540     0.4130    -2.0600 H     1 <1>   0.0800 
 40 H        7.0670    -0.9280    -0.9390 H     1 <1>   0.0800 
 41 H       -0.6730    -5.7020     1.6340 H     1 <1>   0.0800 
 42 H        0.3010    -6.7190     0.6060 H     1 <1>   0.0800 
 43 H       -1.1260    -5.9410    -0.0380 H     1 <1>   0.0800 
@<TRIPOS>BOND
  1   1   2  2   
  2   2   3  am  
  3   2   4  1   
  4   3   5  1   
  5   3   6  1   
  6   4   7  ar  
  7   4   8  ar  
  8   5   9  1   
  9   5  10  1   
 10   5  21  1   
 11   6  11  1   
 12   6  22  1   
 13   6  23  1   
 14   7  12  ar  
 15   7  24  1   
 16   8  13  ar  
 17   8  25  1   
 18   9  14  1   
 19   9  26  1   
 20   9  27  1   
 21  10  15  1   
 22  10  28  1   
 23  10  29  1   
 24  11  16  1   
 25  11  17  1   
 26  11  30  1   
 27  12  18  ar  
 28  12  31  1   
 29  13  18  ar  
 30  13  32  1   
 31  14  16  1   
 32  15  17  1   
 33  15  19  1   
 34  15  33  1   
 35  16  34  1   
 36  16  35  1   
 37  17  36  1   
 38  17  37  1   
 39  18  20  1   
 40  19  38  1   
 41  19  39  1   
 42  19  40  1   
 43  20  41  1   
 44  20  42  1   
 45  20  43  1   
@<TRIPOS>SUBSTRUCTURE
  1 ****   3 GROUP 4 **** **** 0

# MOE 2024.06 (io_trps.svl 2023.06)
