@<TRIPOS>MOLECULE
NONAME
40 42 1 0 0 
SMALL
USER_CHARGES


@<TRIPOS>ATOM
  1 O       -0.5300     0.2670    -0.0600 O.2   1 <1>  -0.5700 
  2 C       -1.5800     0.8810     0.0340 C.2   1 <1>   0.5440 
  3 N       -2.7400     0.1270    -0.0230 N.am  1 <1>  -0.6600 
  4 C       -1.5420     2.3410     0.1780 C.ar  1 <1>   0.3960 
  5 C       -4.1290     0.6440    -0.1280 C.3   1 <1>   0.1400 
  6 C       -2.7280    -1.3530    -0.1130 C.3   1 <1>   0.1400 
  7 N       -2.5780     3.0260     0.6960 N.ar  1 <1>  -0.6200 
  8 C       -0.3850     3.0130    -0.2380 C.ar  1 <1>   0.1600 
  9 C       -4.9800    -0.5780    -0.4710 C.3   1 <1>   0.2000 
 10 C       -4.1880    -1.7800     0.0370 C.3   1 <1>  -0.0800 
 11 C       -2.3740     4.3280     0.7570 C.ar  1 <1>   0.1600 
 12 N       -0.1830     4.3210    -0.1830 N.ar  1 <1>  -0.6200 
 13 O       -6.2210    -0.5280     0.1460 O.3   1 <1>  -0.6800 
 14 C       -4.5310    -3.0810    -0.7050 C.3   1 <1>  -0.0170 
 15 C       -1.2120     4.9640     0.3300 C.ar  1 <1>   0.1670 
 16 C       -3.7100    -4.2450    -0.1740 C.ar  1 <1>  -0.1430 
 17 C       -1.0660     6.4690     0.4380 C.3   1 <1>  -0.0970 
 18 C       -4.0700    -4.9190     0.9750 C.ar  1 <1>  -0.1500 
 19 C       -2.5640    -4.6860    -0.8050 C.ar  1 <1>  -0.1500 
 20 C       -3.2880    -5.9690     1.4270 C.ar  1 <1>   0.1600 
 21 C       -1.8530    -5.7480    -0.2700 C.ar  1 <1>   0.1600 
 22 N       -2.1880    -6.3990     0.8320 N.ar  1 <1>  -0.6200 
 23 H       -4.4210     1.0610     0.8210 H     1 <1>   0.0800 
 24 H       -4.1990     1.3910    -0.8990 H     1 <1>   0.0800 
 25 H       -2.3370    -1.6380    -1.0740 H     1 <1>   0.0800 
 26 H       -2.1100    -1.7790     0.6610 H     1 <1>   0.0800 
 27 H        0.4200     2.4250    -0.6420 H     1 <1>   0.1500 
 28 H       -5.1320    -0.6290    -1.5360 H     1 <1>   0.0800 
 29 H       -4.3730    -1.9100     1.0890 H     1 <1>   0.0800 
 30 H       -3.1680     4.9270     1.1660 H     1 <1>   0.1500 
 31 H       -6.1150    -0.4590     1.1140 H     1 <1>   0.4000 
 32 H       -4.3520    -2.9610    -1.7590 H     1 <1>   0.0800 
 33 H       -5.5780    -3.2980    -0.5780 H     1 <1>   0.0800 
 34 H       -1.9450     6.9180     0.8620 H     1 <1>   0.0800 
 35 H       -0.9010     6.8840    -0.5400 H     1 <1>   0.0800 
 36 H       -0.2210     6.7040     1.0580 H     1 <1>   0.0800 
 37 H       -4.9500    -4.6370     1.5240 H     1 <1>   0.1500 
 38 H       -2.2150    -4.2170    -1.7070 H     1 <1>   0.1500 
 39 H       -3.5850    -6.4830     2.3250 H     1 <1>   0.1500 
 40 H       -0.9620    -6.0780    -0.7750 H     1 <1>   0.1500 
@<TRIPOS>BOND
  1   1   2  2   
  2   2   3  am  
  3   2   4  1   
  4   3   5  1   
  5   3   6  1   
  6   4   7  ar  
  7   4   8  ar  
  8   5   9  1   
  9   5  23  1   
 10   5  24  1   
 11   6  10  1   
 12   6  25  1   
 13   6  26  1   
 14   7  11  ar  
 15   8  12  ar  
 16   8  27  1   
 17   9  10  1   
 18   9  13  1   
 19   9  28  1   
 20  10  14  1   
 21  10  29  1   
 22  11  15  ar  
 23  11  30  1   
 24  12  15  ar  
 25  13  31  1   
 26  14  16  1   
 27  14  32  1   
 28  14  33  1   
 29  15  17  1   
 30  16  18  ar  
 31  16  19  ar  
 32  17  34  1   
 33  17  35  1   
 34  17  36  1   
 35  18  20  ar  
 36  18  37  1   
 37  19  21  ar  
 38  19  38  1   
 39  20  22  ar  
 40  20  39  1   
 41  21  22  ar  
 42  21  40  1   
@<TRIPOS>SUBSTRUCTURE
  1 ****   3 GROUP 4 **** **** 0

# MOE 2024.06 (io_trps.svl 2023.06)
