@<TRIPOS>MOLECULE
NONAME
50 52 1 0 0 
SMALL
USER_CHARGES


@<TRIPOS>ATOM
  1 O       -0.3440    -0.7310    -2.5410 O.2   1 <1>  -0.5700 
  2 C       -0.5060    -1.4880    -1.6100 C.2   1 <1>   0.5690 
  3 N        0.5280    -1.8040    -0.7670 N.am  1 <1>  -0.6600 
  4 C       -1.9030    -2.1020    -1.4200 C.3   1 <1>   0.1710 
  5 C        1.8930    -1.2720    -0.9390 C.3   1 <1>   0.1400 
  6 C        0.4240    -2.6400     0.4490 C.3   1 <1>   0.1400 
  7 N       -2.6010    -1.7900    -0.1370 N.3   1 <1>  -0.8100 
  8 C        2.7420    -2.0720     0.0420 C.3   1 <1>  -0.1600 
  9 C        1.7700    -2.4770     1.1480 C.3   1 <1>  -0.1600 
 10 C       -2.7660    -0.3360     0.0840 C.3   1 <1>   0.1100 
 11 C       -3.8410    -2.5840    -0.0150 C.3   1 <1>   0.1100 
 12 C       -4.1380     0.1340    -0.3980 C.3   1 <1>  -0.1600 
 13 C       -4.8390    -1.9190     0.9350 C.3   1 <1>  -0.1600 
 14 C       -5.2690    -0.5210     0.4310 C.3   1 <1>   0.2800 
 15 O       -5.3850     0.2720     1.5940 O.3   1 <1>  -0.5600 
 16 C       -6.6200    -0.6020    -0.3550 C.3   1 <1>   0.2000 
 17 C       -6.5790     0.9480     1.8600 C.3   1 <1>   0.1200 
 18 O       -6.4780    -1.3020    -1.5660 O.3   1 <1>  -0.6800 
 19 C       -7.3090     0.7870    -0.5470 C.3   1 <1>   0.2800 
 20 C       -6.9910     1.7380     0.6190 C.3   1 <1>  -0.1600 
 21 O       -8.6740     0.5770    -0.5220 O.3   1 <1>  -0.6800 
 22 C       -7.0290     1.4760    -1.8910 C.3   1 <1>  -0.2400 
 23 H       -1.7930    -3.1680    -1.5020 H     1 <1>   0.0800 
 24 H       -2.5180    -1.7770    -2.2400 H     1 <1>   0.0800 
 25 H        2.2280    -1.3950    -1.9550 H     1 <1>   0.0800 
 26 H        1.8950    -0.2270    -0.6810 H     1 <1>   0.0800 
 27 H       -0.3830    -2.3090     1.0800 H     1 <1>   0.0800 
 28 H        0.2670    -3.6650     0.1610 H     1 <1>   0.0800 
 29 H        3.1160    -2.9490    -0.4560 H     1 <1>   0.0800 
 30 H        3.5710    -1.4980     0.4130 H     1 <1>   0.0800 
 31 H        1.6900    -1.6840     1.8710 H     1 <1>   0.0800 
 32 H        2.0700    -3.3800     1.6510 H     1 <1>   0.0800 
 33 H       -2.6820    -0.1370     1.1400 H     1 <1>   0.0800 
 34 H       -1.9880     0.2220    -0.4090 H     1 <1>   0.0800 
 35 H       -4.3060    -2.6930    -0.9810 H     1 <1>   0.0800 
 36 H       -3.5920    -3.5670     0.3460 H     1 <1>   0.0800 
 37 H       -4.2160    -0.1170    -1.4380 H     1 <1>   0.0800 
 38 H       -4.1940     1.2030    -0.3180 H     1 <1>   0.0800 
 39 H       -4.3700    -1.8400     1.9000 H     1 <1>   0.0800 
 40 H       -5.6950    -2.5580     1.0420 H     1 <1>   0.0800 
 41 H       -7.2820    -1.2020     0.2440 H     1 <1>   0.0800 
 42 H       -7.3310     0.2290     2.1420 H     1 <1>   0.0800 
 43 H       -6.3990     1.6080     2.6900 H     1 <1>   0.0800 
 44 H       -6.0860    -0.7180    -2.2400 H     1 <1>   0.4000 
 45 H       -6.1730     2.3870     0.3640 H     1 <1>   0.0800 
 46 H       -7.8360     2.3630     0.8460 H     1 <1>   0.0800 
 47 H       -9.1400     1.3820    -0.8100 H     1 <1>   0.4000 
 48 H       -5.9740     1.6320    -2.0200 H     1 <1>   0.0800 
 49 H       -7.5090     2.4380    -1.9290 H     1 <1>   0.0800 
 50 H       -7.3890     0.8780    -2.7090 H     1 <1>   0.0800 
@<TRIPOS>BOND
  1   1   2  2   
  2   2   3  am  
  3   2   4  1   
  4   3   5  1   
  5   3   6  1   
  6   4   7  1   
  7   4  23  1   
  8   4  24  1   
  9   5   8  1   
 10   5  25  1   
 11   5  26  1   
 12   6   9  1   
 13   6  27  1   
 14   6  28  1   
 15   7  10  1   
 16   7  11  1   
 17   8   9  1   
 18   8  29  1   
 19   8  30  1   
 20   9  31  1   
 21   9  32  1   
 22  10  12  1   
 23  10  33  1   
 24  10  34  1   
 25  11  13  1   
 26  11  35  1   
 27  11  36  1   
 28  12  14  1   
 29  12  37  1   
 30  12  38  1   
 31  13  14  1   
 32  13  39  1   
 33  13  40  1   
 34  14  15  1   
 35  14  16  1   
 36  15  17  1   
 37  16  18  1   
 38  16  19  1   
 39  16  41  1   
 40  17  20  1   
 41  17  42  1   
 42  17  43  1   
 43  18  44  1   
 44  19  20  1   
 45  19  21  1   
 46  19  22  1   
 47  20  45  1   
 48  20  46  1   
 49  21  47  1   
 50  22  48  1   
 51  22  49  1   
 52  22  50  1   
@<TRIPOS>SUBSTRUCTURE
  1 ****  10 GROUP 4 **** **** 0

# MOE 2024.06 (io_trps.svl 2023.06)
