@<TRIPOS>MOLECULE
NONAME
48 51 1 0 0 
SMALL
USER_CHARGES


@<TRIPOS>ATOM
  1 O        0.6150    -0.2360    -2.3960 O.2   1 <1>  -0.5700 
  2 C        1.2010    -0.8000    -1.5000 C.2   1 <1>   0.5690 
  3 N        1.9940    -0.1360    -0.5840 N.am  1 <1>  -0.4770 
  4 C        1.0360    -2.3270    -1.4270 C.3   1 <1>   0.1710 
  5 C        2.3430     1.2200    -0.5360 C.ar  1 <1>   0.1170 
  6 C        2.5900    -0.8210     0.5990 C.3   1 <1>   0.1400 
  7 N        0.3460    -2.8450    -0.2110 N.3   1 <1>  -0.8100 
  8 C        3.1410     1.5000     0.5540 C.ar  1 <1>  -0.1440 
  9 C        2.0040     2.2490    -1.4070 C.ar  1 <1>  -0.1500 
 10 C        3.3880     0.2500     1.3580 C.3   1 <1>  -0.0170 
 11 C       -0.9830    -2.2310    -0.0310 C.3   1 <1>   0.1100 
 12 C        0.1340    -4.3040    -0.2650 C.3   1 <1>   0.1100 
 13 C        3.6100     2.7750     0.8040 C.ar  1 <1>  -0.1500 
 14 C        2.4670     3.5330    -1.1690 C.ar  1 <1>  -0.1500 
 15 C       -1.7600    -3.2420     0.8020 C.3   1 <1>   0.2000 
 16 C       -1.3160    -4.5620     0.1740 C.3   1 <1>  -0.0800 
 17 C        3.2680     3.7970    -0.0670 C.ar  1 <1>  -0.1500 
 18 O       -1.2820    -3.1640     2.0980 O.3   1 <1>  -0.6800 
 19 C       -1.4910    -5.8130     1.0550 C.3   1 <1>  -0.0160 
 20 C       -1.0270    -7.0600     0.3180 C.ar  1 <1>  -0.1440 
 21 C        0.1720    -7.6790     0.6120 C.ar  1 <1>  -0.1500 
 22 C       -1.7780    -7.6330    -0.6890 C.ar  1 <1>  -0.1500 
 23 C        0.5550    -8.8020    -0.1020 C.ar  1 <1>   0.1600 
 24 C       -1.3020    -8.7580    -1.3420 C.ar  1 <1>   0.1600 
 25 N       -0.1510    -9.3530    -1.0760 N.ar  1 <1>  -0.6200 
 26 H        2.0130    -2.7700    -1.4890 H     1 <1>   0.0800 
 27 H        0.4880    -2.6350    -2.3000 H     1 <1>   0.0800 
 28 H        1.8050    -1.2100     1.2240 H     1 <1>   0.0800 
 29 H        3.2340    -1.6210     0.2790 H     1 <1>   0.0800 
 30 H        1.3850     2.0540    -2.2620 H     1 <1>   0.1500 
 31 H        3.0220     0.3590     2.3630 H     1 <1>   0.0800 
 32 H        4.4350     0.0070     1.3750 H     1 <1>   0.0800 
 33 H       -0.9170    -1.2720     0.4560 H     1 <1>   0.0800 
 34 H       -1.4690    -2.1090    -0.9850 H     1 <1>   0.0800 
 35 H        0.2940    -4.6990    -1.2550 H     1 <1>   0.0800 
 36 H        0.8270    -4.7770     0.4100 H     1 <1>   0.0800 
 37 H        4.2300     2.9730     1.6600 H     1 <1>   0.1500 
 38 H        2.2030     4.3280    -1.8440 H     1 <1>   0.1500 
 39 H       -2.8250    -3.0880     0.8030 H     1 <1>   0.0800 
 40 H       -1.8970    -4.7010    -0.7200 H     1 <1>   0.0800 
 41 H        3.6230     4.7970     0.1110 H     1 <1>   0.1500 
 42 H       -0.3090    -3.0720     2.0240 H     1 <1>   0.4000 
 43 H       -2.5280    -5.9210     1.3230 H     1 <1>   0.0800 
 44 H       -0.9330    -5.7080     1.9690 H     1 <1>   0.0800 
 45 H        0.8110    -7.3010     1.3880 H     1 <1>   0.1500 
 46 H       -2.7260    -7.2150    -0.9720 H     1 <1>   0.1500 
 47 H        1.4920    -9.2730     0.1400 H     1 <1>   0.1500 
 48 H       -1.9010    -9.1910    -2.1250 H     1 <1>   0.1500 
@<TRIPOS>BOND
  1   1   2  2   
  2   2   3  am  
  3   2   4  1   
  4   3   5  1   
  5   3   6  1   
  6   4   7  1   
  7   4  26  1   
  8   4  27  1   
  9   5   8  ar  
 10   5   9  ar  
 11   6  10  1   
 12   6  28  1   
 13   6  29  1   
 14   7  11  1   
 15   7  12  1   
 16   8  10  1   
 17   8  13  ar  
 18   9  14  ar  
 19   9  30  1   
 20  10  31  1   
 21  10  32  1   
 22  11  15  1   
 23  11  33  1   
 24  11  34  1   
 25  12  16  1   
 26  12  35  1   
 27  12  36  1   
 28  13  17  ar  
 29  13  37  1   
 30  14  17  ar  
 31  14  38  1   
 32  15  16  1   
 33  15  18  1   
 34  15  39  1   
 35  16  19  1   
 36  16  40  1   
 37  17  41  1   
 38  18  42  1   
 39  19  20  1   
 40  19  43  1   
 41  19  44  1   
 42  20  21  ar  
 43  20  22  ar  
 44  21  23  ar  
 45  21  45  1   
 46  22  24  ar  
 47  22  46  1   
 48  23  25  ar  
 49  23  47  1   
 50  24  25  ar  
 51  24  48  1   
@<TRIPOS>SUBSTRUCTURE
  1 ****   7 GROUP 4 **** **** 0

# MOE 2024.06 (io_trps.svl 2023.06)
