@<TRIPOS>MOLECULE
NONAME
53 54 1 0 0 
SMALL
USER_CHARGES


@<TRIPOS>ATOM
  1 F        1.4410     1.4260    -3.0610 F     1 <1>  -0.1900 
  2 C        2.2290     1.8690    -2.1200 C.ar  1 <1>   0.1900 
  3 C        3.4120     2.4850    -2.4760 C.ar  1 <1>  -0.1500 
  4 C        1.8520     1.7070    -0.8020 C.ar  1 <1>  -0.1500 
  5 C        4.2440     2.9570    -1.4740 C.ar  1 <1>  -0.1500 
  6 C        2.6890     2.1830     0.1930 C.ar  1 <1>  -0.1500 
  7 C        3.8870     2.8130    -0.1340 C.ar  1 <1>  -0.1430 
  8 C        4.7750     3.3380     0.9910 C.3   1 <1>   0.5670 
  9 N        4.9070     4.8150     0.8690 N.4   1 <1>  -0.9590 
 10 C        6.1460     2.6650     0.9380 C.3   1 <1>  -0.2400 
 11 C        5.7330     5.4290     1.9480 C.3   1 <1>   0.4860 
 12 C        3.5690     5.4910     0.7700 C.3   1 <1>   0.2630 
 13 C        6.0190     6.8750     1.5870 C.ar  1 <1>  -0.1430 
 14 C        5.3390     7.9010     2.2270 C.ar  1 <1>  -0.1500 
 15 C        6.9620     7.1840     0.6160 C.ar  1 <1>  -0.1500 
 16 C        5.5910     9.2180     1.8890 C.ar  1 <1>  -0.1500 
 17 C        7.2150     8.5030     0.2780 C.ar  1 <1>  -0.1500 
 18 C        6.5260     9.5300     0.9160 C.ar  1 <1>   0.0830 
 19 O        6.7090    10.8460     0.6510 O.3   1 <1>  -0.3620 
 20 C        7.6980    11.2910    -0.2450 C.3   1 <1>   0.1200 
 21 C        7.6590    12.8230    -0.2350 C.3   1 <1>   0.3430 
 22 N        8.7020    13.4470    -1.1220 N.4   1 <1>  -0.9590 
 23 C        8.7590    14.9220    -0.8780 C.3   1 <1>   0.2630 
 24 C        8.4490    13.1760    -2.5740 C.3   1 <1>   0.2630 
 25 H        3.6700     2.5850    -3.5160 H     1 <1>   0.1500 
 26 H        0.9220     1.2170    -0.5690 H     1 <1>   0.1500 
 27 H        5.1680     3.4290    -1.7610 H     1 <1>   0.1500 
 28 H        2.3930     2.0510     1.2200 H     1 <1>   0.1500 
 29 H        4.3070     3.0980     1.9330 H     1 <1>   0.0800 
 30 H        5.3940     4.9920    -0.0160 H     1 <1>   0.4500 
 31 H        6.7080     2.9810     0.0790 H     1 <1>   0.0800 
 32 H        6.0100     1.5990     0.8700 H     1 <1>   0.0800 
 33 H        6.7110     2.8520     1.8320 H     1 <1>   0.0800 
 34 H        6.6720     4.9110     2.0500 H     1 <1>   0.0800 
 35 H        5.2130     5.3810     2.8910 H     1 <1>   0.0800 
 36 H        2.9990     5.3340     1.6710 H     1 <1>   0.0800 
 37 H        3.0070     5.0990    -0.0640 H     1 <1>   0.0800 
 38 H        3.6930     6.5510     0.6200 H     1 <1>   0.0800 
 39 H        4.6120     7.6950     2.9940 H     1 <1>   0.1500 
 40 H        7.5140     6.4070     0.1150 H     1 <1>   0.1500 
 41 H        5.0640    10.0160     2.3840 H     1 <1>   0.1500 
 42 H        7.9510     8.7060    -0.4770 H     1 <1>   0.1500 
 43 H        7.4640    10.8990    -1.2180 H     1 <1>   0.0800 
 44 H        8.6500    10.9300     0.1020 H     1 <1>   0.0800 
 45 H        7.8150    13.1520     0.7800 H     1 <1>   0.0800 
 46 H        6.6800    13.1480    -0.5460 H     1 <1>   0.0800 
 47 H        9.6220    13.0530    -0.8670 H     1 <1>   0.4500 
 48 H        7.8150    15.3810    -1.1260 H     1 <1>   0.0800 
 49 H        9.5300    15.3730    -1.4830 H     1 <1>   0.0800 
 50 H        8.9770    15.1230     0.1590 H     1 <1>   0.0800 
 51 H        7.4860    13.5650    -2.8660 H     1 <1>   0.0800 
 52 H        8.4670    12.1170    -2.7720 H     1 <1>   0.0800 
 53 H        9.2070    13.6470    -3.1800 H     1 <1>   0.0800 
@<TRIPOS>BOND
  1   1   2  1   
  2   2   3  ar  
  3   2   4  ar  
  4   3   5  ar  
  5   3  25  1   
  6   4   6  ar  
  7   4  26  1   
  8   5   7  ar  
  9   5  27  1   
 10   6   7  ar  
 11   6  28  1   
 12   7   8  1   
 13   8   9  1   
 14   8  10  1   
 15   8  29  1   
 16   9  11  1   
 17   9  12  1   
 18   9  30  1   
 19  10  31  1   
 20  10  32  1   
 21  10  33  1   
 22  11  13  1   
 23  11  34  1   
 24  11  35  1   
 25  12  36  1   
 26  12  37  1   
 27  12  38  1   
 28  13  14  ar  
 29  13  15  ar  
 30  14  16  ar  
 31  14  39  1   
 32  15  17  ar  
 33  15  40  1   
 34  16  18  ar  
 35  16  41  1   
 36  17  18  ar  
 37  17  42  1   
 38  18  19  1   
 39  19  20  1   
 40  20  21  1   
 41  20  43  1   
 42  20  44  1   
 43  21  22  1   
 44  21  45  1   
 45  21  46  1   
 46  22  23  1   
 47  22  24  1   
 48  22  47  1   
 49  23  48  1   
 50  23  49  1   
 51  23  50  1   
 52  24  51  1   
 53  24  52  1   
 54  24  53  1   
@<TRIPOS>SUBSTRUCTURE
  1 ****  15 GROUP 4 **** **** 0

# MOE 2024.06 (io_trps.svl 2023.06)
