@<TRIPOS>MOLECULE
NONAME
52 54 1 0 0 
SMALL
USER_CHARGES


@<TRIPOS>ATOM
  1 F        1.5340     0.7840    -0.9060 F     1 <1>  -0.1900 
  2 C        2.0180    -0.3740    -0.5440 C.ar  1 <1>   0.1900 
  3 C        1.5650    -1.5090    -1.1870 C.ar  1 <1>  -0.1500 
  4 C        2.9590    -0.4200     0.4650 C.ar  1 <1>  -0.1500 
  5 C        2.0710    -2.7430    -0.8030 C.ar  1 <1>  -0.1440 
  6 C        3.4640    -1.6510     0.8460 C.ar  1 <1>  -0.1500 
  7 C        3.0240    -2.8160     0.2150 C.ar  1 <1>   0.0830 
  8 C        1.5860    -4.0030    -1.4920 C.3   1 <1>   0.4870 
  9 O        3.4830    -4.0520     0.5580 O.3   1 <1>  -0.3630 
 10 N        0.9920    -4.8950    -0.4590 N.4   1 <1>  -0.9590 
 11 C        4.6570    -4.1930     1.3380 C.3   1 <1>   0.0400 
 12 C        0.7880    -6.2940    -0.9730 C.3   1 <1>   0.3430 
 13 C       -0.2530    -4.2960     0.1050 C.3   1 <1>   0.3430 
 14 C        0.1530    -7.2560     0.0830 C.3   1 <1>   0.4230 
 15 C       -0.7980    -5.1990     1.2160 C.3   1 <1>  -0.1600 
 16 N       -0.0370    -8.7020    -0.3750 N.4   1 <1>  -0.9590 
 17 C       -1.1150    -6.6490     0.7560 C.3   1 <1>   0.0000 
 18 C       -0.9520    -9.5030     0.5110 C.3   1 <1>   0.3430 
 19 C       -0.4820    -8.8650    -1.8010 C.3   1 <1>   0.2630 
 20 C       -1.4510    -7.4940     2.0180 C.3   1 <1>  -0.1600 
 21 C       -2.3690    -6.6320    -0.1660 C.3   1 <1>   0.1200 
 22 C       -0.9620    -8.9550     1.9390 C.3   1 <1>  -0.1600 
 23 O       -2.0800    -6.1130    -1.4200 O.3   1 <1>  -0.6800 
 24 H        0.8350    -1.4040    -1.9700 H     1 <1>   0.1500 
 25 H        3.2840     0.4900     0.9380 H     1 <1>   0.1500 
 26 H        4.1930    -1.6760     1.6350 H     1 <1>   0.1500 
 27 H        2.4280    -4.4850    -1.9600 H     1 <1>   0.0800 
 28 H        0.8580    -3.7620    -2.2490 H     1 <1>   0.0800 
 29 H        1.7140    -4.8770     0.2850 H     1 <1>   0.4500 
 30 H        4.9190    -5.2350     1.3780 H     1 <1>   0.0800 
 31 H        4.4690    -3.8280     2.3330 H     1 <1>   0.0800 
 32 H        5.4560    -3.6380     0.8750 H     1 <1>   0.0800 
 33 H        0.1460    -6.2530    -1.8360 H     1 <1>   0.0800 
 34 H        1.7380    -6.6970    -1.2810 H     1 <1>   0.0800 
 35 H       -0.0410    -3.3190     0.5110 H     1 <1>   0.0800 
 36 H       -0.9930    -4.1800    -0.6710 H     1 <1>   0.0800 
 37 H        0.8810    -7.2990     0.8750 H     1 <1>   0.0800 
 38 H       -0.0740    -5.2050     2.0130 H     1 <1>   0.0800 
 39 H       -1.6890    -4.7440     1.6140 H     1 <1>   0.0800 
 40 H        0.8830    -9.1630    -0.2940 H     1 <1>   0.4500 
 41 H       -1.9580    -9.4670     0.1250 H     1 <1>   0.0800 
 42 H       -0.6430   -10.5370     0.5190 H     1 <1>   0.0800 
 43 H       -1.4410    -8.3980    -1.9550 H     1 <1>   0.0800 
 44 H       -0.5720    -9.9120    -2.0470 H     1 <1>   0.0800 
 45 H        0.2290    -8.4220    -2.4780 H     1 <1>   0.0800 
 46 H       -1.0110    -7.0620     2.9020 H     1 <1>   0.0800 
 47 H       -2.5160    -7.4870     2.1880 H     1 <1>   0.0800 
 48 H       -3.1470    -6.0270     0.2730 H     1 <1>   0.0800 
 49 H       -2.7670    -7.6220    -0.3090 H     1 <1>   0.0800 
 50 H       -1.6010    -9.5730     2.5480 H     1 <1>   0.0800 
 51 H        0.0300    -9.0370     2.3510 H     1 <1>   0.0800 
 52 H       -2.9140    -5.9510    -1.9200 H     1 <1>   0.4000 
@<TRIPOS>BOND
  1   1   2  1   
  2   2   3  ar  
  3   2   4  ar  
  4   3   5  ar  
  5   3  24  1   
  6   4   6  ar  
  7   4  25  1   
  8   5   7  ar  
  9   5   8  1   
 10   6   7  ar  
 11   6  26  1   
 12   7   9  1   
 13   8  10  1   
 14   8  27  1   
 15   8  28  1   
 16   9  11  1   
 17  10  12  1   
 18  10  13  1   
 19  10  29  1   
 20  11  30  1   
 21  11  31  1   
 22  11  32  1   
 23  12  14  1   
 24  12  33  1   
 25  12  34  1   
 26  13  15  1   
 27  13  35  1   
 28  13  36  1   
 29  14  16  1   
 30  14  17  1   
 31  14  37  1   
 32  15  17  1   
 33  15  38  1   
 34  15  39  1   
 35  16  18  1   
 36  16  19  1   
 37  16  40  1   
 38  17  20  1   
 39  17  21  1   
 40  18  22  1   
 41  18  41  1   
 42  18  42  1   
 43  19  43  1   
 44  19  44  1   
 45  19  45  1   
 46  20  22  1   
 47  20  46  1   
 48  20  47  1   
 49  21  23  1   
 50  21  48  1   
 51  21  49  1   
 52  22  50  1   
 53  22  51  1   
 54  23  52  1   
@<TRIPOS>SUBSTRUCTURE
  1 ****  10 GROUP 4 **** **** 0

# MOE 2024.06 (io_trps.svl 2023.06)
