@<TRIPOS>MOLECULE
NONAME
49 52 1 0 0 
SMALL
USER_CHARGES


@<TRIPOS>ATOM
  1 S        0.0970     0.0650     0.6570 S.3   1 <1>  -0.0800 
  2 C       -0.3880    -1.4030    -0.1590 C.2   1 <1>  -0.1100 
  3 C        1.6210    -0.6560     1.1260 C.2   1 <1>  -0.1100 
  4 C        0.5500    -2.3780    -0.0590 C.2   1 <1>  -0.0860 
  5 C        1.7020    -1.9210     0.6770 C.2   1 <1>  -0.1500 
  6 C        0.4880    -3.7200    -0.6100 C.2   1 <1>   0.7160 
  7 O        1.5100    -4.2530    -1.0010 O.2   1 <1>  -0.5700 
  8 N       -0.6960    -4.4240    -0.6960 N.am  1 <1>  -0.6600 
  9 C       -1.8640    -4.1330     0.1890 C.3   1 <1>   0.1400 
 10 C       -0.7580    -5.6620    -1.5260 C.3   1 <1>   0.1400 
 11 C       -2.5600    -5.4350     0.5760 C.3   1 <1>  -0.1600 
 12 C       -2.2030    -6.0090    -1.8930 C.3   1 <1>  -0.1600 
 13 C       -3.1320    -6.1390    -0.6650 C.3   1 <1>   0.4240 
 14 O       -4.3010    -5.4150    -0.9620 O.3   1 <1>  -0.5600 
 15 C       -3.4430    -7.6190    -0.3470 C.ar  1 <1>  -0.1430 
 16 C       -5.2600    -6.0520    -1.7490 C.3   1 <1>   0.1200 
 17 C       -4.7300    -8.1240    -0.4820 C.ar  1 <1>  -0.1430 
 18 C       -2.4320    -8.4820     0.0640 C.ar  1 <1>  -0.1500 
 19 C       -5.8460    -7.2160    -0.9580 C.3   1 <1>  -0.0170 
 20 C       -4.9960    -9.4500    -0.1890 C.ar  1 <1>  -0.1500 
 21 C       -2.6820    -9.8220     0.3520 C.ar  1 <1>   0.0830 
 22 C       -3.9950   -10.3040     0.2370 C.ar  1 <1>   0.0830 
 23 O       -1.6770   -10.6680     0.7240 O.3   1 <1>  -0.3630 
 24 O       -4.3970   -11.5790     0.5040 O.3   1 <1>  -0.3630 
 25 C       -0.3160   -10.3000     0.6570 C.3   1 <1>   0.0400 
 26 C       -3.8100   -12.3160     1.5530 C.3   1 <1>   0.0400 
 27 H       -1.3450    -1.3970    -0.6500 H     1 <1>   0.1500 
 28 H        2.3040    -0.0490     1.6920 H     1 <1>   0.1500 
 29 H        2.5410    -2.5800     0.8260 H     1 <1>   0.1500 
 30 H       -2.5570    -3.4940    -0.3320 H     1 <1>   0.0800 
 31 H       -1.5350    -3.6290     1.0820 H     1 <1>   0.0800 
 32 H       -0.3070    -6.4710    -0.9780 H     1 <1>   0.0800 
 33 H       -0.1850    -5.5170    -2.4270 H     1 <1>   0.0800 
 34 H       -3.3570    -5.2400     1.2700 H     1 <1>   0.0800 
 35 H       -1.8460    -6.0560     1.0830 H     1 <1>   0.0800 
 36 H       -2.2100    -6.9270    -2.4510 H     1 <1>   0.0800 
 37 H       -2.5620    -5.2320    -2.5440 H     1 <1>   0.0800 
 38 H       -4.7990    -6.3940    -2.6600 H     1 <1>   0.0800 
 39 H       -6.0240    -5.3330    -1.9860 H     1 <1>   0.0800 
 40 H       -1.4390    -8.0940     0.1550 H     1 <1>   0.1500 
 41 H       -6.5280    -7.7630    -1.5840 H     1 <1>   0.0800 
 42 H       -6.3920    -6.8370    -0.1120 H     1 <1>   0.0800 
 43 H       -5.9930    -9.8390    -0.2860 H     1 <1>   0.1500 
 44 H        0.2740   -11.1600     0.9140 H     1 <1>   0.0800 
 45 H       -0.1330    -9.5090     1.3630 H     1 <1>   0.0800 
 46 H       -0.0870    -9.9870    -0.3460 H     1 <1>   0.0800 
 47 H       -4.4960   -13.0910     1.8420 H     1 <1>   0.0800 
 48 H       -3.6230   -11.6590     2.3840 H     1 <1>   0.0800 
 49 H       -2.8950   -12.7540     1.1990 H     1 <1>   0.0800 
@<TRIPOS>BOND
  1   1   2  1   
  2   1   3  1   
  3   2   4  2   
  4   2  27  1   
  5   3   5  2   
  6   3  28  1   
  7   4   5  1   
  8   4   6  1   
  9   5  29  1   
 10   6   7  2   
 11   6   8  am  
 12   8   9  1   
 13   8  10  1   
 14   9  11  1   
 15   9  30  1   
 16   9  31  1   
 17  10  12  1   
 18  10  32  1   
 19  10  33  1   
 20  11  13  1   
 21  11  34  1   
 22  11  35  1   
 23  12  13  1   
 24  12  36  1   
 25  12  37  1   
 26  13  14  1   
 27  13  15  1   
 28  14  16  1   
 29  15  17  ar  
 30  15  18  ar  
 31  16  19  1   
 32  16  38  1   
 33  16  39  1   
 34  17  19  1   
 35  17  20  ar  
 36  18  21  ar  
 37  18  40  1   
 38  19  41  1   
 39  19  42  1   
 40  20  22  ar  
 41  20  43  1   
 42  21  22  ar  
 43  21  23  1   
 44  22  24  1   
 45  23  25  1   
 46  24  26  1   
 47  25  44  1   
 48  25  45  1   
 49  25  46  1   
 50  26  47  1   
 51  26  48  1   
 52  26  49  1   
@<TRIPOS>SUBSTRUCTURE
  1 ****  13 GROUP 4 **** **** 0

# MOE 2024.06 (io_trps.svl 2023.06)
