@<TRIPOS>MOLECULE
NONAME
48 50 1 0 0 
SMALL
USER_CHARGES


@<TRIPOS>ATOM
  1 S       -0.3400    -0.1980     1.1930 S.3   1 <1>  -0.0800 
  2 C        0.7900     0.9400     0.5040 C.2   1 <1>   0.4620 
  3 C        0.2350    -1.4310     0.0890 C.2   1 <1>  -0.0450 
  4 N        1.5180     0.4580    -0.4320 N.2   1 <1>  -0.5650 
  5 N        0.8230     2.2030     0.9770 N.pl3 1 <1>  -0.8840 
  6 C        1.2180    -0.8600    -0.6500 C.2   1 <1>   0.0460 
  7 C       -0.3220    -2.7520     0.1380 C.2   1 <1>   0.7150 
  8 C        2.0310    -1.5630    -1.7180 C.3   1 <1>  -0.0590 
  9 O        0.4310    -3.6980     0.2870 O.2   1 <1>  -0.5700 
 10 N       -1.6760    -2.9980    -0.0100 N.am  1 <1>  -0.6600 
 11 C       -2.2320    -4.3900     0.0940 C.3   1 <1>   0.1400 
 12 C       -2.6220    -2.0190    -0.6250 C.3   1 <1>   0.1400 
 13 C       -3.2110    -4.5450     1.2670 C.3   1 <1>   0.1400 
 14 C       -3.5530    -1.3450     0.3970 C.3   1 <1>  -0.1600 
 15 N       -4.3360    -3.5630     1.1890 N.am  1 <1>  -0.6600 
 16 C       -3.9450    -2.1930     1.6110 C.3   1 <1>   0.1400 
 17 C       -5.6100    -3.8210     0.7180 C.2   1 <1>   0.5690 
 18 O       -6.4500    -2.9450     0.7710 O.2   1 <1>  -0.5700 
 19 C       -6.0550    -5.2030     0.1310 C.3   1 <1>   0.3410 
 20 O       -5.0340    -5.8500    -0.6000 O.3   1 <1>  -0.5600 
 21 C       -7.2130    -5.0740    -0.8740 C.3   1 <1>  -0.1600 
 22 C       -6.4440    -6.1680     1.2620 C.3   1 <1>  -0.2400 
 23 C       -5.4500    -6.2810    -1.8590 C.3   1 <1>   0.1200 
 24 C       -6.9650    -6.1910    -1.8650 C.3   1 <1>  -0.1600 
 25 H        1.5000     2.8670     0.5980 H     1 <1>   0.4000 
 26 H        0.2490     2.5220     1.7560 H     1 <1>   0.4000 
 27 H        1.7240    -2.5870    -1.8280 H     1 <1>   0.0800 
 28 H        3.0710    -1.5420    -1.4480 H     1 <1>   0.0800 
 29 H        1.9070    -1.0580    -2.6590 H     1 <1>   0.0800 
 30 H       -1.4410    -5.1070     0.2240 H     1 <1>   0.0800 
 31 H       -2.7360    -4.6460    -0.8210 H     1 <1>   0.0800 
 32 H       -3.2330    -2.5420    -1.3410 H     1 <1>   0.0800 
 33 H       -2.0800    -1.2650    -1.1690 H     1 <1>   0.0800 
 34 H       -2.6740    -4.4040     2.1880 H     1 <1>   0.0800 
 35 H       -3.5860    -5.5500     1.2810 H     1 <1>   0.0800 
 36 H       -4.4520    -1.0480    -0.1130 H     1 <1>   0.0800 
 37 H       -3.1000    -0.4390     0.7510 H     1 <1>   0.0800 
 38 H       -4.7640    -1.7240     2.1310 H     1 <1>   0.0800 
 39 H       -3.1150    -2.2460     2.2950 H     1 <1>   0.0800 
 40 H       -7.1440    -4.1280    -1.3830 H     1 <1>   0.0800 
 41 H       -8.1780    -5.1350    -0.4030 H     1 <1>   0.0800 
 42 H       -5.6220    -6.3000     1.9400 H     1 <1>   0.0800 
 43 H       -6.7350    -7.1240     0.8690 H     1 <1>   0.0800 
 44 H       -7.2680    -5.7580     1.8170 H     1 <1>   0.0800 
 45 H       -5.0970    -7.2840    -2.0250 H     1 <1>   0.0800 
 46 H       -5.0240    -5.6140    -2.5890 H     1 <1>   0.0800 
 47 H       -7.3540    -5.9740    -2.8440 H     1 <1>   0.0800 
 48 H       -7.3840    -7.1170    -1.5120 H     1 <1>   0.0800 
@<TRIPOS>BOND
  1   1   2  1   
  2   1   3  1   
  3   2   4  2   
  4   2   5  1   
  5   3   6  2   
  6   3   7  1   
  7   4   6  1   
  8   5  25  1   
  9   5  26  1   
 10   6   8  1   
 11   7   9  2   
 12   7  10  am  
 13   8  27  1   
 14   8  28  1   
 15   8  29  1   
 16  10  11  1   
 17  10  12  1   
 18  11  13  1   
 19  11  30  1   
 20  11  31  1   
 21  12  14  1   
 22  12  32  1   
 23  12  33  1   
 24  13  15  1   
 25  13  34  1   
 26  13  35  1   
 27  14  16  1   
 28  14  36  1   
 29  14  37  1   
 30  15  16  1   
 31  15  17  am  
 32  16  38  1   
 33  16  39  1   
 34  17  18  2   
 35  17  19  1   
 36  19  20  1   
 37  19  21  1   
 38  19  22  1   
 39  20  23  1   
 40  21  24  1   
 41  21  40  1   
 42  21  41  1   
 43  22  42  1   
 44  22  43  1   
 45  22  44  1   
 46  23  24  1   
 47  23  45  1   
 48  23  46  1   
 49  24  47  1   
 50  24  48  1   
@<TRIPOS>SUBSTRUCTURE
  1 ****  10 GROUP 4 **** **** 0

# MOE 2024.06 (io_trps.svl 2023.06)
