@<TRIPOS>MOLECULE
NONAME
38 40 1 0 0 
SMALL
USER_CHARGES


@<TRIPOS>ATOM
  1 O       -1.4270     0.5320    -0.2900 O.co2 1 <1>  -0.9000 
  2 C       -1.2560     1.1470     0.7730 C.2   1 <1>   0.9060 
  3 O       -0.9320     0.6080     1.8310 O.co2 1 <1>  -0.9000 
  4 C       -1.5020     2.6620     0.7360 C.3   1 <1>   0.3170 
  5 N       -2.4650     3.0630    -0.3870 N.4   1 <1>  -0.9590 
  6 C       -0.1210     3.3300     0.5790 C.3   1 <1>   0.1100 
  7 C       -2.4600     4.5300    -0.6730 C.3   1 <1>   0.3430 
  8 C       -3.8200     2.5050    -0.1210 C.3   1 <1>   0.2630 
  9 N       -0.2010     4.7950     0.3660 N.3   1 <1>  -0.8100 
 10 C       -1.0320     5.0860    -0.8250 C.3   1 <1>   0.1100 
 11 C        1.1560     5.3570     0.1980 C.3   1 <1>   0.2900 
 12 C        1.1060     6.8750     0.1570 C.2   1 <1>   0.0060 
 13 N        1.4850     7.5990    -0.8400 N.2   1 <1>  -0.5650 
 14 N        0.6210     7.5880     1.2030 N.pl3 1 <1>   0.0330 
 15 C        1.2450     8.8780    -0.4350 C.ar  1 <1>   0.2270 
 16 C        0.7030     8.8910     0.8370 C.ar  1 <1>  -0.1520 
 17 C        1.4640    10.0780    -1.1090 C.ar  1 <1>  -0.1500 
 18 C        0.3650    10.0890     1.4700 C.ar  1 <1>  -0.1500 
 19 C        1.1350    11.2660    -0.4930 C.ar  1 <1>  -0.1500 
 20 C        0.5860    11.2700     0.7960 C.ar  1 <1>  -0.1500 
 21 H       -1.9110     2.9450     1.6880 H     1 <1>   0.0800 
 22 H       -2.0830     2.5160    -1.1820 H     1 <1>   0.4500 
 23 H        0.3950     2.8660    -0.2460 H     1 <1>   0.0800 
 24 H        0.4500     3.1270     1.4710 H     1 <1>   0.0800 
 25 H       -2.9380     5.0540     0.1380 H     1 <1>   0.0800 
 26 H       -3.0160     4.7270    -1.5730 H     1 <1>   0.0800 
 27 H       -4.2320     2.9320     0.7780 H     1 <1>   0.0800 
 28 H       -3.7550     1.4340     0.0030 H     1 <1>   0.0800 
 29 H       -4.4790     2.7120    -0.9470 H     1 <1>   0.0800 
 30 H       -1.1010     6.1510    -0.9690 H     1 <1>   0.0800 
 31 H       -0.5770     4.6670    -1.7070 H     1 <1>   0.0800 
 32 H        1.6030     4.9900    -0.7110 H     1 <1>   0.0800 
 33 H        1.7790     5.0560     1.0230 H     1 <1>   0.0800 
 34 H        0.2350     7.2070     2.0700 H     1 <1>   0.2700 
 35 H        1.8870    10.0450    -2.0950 H     1 <1>   0.1500 
 36 H       -0.0550    10.0830     2.4600 H     1 <1>   0.1500 
 37 H        1.2990    12.2020    -0.9980 H     1 <1>   0.1500 
 38 H        0.3380    12.2120     1.2560 H     1 <1>   0.1500 
@<TRIPOS>BOND
  1   1   2  ar  
  2   2   3  ar  
  3   2   4  1   
  4   4   5  1   
  5   4   6  1   
  6   4  21  1   
  7   5   7  1   
  8   5   8  1   
  9   5  22  1   
 10   6   9  1   
 11   6  23  1   
 12   6  24  1   
 13   7  10  1   
 14   7  25  1   
 15   7  26  1   
 16   8  27  1   
 17   8  28  1   
 18   8  29  1   
 19   9  10  1   
 20   9  11  1   
 21  10  30  1   
 22  10  31  1   
 23  11  12  1   
 24  11  32  1   
 25  11  33  1   
 26  12  13  2   
 27  12  14  1   
 28  13  15  1   
 29  14  16  1   
 30  14  34  1   
 31  15  16  ar  
 32  15  17  ar  
 33  16  18  ar  
 34  17  19  ar  
 35  17  35  1   
 36  18  20  ar  
 37  18  36  1   
 38  19  20  ar  
 39  19  37  1   
 40  20  38  1   
@<TRIPOS>SUBSTRUCTURE
  1 ****   9 GROUP 4 **** **** 0

# MOE 2024.06 (io_trps.svl 2023.06)
