@<TRIPOS>MOLECULE
NONAME
48 50 1 0 0 
SMALL
USER_CHARGES


@<TRIPOS>ATOM
  1 O        2.3280    -0.5260    -0.4470 O.2   1 <1>  -0.5700 
  2 C        2.6410    -0.8340     0.6770 C.2   1 <1>   0.5690 
  3 N        3.4970    -0.0850     1.4230 N.am  1 <1>  -0.4930 
  4 C        2.0740    -2.1070     1.3090 C.3   1 <1>  -0.0190 
  5 C        4.1910     1.1040     1.1430 C.2   1 <1>   0.3520 
  6 C        3.1080    -3.2490     1.2660 C.3   1 <1>  -0.1600 
  7 C        0.7550    -2.5680     0.6520 C.3   1 <1>  -0.1600 
  8 N        4.9600     1.5910     2.0350 N.2   1 <1>  -0.4100 
  9 C        4.2370     1.9450     0.0160 C.2   1 <1>   0.3520 
 10 C        2.5540    -4.5370     1.8820 C.3   1 <1>   0.1400 
 11 C        0.2320    -3.8650     1.2760 C.3   1 <1>   0.1400 
 12 O        5.4430     2.6640     1.4850 O.3   1 <1>   0.2420 
 13 N        5.0340     2.9080     0.2790 N.2   1 <1>  -0.4100 
 14 N        3.5480     1.7940    -1.2020 N.am  1 <1>  -0.4930 
 15 N        1.2890    -4.9100     1.1900 N.am  1 <1>  -0.6600 
 16 C        3.5020     2.5380    -2.3350 C.2   1 <1>   0.5690 
 17 C        1.1880    -6.1030     0.5070 C.2   1 <1>   0.5690 
 18 O        2.8160     2.1800    -3.2570 O.2   1 <1>  -0.5700 
 19 C        4.2880     3.8200    -2.4910 C.3   1 <1>  -0.1790 
 20 O        2.1190    -6.8740     0.4650 O.2   1 <1>  -0.5700 
 21 C       -0.1040    -6.4920    -0.2300 C.3   1 <1>  -0.0190 
 22 C       -0.2400    -7.9730    -0.6000 C.3   1 <1>  -0.1600 
 23 C       -0.2760    -5.7900    -1.5810 C.3   1 <1>  -0.1600 
 24 C       -1.3310    -8.0060    -1.6700 C.3   1 <1>  -0.1600 
 25 C       -1.2800    -6.6410    -2.3650 C.3   1 <1>  -0.1600 
 26 H        3.7070    -0.4330     2.3560 H     1 <1>   0.3700 
 27 H        1.8590    -1.8890     2.3400 H     1 <1>   0.0800 
 28 H        3.9990    -2.9660     1.7970 H     1 <1>   0.0800 
 29 H        3.3860    -3.4510     0.2450 H     1 <1>   0.0800 
 30 H        0.9080    -2.7330    -0.4010 H     1 <1>   0.0800 
 31 H        0.0100    -1.7980     0.7550 H     1 <1>   0.0800 
 32 H        2.3520    -4.3950     2.9290 H     1 <1>   0.0800 
 33 H        3.2880    -5.3200     1.7930 H     1 <1>   0.0800 
 34 H       -0.6660    -4.1630     0.7700 H     1 <1>   0.0800 
 35 H       -0.0140    -3.7020     2.3110 H     1 <1>   0.0800 
 36 H        2.9580     0.9530    -1.2540 H     1 <1>   0.3700 
 37 H        3.9890     4.5250    -1.7390 H     1 <1>   0.0800 
 38 H        4.1000     4.2470    -3.4590 H     1 <1>   0.0800 
 39 H        5.3380     3.6180    -2.4000 H     1 <1>   0.0800 
 40 H       -0.9430    -6.2560     0.3980 H     1 <1>   0.0800 
 41 H       -0.4830    -8.5820     0.2530 H     1 <1>   0.0800 
 42 H        0.6810    -8.3280    -1.0310 H     1 <1>   0.0800 
 43 H        0.6690    -5.7930    -2.0980 H     1 <1>   0.0800 
 44 H       -0.6100    -4.7730    -1.4770 H     1 <1>   0.0800 
 45 H       -2.2920    -8.1340    -1.2000 H     1 <1>   0.0800 
 46 H       -1.1720    -8.8140    -2.3640 H     1 <1>   0.0800 
 47 H       -0.9660    -6.7420    -3.3900 H     1 <1>   0.0800 
 48 H       -2.2550    -6.1850    -2.3450 H     1 <1>   0.0800 
@<TRIPOS>BOND
  1   1   2  2   
  2   2   3  am  
  3   2   4  1   
  4   3   5  1   
  5   3  26  1   
  6   4   6  1   
  7   4   7  1   
  8   4  27  1   
  9   5   8  2   
 10   5   9  1   
 11   6  10  1   
 12   6  28  1   
 13   6  29  1   
 14   7  11  1   
 15   7  30  1   
 16   7  31  1   
 17   8  12  1   
 18   9  13  2   
 19   9  14  1   
 20  10  15  1   
 21  10  32  1   
 22  10  33  1   
 23  11  15  1   
 24  11  34  1   
 25  11  35  1   
 26  12  13  1   
 27  14  16  am  
 28  14  36  1   
 29  15  17  am  
 30  16  18  2   
 31  16  19  1   
 32  17  20  2   
 33  17  21  1   
 34  19  37  1   
 35  19  38  1   
 36  19  39  1   
 37  21  22  1   
 38  21  23  1   
 39  21  40  1   
 40  22  24  1   
 41  22  41  1   
 42  22  42  1   
 43  23  25  1   
 44  23  43  1   
 45  23  44  1   
 46  24  25  1   
 47  24  45  1   
 48  24  46  1   
 49  25  47  1   
 50  25  48  1   
@<TRIPOS>SUBSTRUCTURE
  1 ****   4 GROUP 4 **** **** 0

# MOE 2024.06 (io_trps.svl 2023.06)
