@<TRIPOS>MOLECULE
NONAME
59 63 1 0 0 
SMALL
USER_CHARGES


@<TRIPOS>ATOM
  1 N        0.4650     0.2470     0.2890 N.ar  1 <1>  -0.6200 
  2 C       -0.4610     1.1410     0.6700 C.ar  1 <1>   0.6200 
  3 C        1.1690     0.5820    -0.7630 C.ar  1 <1>   0.1660 
  4 N       -0.6910     2.3160     0.0680 N.ar  1 <1>  -0.6200 
  5 C       -1.2750     0.8090     1.8290 C.ar  1 <1>   0.0000 
  6 C        1.0050     1.7510    -1.4360 C.ar  1 <1>  -0.1430 
  7 C        2.2650    -0.2660    -1.3600 C.3   1 <1>   0.1440 
  8 C        0.0420     2.6140    -0.9810 C.ar  1 <1>   0.1600 
  9 C       -1.6690    -0.5050     2.0950 C.ar  1 <1>  -0.1500 
 10 C       -1.6980     1.7920     2.7290 C.ar  1 <1>  -0.1500 
 11 C        1.9620     1.8670    -2.5960 C.3   1 <1>  -0.0160 
 12 C        3.1930    -0.7220    -0.2220 C.3   1 <1>   0.3430 
 13 C        1.6610    -1.4890    -2.0840 C.3   1 <1>  -0.1600 
 14 C        2.9580     0.7180    -2.3420 C.3   1 <1>  -0.1600 
 15 C       -2.4390    -0.8230     3.2000 C.ar  1 <1>  -0.1500 
 16 C       -2.4680     1.4810     3.8350 C.ar  1 <1>  -0.1500 
 17 N        4.2440    -1.6930    -0.7010 N.4   1 <1>  -0.9590 
 18 C        2.7350    -2.5220    -2.4720 C.3   1 <1>  -0.1600 
 19 C       -2.8400     0.1710     4.0740 C.ar  1 <1>  -0.1500 
 20 C        3.6150    -2.9150    -1.2810 C.3   1 <1>   0.3430 
 21 C        5.2140    -2.0270     0.3810 C.3   1 <1>   0.4860 
 22 C        5.9860    -0.7800     0.7340 C.ar  1 <1>  -0.1430 
 23 C        5.6930    -0.0410     1.8570 C.ar  1 <1>   0.1600 
 24 C        7.0050    -0.3150    -0.0640 C.ar  1 <1>   0.1600 
 25 N        6.3180     1.0700     2.1380 N.ar  1 <1>  -0.6200 
 26 N        7.6420     0.7940     0.1970 N.ar  1 <1>  -0.6200 
 27 C        7.2720     1.4580     1.2930 C.ar  1 <1>   0.7200 
 28 N        7.9260     2.6400     1.5720 N.pl3 1 <1>  -0.8380 
 29 C        9.1300     3.0730     0.8040 C.3   1 <1>   0.1290 
 30 C        7.6900     3.3830     2.8440 C.3   1 <1>   0.1290 
 31 H       -0.1310     3.5540    -1.4770 H     1 <1>   0.1500 
 32 H       -1.3720    -1.2890     1.4230 H     1 <1>   0.1500 
 33 H       -1.4210     2.8170     2.5560 H     1 <1>   0.1500 
 34 H        2.4540     2.8250    -2.6110 H     1 <1>   0.0800 
 35 H        1.4290     1.7180    -3.5200 H     1 <1>   0.0800 
 36 H        2.5900    -1.1880     0.5410 H     1 <1>   0.0800 
 37 H        3.6550     0.1510     0.2110 H     1 <1>   0.0800 
 38 H        1.1180    -1.1700    -2.9580 H     1 <1>   0.0800 
 39 H        0.9500    -1.9630    -1.4270 H     1 <1>   0.0800 
 40 H        3.2510     0.2540    -3.2680 H     1 <1>   0.0800 
 41 H        3.8350     1.1400    -1.8790 H     1 <1>   0.0800 
 42 H       -2.7300    -1.8430     3.3800 H     1 <1>   0.1500 
 43 H       -2.7800     2.2590     4.5100 H     1 <1>   0.1500 
 44 H        4.7660    -1.2210    -1.4500 H     1 <1>   0.4500 
 45 H        3.3530    -2.1410    -3.2650 H     1 <1>   0.0800 
 46 H        2.2480    -3.4060    -2.8490 H     1 <1>   0.0800 
 47 H       -3.4400    -0.0730     4.9330 H     1 <1>   0.1500 
 48 H        3.0090    -3.4050    -0.5350 H     1 <1>   0.0800 
 49 H        4.3750    -3.6060    -1.6110 H     1 <1>   0.0800 
 50 H        5.9010    -2.7870     0.0440 H     1 <1>   0.0800 
 51 H        4.6930    -2.4000     1.2490 H     1 <1>   0.0800 
 52 H        4.9230    -0.3550     2.5430 H     1 <1>   0.1500 
 53 H        7.3100    -0.8550    -0.9450 H     1 <1>   0.1500 
 54 H        9.0120     2.8510    -0.2430 H     1 <1>   0.0800 
 55 H        9.9990     2.5590     1.1750 H     1 <1>   0.0800 
 56 H        9.2770     4.1340     0.9040 H     1 <1>   0.0800 
 57 H        6.6420     3.3890     3.0870 H     1 <1>   0.0800 
 58 H        8.0160     4.4040     2.7490 H     1 <1>   0.0800 
 59 H        8.2330     2.9110     3.6430 H     1 <1>   0.0800 
@<TRIPOS>BOND
  1   1   2  ar  
  2   1   3  ar  
  3   2   4  ar  
  4   2   5  1   
  5   3   6  ar  
  6   3   7  1   
  7   4   8  ar  
  8   5   9  ar  
  9   5  10  ar  
 10   6   8  ar  
 11   6  11  1   
 12   7  12  1   
 13   7  13  1   
 14   7  14  1   
 15   8  31  1   
 16   9  15  ar  
 17   9  32  1   
 18  10  16  ar  
 19  10  33  1   
 20  11  14  1   
 21  11  34  1   
 22  11  35  1   
 23  12  17  1   
 24  12  36  1   
 25  12  37  1   
 26  13  18  1   
 27  13  38  1   
 28  13  39  1   
 29  14  40  1   
 30  14  41  1   
 31  15  19  ar  
 32  15  42  1   
 33  16  19  ar  
 34  16  43  1   
 35  17  20  1   
 36  17  21  1   
 37  17  44  1   
 38  18  20  1   
 39  18  45  1   
 40  18  46  1   
 41  19  47  1   
 42  20  48  1   
 43  20  49  1   
 44  21  22  1   
 45  21  50  1   
 46  21  51  1   
 47  22  23  ar  
 48  22  24  ar  
 49  23  25  ar  
 50  23  52  1   
 51  24  26  ar  
 52  24  53  1   
 53  25  27  ar  
 54  26  27  ar  
 55  27  28  1   
 56  28  29  1   
 57  28  30  1   
 58  29  54  1   
 59  29  55  1   
 60  29  56  1   
 61  30  57  1   
 62  30  58  1   
 63  30  59  1   
@<TRIPOS>SUBSTRUCTURE
  1 ****  12 GROUP 4 **** **** 0

# MOE 2024.06 (io_trps.svl 2023.06)
