@<TRIPOS>MOLECULE
NONAME
50 51 1 0 0 
SMALL
USER_CHARGES


@<TRIPOS>ATOM
  1 O        0.2590     0.5130     0.6290 O.2   1 <1>  -0.5700 
  2 C        1.1510    -0.2380     0.9370 C.2   1 <1>   0.5690 
  3 N        2.1620     0.1490     1.7460 N.am  1 <1>  -0.7300 
  4 C        1.1470    -1.6500     0.3990 C.3   1 <1>  -0.0990 
  5 C        2.2980     1.4840     2.3430 C.3   1 <1>   0.4000 
  6 C        0.2890    -2.5690     1.2750 C.3   1 <1>  -0.0160 
  7 C        3.5350     2.1620     1.7570 C.2   1 <1>   0.0060 
  8 C        2.3780     1.3060     3.8580 C.3   1 <1>  -0.2400 
  9 C        0.3170    -3.9910     0.7380 C.ar  1 <1>  -0.1430 
 10 N        4.6810     2.2740     2.3380 N.2   1 <1>  -0.5650 
 11 N        3.5580     2.7220     0.5360 N.pl3 1 <1>   0.3140 
 12 C       -0.5940    -4.3930    -0.2240 C.ar  1 <1>  -0.1500 
 13 C        1.2580    -4.8950     1.2030 C.ar  1 <1>  -0.1500 
 14 C        5.3900     2.9330     1.4170 C.2   1 <1>   0.3660 
 15 N        4.7680     3.2250     0.3250 N.2   1 <1>  -0.7070 
 16 C        2.4960     2.8090    -0.4920 C.3   1 <1>   0.0960 
 17 C       -0.5730    -5.6940    -0.7230 C.ar  1 <1>   0.0830 
 18 C        1.2860    -6.1880     0.7120 C.ar  1 <1>  -0.1500 
 19 C        2.7260     1.7800    -1.6090 C.3   1 <1>  -0.1600 
 20 O       -1.4470    -6.1370    -1.6670 O.3   1 <1>  -0.3630 
 21 C        0.3760    -6.5960    -0.2500 C.ar  1 <1>  -0.1430 
 22 C        1.5680     1.7790    -2.6120 C.3   1 <1>  -0.2400 
 23 C       -2.4530    -5.3030    -2.1950 C.3   1 <1>   0.0400 
 24 C        0.4210    -8.0230    -0.7780 C.3   1 <1>  -0.0970 
 25 H        2.9510    -0.4690     1.9390 H     1 <1>   0.3700 
 26 H        2.1530    -2.0240     0.3530 H     1 <1>   0.0800 
 27 H        0.7530    -1.6370    -0.6010 H     1 <1>   0.0800 
 28 H        1.4290     2.0800     2.1200 H     1 <1>   0.0800 
 29 H       -0.7250    -2.2070     1.2920 H     1 <1>   0.0800 
 30 H        0.6550    -2.5560     2.2870 H     1 <1>   0.0800 
 31 H        3.2270     0.7030     4.1250 H     1 <1>   0.0800 
 32 H        1.4780     0.8480     4.2260 H     1 <1>   0.0800 
 33 H        2.4880     2.2680     4.3250 H     1 <1>   0.0800 
 34 H       -1.3160    -3.6820    -0.5760 H     1 <1>   0.1500 
 35 H        1.9730    -4.6000     1.9500 H     1 <1>   0.1500 
 36 H        6.4210     3.1960     1.5970 H     1 <1>   0.1500 
 37 H        2.5110     3.8020    -0.9040 H     1 <1>   0.0800 
 38 H        1.5390     2.6500    -0.0320 H     1 <1>   0.0800 
 39 H        2.0230    -6.8770     1.0850 H     1 <1>   0.1500 
 40 H        2.8190     0.7970    -1.1810 H     1 <1>   0.0800 
 41 H        3.6440     2.0140    -2.1220 H     1 <1>   0.0800 
 42 H        0.6450     1.5240    -2.1190 H     1 <1>   0.0800 
 43 H        1.7520     1.0550    -3.3860 H     1 <1>   0.0800 
 44 H        1.4630     2.7480    -3.0680 H     1 <1>   0.0800 
 45 H       -3.0180    -5.8730    -2.9100 H     1 <1>   0.0800 
 46 H       -1.9900    -4.4630    -2.6820 H     1 <1>   0.0800 
 47 H       -3.0950    -4.9810    -1.3950 H     1 <1>   0.0800 
 48 H       -0.5160    -8.5120    -0.5810 H     1 <1>   0.0800 
 49 H        1.2090    -8.5870    -0.3130 H     1 <1>   0.0800 
 50 H        0.5860    -8.0110    -1.8410 H     1 <1>   0.0800 
@<TRIPOS>BOND
  1   1   2  2   
  2   2   3  am  
  3   2   4  1   
  4   3   5  1   
  5   3  25  1   
  6   4   6  1   
  7   4  26  1   
  8   4  27  1   
  9   5   7  1   
 10   5   8  1   
 11   5  28  1   
 12   6   9  1   
 13   6  29  1   
 14   6  30  1   
 15   7  10  2   
 16   7  11  1   
 17   8  31  1   
 18   8  32  1   
 19   8  33  1   
 20   9  12  ar  
 21   9  13  ar  
 22  10  14  1   
 23  11  15  1   
 24  11  16  1   
 25  12  17  ar  
 26  12  34  1   
 27  13  18  ar  
 28  13  35  1   
 29  14  15  2   
 30  14  36  1   
 31  16  19  1   
 32  16  37  1   
 33  16  38  1   
 34  17  20  1   
 35  17  21  ar  
 36  18  21  ar  
 37  18  39  1   
 38  19  22  1   
 39  19  40  1   
 40  19  41  1   
 41  20  23  1   
 42  21  24  1   
 43  22  42  1   
 44  22  43  1   
 45  22  44  1   
 46  23  45  1   
 47  23  46  1   
 48  23  47  1   
 49  24  48  1   
 50  24  49  1   
 51  24  50  1   
@<TRIPOS>SUBSTRUCTURE
  1 ****   4 GROUP 4 **** **** 0

# MOE 2024.06 (io_trps.svl 2023.06)
