@<TRIPOS>MOLECULE
NONAME
34 35 1 0 0 
SMALL
USER_CHARGES


@<TRIPOS>ATOM
  1 S        0.5890     0.7510    -0.5130 S.3   1 <1>  -0.0800 
  2 C       -1.0590     1.2750    -0.2060 C.2   1 <1>  -0.0450 
  3 C        0.0860    -0.9110    -0.3890 C.2   1 <1>   0.2280 
  4 C       -1.8010     0.1490    -0.0450 C.2   1 <1>   0.0460 
  5 C       -1.3410     2.6890    -0.1740 C.2   1 <1>   0.7150 
  6 N       -1.1520    -1.0640    -0.1490 N.2   1 <1>  -0.5650 
  7 C       -3.2890     0.0530     0.2420 C.3   1 <1>  -0.0590 
  8 O       -2.4630     3.0990     0.0530 O.2   1 <1>  -0.5700 
  9 N       -0.3190     3.5800    -0.4060 N.am  1 <1>  -0.4940 
 10 C       -0.3100     4.9970    -0.4000 C.2   1 <1>  -0.0880 
 11 N        0.7740     5.7690    -0.6850 N.pl3 1 <1>   0.3140 
 12 C       -1.3160     5.8610    -0.1220 C.2   1 <1>  -0.1500 
 13 N        0.4870     7.0860    -0.5950 N.2   1 <1>  -0.7070 
 14 C        2.1230     5.3130    -1.0750 C.3   1 <1>   0.0960 
 15 C       -0.7620     7.1270    -0.2590 C.2   1 <1>   0.1080 
 16 C        2.9200     4.8310     0.1460 C.3   1 <1>  -0.1600 
 17 C       -1.5010     8.4270    -0.0470 C.3   1 <1>  -0.0590 
 18 C        4.3020     4.3080    -0.2610 C.3   1 <1>  -0.2400 
 19 H        0.8380    -1.6700    -0.5200 H     1 <1>   0.1500 
 20 H       -3.7510     1.0180     0.3090 H     1 <1>   0.0800 
 21 H       -3.4410    -0.4650     1.1710 H     1 <1>   0.0800 
 22 H       -3.7690    -0.5020    -0.5430 H     1 <1>   0.0800 
 23 H        0.5730     3.1250    -0.5890 H     1 <1>   0.3700 
 24 H       -2.3310     5.6360     0.1490 H     1 <1>   0.1500 
 25 H        2.6320     6.1370    -1.5420 H     1 <1>   0.0800 
 26 H        2.0200     4.5250    -1.7970 H     1 <1>   0.0800 
 27 H        2.3820     4.0490     0.6530 H     1 <1>   0.0800 
 28 H        3.0420     5.6550     0.8300 H     1 <1>   0.0800 
 29 H       -2.5230     8.2390     0.2250 H     1 <1>   0.0800 
 30 H       -1.4760     9.0040    -0.9530 H     1 <1>   0.0800 
 31 H       -1.0230     8.9860     0.7360 H     1 <1>   0.0800 
 32 H        4.2110     3.4720    -0.9320 H     1 <1>   0.0800 
 33 H        4.8440     3.9870     0.6120 H     1 <1>   0.0800 
 34 H        4.8700     5.0830    -0.7460 H     1 <1>   0.0800 
@<TRIPOS>BOND
  1   1   2  1   
  2   1   3  1   
  3   2   4  2   
  4   2   5  1   
  5   3   6  2   
  6   3  19  1   
  7   4   6  1   
  8   4   7  1   
  9   5   8  2   
 10   5   9  am  
 11   7  20  1   
 12   7  21  1   
 13   7  22  1   
 14   9  10  1   
 15   9  23  1   
 16  10  11  1   
 17  10  12  2   
 18  11  13  1   
 19  11  14  1   
 20  12  15  1   
 21  12  24  1   
 22  13  15  2   
 23  14  16  1   
 24  14  25  1   
 25  14  26  1   
 26  15  17  1   
 27  16  18  1   
 28  16  27  1   
 29  16  28  1   
 30  17  29  1   
 31  17  30  1   
 32  17  31  1   
 33  18  32  1   
 34  18  33  1   
 35  18  34  1   
@<TRIPOS>SUBSTRUCTURE
  1 ****   9 GROUP 4 **** **** 0

# MOE 2024.06 (io_trps.svl 2023.06)
