@<TRIPOS>MOLECULE
NONAME
52 54 1 0 0 
SMALL
USER_CHARGES


@<TRIPOS>ATOM
  1 S        0.2520    -0.9280    -0.6240 S.3   1 <1>  -0.4600 
  2 C       -1.3270    -0.9700    -1.5140 C.3   1 <1>   0.0700 
  3 C        0.5610     0.8130    -0.1650 C.3   1 <1>   0.0700 
  4 C       -2.4130    -0.4890    -0.5470 C.3   1 <1>   0.4230 
  5 C       -0.0900     1.1310     1.1910 C.3   1 <1>   0.0700 
  6 N       -3.7440    -1.0960    -0.8440 N.4   1 <1>  -0.9060 
  7 C       -2.4750     1.0440    -0.5230 C.3   1 <1>   0.0700 
  8 S       -1.8650     1.5840     1.0910 S.3   1 <1>  -0.4600 
  9 C       -4.7120    -0.9080     0.2900 C.3   1 <1>   0.3430 
 10 C       -5.8830    -1.9260     0.2400 C.3   1 <1>   0.1430 
 11 C       -5.2710    -3.2940    -0.1490 C.ar  1 <1>  -0.1430 
 12 C       -6.9860    -1.4440    -0.7360 C.3   1 <1>  -0.1600 
 13 C       -6.5640    -2.0040     1.6270 C.3   1 <1>  -0.1600 
 14 C       -5.4470    -3.8760    -1.4040 C.ar  1 <1>  -0.1500 
 15 C       -4.4520    -3.9590     0.7620 C.ar  1 <1>  -0.1500 
 16 C       -8.2080    -2.3780    -0.7410 C.3   1 <1>   0.3430 
 17 C       -7.7330    -2.9920     1.6150 C.3   1 <1>   0.3430 
 18 C       -4.8460    -5.0800    -1.7240 C.ar  1 <1>  -0.1500 
 19 C       -3.8520    -5.1630     0.4420 C.ar  1 <1>  -0.1500 
 20 N       -8.7590    -2.5290     0.6360 N.4   1 <1>  -0.9590 
 21 C       -4.0490    -5.7270    -0.8020 C.ar  1 <1>  -0.1500 
 22 C       -9.9200    -3.4760     0.6270 C.3   1 <1>   0.2630 
 23 H       -1.4710    -1.9980    -1.7970 H     1 <1>   0.0800 
 24 H       -1.2290    -0.3510    -2.3880 H     1 <1>   0.0800 
 25 H        0.2400     1.4610    -0.9580 H     1 <1>   0.0800 
 26 H        1.6300     0.8930    -0.0700 H     1 <1>   0.0800 
 27 H       -2.1170    -0.8230     0.4360 H     1 <1>   0.0800 
 28 H        0.3980     1.9810     1.6370 H     1 <1>   0.0800 
 29 H       -0.0040     0.2960     1.8640 H     1 <1>   0.0800 
 30 H       -3.6100    -2.1170    -0.9560 H     1 <1>   0.4500 
 31 H       -4.1140    -0.7450    -1.7340 H     1 <1>   0.4500 
 32 H       -3.4790     1.4190    -0.6040 H     1 <1>   0.0800 
 33 H       -1.8650     1.5100    -1.2750 H     1 <1>   0.0800 
 34 H       -5.0930     0.1000     0.2990 H     1 <1>   0.0800 
 35 H       -4.1820    -1.0620     1.2170 H     1 <1>   0.0800 
 36 H       -6.6030    -1.3590    -1.7360 H     1 <1>   0.0800 
 37 H       -7.3190    -0.4590    -0.4560 H     1 <1>   0.0800 
 38 H       -6.9300    -1.0360     1.9240 H     1 <1>   0.0800 
 39 H       -5.8710    -2.3090     2.3890 H     1 <1>   0.0800 
 40 H       -6.0410    -3.4290    -2.1790 H     1 <1>   0.1500 
 41 H       -4.2470    -3.5670     1.7430 H     1 <1>   0.1500 
 42 H       -7.9220    -3.3480    -1.1160 H     1 <1>   0.0800 
 43 H       -8.9660    -1.9790    -1.3970 H     1 <1>   0.0800 
 44 H       -8.1660    -3.0540     2.6010 H     1 <1>   0.0800 
 45 H       -7.3760    -3.9730     1.3390 H     1 <1>   0.0800 
 46 H       -4.9950    -5.5240    -2.6960 H     1 <1>   0.1500 
 47 H       -3.2270    -5.6690     1.1610 H     1 <1>   0.1500 
 48 H       -9.1140    -1.6130     0.9500 H     1 <1>   0.4500 
 49 H       -3.5840    -6.6670    -1.0510 H     1 <1>   0.1500 
 50 H       -9.6030    -4.4570     0.3090 H     1 <1>   0.0800 
 51 H      -10.6850    -3.1270    -0.0480 H     1 <1>   0.0800 
 52 H      -10.3470    -3.5570     1.6140 H     1 <1>   0.0800 
@<TRIPOS>BOND
  1   1   2  1   
  2   1   3  1   
  3   2   4  1   
  4   2  23  1   
  5   2  24  1   
  6   3   5  1   
  7   3  25  1   
  8   3  26  1   
  9   4   6  1   
 10   4   7  1   
 11   4  27  1   
 12   5   8  1   
 13   5  28  1   
 14   5  29  1   
 15   6   9  1   
 16   6  30  1   
 17   6  31  1   
 18   7   8  1   
 19   7  32  1   
 20   7  33  1   
 21   9  10  1   
 22   9  34  1   
 23   9  35  1   
 24  10  11  1   
 25  10  12  1   
 26  10  13  1   
 27  11  14  ar  
 28  11  15  ar  
 29  12  16  1   
 30  12  36  1   
 31  12  37  1   
 32  13  17  1   
 33  13  38  1   
 34  13  39  1   
 35  14  18  ar  
 36  14  40  1   
 37  15  19  ar  
 38  15  41  1   
 39  16  20  1   
 40  16  42  1   
 41  16  43  1   
 42  17  20  1   
 43  17  44  1   
 44  17  45  1   
 45  18  21  ar  
 46  18  46  1   
 47  19  21  ar  
 48  19  47  1   
 49  20  22  1   
 50  20  48  1   
 51  21  49  1   
 52  22  50  1   
 53  22  51  1   
 54  22  52  1   
@<TRIPOS>SUBSTRUCTURE
  1 ****   9 GROUP 4 **** **** 0

# MOE 2024.06 (io_trps.svl 2023.06)
