@<TRIPOS>MOLECULE
NONAME
53 55 1 0 0 
SMALL
USER_CHARGES


@<TRIPOS>ATOM
  1 O       -1.1990     0.7520    -1.9800 O.2   1 <1>  -0.5700 
  2 C       -0.7820     1.6120    -1.2400 C.2   1 <1>   0.5690 
  3 N       -1.6140     2.4380    -0.5270 N.am  1 <1>  -0.6600 
  4 C        0.7380     1.7620    -1.1320 C.3   1 <1>   0.1810 
  5 C       -1.0300     3.5530     0.3110 C.3   1 <1>   0.3640 
  6 C       -3.0600     2.0740    -0.3850 C.3   1 <1>   0.2200 
  7 O        1.1470     2.4600     0.0170 O.3   1 <1>  -0.5600 
  8 C       -1.6630     4.9040    -0.0310 C.ar  1 <1>  -0.1440 
  9 C        0.5040     3.7090     0.1600 C.3   1 <1>   0.2610 
 10 C       -3.9340     2.9160    -1.3130 C.3   1 <1>  -0.2400 
 11 C       -3.5440     2.1580     1.0640 C.3   1 <1>  -0.2400 
 12 C       -1.7410     5.3500    -1.3440 C.ar  1 <1>  -0.1500 
 13 C       -2.1390     5.7200     0.9850 C.ar  1 <1>  -0.1500 
 14 C        1.1020     4.5250     1.3190 C.2   1 <1>   0.5690 
 15 C       -2.2890     6.5870    -1.6360 C.ar  1 <1>  -0.1500 
 16 C       -2.6890     6.9570     0.6960 C.ar  1 <1>  -0.1500 
 17 O        0.5530     4.5010     2.4010 O.2   1 <1>  -0.5700 
 18 N        2.2160     5.3030     1.1160 N.am  1 <1>  -0.6600 
 19 C       -2.7640     7.3910    -0.6150 C.ar  1 <1>  -0.1500 
 20 C        2.5240     6.4230     2.0480 C.3   1 <1>   0.3200 
 21 C        3.0760     5.2430    -0.0990 C.3   1 <1>   0.0600 
 22 C        2.0950     7.7360     1.4180 C.2   1 <1>  -0.0400 
 23 O        2.9090     8.3540     0.5820 O.3   1 <1>  -0.2800 
 24 C        0.9470     8.4330     1.5610 C.2   1 <1>  -0.1500 
 25 C        2.3050     9.4510     0.1740 C.2   1 <1>  -0.0400 
 26 C        1.0860     9.5610     0.7430 C.2   1 <1>  -0.1500 
 27 C        3.0250    10.3550    -0.8010 C.3   1 <1>  -0.0600 
 28 H        1.1110     2.2780    -1.9980 H     1 <1>   0.0800 
 29 H        1.1850     0.7860    -1.0940 H     1 <1>   0.0800 
 30 H       -1.2320     3.3210     1.3410 H     1 <1>   0.0800 
 31 H       -3.1780     1.0470    -0.6890 H     1 <1>   0.0800 
 32 H        0.6890     4.2600    -0.7430 H     1 <1>   0.0800 
 33 H       -4.0100     3.9290    -0.9660 H     1 <1>   0.0800 
 34 H       -4.9260     2.5030    -1.3440 H     1 <1>   0.0800 
 35 H       -3.5320     2.9020    -2.3100 H     1 <1>   0.0800 
 36 H       -3.5790     3.1760     1.4060 H     1 <1>   0.0800 
 37 H       -2.9040     1.5780     1.7030 H     1 <1>   0.0800 
 38 H       -4.5380     1.7540     1.1310 H     1 <1>   0.0800 
 39 H       -1.3830     4.7300    -2.1480 H     1 <1>   0.1500 
 40 H       -2.0770     5.4000     2.0120 H     1 <1>   0.1500 
 41 H       -2.3480     6.9220    -2.6560 H     1 <1>   0.1500 
 42 H       -3.0560     7.5810     1.4910 H     1 <1>   0.1500 
 43 H       -3.1900     8.3530    -0.8410 H     1 <1>   0.1500 
 44 H        2.0010     6.2930     2.9790 H     1 <1>   0.0800 
 45 H        3.5770     6.4450     2.2630 H     1 <1>   0.0800 
 46 H        4.0950     5.4710     0.1630 H     1 <1>   0.0800 
 47 H        2.7340     5.9650    -0.8210 H     1 <1>   0.0800 
 48 H        3.0520     4.2590    -0.5340 H     1 <1>   0.0800 
 49 H        0.0860     8.1930     2.1590 H     1 <1>   0.1500 
 50 H        0.3480    10.3330     0.6180 H     1 <1>   0.1500 
 51 H        2.4150    11.2070    -1.0390 H     1 <1>   0.0800 
 52 H        3.2410     9.8150    -1.7040 H     1 <1>   0.0800 
 53 H        3.9470    10.6950    -0.3660 H     1 <1>   0.0800 
@<TRIPOS>BOND
  1   1   2  2   
  2   2   3  am  
  3   2   4  1   
  4   3   5  1   
  5   3   6  1   
  6   4   7  1   
  7   4  28  1   
  8   4  29  1   
  9   5   8  1   
 10   5   9  1   
 11   5  30  1   
 12   6  10  1   
 13   6  11  1   
 14   6  31  1   
 15   7   9  1   
 16   8  12  ar  
 17   8  13  ar  
 18   9  14  1   
 19   9  32  1   
 20  10  33  1   
 21  10  34  1   
 22  10  35  1   
 23  11  36  1   
 24  11  37  1   
 25  11  38  1   
 26  12  15  ar  
 27  12  39  1   
 28  13  16  ar  
 29  13  40  1   
 30  14  17  2   
 31  14  18  am  
 32  15  19  ar  
 33  15  41  1   
 34  16  19  ar  
 35  16  42  1   
 36  18  20  1   
 37  18  21  1   
 38  19  43  1   
 39  20  22  1   
 40  20  44  1   
 41  20  45  1   
 42  21  46  1   
 43  21  47  1   
 44  21  48  1   
 45  22  23  1   
 46  22  24  2   
 47  23  25  1   
 48  24  26  1   
 49  24  49  1   
 50  25  26  2   
 51  25  27  1   
 52  26  50  1   
 53  27  51  1   
 54  27  52  1   
 55  27  53  1   
@<TRIPOS>SUBSTRUCTURE
  1 ****   8 GROUP 4 **** **** 0

# MOE 2024.06 (io_trps.svl 2023.06)
