@<TRIPOS>MOLECULE
NONAME
54 56 1 0 0 
SMALL
USER_CHARGES


@<TRIPOS>ATOM
  1 O       -0.5630     0.1460    -0.2260 O.2   1 <1>  -0.5700 
  2 C       -1.5530     0.7950    -0.5120 C.2   1 <1>   0.5440 
  3 N       -2.6680     0.1540    -1.0120 N.am  1 <1>  -0.6600 
  4 C       -1.5340     2.2290    -0.3020 C.ar  1 <1>   0.0860 
  5 C       -2.6620    -1.3070    -1.3530 C.3   1 <1>   0.1400 
  6 C       -4.0230     0.7860    -1.0770 C.3   1 <1>   0.1400 
  7 C       -1.8490     3.1270    -1.3230 C.ar  1 <1>  -0.1500 
  8 C       -1.1970     2.7670     0.9390 C.ar  1 <1>  -0.1500 
  9 C       -3.5050    -2.1550    -0.3550 C.3   1 <1>  -0.1060 
 10 C       -5.1270    -0.2040    -0.6770 C.3   1 <1>  -0.1600 
 11 C       -1.8460     4.4920    -1.1070 C.ar  1 <1>  -0.1500 
 12 C       -1.1930     4.1310     1.1560 C.ar  1 <1>  -0.1500 
 13 C       -4.1660    -3.2970    -1.1580 C.2   1 <1>   0.9060 
 14 C       -4.5600    -1.2210     0.3110 C.3   1 <1>   0.2000 
 15 C       -2.6050    -2.7240     0.7810 C.3   1 <1>  -0.1600 
 16 C       -1.5200     5.0190     0.1370 C.ar  1 <1>   0.0000 
 17 O       -5.2020    -3.8330    -0.7330 O.co2 1 <1>  -0.9000 
 18 O       -3.6620    -3.6760    -2.2230 O.co2 1 <1>  -0.9000 
 19 O       -5.6060    -1.9190     0.8770 O.3   1 <1>  -0.6800 
 20 C       -1.5930    -3.8010     0.3480 C.3   1 <1>  -0.1600 
 21 C       -1.5200     6.4450     0.3640 C.ar  1 <1>   0.0000 
 22 C       -0.7550    -4.2730     1.5400 C.3   1 <1>  -0.2400 
 23 C       -0.3930     7.2360     0.1280 C.ar  1 <1>  -0.1430 
 24 C       -2.6760     7.0620     0.8330 C.ar  1 <1>  -0.1500 
 25 C       -0.4400     8.6010     0.3580 C.ar  1 <1>  -0.1500 
 26 C        0.8970     6.6070    -0.3820 C.3   1 <1>  -0.0970 
 27 C       -2.7210     8.4240     1.0620 C.ar  1 <1>  -0.1500 
 28 C       -1.5990     9.1960     0.8230 C.ar  1 <1>  -0.1500 
 29 H       -3.0780    -1.3920    -2.3430 H     1 <1>   0.0800 
 30 H       -1.6560    -1.6770    -1.4190 H     1 <1>   0.0800 
 31 H       -4.0580     1.6220    -0.4000 H     1 <1>   0.0800 
 32 H       -4.2040     1.1470    -2.0740 H     1 <1>   0.0800 
 33 H       -2.0950     2.7380    -2.2950 H     1 <1>   0.1500 
 34 H       -0.9350     2.0920     1.7360 H     1 <1>   0.1500 
 35 H       -5.4920    -0.7160    -1.5500 H     1 <1>   0.0800 
 36 H       -5.9430     0.3340    -0.2310 H     1 <1>   0.0800 
 37 H       -2.0940     5.1670    -1.9070 H     1 <1>   0.1500 
 38 H       -0.9310     4.5230     2.1230 H     1 <1>   0.1500 
 39 H       -4.0960    -0.6760     1.1150 H     1 <1>   0.0800 
 40 H       -2.0720    -1.9100     1.2410 H     1 <1>   0.0800 
 41 H       -3.2460    -3.1590     1.5300 H     1 <1>   0.0800 
 42 H       -5.6850    -2.7730     0.3420 H     1 <1>   0.4000 
 43 H       -2.1160    -4.6450    -0.0700 H     1 <1>   0.0800 
 44 H       -0.9340    -3.4160    -0.4090 H     1 <1>   0.0800 
 45 H       -1.3920    -4.6890     2.3010 H     1 <1>   0.0800 
 46 H       -0.2020    -3.4490     1.9550 H     1 <1>   0.0800 
 47 H       -0.0610    -5.0290     1.2200 H     1 <1>   0.0800 
 48 H       -3.5490     6.4610     1.0190 H     1 <1>   0.1500 
 49 H        0.4250     9.2130     0.1770 H     1 <1>   0.1500 
 50 H        1.6710     7.3440    -0.4920 H     1 <1>   0.0800 
 51 H        0.7270     6.1450    -1.3380 H     1 <1>   0.0800 
 52 H        1.2380     5.8560     0.3090 H     1 <1>   0.0800 
 53 H       -3.6240     8.8830     1.4240 H     1 <1>   0.1500 
 54 H       -1.6280    10.2580     0.9990 H     1 <1>   0.1500 
@<TRIPOS>BOND
  1   1   2  2   
  2   2   3  am  
  3   2   4  1   
  4   3   5  1   
  5   3   6  1   
  6   4   7  ar  
  7   4   8  ar  
  8   5   9  1   
  9   5  29  1   
 10   5  30  1   
 11   6  10  1   
 12   6  31  1   
 13   6  32  1   
 14   7  11  ar  
 15   7  33  1   
 16   8  12  ar  
 17   8  34  1   
 18   9  13  1   
 19   9  14  1   
 20   9  15  1   
 21  10  14  1   
 22  10  35  1   
 23  10  36  1   
 24  11  16  ar  
 25  11  37  1   
 26  12  16  ar  
 27  12  38  1   
 28  13  17  ar  
 29  13  18  ar  
 30  14  19  1   
 31  14  39  1   
 32  15  20  1   
 33  15  40  1   
 34  15  41  1   
 35  16  21  1   
 36  19  42  1   
 37  20  22  1   
 38  20  43  1   
 39  20  44  1   
 40  21  23  ar  
 41  21  24  ar  
 42  22  45  1   
 43  22  46  1   
 44  22  47  1   
 45  23  25  ar  
 46  23  26  1   
 47  24  27  ar  
 48  24  48  1   
 49  25  28  ar  
 50  25  49  1   
 51  26  50  1   
 52  26  51  1   
 53  26  52  1   
 54  27  28  ar  
 55  27  53  1   
 56  28  54  1   
@<TRIPOS>SUBSTRUCTURE
  1 ****   4 GROUP 4 **** **** 0

# MOE 2024.06 (io_trps.svl 2023.06)
