@<TRIPOS>MOLECULE
NONAME
46 48 1 0 0 
SMALL
USER_CHARGES


@<TRIPOS>ATOM
  1 F        2.4120    -2.3460     0.3820 F     1 <1>  -0.3400 
  2 C        1.8550    -1.3150    -0.2410 C.3   1 <1>   1.3000 
  3 F        2.7450    -0.8290    -1.0930 F     1 <1>  -0.3400 
  4 F        1.6000    -0.3710     0.6580 F     1 <1>  -0.3400 
  5 O        0.6840    -1.6990    -0.9330 O.3   1 <1>  -0.3630 
  6 C       -0.3270    -2.2220    -0.2070 C.ar  1 <1>   0.0830 
  7 C       -0.4090    -3.5930    -0.0280 C.ar  1 <1>  -0.1500 
  8 C       -1.2880    -1.3860     0.3380 C.ar  1 <1>  -0.1500 
  9 C       -1.4470    -4.1610     0.7060 C.ar  1 <1>   0.0860 
 10 C       -2.3200    -1.9290     1.0810 C.ar  1 <1>  -0.1500 
 11 C       -1.5280    -5.6000     0.8850 C.2   1 <1>   0.5440 
 12 C       -2.3920    -3.2980     1.2650 C.ar  1 <1>  -0.1500 
 13 O       -0.5300    -6.2220     1.1930 O.2   1 <1>  -0.5700 
 14 N       -2.7060    -6.2850     0.6900 N.am  1 <1>  -0.6600 
 15 C       -3.8090    -5.8220    -0.1940 C.3   1 <1>   0.1400 
 16 C       -2.8410    -7.7420     0.9210 C.3   1 <1>   0.1400 
 17 C       -4.6480    -7.0680    -0.5170 C.3   1 <1>   0.2000 
 18 C       -3.6960    -8.2370    -0.2450 C.3   1 <1>  -0.0800 
 19 O       -5.7310    -7.1540     0.3660 O.3   1 <1>  -0.5600 
 20 C       -4.3870    -9.5850     0.0280 C.3   1 <1>   0.0200 
 21 C       -6.8720    -6.4560    -0.0240 C.3   1 <1>   0.0400 
 22 C       -3.4110   -10.7470     0.1190 C.2   1 <1>  -0.0400 
 23 O       -3.8700   -11.9310     0.4250 O.3   1 <1>  -0.0190 
 24 C       -2.0840   -10.8580    -0.0600 C.2   1 <1>  -0.1500 
 25 N       -2.9250   -12.8260     0.4650 N.2   1 <1>  -0.4100 
 26 C       -1.8370   -12.2070     0.1780 C.2   1 <1>   0.1080 
 27 C       -0.4770   -12.8630     0.1100 C.3   1 <1>  -0.0590 
 28 H        0.3400    -4.2360    -0.4570 H     1 <1>   0.1500 
 29 H       -1.2280    -0.3230     0.1850 H     1 <1>   0.1500 
 30 H       -3.0650    -1.2840     1.5180 H     1 <1>   0.1500 
 31 H       -3.1890    -3.7140     1.8580 H     1 <1>   0.1500 
 32 H       -4.4020    -5.0700     0.2950 H     1 <1>   0.0800 
 33 H       -3.3870    -5.4210    -1.0990 H     1 <1>   0.0800 
 34 H       -1.8830    -8.2310     0.9530 H     1 <1>   0.0800 
 35 H       -3.3510    -7.8970     1.8560 H     1 <1>   0.0800 
 36 H       -5.0120    -7.0760    -1.5300 H     1 <1>   0.0800 
 37 H       -3.0550    -8.3440    -1.1010 H     1 <1>   0.0800 
 38 H       -5.0870    -9.7920    -0.7610 H     1 <1>   0.0800 
 39 H       -4.9420    -9.5310     0.9490 H     1 <1>   0.0800 
 40 H       -7.6190    -6.5850     0.7400 H     1 <1>   0.0800 
 41 H       -7.2350    -6.8600    -0.9530 H     1 <1>   0.0800 
 42 H       -6.6400    -5.4110    -0.1280 H     1 <1>   0.0800 
 43 H       -1.3500   -10.1190    -0.3220 H     1 <1>   0.1500 
 44 H        0.2040   -12.3590     0.7710 H     1 <1>   0.0800 
 45 H       -0.0990   -12.8150    -0.8940 H     1 <1>   0.0800 
 46 H       -0.5510   -13.8940     0.4060 H     1 <1>   0.0800 
@<TRIPOS>BOND
  1   1   2  1   
  2   2   3  1   
  3   2   4  1   
  4   2   5  1   
  5   5   6  1   
  6   6   7  ar  
  7   6   8  ar  
  8   7   9  ar  
  9   7  28  1   
 10   8  10  ar  
 11   8  29  1   
 12   9  11  1   
 13   9  12  ar  
 14  10  12  ar  
 15  10  30  1   
 16  11  13  2   
 17  11  14  am  
 18  12  31  1   
 19  14  15  1   
 20  14  16  1   
 21  15  17  1   
 22  15  32  1   
 23  15  33  1   
 24  16  18  1   
 25  16  34  1   
 26  16  35  1   
 27  17  18  1   
 28  17  19  1   
 29  17  36  1   
 30  18  20  1   
 31  18  37  1   
 32  19  21  1   
 33  20  22  1   
 34  20  38  1   
 35  20  39  1   
 36  21  40  1   
 37  21  41  1   
 38  21  42  1   
 39  22  23  1   
 40  22  24  2   
 41  23  25  1   
 42  24  26  1   
 43  24  43  1   
 44  25  26  2   
 45  26  27  1   
 46  27  44  1   
 47  27  45  1   
 48  27  46  1   
@<TRIPOS>SUBSTRUCTURE
  1 ****  11 GROUP 4 **** **** 0

# MOE 2024.06 (io_trps.svl 2023.06)
