@<TRIPOS>MOLECULE
NONAME
53 55 1 0 0 
SMALL
USER_CHARGES


@<TRIPOS>ATOM
  1 O       -0.3270     0.4170    -0.1300 O.2   1 <1>  -0.5700 
  2 C       -1.3680     1.0100    -0.3430 C.2   1 <1>   0.5440 
  3 N       -2.5490     0.3050    -0.2950 N.am  1 <1>  -0.6600 
  4 C       -1.3420     2.4310    -0.6300 C.ar  1 <1>   0.0860 
  5 C       -3.8950     0.9070    -0.1620 C.3   1 <1>   0.1400 
  6 C       -2.5980    -1.1480    -0.0250 C.3   1 <1>   0.1400 
  7 C       -0.6270     3.3120     0.1760 C.ar  1 <1>  -0.1500 
  8 C       -2.0220     2.9720    -1.7200 C.ar  1 <1>  -0.1500 
  9 C       -4.7250    -0.1310     0.6040 C.3   1 <1>  -0.0800 
 10 C       -4.0680    -1.4790     0.2490 C.3   1 <1>  -0.0800 
 11 C       -0.5950     4.6740    -0.0670 C.ar  1 <1>   0.0830 
 12 C       -2.0120     4.3290    -1.9780 C.ar  1 <1>  -0.1500 
 13 C       -6.2690    -0.0720     0.3890 C.3   1 <1>   0.2800 
 14 C       -4.7610    -2.1270    -0.9590 C.3   1 <1>  -0.1600 
 15 O        0.1510     5.3990     0.8120 O.3   1 <1>  -0.3630 
 16 C       -1.3100     5.2050    -1.1540 C.ar  1 <1>   0.0830 
 17 O       -6.5650     0.4660    -0.8500 O.3   1 <1>  -0.6800 
 18 C       -6.8600    -1.4950     0.3970 C.3   1 <1>  -0.1600 
 19 C       -6.9860     0.8010     1.4420 C.3   1 <1>  -0.1600 
 20 C       -6.2430    -2.4250    -0.6710 C.3   1 <1>  -0.1600 
 21 C        0.8580     6.5440     0.3880 C.3   1 <1>   0.3200 
 22 O       -1.3180     6.5480    -1.3720 O.3   1 <1>  -0.3630 
 23 C       -6.5560     2.2780     1.4870 C.3   1 <1>  -0.2400 
 24 C        1.9710     6.7980     1.3480 C.1   1 <1>  -0.2000 
 25 C       -2.1260     7.1510    -2.3610 C.3   1 <1>   0.0400 
 26 C        2.8590     7.0010     2.1130 C.1   1 <1>  -0.1770 
 27 H       -3.8520     1.8440     0.3640 H     1 <1>   0.0800 
 28 H       -4.2830     1.0700    -1.1520 H     1 <1>   0.0800 
 29 H       -2.2090    -1.6960    -0.8660 H     1 <1>   0.0800 
 30 H       -1.9970    -1.3620     0.8430 H     1 <1>   0.0800 
 31 H       -0.0790     2.9190     1.0140 H     1 <1>   0.1500 
 32 H       -2.5640     2.3090    -2.3720 H     1 <1>   0.1500 
 33 H       -4.5310     0.0240     1.6500 H     1 <1>   0.0800 
 34 H       -4.1260    -2.1600     1.0810 H     1 <1>   0.0800 
 35 H       -2.5610     4.6820    -2.8310 H     1 <1>   0.1500 
 36 H       -4.6970    -1.4510    -1.7960 H     1 <1>   0.0800 
 37 H       -4.2570    -3.0370    -1.2380 H     1 <1>   0.0800 
 38 H       -7.5250     0.4160    -1.0000 H     1 <1>   0.4000 
 39 H       -6.6710    -1.9240     1.3650 H     1 <1>   0.0800 
 40 H       -7.9280    -1.4630     0.2750 H     1 <1>   0.0800 
 41 H       -8.0470     0.7600     1.2650 H     1 <1>   0.0800 
 42 H       -6.8200     0.3730     2.4150 H     1 <1>   0.0800 
 43 H       -6.3480    -3.4440    -0.3400 H     1 <1>   0.0800 
 44 H       -6.7930    -2.3280    -1.5910 H     1 <1>   0.0800 
 45 H        1.2470     6.3660    -0.5990 H     1 <1>   0.0800 
 46 H        0.1800     7.3780     0.3790 H     1 <1>   0.0800 
 47 H       -6.6550     2.7350     0.5180 H     1 <1>   0.0800 
 48 H       -5.5370     2.3710     1.8140 H     1 <1>   0.0800 
 49 H       -7.1770     2.8180     2.1800 H     1 <1>   0.0800 
 50 H       -1.9970     8.2160    -2.2940 H     1 <1>   0.0800 
 51 H       -3.1540     6.8960    -2.1760 H     1 <1>   0.0800 
 52 H       -1.8090     6.8060    -3.3300 H     1 <1>   0.0800 
 53 H        3.6600     7.1780     2.8090 H     1 <1>   0.1770 
@<TRIPOS>BOND
  1   1   2  2   
  2   2   3  am  
  3   2   4  1   
  4   3   5  1   
  5   3   6  1   
  6   4   7  ar  
  7   4   8  ar  
  8   5   9  1   
  9   5  27  1   
 10   5  28  1   
 11   6  10  1   
 12   6  29  1   
 13   6  30  1   
 14   7  11  ar  
 15   7  31  1   
 16   8  12  ar  
 17   8  32  1   
 18   9  10  1   
 19   9  13  1   
 20   9  33  1   
 21  10  14  1   
 22  10  34  1   
 23  11  15  1   
 24  11  16  ar  
 25  12  16  ar  
 26  12  35  1   
 27  13  17  1   
 28  13  18  1   
 29  13  19  1   
 30  14  20  1   
 31  14  36  1   
 32  14  37  1   
 33  15  21  1   
 34  16  22  1   
 35  17  38  1   
 36  18  20  1   
 37  18  39  1   
 38  18  40  1   
 39  19  23  1   
 40  19  41  1   
 41  19  42  1   
 42  20  43  1   
 43  20  44  1   
 44  21  24  1   
 45  21  45  1   
 46  21  46  1   
 47  22  25  1   
 48  23  47  1   
 49  23  48  1   
 50  23  49  1   
 51  24  26  3   
 52  25  50  1   
 53  25  51  1   
 54  25  52  1   
 55  26  53  1   
@<TRIPOS>SUBSTRUCTURE
  1 ****   4 GROUP 4 **** **** 0

# MOE 2024.06 (io_trps.svl 2023.06)
