@<TRIPOS>MOLECULE
NONAME
39 42 1 0 0 
SMALL
USER_CHARGES


@<TRIPOS>ATOM
  1 O        0.3810    -0.1340     0.3000 O.3   1 <1>  -0.6800 
  2 C        1.6310    -0.1730    -0.3040 C.3   1 <1>   0.2000 
  3 C        2.4070    -1.4070     0.1530 C.3   1 <1>  -0.0800 
  4 C        2.4910     1.0210     0.1080 C.3   1 <1>   0.2090 
  5 C        3.8790    -0.9890     0.0820 C.3   1 <1>   0.2090 
  6 C        2.0940    -2.6520    -0.6920 C.3   1 <1>   0.0210 
  7 N        3.8780     0.4930     0.1330 N.pl3 1 <1>  -0.8380 
  8 C        2.8400    -3.8680    -0.1830 C.2   1 <1>   0.1080 
  9 C        5.0240     1.2710     0.0590 C.ar  1 <1>   0.4100 
 10 N        2.4140    -4.5790     0.8140 N.2   1 <1>  -0.7070 
 11 C        4.0340    -4.3530    -0.7040 C.2   1 <1>  -0.1500 
 12 N        6.1640     0.6210    -0.0930 N.ar  1 <1>  -0.6200 
 13 C        5.0210     2.6850     0.1400 C.ar  1 <1>   0.2270 
 14 N        3.3360    -5.5500     0.9570 N.pl3 1 <1>   0.3000 
 15 C        4.3280    -5.4340     0.0490 C.2   1 <1>  -0.3320 
 16 C        7.2800     1.3580    -0.1610 C.ar  1 <1>   0.4700 
 17 N        4.0420     3.6440     0.2920 N.2   1 <1>  -0.5650 
 18 C        6.2450     3.2980     0.0540 C.ar  1 <1>   0.1050 
 19 C        5.5130    -6.3770    -0.0430 C.3   1 <1>  -0.0600 
 20 N        7.4080     2.6620    -0.0990 N.ar  1 <1>  -0.5670 
 21 C        4.6850     4.7600     0.2940 C.2   1 <1>   0.0360 
 22 N        6.0270     4.6210     0.1530 N.pl3 1 <1>   0.0330 
 23 H       -0.0590    -1.0020     0.2290 H     1 <1>   0.4000 
 24 H        1.5000    -0.1660    -1.3720 H     1 <1>   0.0800 
 25 H        2.1830    -1.6060     1.1870 H     1 <1>   0.0800 
 26 H        2.2240     1.3620     1.0940 H     1 <1>   0.0800 
 27 H        2.3940     1.8210    -0.6040 H     1 <1>   0.0800 
 28 H        4.3300    -1.3050    -0.8430 H     1 <1>   0.0800 
 29 H        4.4390    -1.3960     0.9070 H     1 <1>   0.0800 
 30 H        2.3550    -2.4790    -1.7200 H     1 <1>   0.0800 
 31 H        1.0410    -2.8630    -0.6480 H     1 <1>   0.0800 
 32 H        4.5840    -3.9370    -1.5300 H     1 <1>   0.1500 
 33 H        3.2590    -6.2730     1.6820 H     1 <1>   0.2700 
 34 H        8.1890     0.7940    -0.2820 H     1 <1>   0.1500 
 35 H        6.1650    -6.0740    -0.8440 H     1 <1>   0.0800 
 36 H        5.1770    -7.3800    -0.2370 H     1 <1>   0.0800 
 37 H        6.0720    -6.3640     0.8760 H     1 <1>   0.0800 
 38 H        4.2240     5.7280     0.3970 H     1 <1>   0.1500 
 39 H        6.7490     5.3420     0.1250 H     1 <1>   0.2700 
@<TRIPOS>BOND
  1   1   2  1   
  2   1  23  1   
  3   2   3  1   
  4   2   4  1   
  5   2  24  1   
  6   3   5  1   
  7   3   6  1   
  8   3  25  1   
  9   4   7  1   
 10   4  26  1   
 11   4  27  1   
 12   5   7  1   
 13   5  28  1   
 14   5  29  1   
 15   6   8  1   
 16   6  30  1   
 17   6  31  1   
 18   7   9  1   
 19   8  10  2   
 20   8  11  1   
 21   9  12  ar  
 22   9  13  ar  
 23  10  14  1   
 24  11  15  2   
 25  11  32  1   
 26  12  16  ar  
 27  13  17  1   
 28  13  18  ar  
 29  14  15  1   
 30  14  33  1   
 31  15  19  1   
 32  16  20  ar  
 33  16  34  1   
 34  17  21  2   
 35  18  20  ar  
 36  18  22  1   
 37  19  35  1   
 38  19  36  1   
 39  19  37  1   
 40  21  22  1   
 41  21  38  1   
 42  22  39  1   
@<TRIPOS>SUBSTRUCTURE
  1 ****   5 GROUP 4 **** **** 0

# MOE 2024.06 (io_trps.svl 2023.06)
