@<TRIPOS>MOLECULE
NONAME
47 49 1 0 0 
SMALL
USER_CHARGES


@<TRIPOS>ATOM
  1 CL       1.7130     0.5500    -1.8990 Cl    1 <1>  -0.1770 
  2 C        0.8870     1.7240    -0.8990 C.ar  1 <1>   0.1770 
  3 C        1.5440     2.4000     0.1260 C.ar  1 <1>  -0.1440 
  4 C       -0.4490     1.9510    -1.1750 C.ar  1 <1>  -0.1500 
  5 C        0.8160     3.3210     0.8710 C.ar  1 <1>  -0.1500 
  6 C        3.0150     2.1790     0.4670 C.3   1 <1>   0.3640 
  7 C       -1.1570     2.8710    -0.4230 C.ar  1 <1>  -0.1500 
  8 C       -0.5220     3.5540     0.5980 C.ar  1 <1>  -0.1500 
  9 N        3.2300     0.7690     0.8660 N.am  1 <1>  -0.7300 
 10 C        3.9720     2.6420    -0.6680 C.3   1 <1>   0.2610 
 11 C        4.2040    -0.0140     0.3530 C.2   1 <1>   0.5690 
 12 O        5.2280     1.9680    -0.6370 O.3   1 <1>  -0.5600 
 13 C        4.1510     4.1640    -0.5900 C.2   1 <1>   0.5690 
 14 O        4.3640    -1.1400     0.7470 O.2   1 <1>  -0.5700 
 15 C        5.1120     0.5610    -0.7350 C.3   1 <1>   0.1810 
 16 O        3.6040     4.8250    -1.4390 O.2   1 <1>  -0.5700 
 17 N        4.9230     4.7820     0.3750 N.am  1 <1>  -0.6600 
 18 C        5.9200     4.0870     1.2540 C.3   1 <1>   0.1400 
 19 C        4.9520     6.2690     0.4790 C.3   1 <1>   0.1400 
 20 C        7.2700     3.8810     0.5320 C.3   1 <1>   0.3430 
 21 C        6.0610     6.8600    -0.4020 C.3   1 <1>  -0.1600 
 22 N        7.4770     4.8480    -0.6000 N.4   1 <1>  -0.9590 
 23 C        7.4570     6.2740    -0.1730 C.3   1 <1>   0.3430 
 24 C        8.6900     4.5090    -1.4000 C.3   1 <1>   0.2630 
 25 H       -0.9280     1.4130    -1.9730 H     1 <1>   0.1500 
 26 H        1.2790     3.8710     1.6720 H     1 <1>   0.1500 
 27 H        3.2390     2.7750     1.3340 H     1 <1>   0.0800 
 28 H       -2.1970     3.0550    -0.6330 H     1 <1>   0.1500 
 29 H       -1.0720     4.2720     1.1830 H     1 <1>   0.1500 
 30 H        2.5690     0.3510     1.5240 H     1 <1>   0.3700 
 31 H        3.5270     2.4260    -1.6220 H     1 <1>   0.0800 
 32 H        4.7170     0.3120    -1.7030 H     1 <1>   0.0800 
 33 H        6.0950     0.1370    -0.6400 H     1 <1>   0.0800 
 34 H        6.0840     4.6710     2.1430 H     1 <1>   0.0800 
 35 H        5.5420     3.1340     1.5800 H     1 <1>   0.0800 
 36 H        4.0010     6.6730     0.1680 H     1 <1>   0.0800 
 37 H        5.0980     6.5590     1.5060 H     1 <1>   0.0800 
 38 H        7.2830     2.8780     0.1380 H     1 <1>   0.0800 
 39 H        8.0740     3.9570     1.2440 H     1 <1>   0.0800 
 40 H        6.1050     7.9170    -0.2040 H     1 <1>   0.0800 
 41 H        5.7860     6.7550    -1.4370 H     1 <1>   0.0800 
 42 H        6.6370     4.7330    -1.1960 H     1 <1>   0.4500 
 43 H        7.7380     6.3620     0.8640 H     1 <1>   0.0800 
 44 H        8.1630     6.8370    -0.7620 H     1 <1>   0.0800 
 45 H        9.5780     4.6170    -0.7990 H     1 <1>   0.0800 
 46 H        8.7680     5.1630    -2.2540 H     1 <1>   0.0800 
 47 H        8.6320     3.4920    -1.7530 H     1 <1>   0.0800 
@<TRIPOS>BOND
  1   1   2  1   
  2   2   3  ar  
  3   2   4  ar  
  4   3   5  ar  
  5   3   6  1   
  6   4   7  ar  
  7   4  25  1   
  8   5   8  ar  
  9   5  26  1   
 10   6   9  1   
 11   6  10  1   
 12   6  27  1   
 13   7   8  ar  
 14   7  28  1   
 15   8  29  1   
 16   9  11  am  
 17   9  30  1   
 18  10  12  1   
 19  10  13  1   
 20  10  31  1   
 21  11  14  2   
 22  11  15  1   
 23  12  15  1   
 24  13  16  2   
 25  13  17  am  
 26  15  32  1   
 27  15  33  1   
 28  17  18  1   
 29  17  19  1   
 30  18  20  1   
 31  18  34  1   
 32  18  35  1   
 33  19  21  1   
 34  19  36  1   
 35  19  37  1   
 36  20  22  1   
 37  20  38  1   
 38  20  39  1   
 39  21  23  1   
 40  21  40  1   
 41  21  41  1   
 42  22  23  1   
 43  22  24  1   
 44  22  42  1   
 45  23  43  1   
 46  23  44  1   
 47  24  45  1   
 48  24  46  1   
 49  24  47  1   
@<TRIPOS>SUBSTRUCTURE
  1 ****  10 GROUP 4 **** **** 0

# MOE 2024.06 (io_trps.svl 2023.06)
