@<TRIPOS>MOLECULE
NONAME
42 44 1 0 0 
SMALL
USER_CHARGES


@<TRIPOS>ATOM
  1 S        0.8400    -0.4080     1.8240 S.o2  1 <1>   1.5010 
  2 O        0.3630     0.3180     2.9810 O.2   1 <1>  -0.6500 
  3 O        1.7180    -1.5410     2.0230 O.2   1 <1>  -0.6500 
  4 N        1.7160     0.6870     0.8690 N.am  1 <1>  -0.8490 
  5 C       -0.5600    -0.8570     0.7610 C.2   1 <1>  -0.0630 
  6 C        2.4870     1.6490     1.6790 C.3   1 <1>   0.1960 
  7 C        2.4750     0.0280    -0.2010 C.3   1 <1>   0.1960 
  8 C       -1.3050    -1.9830     0.8380 C.2   1 <1>  -0.1400 
  9 C       -1.0140     0.0170    -0.2890 C.2   1 <1>  -0.1500 
 10 C        3.2730     2.7130     0.8760 C.3   1 <1>   0.2200 
 11 C        2.8590     0.9530    -1.3760 C.3   1 <1>  -0.0190 
 12 S       -2.5600    -2.0080    -0.3880 S.3   1 <1>  -0.0800 
 13 C       -1.2530    -3.1850     1.7610 C.3   1 <1>  -0.0600 
 14 C       -2.0590    -0.4460    -0.9960 C.2   1 <1>  -0.1400 
 15 N        2.4750     3.1800    -0.3060 N.am  1 <1>  -0.6600 
 16 C        4.7010     2.2150     0.5210 C.3   1 <1>   0.1200 
 17 C        2.1980     2.3230    -1.3400 C.2   1 <1>   0.5690 
 18 C        4.3820     1.0740    -1.5590 C.3   1 <1>   0.1200 
 19 C       -2.8300     0.1340    -2.1630 C.3   1 <1>  -0.0600 
 20 C        1.9110     4.5530    -0.2350 C.3   1 <1>   0.0600 
 21 O        4.9510     2.1350    -0.8520 O.3   1 <1>  -0.5600 
 22 O        1.4370     2.6090    -2.2370 O.2   1 <1>  -0.5700 
 23 H        1.7960     2.1880     2.3050 H     1 <1>   0.0800 
 24 H        3.1540     1.1190     2.3380 H     1 <1>   0.0800 
 25 H        3.3480    -0.4440     0.2180 H     1 <1>   0.0800 
 26 H        1.8660    -0.7610    -0.6120 H     1 <1>   0.0800 
 27 H       -0.5310     0.9640    -0.4680 H     1 <1>   0.1500 
 28 H        3.4100     3.5480     1.5410 H     1 <1>   0.0800 
 29 H        2.5020     0.4580    -2.2600 H     1 <1>   0.0800 
 30 H       -0.4690    -3.0790     2.4890 H     1 <1>   0.0800 
 31 H       -1.0720    -4.0770     1.1890 H     1 <1>   0.0800 
 32 H       -2.1900    -3.2880     2.2790 H     1 <1>   0.0800 
 33 H        4.9150     1.2590     0.9650 H     1 <1>   0.0800 
 34 H        5.4120     2.9180     0.9170 H     1 <1>   0.0800 
 35 H        4.5920     1.2650    -2.5970 H     1 <1>   0.0800 
 36 H        4.8890     0.1660    -1.2800 H     1 <1>   0.0800 
 37 H       -2.4180     1.0880    -2.4400 H     1 <1>   0.0800 
 38 H       -3.8620     0.2640    -1.8920 H     1 <1>   0.0800 
 39 H       -2.7690    -0.5290    -3.0070 H     1 <1>   0.0800 
 40 H        2.7070     5.2670    -0.1180 H     1 <1>   0.0800 
 41 H        1.2350     4.6260     0.5980 H     1 <1>   0.0800 
 42 H        1.3720     4.7870    -1.1380 H     1 <1>   0.0800 
@<TRIPOS>BOND
  1   1   2  2   
  2   1   3  2   
  3   1   4  am  
  4   1   5  1   
  5   4   6  1   
  6   4   7  1   
  7   5   8  2   
  8   5   9  1   
  9   6  10  1   
 10   6  23  1   
 11   6  24  1   
 12   7  11  1   
 13   7  25  1   
 14   7  26  1   
 15   8  12  1   
 16   8  13  1   
 17   9  14  2   
 18   9  27  1   
 19  10  15  1   
 20  10  16  1   
 21  10  28  1   
 22  11  17  1   
 23  11  18  1   
 24  11  29  1   
 25  12  14  1   
 26  13  30  1   
 27  13  31  1   
 28  13  32  1   
 29  14  19  1   
 30  15  17  am  
 31  15  20  1   
 32  16  21  1   
 33  16  33  1   
 34  16  34  1   
 35  17  22  2   
 36  18  21  1   
 37  18  35  1   
 38  18  36  1   
 39  19  37  1   
 40  19  38  1   
 41  19  39  1   
 42  20  40  1   
 43  20  41  1   
 44  20  42  1   
@<TRIPOS>SUBSTRUCTURE
  1 ****   4 GROUP 4 **** **** 0

# MOE 2024.06 (io_trps.svl 2023.06)
