@<TRIPOS>MOLECULE
NONAME
46 48 1 0 0 
SMALL
USER_CHARGES


@<TRIPOS>ATOM
  1 O       -3.3320     1.3210    -2.3030 O.2   1 <1>  -0.5700 
  2 C       -2.6200     1.3860    -1.3300 C.2   1 <1>   0.5690 
  3 N       -2.1910     0.2720    -0.6880 N.am  1 <1>  -0.7300 
  4 C       -2.2050     2.7590    -0.8010 C.3   1 <1>   0.1810 
  5 C       -2.5280    -1.1190    -1.0520 C.3   1 <1>   0.2200 
  6 O       -1.4010     2.6650     0.3550 O.3   1 <1>  -0.5600 
  7 C       -3.6900    -1.5870    -0.1950 C.3   1 <1>  -0.0800 
  8 C       -1.4120    -2.0560    -0.6040 C.3   1 <1>   0.1200 
  9 C       -1.0330     3.9190     0.8850 C.3   1 <1>   0.1810 
 10 C       -2.9820    -2.0370     1.0860 C.3   1 <1>   0.1200 
 11 C       -4.4640    -2.7360    -0.8710 C.3   1 <1>  -0.0170 
 12 O       -1.6640    -2.3540     0.7380 O.3   1 <1>  -0.5600 
 13 C       -0.1420     3.7950     2.1220 C.2   1 <1>   0.5690 
 14 C       -5.6960    -3.1320    -0.0620 C.ar  1 <1>  -0.1440 
 15 O        0.1580     4.7880     2.7340 O.2   1 <1>  -0.5700 
 16 N        0.3100     2.5910     2.5250 N.am  1 <1>  -0.8000 
 17 C       -6.8770    -2.3520    -0.0510 C.ar  1 <1>   0.0000 
 18 C       -5.6860    -4.2730     0.6860 C.ar  1 <1>  -0.1500 
 19 C       -7.9540    -2.8030     0.7500 C.ar  1 <1>   0.3100 
 20 C       -7.0550    -1.1570    -0.7870 C.ar  1 <1>  -0.1500 
 21 C       -6.8100    -4.6320     1.4390 C.ar  1 <1>   0.1600 
 22 N       -7.9050    -3.9420     1.4870 N.ar  1 <1>  -0.6200 
 23 C       -9.1370    -2.0470     0.7880 C.ar  1 <1>  -0.1500 
 24 C       -8.2220    -0.4440    -0.7290 C.ar  1 <1>  -0.1500 
 25 C       -9.2770    -0.8910     0.0690 C.ar  1 <1>  -0.1500 
 26 H       -1.6420     0.3930     0.1670 H     1 <1>   0.3700 
 27 H       -3.0910     3.3180    -0.5600 H     1 <1>   0.0800 
 28 H       -1.6520     3.2730    -1.5650 H     1 <1>   0.0800 
 29 H       -2.7230    -1.1870    -2.1100 H     1 <1>   0.0800 
 30 H       -4.3680    -0.7780     0.0110 H     1 <1>   0.0800 
 31 H       -0.4360    -1.6150    -0.7000 H     1 <1>   0.0800 
 32 H       -1.4490    -2.9800    -1.1540 H     1 <1>   0.0800 
 33 H       -0.5010     4.4700     0.1310 H     1 <1>   0.0800 
 34 H       -1.9270     4.4530     1.1560 H     1 <1>   0.0800 
 35 H       -3.4410    -2.8940     1.5460 H     1 <1>   0.0800 
 36 H       -2.9420    -1.2300     1.7980 H     1 <1>   0.0800 
 37 H       -3.8200    -3.5900    -0.9860 H     1 <1>   0.0800 
 38 H       -4.7720    -2.4430    -1.8590 H     1 <1>   0.0800 
 39 H        0.9030     2.5090     3.3510 H     1 <1>   0.3700 
 40 H        0.0630     1.7350     2.0290 H     1 <1>   0.3700 
 41 H       -4.8270    -4.9180     0.7210 H     1 <1>   0.1500 
 42 H       -6.2600    -0.7930    -1.4110 H     1 <1>   0.1500 
 43 H       -6.7590    -5.5390     2.0160 H     1 <1>   0.1500 
 44 H       -9.9350    -2.4120     1.4070 H     1 <1>   0.1500 
 45 H       -8.3410     0.4640    -1.2950 H     1 <1>   0.1500 
 46 H      -10.1900    -0.3220     0.1070 H     1 <1>   0.1500 
@<TRIPOS>BOND
  1   1   2  2   
  2   2   3  am  
  3   2   4  1   
  4   3   5  1   
  5   3  26  1   
  6   4   6  1   
  7   4  27  1   
  8   4  28  1   
  9   5   7  1   
 10   5   8  1   
 11   5  29  1   
 12   6   9  1   
 13   7  10  1   
 14   7  11  1   
 15   7  30  1   
 16   8  12  1   
 17   8  31  1   
 18   8  32  1   
 19   9  13  1   
 20   9  33  1   
 21   9  34  1   
 22  10  12  1   
 23  10  35  1   
 24  10  36  1   
 25  11  14  1   
 26  11  37  1   
 27  11  38  1   
 28  13  15  2   
 29  13  16  am  
 30  14  17  ar  
 31  14  18  ar  
 32  16  39  1   
 33  16  40  1   
 34  17  19  ar  
 35  17  20  ar  
 36  18  21  ar  
 37  18  41  1   
 38  19  22  ar  
 39  19  23  ar  
 40  20  24  ar  
 41  20  42  1   
 42  21  22  ar  
 43  21  43  1   
 44  23  25  ar  
 45  23  44  1   
 46  24  25  ar  
 47  24  45  1   
 48  25  46  1   
@<TRIPOS>SUBSTRUCTURE
  1 ****   7 GROUP 4 **** **** 0

# MOE 2024.06 (io_trps.svl 2023.06)
