@<TRIPOS>MOLECULE
NONAME
45 46 1 0 0 
SMALL
USER_CHARGES


@<TRIPOS>ATOM
  1 O       -4.7960    -1.5820    -0.5800 O.2   1 <1>  -0.5700 
  2 C       -5.6350    -0.7240    -0.4030 C.2   1 <1>   0.7060 
  3 O       -6.9220    -1.0730    -0.4630 O.3   1 <1>  -0.2330 
  4 C       -5.3190     0.6400    -0.1350 C.2   1 <1>  -0.1360 
  5 C       -7.9280    -0.1880    -0.2760 C.ar  1 <1>   0.0820 
  6 C       -6.2790     1.5720     0.0600 C.2   1 <1>  -0.1670 
  7 C       -7.6530     1.1620    -0.0090 C.ar  1 <1>   0.0280 
  8 C       -9.2280    -0.6560    -0.3530 C.ar  1 <1>  -0.1500 
  9 C       -5.9250     3.0250     0.3460 C.3   1 <1>  -0.1020 
 10 C       -8.7490     2.0100     0.1720 C.ar  1 <1>  -0.1500 
 11 C      -10.3070     0.1920    -0.1660 C.ar  1 <1>   0.1170 
 12 C      -10.0420     1.5370     0.0930 C.ar  1 <1>  -0.1500 
 13 N      -11.5990    -0.3370    -0.2580 N.am  1 <1>  -0.5470 
 14 C      -12.8070     0.1240     0.2030 C.2   1 <1>   0.5690 
 15 O      -12.9330     1.1620     0.8080 O.2   1 <1>  -0.5700 
 16 C      -14.0370    -0.7790    -0.0580 C.3   1 <1>   0.2510 
 17 N      -14.0180    -2.0120     0.7510 N.3   1 <1>  -0.9900 
 18 C      -15.3800    -0.0600     0.1670 C.3   1 <1>  -0.1600 
 19 C      -16.6080    -0.9100    -0.2130 C.3   1 <1>  -0.1600 
 20 C      -17.9030    -0.1130    -0.0550 C.3   1 <1>   0.2090 
 21 N      -19.0480    -0.9820    -0.3990 N.pl3 1 <1>  -0.8190 
 22 C      -20.2880    -0.3800    -0.5940 C.2   1 <1>   0.4400 
 23 N      -20.5810     0.7890    -0.1910 N.2   1 <1>  -0.5030 
 24 N      -21.8580     1.2630    -0.4490 N.pl3 1 <1>  -0.5690 
 25 H       -4.2710     0.8670    -0.0990 H     1 <1>   0.1500 
 26 H       -9.3880    -1.6980    -0.5580 H     1 <1>   0.1500 
 27 H       -6.3190     3.3210     1.3020 H     1 <1>   0.0800 
 28 H       -6.3350     3.6630    -0.4170 H     1 <1>   0.0800 
 29 H       -4.8580     3.1640     0.3640 H     1 <1>   0.0800 
 30 H       -8.5930     3.0530     0.3770 H     1 <1>   0.1500 
 31 H      -10.8560     2.2250     0.2340 H     1 <1>   0.1500 
 32 H      -11.6450    -1.2520    -0.7030 H     1 <1>   0.3700 
 33 H      -13.9920    -1.0670    -1.0950 H     1 <1>   0.0800 
 34 H      -14.3340    -1.7660     1.6970 H     1 <1>   0.3600 
 35 H      -13.0540    -2.3460     0.8560 H     1 <1>   0.3600 
 36 H      -15.4500     0.2430     1.1980 H     1 <1>   0.0800 
 37 H      -15.3820     0.8370    -0.4280 H     1 <1>   0.0800 
 38 H      -16.6550    -1.7780     0.4210 H     1 <1>   0.0800 
 39 H      -16.5120    -1.2340    -1.2340 H     1 <1>   0.0800 
 40 H      -17.8930     0.7480    -0.7030 H     1 <1>   0.0800 
 41 H      -18.0130     0.2260     0.9620 H     1 <1>   0.0800 
 42 H      -18.8230    -1.6810    -1.1070 H     1 <1>   0.4000 
 43 H      -21.0080    -0.9780    -1.1260 H     1 <1>   0.0600 
 44 H      -22.6020     0.5770    -0.2730 H     1 <1>   0.3110 
 45 H      -22.0650     2.1360     0.0520 H     1 <1>   0.3110 
@<TRIPOS>BOND
  1   1   2  2   
  2   2   3  1   
  3   2   4  1   
  4   3   5  1   
  5   4   6  2   
  6   4  25  1   
  7   5   7  ar  
  8   5   8  ar  
  9   6   7  1   
 10   6   9  1   
 11   7  10  ar  
 12   8  11  ar  
 13   8  26  1   
 14   9  27  1   
 15   9  28  1   
 16   9  29  1   
 17  10  12  ar  
 18  10  30  1   
 19  11  12  ar  
 20  11  13  1   
 21  12  31  1   
 22  13  14  am  
 23  13  32  1   
 24  14  15  2   
 25  14  16  1   
 26  16  17  1   
 27  16  18  1   
 28  16  33  1   
 29  17  34  1   
 30  17  35  1   
 31  18  19  1   
 32  18  36  1   
 33  18  37  1   
 34  19  20  1   
 35  19  38  1   
 36  19  39  1   
 37  20  21  1   
 38  20  40  1   
 39  20  41  1   
 40  21  22  1   
 41  21  42  1   
 42  22  23  2   
 43  22  43  1   
 44  23  24  1   
 45  24  44  1   
 46  24  45  1   
@<TRIPOS>SUBSTRUCTURE
  1 ****  13 GROUP 4 **** **** 0

# MOE 2024.06 (io_trps.svl 2023.06)
