@<TRIPOS>MOLECULE
NONAME
58 60 1 0 0 
SMALL
USER_CHARGES


@<TRIPOS>ATOM
  1 O       -1.0410    -0.7240     0.6660 O.3   1 <1>  -0.3630 
  2 C       -2.3360    -1.0760     0.8460 C.ar  1 <1>   0.0820 
  3 C       -0.6780     0.6010     0.3470 C.3   1 <1>   0.1200 
  4 C       -2.5730    -2.3840     1.2330 C.ar  1 <1>  -0.1500 
  5 C       -3.4100    -0.2090     0.6660 C.ar  1 <1>  -0.1500 
  6 C        0.8480     0.6710     0.2550 C.3   1 <1>  -0.1600 
  7 C       -3.8660    -2.8410     1.4350 C.ar  1 <1>  -0.1440 
  8 C       -4.7020    -0.6580     0.8740 C.ar  1 <1>  -0.1500 
  9 C        1.3600     2.0480    -0.2050 C.3   1 <1>  -0.0800 
 10 C       -4.9310    -1.9680     1.2570 C.ar  1 <1>  -0.1500 
 11 C       -4.1200    -4.2790     1.8400 C.3   1 <1>   0.4860 
 12 C        2.8800     1.9970    -0.3950 C.3   1 <1>  -0.2400 
 13 C        1.0080     3.1580     0.7960 C.3   1 <1>  -0.2400 
 14 N       -3.8130    -5.1690     0.6870 N.4   1 <1>  -0.9590 
 15 C       -4.7390    -4.9000    -0.4570 C.3   1 <1>   0.3430 
 16 C       -4.0000    -6.6040     1.0680 C.3   1 <1>   0.3430 
 17 C       -5.8380    -5.9610    -0.3540 C.3   1 <1>   0.2000 
 18 C       -5.0830    -7.1890     0.1470 C.3   1 <1>  -0.0800 
 19 O       -6.7390    -5.5720     0.6330 O.3   1 <1>  -0.6800 
 20 C       -4.4720    -7.9920    -1.0180 C.3   1 <1>   0.0210 
 21 C       -3.7500    -9.2260    -0.5160 C.2   1 <1>   0.1080 
 22 N       -2.6210    -9.1690     0.1190 N.2   1 <1>  -0.7070 
 23 C       -4.2020   -10.5310    -0.6740 C.2   1 <1>  -0.1500 
 24 N       -2.3100   -10.4580     0.3750 N.pl3 1 <1>   0.3000 
 25 C       -3.2570   -11.2980    -0.0920 C.2   1 <1>  -0.3320 
 26 C       -3.1960   -12.8090     0.0450 C.3   1 <1>  -0.0600 
 27 H       -1.1270     0.8580    -0.5970 H     1 <1>   0.0800 
 28 H       -1.0470     1.2460     1.1250 H     1 <1>   0.0800 
 29 H       -1.7220    -3.0270     1.3750 H     1 <1>   0.1500 
 30 H       -3.2610     0.8120     0.3670 H     1 <1>   0.1500 
 31 H        1.2690     0.4330     1.2160 H     1 <1>   0.0800 
 32 H        1.1760    -0.0730    -0.4510 H     1 <1>   0.0800 
 33 H       -5.5310     0.0170     0.7380 H     1 <1>   0.1500 
 34 H        0.9120     2.2870    -1.1560 H     1 <1>   0.0800 
 35 H       -5.9450    -2.2970     1.4160 H     1 <1>   0.1500 
 36 H       -5.1500    -4.4000     2.1350 H     1 <1>   0.0800 
 37 H       -3.4920    -4.5290     2.6790 H     1 <1>   0.0800 
 38 H        3.3710     1.7630     0.5330 H     1 <1>   0.0800 
 39 H        3.2450     2.9460    -0.7470 H     1 <1>   0.0800 
 40 H        3.1420     1.2470    -1.1210 H     1 <1>   0.0800 
 41 H        1.3960     2.9250     1.7720 H     1 <1>   0.0800 
 42 H       -0.0560     3.2890     0.8690 H     1 <1>   0.0800 
 43 H        1.4310     4.0940     0.4760 H     1 <1>   0.0800 
 44 H       -2.8440    -4.9890     0.3980 H     1 <1>   0.4500 
 45 H       -5.1530    -3.9060    -0.4330 H     1 <1>   0.0800 
 46 H       -4.2080    -5.0350    -1.3840 H     1 <1>   0.0800 
 47 H       -3.0720    -7.1420     0.9820 H     1 <1>   0.0800 
 48 H       -4.3370    -6.6730     2.0900 H     1 <1>   0.0800 
 49 H       -6.3710    -6.1060    -1.2790 H     1 <1>   0.0800 
 50 H       -5.7290    -7.8480     0.7010 H     1 <1>   0.0800 
 51 H       -7.5340    -6.1470     0.6320 H     1 <1>   0.4000 
 52 H       -3.7700    -7.3950    -1.5740 H     1 <1>   0.0800 
 53 H       -5.2490    -8.3020    -1.6940 H     1 <1>   0.0800 
 54 H       -5.1080   -10.8430    -1.1630 H     1 <1>   0.1500 
 55 H       -1.4480   -10.7350     0.8620 H     1 <1>   0.2700 
 56 H       -4.0630   -13.2570    -0.4070 H     1 <1>   0.0800 
 57 H       -3.1690   -13.0900     1.0830 H     1 <1>   0.0800 
 58 H       -2.3190   -13.1920    -0.4450 H     1 <1>   0.0800 
@<TRIPOS>BOND
  1   1   2  1   
  2   1   3  1   
  3   2   4  ar  
  4   2   5  ar  
  5   3   6  1   
  6   3  27  1   
  7   3  28  1   
  8   4   7  ar  
  9   4  29  1   
 10   5   8  ar  
 11   5  30  1   
 12   6   9  1   
 13   6  31  1   
 14   6  32  1   
 15   7  10  ar  
 16   7  11  1   
 17   8  10  ar  
 18   8  33  1   
 19   9  12  1   
 20   9  13  1   
 21   9  34  1   
 22  10  35  1   
 23  11  14  1   
 24  11  36  1   
 25  11  37  1   
 26  12  38  1   
 27  12  39  1   
 28  12  40  1   
 29  13  41  1   
 30  13  42  1   
 31  13  43  1   
 32  14  15  1   
 33  14  16  1   
 34  14  44  1   
 35  15  17  1   
 36  15  45  1   
 37  15  46  1   
 38  16  18  1   
 39  16  47  1   
 40  16  48  1   
 41  17  18  1   
 42  17  19  1   
 43  17  49  1   
 44  18  20  1   
 45  18  50  1   
 46  19  51  1   
 47  20  21  1   
 48  20  52  1   
 49  20  53  1   
 50  21  22  2   
 51  21  23  1   
 52  22  24  1   
 53  23  25  2   
 54  23  54  1   
 55  24  25  1   
 56  24  55  1   
 57  25  26  1   
 58  26  56  1   
 59  26  57  1   
 60  26  58  1   
@<TRIPOS>SUBSTRUCTURE
  1 ****  14 GROUP 4 **** **** 0

# MOE 2024.06 (io_trps.svl 2023.06)
