@<TRIPOS>MOLECULE
NONAME
44 46 1 0 0 
SMALL
USER_CHARGES


@<TRIPOS>ATOM
  1 O        0.2470     0.7920    -0.9780 O.2   1 <1>  -0.5700 
  2 C       -0.5050     1.7100    -1.2210 C.2   1 <1>   0.5690 
  3 N       -1.8550     1.6220    -0.9680 N.am  1 <1>  -0.6600 
  4 C        0.1160     2.9720    -1.8340 C.3   1 <1>   0.1810 
  5 C       -2.8300     2.7410    -1.1760 C.3   1 <1>   0.1400 
  6 C       -2.4690     0.3800    -0.4180 C.3   1 <1>   0.1400 
  7 O        0.1990     4.0470    -0.9270 O.3   1 <1>  -0.5600 
  8 C       -3.5690     3.0910     0.1300 C.3   1 <1>   0.1430 
  9 C       -3.2020     0.6900     0.8930 C.3   1 <1>  -0.1600 
 10 C        1.1610     3.8720     0.0630 C.3   1 <1>   0.1200 
 11 C       -4.5710     4.1890    -0.1750 C.ar  1 <1>   0.1660 
 12 C       -4.2270     1.8250     0.7190 C.3   1 <1>  -0.1600 
 13 C       -2.6270     3.7850     1.1480 C.3   1 <1>  -0.1600 
 14 C        1.1870     5.1350     0.9140 C.3   1 <1>  -0.2400 
 15 N       -5.7180     4.0310    -0.7980 N.ar  1 <1>  -0.6200 
 16 C       -4.1290     5.4020     0.2640 C.ar  1 <1>  -0.1440 
 17 C       -2.7770     5.2990     0.9240 C.3   1 <1>  -0.0170 
 18 C       -6.4150     5.1470    -0.9530 C.ar  1 <1>   0.4770 
 19 C       -4.9320     6.4930     0.0480 C.ar  1 <1>   0.1600 
 20 N       -6.0920     6.3740    -0.5650 N.ar  1 <1>  -0.6200 
 21 C       -7.7450     5.0090    -1.6540 C.3   1 <1>  -0.0970 
 22 H       -0.4780     3.2920    -2.6680 H     1 <1>   0.0800 
 23 H        1.1040     2.7500    -2.1970 H     1 <1>   0.0800 
 24 H       -3.5520     2.4360    -1.9140 H     1 <1>   0.0800 
 25 H       -2.3410     3.6240    -1.5450 H     1 <1>   0.0800 
 26 H       -1.7170    -0.3700    -0.2400 H     1 <1>   0.0800 
 27 H       -3.1640    -0.0130    -1.1400 H     1 <1>   0.0800 
 28 H       -2.4760     0.9560     1.6410 H     1 <1>   0.0800 
 29 H       -3.7050    -0.1980     1.2320 H     1 <1>   0.0800 
 30 H        2.1190     3.7140    -0.4040 H     1 <1>   0.0800 
 31 H        0.9020     3.0140     0.6620 H     1 <1>   0.0800 
 32 H       -5.0010     1.4920     0.0490 H     1 <1>   0.0800 
 33 H       -4.6940     2.0540     1.6610 H     1 <1>   0.0800 
 34 H       -1.6060     3.4630     1.0510 H     1 <1>   0.0800 
 35 H       -2.9550     3.5620     2.1470 H     1 <1>   0.0800 
 36 H        1.4130     5.9890     0.3010 H     1 <1>   0.0800 
 37 H        1.9450     5.0450     1.6710 H     1 <1>   0.0800 
 38 H        0.2380     5.2780     1.3970 H     1 <1>   0.0800 
 39 H       -2.0170     5.6580     0.2510 H     1 <1>   0.0800 
 40 H       -2.7360     5.8440     1.8510 H     1 <1>   0.0800 
 41 H       -4.6250     7.4710     0.3760 H     1 <1>   0.1500 
 42 H       -7.7760     4.0990    -2.2220 H     1 <1>   0.0800 
 43 H       -7.8950     5.8400    -2.3170 H     1 <1>   0.0800 
 44 H       -8.5300     4.9960    -0.9220 H     1 <1>   0.0800 
@<TRIPOS>BOND
  1   1   2  2   
  2   2   3  am  
  3   2   4  1   
  4   3   5  1   
  5   3   6  1   
  6   4   7  1   
  7   4  22  1   
  8   4  23  1   
  9   5   8  1   
 10   5  24  1   
 11   5  25  1   
 12   6   9  1   
 13   6  26  1   
 14   6  27  1   
 15   7  10  1   
 16   8  11  1   
 17   8  12  1   
 18   8  13  1   
 19   9  12  1   
 20   9  28  1   
 21   9  29  1   
 22  10  14  1   
 23  10  30  1   
 24  10  31  1   
 25  11  15  ar  
 26  11  16  ar  
 27  12  32  1   
 28  12  33  1   
 29  13  17  1   
 30  13  34  1   
 31  13  35  1   
 32  14  36  1   
 33  14  37  1   
 34  14  38  1   
 35  15  18  ar  
 36  16  17  1   
 37  16  19  ar  
 38  17  39  1   
 39  17  40  1   
 40  18  20  ar  
 41  18  21  1   
 42  19  20  ar  
 43  19  41  1   
 44  21  42  1   
 45  21  43  1   
 46  21  44  1   
@<TRIPOS>SUBSTRUCTURE
  1 ****   8 GROUP 4 **** **** 0

# MOE 2024.06 (io_trps.svl 2023.06)
