@<TRIPOS>MOLECULE
NONAME
47 49 1 0 0 
SMALL
USER_CHARGES


@<TRIPOS>ATOM
  1 S        2.4450     1.6710    -0.3000 S.3   1 <1>  -0.0800 
  2 C        0.7800     2.0850     0.1250 C.2   1 <1>  -0.0450 
  3 C        2.4400     0.2640     0.7400 C.2   1 <1>  -0.1100 
  4 C        0.1850     3.2560    -0.4670 C.2   1 <1>   0.7150 
  5 C        0.3180     1.1610     1.0080 C.2   1 <1>  -0.1500 
  6 C        1.2500     0.1390     1.3540 C.2   1 <1>  -0.1500 
  7 O        0.7570     3.9140    -1.3190 O.2   1 <1>  -0.5700 
  8 N       -1.0400     3.6840    -0.0500 N.am  1 <1>  -0.7300 
  9 C       -1.6790     4.9580    -0.4950 C.3   1 <1>   0.2810 
 10 C       -0.9850     6.1730     0.1650 C.2   1 <1>   0.5690 
 11 C       -3.2000     4.8470    -0.2630 C.3   1 <1>  -0.1600 
 12 O       -1.5130     6.7650     1.0780 O.2   1 <1>  -0.5700 
 13 N        0.2600     6.4890    -0.3060 N.am  1 <1>  -0.4940 
 14 C       -4.0530     5.6800    -1.2420 C.3   1 <1>  -0.0800 
 15 C        1.2330     7.4120     0.1370 C.2   1 <1>  -0.0880 
 16 C       -3.7890     7.1880    -1.1400 C.3   1 <1>  -0.2400 
 17 C       -5.5400     5.4110    -0.9820 C.3   1 <1>  -0.2400 
 18 N        1.0600     8.6450     0.7020 N.pl3 1 <1>   0.3140 
 19 C        2.5690     7.2270     0.0630 C.2   1 <1>  -0.1810 
 20 N        2.2510     9.2360     0.9800 N.2   1 <1>  -0.7070 
 21 C       -0.1930     9.3710     0.9500 C.3   1 <1>   0.0160 
 22 C        3.1320     8.3680     0.5930 C.2   1 <1>   0.1080 
 23 C        3.5010     6.1410    -0.4200 C.3   1 <1>   0.2510 
 24 C        4.6400     8.4310     0.6420 C.3   1 <1>   0.2510 
 25 S        5.1480     6.8390    -0.0890 S.3   1 <1>  -0.4600 
 26 H        3.3380    -0.3280     0.7820 H     1 <1>   0.1500 
 27 H       -0.6670     1.1580     1.4400 H     1 <1>   0.1500 
 28 H        0.9890    -0.6440     2.0450 H     1 <1>   0.1500 
 29 H       -1.4310     3.2810     0.8010 H     1 <1>   0.3700 
 30 H       -1.5210     5.0420    -1.5560 H     1 <1>   0.0800 
 31 H       -3.4370     5.1230     0.7510 H     1 <1>   0.0800 
 32 H       -3.4870     3.8180    -0.3940 H     1 <1>   0.0800 
 33 H        0.6320     5.7720    -0.9460 H     1 <1>   0.3700 
 34 H       -3.8330     5.3650    -2.2490 H     1 <1>   0.0800 
 35 H       -3.9220     7.5280    -0.1270 H     1 <1>   0.0800 
 36 H       -4.4720     7.7300    -1.7710 H     1 <1>   0.0800 
 37 H       -2.7920     7.4300    -1.4580 H     1 <1>   0.0800 
 38 H       -5.8130     5.7200     0.0120 H     1 <1>   0.0800 
 39 H       -5.7590     4.3630    -1.0880 H     1 <1>   0.0800 
 40 H       -6.1480     5.9520    -1.6860 H     1 <1>   0.0800 
 41 H       -0.8870     9.1670     0.1580 H     1 <1>   0.0800 
 42 H        0.0120    10.4240     0.9910 H     1 <1>   0.0800 
 43 H       -0.6030     9.0460     1.8880 H     1 <1>   0.0800 
 44 H        3.4150     5.9630    -1.4770 H     1 <1>   0.0800 
 45 H        3.3990     5.2300     0.1440 H     1 <1>   0.0800 
 46 H        5.0090     8.4790     1.6490 H     1 <1>   0.0800 
 47 H        5.0300     9.2270     0.0350 H     1 <1>   0.0800 
@<TRIPOS>BOND
  1   1   2  1   
  2   1   3  1   
  3   2   4  1   
  4   2   5  2   
  5   3   6  2   
  6   3  26  1   
  7   4   7  2   
  8   4   8  am  
  9   5   6  1   
 10   5  27  1   
 11   6  28  1   
 12   8   9  1   
 13   8  29  1   
 14   9  10  1   
 15   9  11  1   
 16   9  30  1   
 17  10  12  2   
 18  10  13  am  
 19  11  14  1   
 20  11  31  1   
 21  11  32  1   
 22  13  15  1   
 23  13  33  1   
 24  14  16  1   
 25  14  17  1   
 26  14  34  1   
 27  15  18  1   
 28  15  19  2   
 29  16  35  1   
 30  16  36  1   
 31  16  37  1   
 32  17  38  1   
 33  17  39  1   
 34  17  40  1   
 35  18  20  1   
 36  18  21  1   
 37  19  22  1   
 38  19  23  1   
 39  20  22  2   
 40  21  41  1   
 41  21  42  1   
 42  21  43  1   
 43  22  24  1   
 44  23  25  1   
 45  23  44  1   
 46  23  45  1   
 47  24  25  1   
 48  24  46  1   
 49  24  47  1   
@<TRIPOS>SUBSTRUCTURE
  1 ****  13 GROUP 4 **** **** 0

# MOE 2024.06 (io_trps.svl 2023.06)
