@<TRIPOS>MOLECULE
NONAME
55 56 1 0 0 
SMALL
USER_CHARGES


@<TRIPOS>ATOM
  1 S        0.7120     0.5440     0.7050 S.o2  1 <1>   1.3330 
  2 O        0.8380     0.4990     2.1450 O.2   1 <1>  -0.6500 
  3 O        0.5430    -0.6870    -0.0340 O.2   1 <1>  -0.6500 
  4 N       -0.5810     1.5770     0.3280 N.am  1 <1>  -0.8490 
  5 C        2.1290     1.3990     0.0240 C.3   1 <1>  -0.0550 
  6 C       -1.8470     0.8520     0.1830 C.3   1 <1>   0.1160 
  7 C       -0.7430     2.6820     1.2780 C.3   1 <1>   0.1160 
  8 C        3.4340     0.5840     0.1260 C.3   1 <1>  -0.0800 
  9 C        4.6490     1.2260    -0.5250 C.3   1 <1>   0.2200 
 10 C        3.9140     0.3140     1.5590 C.3   1 <1>   0.1200 
 11 N        4.7100     2.6750    -0.2220 N.am  1 <1>  -0.7300 
 12 C        5.7680     0.5240     0.2300 C.3   1 <1>   0.1200 
 13 O        5.3080     0.4360     1.5430 O.3   1 <1>  -0.5600 
 14 C        4.3420     3.6620    -1.0730 C.2   1 <1>   0.5690 
 15 O        3.8650     3.4230    -2.1540 O.2   1 <1>  -0.5700 
 16 C        4.5250     5.1000    -0.6460 C.3   1 <1>  -0.0990 
 17 C        5.8060     5.6920    -1.2420 C.3   1 <1>  -0.0170 
 18 C        5.9850     7.1300    -0.7850 C.ar  1 <1>  -0.1440 
 19 C        6.7250     7.4210     0.3480 C.ar  1 <1>  -0.1500 
 20 C        5.4070     8.1680    -1.4960 C.ar  1 <1>  -0.1500 
 21 C        6.8980     8.7260     0.7810 C.ar  1 <1>   0.0820 
 22 C        5.5600     9.4770    -1.0750 C.ar  1 <1>  -0.1500 
 23 O        7.6610     8.8600     1.9040 O.3   1 <1>  -0.3620 
 24 C        6.2970     9.7790     0.0690 C.ar  1 <1>   0.0820 
 25 C        8.4830     9.9900     2.0970 C.3   1 <1>   0.0400 
 26 O        6.4260    11.0650     0.5120 O.3   1 <1>  -0.3630 
 27 C        5.7040    12.1320    -0.0630 C.3   1 <1>   0.0400 
 28 H        1.9400     1.6100    -1.0110 H     1 <1>   0.0800 
 29 H        2.2470     2.3360     0.5300 H     1 <1>   0.0800 
 30 H       -2.6400     1.5330    -0.0740 H     1 <1>   0.0800 
 31 H       -2.0960     0.3450     1.1010 H     1 <1>   0.0800 
 32 H       -1.7650     0.1210    -0.6040 H     1 <1>   0.0800 
 33 H       -1.5170     3.3490     0.9400 H     1 <1>   0.0800 
 34 H        0.1740     3.2400     1.3580 H     1 <1>   0.0800 
 35 H       -1.0050     2.3060     2.2540 H     1 <1>   0.0800 
 36 H        3.2710    -0.3710    -0.3450 H     1 <1>   0.0800 
 37 H        4.6950     1.0540    -1.5880 H     1 <1>   0.0800 
 38 H        3.6520    -0.6770     1.8890 H     1 <1>   0.0800 
 39 H        3.5310     1.0390     2.2570 H     1 <1>   0.0800 
 40 H        5.0800     2.8880     0.7080 H     1 <1>   0.3700 
 41 H        6.6970     1.0650     0.2030 H     1 <1>   0.0800 
 42 H        5.9120    -0.4770    -0.1390 H     1 <1>   0.0800 
 43 H        3.6780     5.6690    -0.9830 H     1 <1>   0.0800 
 44 H        4.5610     5.1610     0.4260 H     1 <1>   0.0800 
 45 H        5.7550     5.6550    -2.3170 H     1 <1>   0.0800 
 46 H        6.6550     5.1060    -0.9360 H     1 <1>   0.0800 
 47 H        7.1850     6.6330     0.9150 H     1 <1>   0.1500 
 48 H        4.8320     7.9590    -2.3820 H     1 <1>   0.1500 
 49 H        5.0930    10.2460    -1.6570 H     1 <1>   0.1500 
 50 H        9.2420     9.7330     2.8120 H     1 <1>   0.0800 
 51 H        7.8810    10.7950     2.4790 H     1 <1>   0.0800 
 52 H        8.9340    10.2610     1.1590 H     1 <1>   0.0800 
 53 H        5.9180    13.0210     0.5020 H     1 <1>   0.0800 
 54 H        4.6530    11.9110    -0.0110 H     1 <1>   0.0800 
 55 H        6.0240    12.2620    -1.0810 H     1 <1>   0.0800 
@<TRIPOS>BOND
  1   1   2  2   
  2   1   3  2   
  3   1   4  am  
  4   1   5  1   
  5   4   6  1   
  6   4   7  1   
  7   5   8  1   
  8   5  28  1   
  9   5  29  1   
 10   6  30  1   
 11   6  31  1   
 12   6  32  1   
 13   7  33  1   
 14   7  34  1   
 15   7  35  1   
 16   8   9  1   
 17   8  10  1   
 18   8  36  1   
 19   9  11  1   
 20   9  12  1   
 21   9  37  1   
 22  10  13  1   
 23  10  38  1   
 24  10  39  1   
 25  11  14  am  
 26  11  40  1   
 27  12  13  1   
 28  12  41  1   
 29  12  42  1   
 30  14  15  2   
 31  14  16  1   
 32  16  17  1   
 33  16  43  1   
 34  16  44  1   
 35  17  18  1   
 36  17  45  1   
 37  17  46  1   
 38  18  19  ar  
 39  18  20  ar  
 40  19  21  ar  
 41  19  47  1   
 42  20  22  ar  
 43  20  48  1   
 44  21  23  1   
 45  21  24  ar  
 46  22  24  ar  
 47  22  49  1   
 48  23  25  1   
 49  24  26  1   
 50  25  50  1   
 51  25  51  1   
 52  25  52  1   
 53  26  27  1   
 54  27  53  1   
 55  27  54  1   
 56  27  55  1   
@<TRIPOS>SUBSTRUCTURE
  1 ****  16 GROUP 4 **** **** 0

# MOE 2024.06 (io_trps.svl 2023.06)
