@<TRIPOS>MOLECULE
NONAME
50 50 1 0 0 
SMALL
USER_CHARGES


@<TRIPOS>ATOM
  1 O        0.1180     0.0470     0.4980 O.2   1 <1>  -0.5700 
  2 C        0.9340    -0.8070     0.2190 C.2   1 <1>   0.7800 
  3 O        2.2360    -0.5700     0.1430 O.3   1 <1>  -0.4300 
  4 N        0.5530    -2.0720    -0.0450 N.am  1 <1>  -0.7300 
  5 C        2.8920     0.6600     0.3710 C.3   1 <1>   0.2800 
  6 C       -0.7980    -2.6060     0.1860 C.3   1 <1>   0.3640 
  7 C        4.3770     0.3670     0.1540 C.3   1 <1>  -0.2400 
  8 C        2.6710     1.1170     1.8170 C.3   1 <1>  -0.2400 
  9 C        2.4270     1.7050    -0.6490 C.3   1 <1>  -0.2400 
 10 C       -0.8820    -4.0060    -0.4060 C.ar  1 <1>  -0.1440 
 11 C       -1.8900    -1.7160    -0.4660 C.3   1 <1>   0.3430 
 12 C       -1.3420    -5.0590     0.3730 C.ar  1 <1>  -0.1500 
 13 C       -0.5420    -4.2350    -1.7310 C.ar  1 <1>  -0.1500 
 14 N       -3.1800    -2.4460    -0.7100 N.4   1 <1>  -0.8530 
 15 C       -1.4930    -6.3400    -0.1510 C.ar  1 <1>  -0.1440 
 16 C       -0.6820    -5.4980    -2.2680 C.ar  1 <1>  -0.1500 
 17 C       -1.1570    -6.5340    -1.4860 C.ar  1 <1>  -0.1500 
 18 C       -2.0020    -7.5410     0.6800 C.3   1 <1>   0.1430 
 19 C       -2.3300    -7.1800     2.1390 C.3   1 <1>  -0.2400 
 20 C       -3.2830    -8.1020     0.0440 C.3   1 <1>  -0.2400 
 21 C       -0.9270    -8.6380     0.7080 C.3   1 <1>  -0.2400 
 22 H        1.2980    -2.7630    -0.1580 H     1 <1>   0.3700 
 23 H       -0.9650    -2.6440     1.2500 H     1 <1>   0.0800 
 24 H        4.7160    -0.3820     0.8470 H     1 <1>   0.0800 
 25 H        4.9590     1.2580     0.3090 H     1 <1>   0.0800 
 26 H        4.5490     0.0220    -0.8490 H     1 <1>   0.0800 
 27 H        2.9460     0.3370     2.5040 H     1 <1>   0.0800 
 28 H        1.6480     1.3970     1.9870 H     1 <1>   0.0800 
 29 H        3.2800     1.9790     2.0240 H     1 <1>   0.0800 
 30 H        2.5330     1.3260    -1.6500 H     1 <1>   0.0800 
 31 H        3.0260     2.5930    -0.5590 H     1 <1>   0.0800 
 32 H        1.4050     1.9870    -0.4810 H     1 <1>   0.0800 
 33 H       -1.5030    -1.3740    -1.4120 H     1 <1>   0.0800 
 34 H       -2.0610    -0.8510     0.1540 H     1 <1>   0.0800 
 35 H       -1.5780    -4.8690     1.4040 H     1 <1>   0.1500 
 36 H       -0.1620    -3.4430    -2.3560 H     1 <1>   0.1500 
 37 H       -2.9710    -3.3560    -1.1540 H     1 <1>   0.4500 
 38 H       -3.8000    -1.9150    -1.3310 H     1 <1>   0.4500 
 39 H       -3.6780    -2.6390     0.1650 H     1 <1>   0.4500 
 40 H       -0.4160    -5.6840    -3.2960 H     1 <1>   0.1500 
 41 H       -1.2520    -7.5070    -1.9350 H     1 <1>   0.1500 
 42 H       -3.1040    -6.4350     2.1840 H     1 <1>   0.0800 
 43 H       -1.4540    -6.8140     2.6450 H     1 <1>   0.0800 
 44 H       -2.6770    -8.0480     2.6720 H     1 <1>   0.0800 
 45 H       -4.0380    -7.3390    -0.0080 H     1 <1>   0.0800 
 46 H       -3.6670    -8.9210     0.6260 H     1 <1>   0.0800 
 47 H       -3.0980    -8.4650    -0.9500 H     1 <1>   0.0800 
 48 H       -0.0120    -8.2490     1.1190 H     1 <1>   0.0800 
 49 H       -0.7210    -9.0090    -0.2790 H     1 <1>   0.0800 
 50 H       -1.2460    -9.4690     1.3130 H     1 <1>   0.0800 
@<TRIPOS>BOND
  1   1   2  2   
  2   2   3  1   
  3   2   4  am  
  4   3   5  1   
  5   4   6  1   
  6   4  22  1   
  7   5   7  1   
  8   5   8  1   
  9   5   9  1   
 10   6  10  1   
 11   6  11  1   
 12   6  23  1   
 13   7  24  1   
 14   7  25  1   
 15   7  26  1   
 16   8  27  1   
 17   8  28  1   
 18   8  29  1   
 19   9  30  1   
 20   9  31  1   
 21   9  32  1   
 22  10  12  ar  
 23  10  13  ar  
 24  11  14  1   
 25  11  33  1   
 26  11  34  1   
 27  12  15  ar  
 28  12  35  1   
 29  13  16  ar  
 30  13  36  1   
 31  14  37  1   
 32  14  38  1   
 33  14  39  1   
 34  15  17  ar  
 35  15  18  1   
 36  16  17  ar  
 37  16  40  1   
 38  17  41  1   
 39  18  19  1   
 40  18  20  1   
 41  18  21  1   
 42  19  42  1   
 43  19  43  1   
 44  19  44  1   
 45  20  45  1   
 46  20  46  1   
 47  20  47  1   
 48  21  48  1   
 49  21  49  1   
 50  21  50  1   
@<TRIPOS>SUBSTRUCTURE
  1 ****   6 GROUP 4 **** **** 0

# MOE 2024.06 (io_trps.svl 2023.06)
