@<TRIPOS>MOLECULE
NONAME
52 54 1 0 0 
SMALL
USER_CHARGES


@<TRIPOS>ATOM
  1 S       -1.6170    -1.3140    -1.7640 S.3   1 <1>  -0.4600 
  2 C       -1.4350    -0.5870    -0.0950 C.3   1 <1>   0.2110 
  3 C       -0.5990    -2.8130    -1.6740 C.3   1 <1>  -0.0100 
  4 C       -1.7770    -1.5850     1.0300 C.2   1 <1>   0.5690 
  5 C       -2.2100     0.7380    -0.0600 C.3   1 <1>  -0.2400 
  6 O       -0.8850    -1.7990     1.8210 O.2   1 <1>  -0.5700 
  7 N       -2.9960    -2.2220     1.1600 N.am  1 <1>  -0.6600 
  8 C       -4.1500    -2.1310     0.2230 C.3   1 <1>   0.1400 
  9 C       -3.2420    -3.1920     2.2640 C.3   1 <1>   0.1400 
 10 C       -4.3820    -3.5010    -0.4160 C.3   1 <1>  -0.1600 
 11 C       -3.4530    -4.5840     1.6640 C.3   1 <1>  -0.1600 
 12 C       -4.5980    -4.5990     0.6400 C.3   1 <1>   0.4240 
 13 O       -5.7550    -4.2740     1.3750 O.3   1 <1>  -0.5600 
 14 C       -4.7090    -5.9910    -0.0190 C.ar  1 <1>  -0.1430 
 15 C       -6.9860    -4.6550     0.8440 C.3   1 <1>   0.1200 
 16 C       -5.8740    -6.7410     0.0680 C.ar  1 <1>  -0.1430 
 17 C       -3.6370    -6.5220    -0.7230 C.ar  1 <1>  -0.1500 
 18 C       -7.0630    -6.1790     0.8220 C.3   1 <1>  -0.0170 
 19 C       -5.9570    -7.9880    -0.5300 C.ar  1 <1>  -0.1500 
 20 C       -3.6980    -7.7690    -1.3220 C.ar  1 <1>   0.0820 
 21 C       -4.8810    -8.5190    -1.2380 C.ar  1 <1>   0.0820 
 22 O       -2.5550    -8.1490    -1.9630 O.3   1 <1>  -0.3620 
 23 O       -4.9670    -9.7330    -1.8570 O.3   1 <1>  -0.3620 
 24 C       -2.1760    -9.5050    -2.0410 C.3   1 <1>   0.0400 
 25 C       -6.1770   -10.4560    -1.9330 C.3   1 <1>   0.0400 
 26 H       -0.3870    -0.3600    -0.0110 H     1 <1>   0.0800 
 27 H       -0.6270    -3.2880    -2.6390 H     1 <1>   0.0800 
 28 H       -1.0130    -3.4580    -0.9190 H     1 <1>   0.0800 
 29 H        0.4050    -2.5210    -1.4200 H     1 <1>   0.0800 
 30 H       -3.2630     0.5840    -0.1950 H     1 <1>   0.0800 
 31 H       -1.8520     1.3900    -0.8370 H     1 <1>   0.0800 
 32 H       -2.0550     1.2190     0.8890 H     1 <1>   0.0800 
 33 H       -3.9830    -1.4060    -0.5480 H     1 <1>   0.0800 
 34 H       -5.0260    -1.8310     0.7730 H     1 <1>   0.0800 
 35 H       -4.1180    -2.8900     2.8140 H     1 <1>   0.0800 
 36 H       -2.4140    -3.2170     2.9520 H     1 <1>   0.0800 
 37 H       -3.5220    -3.7400    -1.0140 H     1 <1>   0.0800 
 38 H       -5.2210    -3.4590    -1.0840 H     1 <1>   0.0800 
 39 H       -3.6700    -5.2900     2.4440 H     1 <1>   0.0800 
 40 H       -2.5330    -4.8870     1.2010 H     1 <1>   0.0800 
 41 H       -7.0870    -4.2480    -0.1460 H     1 <1>   0.0800 
 42 H       -7.7570    -4.2480     1.4740 H     1 <1>   0.0800 
 43 H       -2.7200    -5.9710    -0.8190 H     1 <1>   0.1500 
 44 H       -7.9810    -6.4790     0.3500 H     1 <1>   0.0800 
 45 H       -7.0620    -6.5520     1.8310 H     1 <1>   0.0800 
 46 H       -6.8750    -8.5340    -0.4330 H     1 <1>   0.1500 
 47 H       -1.1230    -9.5470    -2.2470 H     1 <1>   0.0800 
 48 H       -2.7220    -9.9710    -2.8410 H     1 <1>   0.0800 
 49 H       -2.3890    -9.9840    -1.1020 H     1 <1>   0.0800 
 50 H       -6.0010   -11.3390    -2.5210 H     1 <1>   0.0800 
 51 H       -6.9210    -9.8420    -2.4100 H     1 <1>   0.0800 
 52 H       -6.4810   -10.7340    -0.9400 H     1 <1>   0.0800 
@<TRIPOS>BOND
  1   1   2  1   
  2   1   3  1   
  3   2   4  1   
  4   2   5  1   
  5   2  26  1   
  6   3  27  1   
  7   3  28  1   
  8   3  29  1   
  9   4   6  2   
 10   4   7  am  
 11   5  30  1   
 12   5  31  1   
 13   5  32  1   
 14   7   8  1   
 15   7   9  1   
 16   8  10  1   
 17   8  33  1   
 18   8  34  1   
 19   9  11  1   
 20   9  35  1   
 21   9  36  1   
 22  10  12  1   
 23  10  37  1   
 24  10  38  1   
 25  11  12  1   
 26  11  39  1   
 27  11  40  1   
 28  12  13  1   
 29  12  14  1   
 30  13  15  1   
 31  14  16  ar  
 32  14  17  ar  
 33  15  18  1   
 34  15  41  1   
 35  15  42  1   
 36  16  18  1   
 37  16  19  ar  
 38  17  20  ar  
 39  17  43  1   
 40  18  44  1   
 41  18  45  1   
 42  19  21  ar  
 43  19  46  1   
 44  20  21  ar  
 45  20  22  1   
 46  21  23  1   
 47  22  24  1   
 48  23  25  1   
 49  24  47  1   
 50  24  48  1   
 51  24  49  1   
 52  25  50  1   
 53  25  51  1   
 54  25  52  1   
@<TRIPOS>SUBSTRUCTURE
  1 ****  12 GROUP 4 **** **** 0

# MOE 2024.06 (io_trps.svl 2023.06)
