@<TRIPOS>MOLECULE
NONAME
54 57 1 0 0 
SMALL
USER_CHARGES


@<TRIPOS>ATOM
  1 O       -1.4480     0.2360     0.1460 O.2   1 <1>  -0.5700 
  2 C       -1.8360     1.3010     0.6050 C.2   1 <1>   0.7160 
  3 N       -2.9680     1.2640     1.4070 N.am  1 <1>  -0.6600 
  4 C       -1.0940     2.5260     0.2940 C.2   1 <1>   0.2030 
  5 C       -3.3350     0.0140     2.1360 C.3   1 <1>   0.1400 
  6 C       -3.8240     2.4560     1.6460 C.3   1 <1>   0.1400 
  7 N       -1.0420     3.6400     1.0170 N.2   1 <1>  -0.7070 
  8 C       -0.2840     2.6790    -0.8430 C.2   1 <1>  -0.1810 
  9 C       -4.5100    -0.7100     1.4660 C.3   1 <1>   0.1400 
 10 C       -5.2940     2.1930     1.3060 C.3   1 <1>  -0.1600 
 11 N       -0.2220     4.4720     0.3550 N.pl3 1 <1>   0.3000 
 12 C        0.2500     3.9050    -0.7660 C.2   1 <1>  -0.3320 
 13 C        0.0160     1.7250    -1.9900 C.3   1 <1>   0.3010 
 14 N       -5.8690    -0.1970     1.8540 N.am  1 <1>  -0.6600 
 15 C       -5.9900     1.2330     2.2750 C.3   1 <1>   0.1400 
 16 C        1.1960     4.4460    -1.8180 C.3   1 <1>   0.0200 
 17 O        0.6160     2.4350    -3.0510 O.3   1 <1>  -0.5600 
 18 C       -6.9950    -0.9900     1.7980 C.2   1 <1>   0.5690 
 19 C        1.6870     3.2700    -2.6880 C.3   1 <1>   0.1200 
 20 O       -8.0680    -0.5910     2.1930 O.2   1 <1>  -0.5700 
 21 C       -6.9660    -2.4200     1.2590 C.3   1 <1>   0.0440 
 22 C       -6.4090    -2.5720    -0.1600 C.ar  1 <1>  -0.1430 
 23 C       -6.9500    -1.8970    -1.2530 C.ar  1 <1>  -0.1430 
 24 C       -5.3270    -3.4210    -0.3560 C.ar  1 <1>  -0.1500 
 25 C       -6.3850    -2.0670    -2.5080 C.ar  1 <1>  -0.1500 
 26 C       -8.1480    -0.9640    -1.1250 C.3   1 <1>  -0.0970 
 27 C       -4.7720    -3.5860    -1.6110 C.ar  1 <1>  -0.1500 
 28 C       -5.3010    -2.9050    -2.6900 C.ar  1 <1>  -0.1500 
 29 H       -3.5610     0.2310     3.1640 H     1 <1>   0.0800 
 30 H       -2.4890    -0.6510     2.1340 H     1 <1>   0.0800 
 31 H       -3.4950     3.2720     1.0280 H     1 <1>   0.0800 
 32 H       -3.7240     2.7640     2.6730 H     1 <1>   0.0800 
 33 H       -4.4420    -1.7440     1.7490 H     1 <1>   0.0800 
 34 H       -4.3960    -0.6570     0.3970 H     1 <1>   0.0800 
 35 H       -5.3980     1.8530     0.2910 H     1 <1>   0.0800 
 36 H       -5.8010     3.1380     1.3750 H     1 <1>   0.0800 
 37 H        0.0010     5.4160     0.6940 H     1 <1>   0.2700 
 38 H       -0.8910     1.2800    -2.3620 H     1 <1>   0.0800 
 39 H        0.6870     0.9470    -1.6720 H     1 <1>   0.0800 
 40 H       -7.0310     1.5080     2.3130 H     1 <1>   0.0800 
 41 H       -5.5980     1.3510     3.2700 H     1 <1>   0.0800 
 42 H        2.0400     4.9280    -1.3590 H     1 <1>   0.0800 
 43 H        0.6850     5.1620    -2.4370 H     1 <1>   0.0800 
 44 H        2.4060     2.6760    -2.1500 H     1 <1>   0.0800 
 45 H        2.1420     3.6360    -3.5910 H     1 <1>   0.0800 
 46 H       -7.9690    -2.8060     1.2670 H     1 <1>   0.0800 
 47 H       -6.4040    -3.0180     1.9500 H     1 <1>   0.0800 
 48 H       -4.9010    -3.9630     0.4700 H     1 <1>   0.1500 
 49 H       -6.7880    -1.5440    -3.3570 H     1 <1>   0.1500 
 50 H       -8.9030    -1.3970    -0.4940 H     1 <1>   0.0800 
 51 H       -8.5910    -0.7750    -2.0860 H     1 <1>   0.0800 
 52 H       -7.8380    -0.0240    -0.7040 H     1 <1>   0.0800 
 53 H       -3.9300    -4.2410    -1.7490 H     1 <1>   0.1500 
 54 H       -4.8720    -3.0270    -3.6690 H     1 <1>   0.1500 
@<TRIPOS>BOND
  1   1   2  2   
  2   2   3  am  
  3   2   4  1   
  4   3   5  1   
  5   3   6  1   
  6   4   7  2   
  7   4   8  1   
  8   5   9  1   
  9   5  29  1   
 10   5  30  1   
 11   6  10  1   
 12   6  31  1   
 13   6  32  1   
 14   7  11  1   
 15   8  12  2   
 16   8  13  1   
 17   9  14  1   
 18   9  33  1   
 19   9  34  1   
 20  10  15  1   
 21  10  35  1   
 22  10  36  1   
 23  11  12  1   
 24  11  37  1   
 25  12  16  1   
 26  13  17  1   
 27  13  38  1   
 28  13  39  1   
 29  14  15  1   
 30  14  18  am  
 31  15  40  1   
 32  15  41  1   
 33  16  19  1   
 34  16  42  1   
 35  16  43  1   
 36  17  19  1   
 37  18  20  2   
 38  18  21  1   
 39  19  44  1   
 40  19  45  1   
 41  21  22  1   
 42  21  46  1   
 43  21  47  1   
 44  22  23  ar  
 45  22  24  ar  
 46  23  25  ar  
 47  23  26  1   
 48  24  27  ar  
 49  24  48  1   
 50  25  28  ar  
 51  25  49  1   
 52  26  50  1   
 53  26  51  1   
 54  26  52  1   
 55  27  28  ar  
 56  27  53  1   
 57  28  54  1   
@<TRIPOS>SUBSTRUCTURE
  1 ****   3 GROUP 4 **** **** 0

# MOE 2024.06 (io_trps.svl 2023.06)
