@<TRIPOS>MOLECULE
NONAME
55 58 1 0 0 
SMALL
USER_CHARGES


@<TRIPOS>ATOM
  1 O        2.0820     0.5670     1.3260 O.3   1 <1>  -0.6800 
  2 C        1.7620    -0.0470     0.1270 C.3   1 <1>   0.3440 
  3 C        1.4910    -1.5330     0.4090 C.ar  1 <1>   0.1660 
  4 C        2.9060     0.1840    -0.8920 C.3   1 <1>  -0.0800 
  5 N        2.1360    -2.0960     1.4300 N.ar  1 <1>  -0.6200 
  6 C        0.5950    -2.2140    -0.4030 C.ar  1 <1>  -0.1500 
  7 C        4.2380    -0.4830    -0.4760 C.3   1 <1>  -0.1600 
  8 C        3.1160     1.6890    -1.1670 C.3   1 <1>  -0.1600 
  9 C        1.8770    -3.3770     1.6400 C.ar  1 <1>   0.1600 
 10 C        0.3390    -3.5490    -0.1720 C.ar  1 <1>  -0.1500 
 11 C        5.3870    -0.1590    -1.4330 C.3   1 <1>   0.2090 
 12 C        4.2920     1.9330    -2.1130 C.3   1 <1>   0.2090 
 13 C        1.0040    -4.1370     0.8810 C.ar  1 <1>  -0.1500 
 14 N        5.5230     1.3280    -1.5190 N.pl3 1 <1>  -0.8380 
 15 C        6.5780     2.0110    -1.0220 C.ar  1 <1>   0.4610 
 16 N        6.4230     3.2910    -0.6870 N.ar  1 <1>  -0.1790 
 17 C        7.8640     1.4560    -0.7990 C.ar  1 <1>  -0.1500 
 18 C        7.3960     4.1060    -0.1360 C.ar  1 <1>   0.3610 
 19 C        8.8830     2.1810    -0.2630 C.ar  1 <1>  -0.1430 
 20 C        8.6680     3.5500     0.0900 C.ar  1 <1>   0.0000 
 21 C        7.1160     5.4460     0.1930 C.ar  1 <1>  -0.1430 
 22 C       10.2480     1.5380    -0.0450 C.3   1 <1>  -0.0970 
 23 C        9.6490     4.3790     0.6490 C.ar  1 <1>  -0.1500 
 24 C        8.1130     6.2320     0.7460 C.ar  1 <1>  -0.1430 
 25 C        5.7100     6.0040    -0.0680 C.3   1 <1>  -0.0970 
 26 C        9.3750     5.6840     0.9660 C.ar  1 <1>  -0.1500 
 27 C        7.9110     7.6930     1.1380 C.3   1 <1>  -0.0970 
 28 H        2.2970    -0.1760     1.9370 H     1 <1>   0.4000 
 29 H        0.8600     0.4170    -0.2320 H     1 <1>   0.0800 
 30 H        2.5970    -0.2740    -1.8160 H     1 <1>   0.0800 
 31 H        0.0980    -1.7100    -1.2110 H     1 <1>   0.1500 
 32 H        4.1160    -1.5520    -0.4430 H     1 <1>   0.0800 
 33 H        4.5160    -0.1630     0.5130 H     1 <1>   0.0800 
 34 H        3.3010     2.2100    -0.2440 H     1 <1>   0.0800 
 35 H        2.2220     2.1020    -1.6000 H     1 <1>   0.0800 
 36 H        2.3870    -3.8500     2.4620 H     1 <1>   0.1500 
 37 H       -0.3500    -4.1060    -0.7840 H     1 <1>   0.1500 
 38 H        5.1800    -0.5620    -2.4110 H     1 <1>   0.0800 
 39 H        6.2790    -0.6280    -1.0630 H     1 <1>   0.0800 
 40 H        4.4140     2.9860    -2.2960 H     1 <1>   0.0800 
 41 H        4.0920     1.4650    -3.0640 H     1 <1>   0.0800 
 42 H        0.8480    -5.1740     1.1160 H     1 <1>   0.1500 
 43 H        5.4910     3.6690    -0.7800 H     1 <1>   0.4570 
 44 H        8.0290     0.4350    -1.0840 H     1 <1>   0.1500 
 45 H       10.2490     0.5100    -0.3610 H     1 <1>   0.0800 
 46 H       10.5110     1.5670     0.9970 H     1 <1>   0.0800 
 47 H       11.0000     2.0610    -0.6100 H     1 <1>   0.0800 
 48 H       10.6370     3.9970     0.8370 H     1 <1>   0.1500 
 49 H        5.4650     5.9290    -1.1130 H     1 <1>   0.0800 
 50 H        5.6190     7.0400     0.1990 H     1 <1>   0.0800 
 51 H        4.9810     5.4650     0.5110 H     1 <1>   0.0800 
 52 H       10.1540     6.2940     1.3950 H     1 <1>   0.1500 
 53 H        7.1290     7.7770     1.8720 H     1 <1>   0.0800 
 54 H        7.6510     8.2780     0.2740 H     1 <1>   0.0800 
 55 H        8.8060     8.1120     1.5620 H     1 <1>   0.0800 
@<TRIPOS>BOND
  1   1   2  1   
  2   1  28  1   
  3   2   3  1   
  4   2   4  1   
  5   2  29  1   
  6   3   5  ar  
  7   3   6  ar  
  8   4   7  1   
  9   4   8  1   
 10   4  30  1   
 11   5   9  ar  
 12   6  10  ar  
 13   6  31  1   
 14   7  11  1   
 15   7  32  1   
 16   7  33  1   
 17   8  12  1   
 18   8  34  1   
 19   8  35  1   
 20   9  13  ar  
 21   9  36  1   
 22  10  13  ar  
 23  10  37  1   
 24  11  14  1   
 25  11  38  1   
 26  11  39  1   
 27  12  14  1   
 28  12  40  1   
 29  12  41  1   
 30  13  42  1   
 31  14  15  1   
 32  15  16  ar  
 33  15  17  ar  
 34  16  18  ar  
 35  16  43  1   
 36  17  19  ar  
 37  17  44  1   
 38  18  20  ar  
 39  18  21  ar  
 40  19  20  ar  
 41  19  22  1   
 42  20  23  ar  
 43  21  24  ar  
 44  21  25  1   
 45  22  45  1   
 46  22  46  1   
 47  22  47  1   
 48  23  26  ar  
 49  23  48  1   
 50  24  26  ar  
 51  24  27  1   
 52  25  49  1   
 53  25  50  1   
 54  25  51  1   
 55  26  52  1   
 56  27  53  1   
 57  27  54  1   
 58  27  55  1   
@<TRIPOS>SUBSTRUCTURE
  1 ****  14 GROUP 4 **** **** 0

# MOE 2024.06 (io_trps.svl 2023.06)
