@<TRIPOS>MOLECULE
NONAME
46 49 1 0 0 
SMALL
USER_CHARGES


@<TRIPOS>ATOM
  1 N        0.6960     0.0970     1.4870 N.ar  1 <1>  -0.6200 
  2 C       -0.1890     0.7360     2.2440 C.ar  1 <1>   0.4760 
  3 C        1.2320     0.8430     0.5490 C.ar  1 <1>   0.1660 
  4 N       -0.5630     2.0050     2.1630 N.ar  1 <1>  -0.6200 
  5 C       -0.8480    -0.0730     3.3350 C.3   1 <1>  -0.0960 
  6 C        0.9300     2.1580     0.3680 C.ar  1 <1>  -0.1430 
  7 C        2.2620     0.3590    -0.4420 C.3   1 <1>   0.1430 
  8 C        0.0050     2.7190     1.2130 C.ar  1 <1>   0.1600 
  9 C        1.7130     2.7570    -0.7730 C.3   1 <1>  -0.0160 
 10 C        3.3430    -0.4210     0.3250 C.3   1 <1>   0.3430 
 11 C        1.5990    -0.5460    -1.5020 C.3   1 <1>  -0.1600 
 12 C        2.7880     1.6870    -1.0540 C.3   1 <1>  -0.1600 
 13 N        4.3510    -1.0510    -0.6010 N.4   1 <1>  -0.9590 
 14 C        2.6410    -1.2670    -2.3770 C.3   1 <1>  -0.1600 
 15 C        3.6860    -2.0060    -1.5350 C.3   1 <1>   0.3430 
 16 C        5.4500    -1.7250     0.1550 C.3   1 <1>   0.3430 
 17 C        6.3060    -0.7070     0.9170 C.3   1 <1>   0.0000 
 18 C        7.0410     0.3320     0.0290 C.3   1 <1>   0.0000 
 19 C        7.7050    -1.2390     1.3210 C.3   1 <1>   0.0000 
 20 C        8.2510     0.1730     0.9850 C.3   1 <1>   0.0000 
 21 H       -0.6980    -1.1240     3.1710 H     1 <1>   0.0800 
 22 H       -1.9030     0.1290     3.3470 H     1 <1>   0.0800 
 23 H       -0.4280     0.2020     4.2840 H     1 <1>   0.0800 
 24 H       -0.2740     3.7540     1.1150 H     1 <1>   0.1500 
 25 H        2.1510     3.7030    -0.5040 H     1 <1>   0.0800 
 26 H        1.0670     2.8850    -1.6250 H     1 <1>   0.0800 
 27 H        2.8580    -1.1890     0.9060 H     1 <1>   0.0800 
 28 H        3.8310     0.2510     1.0120 H     1 <1>   0.0800 
 29 H        0.9320     0.0330    -2.1190 H     1 <1>   0.0800 
 30 H        1.0000    -1.2860    -0.9980 H     1 <1>   0.0800 
 31 H        2.9930     1.6160    -2.1070 H     1 <1>   0.0800 
 32 H        3.6900     1.9870    -0.5490 H     1 <1>   0.0800 
 33 H        4.7700    -0.3010    -1.1670 H     1 <1>   0.4500 
 34 H        3.1340    -0.5690    -3.0290 H     1 <1>   0.0800 
 35 H        2.1350    -1.9810    -3.0050 H     1 <1>   0.0800 
 36 H        3.2030    -2.7890    -0.9730 H     1 <1>   0.0800 
 37 H        4.4170    -2.4580    -2.1870 H     1 <1>   0.0800 
 38 H        6.0850    -2.2560    -0.5370 H     1 <1>   0.0800 
 39 H        5.0400    -2.4420     0.8480 H     1 <1>   0.0800 
 40 H        5.8020    -0.2550     1.7550 H     1 <1>   0.0000 
 41 H        6.5960     1.3110     0.0460 H     1 <1>   0.0000 
 42 H        7.2490    -0.0300    -0.9640 H     1 <1>   0.0000 
 43 H        8.0820    -1.9950     0.6540 H     1 <1>   0.0000 
 44 H        7.7880    -1.5010     2.3610 H     1 <1>   0.0000 
 45 H        8.2090     0.8460     1.8250 H     1 <1>   0.0000 
 46 H        9.2030     0.1650     0.4850 H     1 <1>   0.0000 
@<TRIPOS>BOND
  1   1   2  ar  
  2   1   3  ar  
  3   2   4  ar  
  4   2   5  1   
  5   3   6  ar  
  6   3   7  1   
  7   4   8  ar  
  8   5  21  1   
  9   5  22  1   
 10   5  23  1   
 11   6   8  ar  
 12   6   9  1   
 13   7  10  1   
 14   7  11  1   
 15   7  12  1   
 16   8  24  1   
 17   9  12  1   
 18   9  25  1   
 19   9  26  1   
 20  10  13  1   
 21  10  27  1   
 22  10  28  1   
 23  11  14  1   
 24  11  29  1   
 25  11  30  1   
 26  12  31  1   
 27  12  32  1   
 28  13  15  1   
 29  13  16  1   
 30  13  33  1   
 31  14  15  1   
 32  14  34  1   
 33  14  35  1   
 34  15  36  1   
 35  15  37  1   
 36  16  17  1   
 37  16  38  1   
 38  16  39  1   
 39  17  18  1   
 40  17  19  1   
 41  17  40  1   
 42  18  20  1   
 43  18  41  1   
 44  18  42  1   
 45  19  20  1   
 46  19  43  1   
 47  19  44  1   
 48  20  45  1   
 49  20  46  1   
@<TRIPOS>SUBSTRUCTURE
  1 ****  10 GROUP 4 **** **** 0

# MOE 2024.06 (io_trps.svl 2023.06)
