@<TRIPOS>MOLECULE
NONAME
55 58 1 0 0 
SMALL
USER_CHARGES


@<TRIPOS>ATOM
  1 O        1.5000    -0.2560    -0.3480 O.2   1 <1>  -0.5700 
  2 C        2.0690    -0.9030    -1.2060 C.2   1 <1>   0.7150 
  3 N        2.9370    -0.2340    -2.0220 N.am  1 <1>  -0.7300 
  4 C        1.8510    -2.3260    -1.3460 C.2   1 <1>   0.0550 
  5 C        2.9910     1.2500    -2.1180 C.3   1 <1>   0.3080 
  6 O        1.0830    -2.9680    -0.4720 O.3   1 <1>  -0.2800 
  7 C        2.2950    -3.2340    -2.2610 C.2   1 <1>  -0.1500 
  8 C        3.5910     1.9120    -0.8750 C.2   1 <1>   0.1820 
  9 C        1.0120    -4.2380    -0.7970 C.2   1 <1>  -0.0400 
 10 C        1.7500    -4.4700    -1.9050 C.2   1 <1>  -0.1500 
 11 N        3.7920     3.2810    -0.7700 N.pl3 1 <1>  -0.6290 
 12 C        4.0020     1.3470     0.2790 C.2   1 <1>   0.2000 
 13 C        0.1680    -5.1720     0.0570 C.3   1 <1>   0.5230 
 14 C        4.3210     3.5130     0.4580 C.cat 1 <1>   0.7910 
 15 C        3.5410     4.3360    -1.6210 C.2   1 <1>   0.2290 
 16 N        4.4590     2.3420     1.0990 N.pl3 1 <1>  -0.7000 
 17 N       -1.2320    -4.6630     0.1120 N.4   1 <1>  -0.9590 
 18 C        4.6360     4.8220     0.8850 C.2   1 <1>  -0.1290 
 19 C        3.8350     5.6100    -1.2350 C.2   1 <1>  -0.1500 
 20 C       -1.3820    -3.5740     1.1250 C.3   1 <1>   0.3430 
 21 C       -2.2160    -5.7610     0.3240 C.3   1 <1>   0.3430 
 22 C        4.3920     5.8670     0.0340 C.2   1 <1>  -0.1500 
 23 C        5.2350     5.0650     2.2660 C.3   1 <1>  -0.1020 
 24 C       -2.7880    -2.9820     1.0380 C.3   1 <1>  -0.1600 
 25 C       -3.6370    -5.2060     0.2210 C.3   1 <1>  -0.1600 
 26 C       -3.8700    -4.0570     1.2120 C.3   1 <1>  -0.0800 
 27 C       -5.2660    -3.4530     1.0210 C.3   1 <1>  -0.2400 
 28 H        3.3780    -0.7490    -2.7870 H     1 <1>   0.3700 
 29 H        1.9920     1.6260    -2.2630 H     1 <1>   0.0800 
 30 H        3.5790     1.5210    -2.9780 H     1 <1>   0.0800 
 31 H        2.9380    -3.0730    -3.1090 H     1 <1>   0.1500 
 32 H        1.9130    -5.3920    -2.4380 H     1 <1>   0.1500 
 33 H        3.9900     0.3070     0.5650 H     1 <1>   0.1500 
 34 H        0.5830    -5.2360     1.0500 H     1 <1>   0.0800 
 35 H        0.1880    -6.1540    -0.3860 H     1 <1>   0.0800 
 36 H        3.1100     4.1270    -2.5880 H     1 <1>   0.1500 
 37 H        4.8220     2.2360     2.0480 H     1 <1>   0.4500 
 38 H       -1.4160    -4.2330    -0.8030 H     1 <1>   0.4500 
 39 H        3.6450     6.4430    -1.8910 H     1 <1>   0.1500 
 40 H       -0.6600    -2.7920     0.9510 H     1 <1>   0.0800 
 41 H       -1.2190    -3.9680     2.1160 H     1 <1>   0.0800 
 42 H       -2.0730    -6.1980     1.2990 H     1 <1>   0.0800 
 43 H       -2.0800    -6.5310    -0.4190 H     1 <1>   0.0800 
 44 H        4.6120     6.8880     0.3050 H     1 <1>   0.1500 
 45 H        6.1740     4.5490     2.3650 H     1 <1>   0.0800 
 46 H        4.5620     4.7210     3.0320 H     1 <1>   0.0800 
 47 H        5.4130     6.1150     2.4270 H     1 <1>   0.0800 
 48 H       -2.9020    -2.4840     0.0900 H     1 <1>   0.0800 
 49 H       -2.8970    -2.2350     1.8060 H     1 <1>   0.0800 
 50 H       -4.3360    -5.9990     0.4230 H     1 <1>   0.0800 
 51 H       -3.8140    -4.8700    -0.7860 H     1 <1>   0.0800 
 52 H       -3.8090    -4.4480     2.2160 H     1 <1>   0.0800 
 53 H       -5.3780    -3.0440     0.0320 H     1 <1>   0.0800 
 54 H       -5.4350    -2.6660     1.7360 H     1 <1>   0.0800 
 55 H       -6.0230    -4.2040     1.1680 H     1 <1>   0.0800 
@<TRIPOS>BOND
  1   1   2  2   
  2   2   3  am  
  3   2   4  1   
  4   3   5  1   
  5   3  28  1   
  6   4   6  1   
  7   4   7  2   
  8   5   8  1   
  9   5  29  1   
 10   5  30  1   
 11   6   9  1   
 12   7  10  1   
 13   7  31  1   
 14   8  11  1   
 15   8  12  2   
 16   9  10  2   
 17   9  13  1   
 18  10  32  1   
 19  11  14  ar  
 20  11  15  1   
 21  12  16  1   
 22  12  33  1   
 23  13  17  1   
 24  13  34  1   
 25  13  35  1   
 26  14  16  ar  
 27  14  18  1   
 28  15  19  2   
 29  15  36  1   
 30  16  37  1   
 31  17  20  1   
 32  17  21  1   
 33  17  38  1   
 34  18  22  2   
 35  18  23  1   
 36  19  22  1   
 37  19  39  1   
 38  20  24  1   
 39  20  40  1   
 40  20  41  1   
 41  21  25  1   
 42  21  42  1   
 43  21  43  1   
 44  22  44  1   
 45  23  45  1   
 46  23  46  1   
 47  23  47  1   
 48  24  26  1   
 49  24  48  1   
 50  24  49  1   
 51  25  26  1   
 52  25  50  1   
 53  25  51  1   
 54  26  27  1   
 55  26  52  1   
 56  27  53  1   
 57  27  54  1   
 58  27  55  1   
@<TRIPOS>SUBSTRUCTURE
  1 ****   1 GROUP 4 **** **** 0

# MOE 2024.06 (io_trps.svl 2023.06)
