@<TRIPOS>MOLECULE
NONAME
48 50 1 0 0 
SMALL
USER_CHARGES


@<TRIPOS>ATOM
  1 O       -0.6510     0.0180     0.3900 O.2   1 <1>  -0.5700 
  2 C       -1.6580     0.6960     0.4610 C.2   1 <1>   0.7160 
  3 N       -2.8480     0.0890     0.7970 N.am  1 <1>  -0.6600 
  4 C       -1.5970     2.1040     0.1640 C.2   1 <1>  -0.0860 
  5 C       -2.9060    -1.3220     1.2960 C.3   1 <1>   0.1400 
  6 C       -4.1790     0.6020     0.3480 C.3   1 <1>   0.1400 
  7 C       -2.0860     3.1850     0.8090 C.2   1 <1>  -0.0400 
  8 C       -0.9900     2.7000    -0.9300 C.2   1 <1>   0.1080 
  9 C       -3.6560    -2.2260     0.3030 C.3   1 <1>   0.3440 
 10 C       -4.8700    -0.4070    -0.5970 C.3   1 <1>   0.2000 
 11 O       -1.8350     4.3020     0.1700 O.3   1 <1>  -0.0190 
 12 C       -2.8400     3.2750     2.1220 C.3   1 <1>  -0.0600 
 13 N       -1.1540     3.9680    -0.9020 N.2   1 <1>  -0.4100 
 14 C       -0.2320     1.9750    -2.0230 C.3   1 <1>  -0.0590 
 15 O       -4.9110    -1.6690     0.0120 O.3   1 <1>  -0.5600 
 16 C       -3.8360    -3.6260     0.8830 C.ar  1 <1>  -0.1440 
 17 C       -6.3170    -0.0030    -0.9670 C.3   1 <1>  -0.0800 
 18 C       -4.9430    -3.9570     1.6530 C.ar  1 <1>  -0.1500 
 19 C       -2.8660    -4.5910     0.6500 C.ar  1 <1>  -0.1500 
 20 C       -6.9780    -1.0500    -1.8790 C.3   1 <1>  -0.2400 
 21 C       -6.3790     1.3660    -1.6660 C.3   1 <1>  -0.2400 
 22 C       -5.0780    -5.2290     2.1810 C.ar  1 <1>  -0.1500 
 23 C       -2.9990    -5.8640     1.1770 C.ar  1 <1>  -0.1500 
 24 C       -4.1050    -6.1840     1.9440 C.ar  1 <1>  -0.1500 
 25 H       -1.9180    -1.7160     1.4550 H     1 <1>   0.0800 
 26 H       -3.4180    -1.3420     2.2420 H     1 <1>   0.0800 
 27 H       -4.8040     0.7670     1.2080 H     1 <1>   0.0800 
 28 H       -4.0640     1.5390    -0.1650 H     1 <1>   0.0800 
 29 H       -3.1010    -2.2920    -0.6160 H     1 <1>   0.0800 
 30 H       -4.2950    -0.4960    -1.5030 H     1 <1>   0.0800 
 31 H       -2.9290     2.3070     2.5800 H     1 <1>   0.0800 
 32 H       -3.8220     3.6770     1.9530 H     1 <1>   0.0800 
 33 H       -2.3110     3.9250     2.7960 H     1 <1>   0.0800 
 34 H       -0.8550     1.2200    -2.4660 H     1 <1>   0.0800 
 35 H        0.6440     1.5090    -1.6090 H     1 <1>   0.0800 
 36 H        0.0720     2.6690    -2.7860 H     1 <1>   0.0800 
 37 H       -6.8900     0.0610    -0.0570 H     1 <1>   0.0800 
 38 H       -5.7070    -3.2230     1.8400 H     1 <1>   0.1500 
 39 H       -1.9990    -4.3580     0.0560 H     1 <1>   0.1500 
 40 H       -6.4240    -1.1610    -2.7940 H     1 <1>   0.0800 
 41 H       -7.9860    -0.7600    -2.1180 H     1 <1>   0.0800 
 42 H       -7.0180    -2.0070    -1.3870 H     1 <1>   0.0800 
 43 H       -5.7630     1.3700    -2.5490 H     1 <1>   0.0800 
 44 H       -6.0540     2.1550    -1.0120 H     1 <1>   0.0800 
 45 H       -7.3900     1.5870    -1.9600 H     1 <1>   0.0800 
 46 H       -5.9410    -5.4750     2.7750 H     1 <1>   0.1500 
 47 H       -2.2420    -6.6060     0.9910 H     1 <1>   0.1500 
 48 H       -4.2100    -7.1730     2.3540 H     1 <1>   0.1500 
@<TRIPOS>BOND
  1   1   2  2   
  2   2   3  am  
  3   2   4  1   
  4   3   5  1   
  5   3   6  1   
  6   4   7  2   
  7   4   8  1   
  8   5   9  1   
  9   5  25  1   
 10   5  26  1   
 11   6  10  1   
 12   6  27  1   
 13   6  28  1   
 14   7  11  1   
 15   7  12  1   
 16   8  13  2   
 17   8  14  1   
 18   9  15  1   
 19   9  16  1   
 20   9  29  1   
 21  10  15  1   
 22  10  17  1   
 23  10  30  1   
 24  11  13  1   
 25  12  31  1   
 26  12  32  1   
 27  12  33  1   
 28  14  34  1   
 29  14  35  1   
 30  14  36  1   
 31  16  18  ar  
 32  16  19  ar  
 33  17  20  1   
 34  17  21  1   
 35  17  37  1   
 36  18  22  ar  
 37  18  38  1   
 38  19  23  ar  
 39  19  39  1   
 40  20  40  1   
 41  20  41  1   
 42  20  42  1   
 43  21  43  1   
 44  21  44  1   
 45  21  45  1   
 46  22  24  ar  
 47  22  46  1   
 48  23  24  ar  
 49  23  47  1   
 50  24  48  1   
@<TRIPOS>SUBSTRUCTURE
  1 ****   3 GROUP 4 **** **** 0

# MOE 2024.06 (io_trps.svl 2023.06)
