@<TRIPOS>MOLECULE
NONAME
45 48 1 0 0 
SMALL
USER_CHARGES


@<TRIPOS>ATOM
  1 S        0.1210     0.0520     1.8120 S.3   1 <1>  -0.0800 
  2 C        1.5740    -0.2290     0.8810 C.2   1 <1>  -0.1400 
  3 C       -0.2080    -1.6660     1.8570 C.2   1 <1>  -0.1100 
  4 C        1.7480    -1.5360     0.6330 C.2   1 <1>  -0.1810 
  5 C        2.4560     0.9260     0.4630 C.3   1 <1>   0.0200 
  6 C        0.7250    -2.3910     1.1880 C.2   1 <1>  -0.0860 
  7 C        2.9440    -2.0360    -0.1650 C.3   1 <1>   0.0210 
  8 C        3.8050     0.3750    -0.0340 C.3   1 <1>  -0.1600 
  9 C        0.7230    -3.8340     1.0350 C.2   1 <1>   0.7160 
 10 C        3.6300    -0.8770    -0.9180 C.3   1 <1>  -0.1600 
 11 O        1.7330    -4.4790     1.2420 O.2   1 <1>  -0.5700 
 12 N       -0.4150    -4.5000     0.6440 N.am  1 <1>  -0.6600 
 13 C       -1.5900    -3.8580     0.0040 C.3   1 <1>   0.1400 
 14 C       -0.4470    -5.9700     0.4450 C.3   1 <1>   0.1400 
 15 C       -2.3020    -4.9900    -0.7350 C.3   1 <1>   0.2000 
 16 C       -1.8680    -6.2760    -0.0360 C.3   1 <1>  -0.0800 
 17 O       -3.6810    -4.8580    -0.6690 O.3   1 <1>  -0.6800 
 18 C       -1.9750    -7.5100    -0.9480 C.3   1 <1>  -0.0170 
 19 C       -1.5980    -8.7880    -0.2160 C.ar  1 <1>   0.1670 
 20 N       -0.3050    -9.0530    -0.1170 N.ar  1 <1>  -0.6200 
 21 C       -2.5930    -9.6090     0.3110 C.ar  1 <1>   0.1600 
 22 C       -0.0770   -10.1790     0.5380 C.ar  1 <1>   0.1600 
 23 N       -2.3670   -10.7350     0.9690 N.ar  1 <1>  -0.6200 
 24 C       -1.0740   -10.9920     1.0630 C.ar  1 <1>   0.1600 
 25 H       -1.0840    -1.9810     2.3940 H     1 <1>   0.1500 
 26 H        1.9640     1.4690    -0.3250 H     1 <1>   0.0800 
 27 H        2.6140     1.5910     1.2930 H     1 <1>   0.0800 
 28 H        3.6400    -2.4940     0.5150 H     1 <1>   0.0800 
 29 H        2.6300    -2.7830    -0.8730 H     1 <1>   0.0800 
 30 H        4.3260     1.1420    -0.5800 H     1 <1>   0.0800 
 31 H        4.4060     0.1120     0.8200 H     1 <1>   0.0800 
 32 H        4.5890    -1.2080    -1.2770 H     1 <1>   0.0800 
 33 H        3.0310    -0.6160    -1.7730 H     1 <1>   0.0800 
 34 H       -2.2230    -3.4400     0.7660 H     1 <1>   0.0800 
 35 H       -1.2750    -3.0890    -0.6810 H     1 <1>   0.0800 
 36 H        0.2800    -6.2400    -0.3030 H     1 <1>   0.0800 
 37 H       -0.2170    -6.4870     1.3610 H     1 <1>   0.0800 
 38 H       -2.0090    -4.9890    -1.7720 H     1 <1>   0.0800 
 39 H       -2.4720    -6.4270     0.8420 H     1 <1>   0.0800 
 40 H       -3.9800    -4.8450     0.2610 H     1 <1>   0.4000 
 41 H       -1.3320    -7.3940    -1.8030 H     1 <1>   0.0800 
 42 H       -2.9830    -7.5920    -1.3130 H     1 <1>   0.0800 
 43 H       -3.6220    -9.3230     0.1860 H     1 <1>   0.1500 
 44 H        0.9500   -10.4730     0.6670 H     1 <1>   0.1500 
 45 H       -0.7880   -11.8900     1.5820 H     1 <1>   0.1500 
@<TRIPOS>BOND
  1   1   2  1   
  2   1   3  1   
  3   2   4  2   
  4   2   5  1   
  5   3   6  2   
  6   3  25  1   
  7   4   6  1   
  8   4   7  1   
  9   5   8  1   
 10   5  26  1   
 11   5  27  1   
 12   6   9  1   
 13   7  10  1   
 14   7  28  1   
 15   7  29  1   
 16   8  10  1   
 17   8  30  1   
 18   8  31  1   
 19   9  11  2   
 20   9  12  am  
 21  10  32  1   
 22  10  33  1   
 23  12  13  1   
 24  12  14  1   
 25  13  15  1   
 26  13  34  1   
 27  13  35  1   
 28  14  16  1   
 29  14  36  1   
 30  14  37  1   
 31  15  16  1   
 32  15  17  1   
 33  15  38  1   
 34  16  18  1   
 35  16  39  1   
 36  17  40  1   
 37  18  19  1   
 38  18  41  1   
 39  18  42  1   
 40  19  20  ar  
 41  19  21  ar  
 42  20  22  ar  
 43  21  23  ar  
 44  21  43  1   
 45  22  24  ar  
 46  22  44  1   
 47  23  24  ar  
 48  24  45  1   
@<TRIPOS>SUBSTRUCTURE
  1 ****  12 GROUP 4 **** **** 0

# MOE 2024.06 (io_trps.svl 2023.06)
