@<TRIPOS>MOLECULE
NONAME
52 55 1 0 0 
SMALL
USER_CHARGES


@<TRIPOS>ATOM
  1 O       -0.0820    -1.8180    -1.6650 O.2   1 <1>  -0.5700 
  2 C        0.7330    -2.0250    -0.8040 C.2   1 <1>   0.5690 
  3 N        2.0100    -1.6330    -0.9710 N.am  1 <1>  -0.7300 
  4 C        0.3200    -2.7390     0.4590 C.3   1 <1>  -0.0990 
  5 C        3.1270    -1.8650    -0.0180 C.3   1 <1>   0.1400 
  6 C        1.0450    -4.0750     0.6060 C.3   1 <1>   0.1200 
  7 C        3.4000    -3.3610     0.2910 C.3   1 <1>   0.2800 
  8 O        2.3590    -3.9120     1.0680 O.3   1 <1>  -0.5600 
  9 C        3.6200    -4.1690    -1.0100 C.3   1 <1>  -0.1600 
 10 C        4.6330    -3.4670     1.2180 C.3   1 <1>  -0.1600 
 11 C        4.4580    -5.4190    -0.7640 C.3   1 <1>   0.2090 
 12 C        5.9380    -3.7470     0.4710 C.3   1 <1>   0.2090 
 13 N        5.8220    -5.0060    -0.3200 N.pl3 1 <1>  -0.8380 
 14 C        6.9370    -5.7550    -0.6290 C.ar  1 <1>   0.7200 
 15 N        8.1170    -5.1640    -0.4750 N.ar  1 <1>  -0.6200 
 16 N        6.7330    -7.0000    -1.0550 N.ar  1 <1>  -0.6200 
 17 C        9.1860    -5.8780    -0.7610 C.ar  1 <1>   0.3100 
 18 C        7.8040    -7.6960    -1.3420 C.ar  1 <1>   0.1600 
 19 C       10.4900    -5.2790    -0.6010 C.ar  1 <1>   0.0000 
 20 C        9.0630    -7.1760    -1.2110 C.ar  1 <1>  -0.1500 
 21 C       11.3580    -5.6190     0.4430 C.ar  1 <1>   0.1670 
 22 C       10.9300    -4.3360    -1.5170 C.ar  1 <1>  -0.1500 
 23 N       12.5780    -5.1330     0.5960 N.ar  1 <1>  -0.6200 
 24 C       10.9350    -6.6110     1.5130 C.3   1 <1>  -0.0970 
 25 C       12.1930    -3.8150    -1.3560 C.ar  1 <1>  -0.1500 
 26 C       12.9750    -4.2440    -0.2970 C.ar  1 <1>   0.1670 
 27 C       14.3710    -3.6920    -0.1030 C.3   1 <1>  -0.0970 
 28 H        2.2250    -1.1550    -1.8480 H     1 <1>   0.3700 
 29 H       -0.7360    -2.9270     0.4010 H     1 <1>   0.0800 
 30 H        0.4980    -2.1180     1.3160 H     1 <1>   0.0800 
 31 H        2.9200    -1.3460     0.9020 H     1 <1>   0.0800 
 32 H        4.0180    -1.4340    -0.4390 H     1 <1>   0.0800 
 33 H        1.0300    -4.6390    -0.3070 H     1 <1>   0.0800 
 34 H        0.5370    -4.6590     1.3540 H     1 <1>   0.0800 
 35 H        4.1600    -3.5660    -1.7180 H     1 <1>   0.0800 
 36 H        2.6990    -4.4280    -1.4900 H     1 <1>   0.0800 
 37 H        4.4960    -4.2780     1.9130 H     1 <1>   0.0800 
 38 H        4.7480    -2.5710     1.7990 H     1 <1>   0.0800 
 39 H        4.5210    -5.9890    -1.6750 H     1 <1>   0.0800 
 40 H        4.0040    -6.0340    -0.0050 H     1 <1>   0.0800 
 41 H        6.7390    -3.8390     1.1870 H     1 <1>   0.0800 
 42 H        6.1740    -2.9340    -0.1940 H     1 <1>   0.0800 
 43 H        7.6690    -8.7060    -1.6910 H     1 <1>   0.1500 
 44 H        9.9340    -7.7550    -1.4520 H     1 <1>   0.1500 
 45 H       10.2930    -4.0240    -2.3260 H     1 <1>   0.1500 
 46 H        9.8800    -6.5480     1.7080 H     1 <1>   0.0800 
 47 H       11.4530    -6.4000     2.4320 H     1 <1>   0.0800 
 48 H       11.1830    -7.6080     1.2020 H     1 <1>   0.0800 
 49 H       12.5660    -3.0830    -2.0480 H     1 <1>   0.1500 
 50 H       14.4340    -3.2100     0.8550 H     1 <1>   0.0800 
 51 H       14.6180    -2.9800    -0.8680 H     1 <1>   0.0800 
 52 H       15.0820    -4.4970    -0.1330 H     1 <1>   0.0800 
@<TRIPOS>BOND
  1   1   2  2   
  2   2   3  am  
  3   2   4  1   
  4   3   5  1   
  5   3  28  1   
  6   4   6  1   
  7   4  29  1   
  8   4  30  1   
  9   5   7  1   
 10   5  31  1   
 11   5  32  1   
 12   6   8  1   
 13   6  33  1   
 14   6  34  1   
 15   7   8  1   
 16   7   9  1   
 17   7  10  1   
 18   9  11  1   
 19   9  35  1   
 20   9  36  1   
 21  10  12  1   
 22  10  37  1   
 23  10  38  1   
 24  11  13  1   
 25  11  39  1   
 26  11  40  1   
 27  12  13  1   
 28  12  41  1   
 29  12  42  1   
 30  13  14  1   
 31  14  15  ar  
 32  14  16  ar  
 33  15  17  ar  
 34  16  18  ar  
 35  17  19  1   
 36  17  20  ar  
 37  18  20  ar  
 38  18  43  1   
 39  19  21  ar  
 40  19  22  ar  
 41  20  44  1   
 42  21  23  ar  
 43  21  24  1   
 44  22  25  ar  
 45  22  45  1   
 46  23  26  ar  
 47  24  46  1   
 48  24  47  1   
 49  24  48  1   
 50  25  26  ar  
 51  25  49  1   
 52  26  27  1   
 53  27  50  1   
 54  27  51  1   
 55  27  52  1   
@<TRIPOS>SUBSTRUCTURE
  1 ****  13 GROUP 4 **** **** 0

# MOE 2024.06 (io_trps.svl 2023.06)
