@<TRIPOS>MOLECULE
NONAME
62 64 1 0 0 
SMALL
USER_CHARGES


@<TRIPOS>ATOM
  1 O       -0.9610     0.5320    -1.5500 O.2   1 <1>  -0.5700 
  2 C       -1.2320     1.3320    -0.6760 C.2   1 <1>   0.5440 
  3 N       -2.1980     1.0040     0.2520 N.am  1 <1>  -0.6600 
  4 C       -0.5400     2.6040    -0.6520 C.ar  1 <1>   0.0860 
  5 C       -2.6810    -0.4040     0.3520 C.3   1 <1>   0.1400 
  6 C       -2.8450     1.9970     1.1570 C.3   1 <1>   0.1400 
  7 C        0.3240     2.9550     0.3920 C.ar  1 <1>   0.0730 
  8 C       -0.7280     3.5080    -1.6970 C.ar  1 <1>  -0.1500 
  9 C       -3.8130    -0.6710    -0.6510 C.3   1 <1>   0.1400 
 10 C       -4.3780     1.8930     1.1800 C.3   1 <1>  -0.1600 
 11 C        0.5720     2.0600     1.4860 C.1   1 <1>   0.4840 
 12 C        0.9530     4.1950     0.3690 C.ar  1 <1>  -0.1500 
 13 C       -0.0970     4.7360    -1.7080 C.ar  1 <1>  -0.1500 
 14 N       -5.0940     0.0070    -0.2610 N.am  1 <1>  -0.6600 
 15 C       -5.0130     1.4950    -0.1570 C.3   1 <1>   0.1400 
 16 N        0.7550     1.3780     2.3810 N.1   1 <1>  -0.5570 
 17 C        0.7450     5.0840    -0.6700 C.ar  1 <1>  -0.1500 
 18 C       -6.2810    -0.6340    -0.0090 C.2   1 <1>   0.5690 
 19 O       -7.2560    -0.0380     0.3860 O.2   1 <1>  -0.5700 
 20 C       -6.4160    -2.1400    -0.2180 C.3   1 <1>  -0.0990 
 21 C       -7.8580    -2.6570    -0.0100 C.3   1 <1>  -0.1600 
 22 C       -8.0400    -4.1480    -0.3190 C.3   1 <1>   0.4230 
 23 N       -9.4980    -4.4540    -0.3640 N.4   1 <1>  -0.9590 
 24 C       -7.3120    -5.0460     0.6870 C.3   1 <1>  -0.2400 
 25 C      -10.1890    -4.3700     0.9620 C.3   1 <1>   0.3430 
 26 C       -9.7730    -5.7550    -1.0440 C.3   1 <1>   0.3430 
 27 C      -11.7010    -4.4960     0.7640 C.3   1 <1>  -0.1600 
 28 C      -11.2760    -5.9060    -1.2820 C.3   1 <1>  -0.1600 
 29 C      -12.0730    -5.7860     0.0230 C.3   1 <1>  -0.1600 
 30 H       -3.0090    -0.6190     1.3540 H     1 <1>   0.0800 
 31 H       -1.8610    -1.0670     0.1320 H     1 <1>   0.0800 
 32 H       -2.5880     2.9910     0.8370 H     1 <1>   0.0800 
 33 H       -2.4630     1.8660     2.1560 H     1 <1>   0.0800 
 34 H       -1.3780     3.2330    -2.5110 H     1 <1>   0.1500 
 35 H       -3.9510    -1.7320    -0.7150 H     1 <1>   0.0800 
 36 H       -3.5090    -0.3290    -1.6260 H     1 <1>   0.0800 
 37 H       -4.7620     2.8560     1.4640 H     1 <1>   0.0800 
 38 H       -4.6900     1.2040     1.9450 H     1 <1>   0.0800 
 39 H        1.6170     4.4720     1.1720 H     1 <1>   0.1500 
 40 H       -0.2580     5.4210    -2.5250 H     1 <1>   0.1500 
 41 H       -4.4490     1.8940    -0.9840 H     1 <1>   0.0800 
 42 H       -6.0030     1.9140    -0.2130 H     1 <1>   0.0800 
 43 H        1.2400     6.0410    -0.6740 H     1 <1>   0.1500 
 44 H       -5.7510    -2.6240     0.4730 H     1 <1>   0.0800 
 45 H       -6.1010    -2.3660    -1.2200 H     1 <1>   0.0800 
 46 H       -8.5020    -2.0880    -0.6580 H     1 <1>   0.0800 
 47 H       -8.1440    -2.4500     1.0070 H     1 <1>   0.0800 
 48 H       -7.6270    -4.3320    -1.2990 H     1 <1>   0.0800 
 49 H       -9.9290    -3.7280    -0.9500 H     1 <1>   0.4500 
 50 H       -7.5860    -4.8080     1.6990 H     1 <1>   0.0800 
 51 H       -6.2510    -4.9050     0.5960 H     1 <1>   0.0800 
 52 H       -7.5090    -6.0850     0.4980 H     1 <1>   0.0800 
 53 H       -9.9710    -3.4290     1.4390 H     1 <1>   0.0800 
 54 H       -9.8440    -5.1650     1.6040 H     1 <1>   0.0800 
 55 H       -9.4250    -6.5690    -0.4290 H     1 <1>   0.0800 
 56 H       -9.2550    -5.7970    -1.9890 H     1 <1>   0.0800 
 57 H      -12.0610    -3.6400     0.2190 H     1 <1>   0.0800 
 58 H      -12.1820    -4.4870     1.7270 H     1 <1>   0.0800 
 59 H      -11.4670    -6.8670    -1.7270 H     1 <1>   0.0800 
 60 H      -11.6040    -5.1580    -1.9830 H     1 <1>   0.0800 
 61 H      -13.1300    -5.7940    -0.1900 H     1 <1>   0.0800 
 62 H      -11.8610    -6.6350     0.6520 H     1 <1>   0.0800 
@<TRIPOS>BOND
  1   1   2  2   
  2   2   3  am  
  3   2   4  1   
  4   3   5  1   
  5   3   6  1   
  6   4   7  ar  
  7   4   8  ar  
  8   5   9  1   
  9   5  30  1   
 10   5  31  1   
 11   6  10  1   
 12   6  32  1   
 13   6  33  1   
 14   7  11  1   
 15   7  12  ar  
 16   8  13  ar  
 17   8  34  1   
 18   9  14  1   
 19   9  35  1   
 20   9  36  1   
 21  10  15  1   
 22  10  37  1   
 23  10  38  1   
 24  11  16  3   
 25  12  17  ar  
 26  12  39  1   
 27  13  17  ar  
 28  13  40  1   
 29  14  15  1   
 30  14  18  am  
 31  15  41  1   
 32  15  42  1   
 33  17  43  1   
 34  18  19  2   
 35  18  20  1   
 36  20  21  1   
 37  20  44  1   
 38  20  45  1   
 39  21  22  1   
 40  21  46  1   
 41  21  47  1   
 42  22  23  1   
 43  22  24  1   
 44  22  48  1   
 45  23  25  1   
 46  23  26  1   
 47  23  49  1   
 48  24  50  1   
 49  24  51  1   
 50  24  52  1   
 51  25  27  1   
 52  25  53  1   
 53  25  54  1   
 54  26  28  1   
 55  26  55  1   
 56  26  56  1   
 57  27  29  1   
 58  27  57  1   
 59  27  58  1   
 60  28  29  1   
 61  28  59  1   
 62  28  60  1   
 63  29  61  1   
 64  29  62  1   
@<TRIPOS>SUBSTRUCTURE
  1 ****  14 GROUP 4 **** **** 0

# MOE 2024.06 (io_trps.svl 2023.06)
