@<TRIPOS>MOLECULE
NONAME
46 48 1 0 0 
SMALL
USER_CHARGES


@<TRIPOS>ATOM
  1 O       -2.0410     0.3090    -2.8370 O.2   1 <1>  -0.5700 
  2 C       -1.9930     0.8330    -1.7500 C.2   1 <1>   0.5690 
  3 N       -1.9720     0.1070    -0.6090 N.am  1 <1>  -0.7300 
  4 C       -1.9790     2.3470    -1.6340 C.3   1 <1>   0.0440 
  5 C       -1.8640    -1.3580    -0.4850 C.3   1 <1>   0.2200 
  6 C       -0.7930     2.8550    -0.8100 C.ar  1 <1>  -0.1440 
  7 C       -3.1660    -1.9620     0.0210 C.3   1 <1>  -0.0800 
  8 C       -0.9390    -1.6720     0.6840 C.3   1 <1>   0.1200 
  9 C       -0.8020     2.8220     0.5840 C.ar  1 <1>   0.0820 
 10 C        0.3220     3.3470    -1.4720 C.ar  1 <1>  -0.1500 
 11 C       -3.0640    -1.7780     1.5390 C.3   1 <1>   0.1200 
 12 C       -4.4540    -1.3910    -0.6010 C.3   1 <1>  -0.0160 
 13 O       -1.7220    -1.5030     1.8290 O.3   1 <1>  -0.5600 
 14 O       -1.8990     2.3150     1.2090 O.3   1 <1>  -0.3630 
 15 C        0.3020     3.2910     1.2920 C.ar  1 <1>  -0.1500 
 16 C        1.4160     3.8090    -0.7630 C.ar  1 <1>  -0.1500 
 17 C       -5.6790    -2.1250    -0.0800 C.ar  1 <1>  -0.1440 
 18 C       -1.8260     1.8430     2.5390 C.3   1 <1>   0.0400 
 19 C        1.4050     3.7820     0.6190 C.ar  1 <1>  -0.1500 
 20 C       -6.4720    -1.6080     0.9250 C.ar  1 <1>  -0.1500 
 21 C       -6.0610    -3.3510    -0.5870 C.ar  1 <1>  -0.1500 
 22 C       -7.5720    -2.3250     1.3660 C.ar  1 <1>   0.1600 
 23 C       -7.1800    -3.9850    -0.0750 C.ar  1 <1>   0.1600 
 24 N       -7.9440    -3.5030     0.8920 N.ar  1 <1>  -0.6200 
 25 H       -1.9010     0.6210     0.2790 H     1 <1>   0.3700 
 26 H       -1.9460     2.7670    -2.6220 H     1 <1>   0.0800 
 27 H       -2.8990     2.6650    -1.1820 H     1 <1>   0.0800 
 28 H       -1.5270    -1.7950    -1.4110 H     1 <1>   0.0800 
 29 H       -3.1360    -3.0190    -0.1780 H     1 <1>   0.0800 
 30 H       -0.0860    -1.0180     0.7260 H     1 <1>   0.0800 
 31 H       -0.6160    -2.6980     0.6510 H     1 <1>   0.0800 
 32 H        0.3470     3.3710    -2.5480 H     1 <1>   0.1500 
 33 H       -3.3640    -2.6660     2.0690 H     1 <1>   0.0800 
 34 H       -3.6470    -0.9390     1.8760 H     1 <1>   0.0800 
 35 H       -4.4060    -1.4890    -1.6720 H     1 <1>   0.0800 
 36 H       -4.5460    -0.3420    -0.3790 H     1 <1>   0.0800 
 37 H        0.3170     3.2860     2.3650 H     1 <1>   0.1500 
 38 H        2.2750     4.1890    -1.2880 H     1 <1>   0.1500 
 39 H       -2.7490     1.3410     2.7690 H     1 <1>   0.0800 
 40 H       -1.6920     2.6790     3.2020 H     1 <1>   0.0800 
 41 H       -1.0070     1.1490     2.6220 H     1 <1>   0.0800 
 42 H        2.2560     4.1430     1.1700 H     1 <1>   0.1500 
 43 H       -6.2460    -0.6570     1.3690 H     1 <1>   0.1500 
 44 H       -5.4990    -3.8170    -1.3750 H     1 <1>   0.1500 
 45 H       -8.1790    -1.9070     2.1510 H     1 <1>   0.1500 
 46 H       -7.4630    -4.9410    -0.4830 H     1 <1>   0.1500 
@<TRIPOS>BOND
  1   1   2  2   
  2   2   3  am  
  3   2   4  1   
  4   3   5  1   
  5   3  25  1   
  6   4   6  1   
  7   4  26  1   
  8   4  27  1   
  9   5   7  1   
 10   5   8  1   
 11   5  28  1   
 12   6   9  ar  
 13   6  10  ar  
 14   7  11  1   
 15   7  12  1   
 16   7  29  1   
 17   8  13  1   
 18   8  30  1   
 19   8  31  1   
 20   9  14  1   
 21   9  15  ar  
 22  10  16  ar  
 23  10  32  1   
 24  11  13  1   
 25  11  33  1   
 26  11  34  1   
 27  12  17  1   
 28  12  35  1   
 29  12  36  1   
 30  14  18  1   
 31  15  19  ar  
 32  15  37  1   
 33  16  19  ar  
 34  16  38  1   
 35  17  20  ar  
 36  17  21  ar  
 37  18  39  1   
 38  18  40  1   
 39  18  41  1   
 40  19  42  1   
 41  20  22  ar  
 42  20  43  1   
 43  21  23  ar  
 44  21  44  1   
 45  22  24  ar  
 46  22  45  1   
 47  23  24  ar  
 48  23  46  1   
@<TRIPOS>SUBSTRUCTURE
  1 ****   3 GROUP 4 **** **** 0

# MOE 2024.06 (io_trps.svl 2023.06)
