@<TRIPOS>MOLECULE
NONAME
51 53 1 0 0 
SMALL
USER_CHARGES


@<TRIPOS>ATOM
  1 O       -0.1490     1.3100    -1.1950 O.3   1 <1>  -0.6800 
  2 C       -0.6020     2.6310    -1.0970 C.3   1 <1>   0.2000 
  3 C       -0.7210     3.1030     0.3900 C.3   1 <1>   0.0000 
  4 C        0.4230     3.5030    -1.8480 C.3   1 <1>   0.3430 
  5 C        0.6140     3.7630     0.8550 C.3   1 <1>  -0.1600 
  6 C       -1.0510     1.8840     1.3010 C.3   1 <1>   0.1200 
  7 C       -1.8850     4.1320     0.5260 C.3   1 <1>  -0.1600 
  8 N        1.8140     3.2800    -1.3120 N.4   1 <1>  -0.9590 
  9 C        1.8470     3.1430     0.1860 C.3   1 <1>   0.3430 
 10 O       -1.3410     2.2620     2.6040 O.3   1 <1>  -0.6800 
 11 C       -1.8980     5.3310    -0.4460 C.3   1 <1>  -0.1600 
 12 C        2.8000     4.2740    -1.8540 C.3   1 <1>   0.4860 
 13 C       -3.0640     6.2680    -0.1250 C.3   1 <1>  -0.2400 
 14 C        2.4550     5.6900    -1.4110 C.ar  1 <1>  -0.1440 
 15 C        3.0130     6.2380    -0.2250 C.ar  1 <1>   0.0000 
 16 C        1.5860     6.4280    -2.1750 C.ar  1 <1>  -0.1500 
 17 C        2.5470     7.5000     0.2110 C.ar  1 <1>   0.0000 
 18 C        4.0200     5.6120     0.5520 C.ar  1 <1>  -0.1500 
 19 C        1.1710     7.6960    -1.7630 C.ar  1 <1>  -0.1500 
 20 C        1.6310     8.2100    -0.5870 C.ar  1 <1>  -0.1500 
 21 C        3.0200     8.0290     1.4280 C.ar  1 <1>  -0.1500 
 22 C        4.4730     6.1560     1.7210 C.ar  1 <1>  -0.1500 
 23 C        3.9580     7.3740     2.1730 C.ar  1 <1>  -0.1500 
 24 H       -0.8720     0.6770    -0.9960 H     1 <1>   0.4000 
 25 H       -1.5590     2.6790    -1.5880 H     1 <1>   0.0800 
 26 H        0.1450     4.5340    -1.7200 H     1 <1>   0.0800 
 27 H        0.3860     3.2730    -2.8990 H     1 <1>   0.0800 
 28 H        0.7240     3.6800     1.9210 H     1 <1>   0.0800 
 29 H        0.6250     4.8160     0.6470 H     1 <1>   0.0800 
 30 H       -0.2310     1.1870     1.3410 H     1 <1>   0.0800 
 31 H       -1.9200     1.3680     0.9300 H     1 <1>   0.0800 
 32 H       -2.8200     3.6080     0.4110 H     1 <1>   0.0800 
 33 H       -1.8820     4.5250     1.5290 H     1 <1>   0.0800 
 34 H        2.0660     2.3450    -1.6650 H     1 <1>   0.4500 
 35 H        1.8680     2.0950     0.4370 H     1 <1>   0.0800 
 36 H        2.7390     3.5890     0.5880 H     1 <1>   0.0800 
 37 H       -0.5700     2.6570     3.0550 H     1 <1>   0.4000 
 38 H       -0.9870     5.8990    -0.3720 H     1 <1>   0.0800 
 39 H       -2.0130     4.9970    -1.4620 H     1 <1>   0.0800 
 40 H        3.7960     4.0200    -1.5360 H     1 <1>   0.0800 
 41 H        2.7870     4.2370    -2.9310 H     1 <1>   0.0800 
 42 H       -2.9750     6.6550     0.8750 H     1 <1>   0.0800 
 43 H       -4.0040     5.7490    -0.2100 H     1 <1>   0.0800 
 44 H       -3.0720     7.0990    -0.8090 H     1 <1>   0.0800 
 45 H        1.1890     6.0570    -3.1050 H     1 <1>   0.1500 
 46 H        4.4610     4.6910     0.2250 H     1 <1>   0.1500 
 47 H        0.4850     8.2570    -2.3770 H     1 <1>   0.1500 
 48 H        1.3050     9.1800    -0.2540 H     1 <1>   0.1500 
 49 H        2.6310     8.9750     1.7630 H     1 <1>   0.1500 
 50 H        5.2340     5.6690     2.3070 H     1 <1>   0.1500 
 51 H        4.3180     7.7860     3.1000 H     1 <1>   0.1500 
@<TRIPOS>BOND
  1   1   2  1   
  2   1  24  1   
  3   2   3  1   
  4   2   4  1   
  5   2  25  1   
  6   3   5  1   
  7   3   6  1   
  8   3   7  1   
  9   4   8  1   
 10   4  26  1   
 11   4  27  1   
 12   5   9  1   
 13   5  28  1   
 14   5  29  1   
 15   6  10  1   
 16   6  30  1   
 17   6  31  1   
 18   7  11  1   
 19   7  32  1   
 20   7  33  1   
 21   8   9  1   
 22   8  12  1   
 23   8  34  1   
 24   9  35  1   
 25   9  36  1   
 26  10  37  1   
 27  11  13  1   
 28  11  38  1   
 29  11  39  1   
 30  12  14  1   
 31  12  40  1   
 32  12  41  1   
 33  13  42  1   
 34  13  43  1   
 35  13  44  1   
 36  14  15  ar  
 37  14  16  ar  
 38  15  17  ar  
 39  15  18  ar  
 40  16  19  ar  
 41  16  45  1   
 42  17  20  ar  
 43  17  21  ar  
 44  18  22  ar  
 45  18  46  1   
 46  19  20  ar  
 47  19  47  1   
 48  20  48  1   
 49  21  23  ar  
 50  21  49  1   
 51  22  23  ar  
 52  22  50  1   
 53  23  51  1   
@<TRIPOS>SUBSTRUCTURE
  1 ****   5 GROUP 4 **** **** 0

# MOE 2024.06 (io_trps.svl 2023.06)
