@<TRIPOS>MOLECULE
NONAME
55 57 1 0 0 
SMALL
USER_CHARGES


@<TRIPOS>ATOM
  1 O        0.4830    -0.5490    -0.1440 O.3   1 <1>  -0.3630 
  2 C        0.2610    -1.8540    -0.4340 C.ar  1 <1>   0.0830 
  3 C        1.5750    -0.1410     0.6500 C.3   1 <1>   0.0400 
  4 C        1.0180    -2.9040     0.0740 C.ar  1 <1>  -0.1500 
  5 C       -0.7870    -2.1270    -1.2920 C.ar  1 <1>  -0.1500 
  6 C        0.7250    -4.2180    -0.2600 C.ar  1 <1>  -0.1430 
  7 C       -1.0900    -3.4310    -1.6300 C.ar  1 <1>  -0.1500 
  8 C       -0.3500    -4.4830    -1.1060 C.ar  1 <1>  -0.1440 
  9 C        1.6160    -5.3150     0.3130 C.3   1 <1>  -0.0970 
 10 C       -0.7590    -5.8980    -1.4630 C.3   1 <1>   0.4860 
 11 N       -1.5300    -6.4460    -0.3040 N.4   1 <1>  -0.9590 
 12 C       -1.7350    -7.9350    -0.3960 C.3   1 <1>   0.3430 
 13 C       -2.8040    -5.6760    -0.0950 C.3   1 <1>   0.3430 
 14 C       -2.7630    -8.3830     0.6760 C.3   1 <1>   0.4230 
 15 C       -3.7620    -6.3990     0.8770 C.3   1 <1>  -0.1600 
 16 N       -2.6750    -9.7960     1.2250 N.4   1 <1>  -0.9590 
 17 C       -4.2160    -7.8340     0.2820 C.3   1 <1>   0.0000 
 18 C       -2.7970   -10.8600     0.2120 C.3   1 <1>   0.3430 
 19 C       -1.5090   -10.0480     2.1340 C.3   1 <1>   0.2630 
 20 C       -4.6840    -9.2290    -0.3900 C.3   1 <1>  -0.1600 
 21 C       -5.6780    -7.2410    -0.0190 C.3   1 <1>   0.1200 
 22 C       -3.7230   -10.3460    -0.8680 C.3   1 <1>  -0.1600 
 23 O       -6.3620    -7.2310     1.1920 O.3   1 <1>  -0.6800 
 24 H        1.5600     0.9320     0.7110 H     1 <1>   0.0800 
 25 H        2.4880    -0.4670     0.1840 H     1 <1>   0.0800 
 26 H        1.4700    -0.5630     1.6340 H     1 <1>   0.0800 
 27 H        1.8430    -2.7000     0.7310 H     1 <1>   0.1500 
 28 H       -1.3580    -1.3060    -1.6910 H     1 <1>   0.1500 
 29 H       -1.9100    -3.6030    -2.3070 H     1 <1>   0.1500 
 30 H        2.5420    -4.8970     0.6700 H     1 <1>   0.0800 
 31 H        1.8680    -6.0410    -0.4390 H     1 <1>   0.0800 
 32 H        1.1350    -5.8010     1.1410 H     1 <1>   0.0800 
 33 H        0.1230    -6.4880    -1.6480 H     1 <1>   0.0800 
 34 H       -1.3640    -5.8950    -2.3560 H     1 <1>   0.0800 
 35 H       -0.9340    -6.2140     0.5050 H     1 <1>   0.4500 
 36 H       -2.1110    -8.1870    -1.3730 H     1 <1>   0.0800 
 37 H       -0.7960    -8.4400    -0.2400 H     1 <1>   0.0800 
 38 H       -2.5730    -4.6930     0.2890 H     1 <1>   0.0800 
 39 H       -3.3060    -5.5440    -1.0410 H     1 <1>   0.0800 
 40 H       -2.4130    -7.8530     1.5390 H     1 <1>   0.0800 
 41 H       -3.3490    -6.4270     1.8730 H     1 <1>   0.0800 
 42 H       -4.5240    -5.6560     1.0600 H     1 <1>   0.0800 
 43 H       -3.5260    -9.8910     1.8070 H     1 <1>   0.4500 
 44 H       -1.8370   -11.1100    -0.2130 H     1 <1>   0.0800 
 45 H       -3.2140   -11.7480     0.6640 H     1 <1>   0.0800 
 46 H       -0.5800    -9.9870     1.5910 H     1 <1>   0.0800 
 47 H       -1.5830   -11.0320     2.5700 H     1 <1>   0.0800 
 48 H       -1.4930    -9.3270     2.9360 H     1 <1>   0.0800 
 49 H       -5.4090    -9.6950     0.2620 H     1 <1>   0.0800 
 50 H       -5.1720    -9.0600    -1.3390 H     1 <1>   0.0800 
 51 H       -6.3530    -7.7510    -0.6860 H     1 <1>   0.0800 
 52 H       -5.6750    -6.2430    -0.4290 H     1 <1>   0.0800 
 53 H       -3.1380   -10.0050    -1.7050 H     1 <1>   0.0800 
 54 H       -4.3000   -11.1790    -1.2360 H     1 <1>   0.0800 
 55 H       -7.2890    -6.9250     1.0820 H     1 <1>   0.4000 
@<TRIPOS>BOND
  1   1   2  1   
  2   1   3  1   
  3   2   4  ar  
  4   2   5  ar  
  5   3  24  1   
  6   3  25  1   
  7   3  26  1   
  8   4   6  ar  
  9   4  27  1   
 10   5   7  ar  
 11   5  28  1   
 12   6   8  ar  
 13   6   9  1   
 14   7   8  ar  
 15   7  29  1   
 16   8  10  1   
 17   9  30  1   
 18   9  31  1   
 19   9  32  1   
 20  10  11  1   
 21  10  33  1   
 22  10  34  1   
 23  11  12  1   
 24  11  13  1   
 25  11  35  1   
 26  12  14  1   
 27  12  36  1   
 28  12  37  1   
 29  13  15  1   
 30  13  38  1   
 31  13  39  1   
 32  14  16  1   
 33  14  17  1   
 34  14  40  1   
 35  15  17  1   
 36  15  41  1   
 37  15  42  1   
 38  16  18  1   
 39  16  19  1   
 40  16  43  1   
 41  17  20  1   
 42  17  21  1   
 43  18  22  1   
 44  18  44  1   
 45  18  45  1   
 46  19  46  1   
 47  19  47  1   
 48  19  48  1   
 49  20  22  1   
 50  20  49  1   
 51  20  50  1   
 52  21  23  1   
 53  21  51  1   
 54  21  52  1   
 55  22  53  1   
 56  22  54  1   
 57  23  55  1   
@<TRIPOS>SUBSTRUCTURE
  1 ****  11 GROUP 4 **** **** 0

# MOE 2024.06 (io_trps.svl 2023.06)
