@<TRIPOS>MOLECULE
NONAME
46 48 1 0 0 
SMALL
USER_CHARGES


@<TRIPOS>ATOM
  1 CL      -0.9710     0.4390    -0.0070 Cl    1 <1>  -0.1770 
  2 C       -0.6140    -1.2750    -0.0820 C.ar  1 <1>   0.1770 
  3 C       -1.6670    -2.1920    -0.0830 C.ar  1 <1>   0.1170 
  4 C        0.7090    -1.6670    -0.1420 C.ar  1 <1>  -0.1500 
  5 N       -2.9910    -1.7190    -0.0220 N.am  1 <1>  -0.5470 
  6 C       -1.3440    -3.5470    -0.1620 C.ar  1 <1>  -0.1500 
  7 C        0.9890    -3.0180    -0.2110 C.ar  1 <1>   0.1770 
  8 C       -4.1730    -2.3190     0.3030 C.2   1 <1>   0.6900 
  9 C       -0.0230    -3.9600    -0.2230 C.ar  1 <1>  -0.1500 
 10 CL       2.6520    -3.5430    -0.2890 Cl    1 <1>  -0.1770 
 11 O       -4.2060    -3.4700     0.6970 O.2   1 <1>  -0.5700 
 12 N       -5.3310    -1.5900     0.2040 N.am  1 <1>  -0.6600 
 13 C       -5.4350    -0.3150    -0.5720 C.3   1 <1>   0.1400 
 14 C       -6.5930    -2.1250     0.7960 C.3   1 <1>   0.1400 
 15 C       -6.8390    -0.1830    -1.1590 C.3   1 <1>  -0.1600 
 16 C       -7.5300    -0.9720     1.1640 C.3   1 <1>  -0.1600 
 17 C       -7.9130    -0.0970    -0.0580 C.3   1 <1>   0.2800 
 18 O       -7.9070     1.2450     0.3550 O.3   1 <1>  -0.5600 
 19 C       -9.3010    -0.4570    -0.6570 C.3   1 <1>  -0.1600 
 20 C       -8.8400     1.6530     1.3230 C.3   1 <1>   0.1200 
 21 C      -10.3770     0.6040    -0.4120 C.3   1 <1>   0.2800 
 22 C      -10.2550     1.1360     1.0130 C.3   1 <1>  -0.1600 
 23 O      -10.1240     1.6490    -1.2620 O.3   1 <1>  -0.6800 
 24 C      -11.7810     0.1000    -0.7340 C.3   1 <1>  -0.2400 
 25 H        1.5010    -0.9430    -0.1370 H     1 <1>   0.1500 
 26 H       -3.0820    -0.7090    -0.0950 H     1 <1>   0.3700 
 27 H       -2.1240    -4.2880    -0.1780 H     1 <1>   0.1500 
 28 H        0.2210    -5.0060    -0.2800 H     1 <1>   0.1500 
 29 H       -4.7180    -0.3110    -1.3750 H     1 <1>   0.0800 
 30 H       -5.2350     0.5190     0.0800 H     1 <1>   0.0800 
 31 H       -6.3630    -2.6980     1.6790 H     1 <1>   0.0800 
 32 H       -7.0660    -2.7810     0.0850 H     1 <1>   0.0800 
 33 H       -7.0080    -1.0430    -1.7840 H     1 <1>   0.0800 
 34 H       -6.8970     0.6860    -1.7890 H     1 <1>   0.0800 
 35 H       -7.0090    -0.3780     1.8940 H     1 <1>   0.0800 
 36 H       -8.4070    -1.3700     1.6400 H     1 <1>   0.0800 
 37 H       -9.6300    -1.3890    -0.2370 H     1 <1>   0.0800 
 38 H       -9.2340    -0.6300    -1.7170 H     1 <1>   0.0800 
 39 H       -8.8380     2.7290     1.3220 H     1 <1>   0.0800 
 40 H       -8.5110     1.3180     2.2910 H     1 <1>   0.0800 
 41 H      -10.9740     1.9170     1.1830 H     1 <1>   0.0800 
 42 H      -10.4870     0.3450     1.7020 H     1 <1>   0.0800 
 43 H       -9.2160     1.9590    -1.0550 H     1 <1>   0.4000 
 44 H      -12.0410    -0.7180    -0.0880 H     1 <1>   0.0800 
 45 H      -11.8280    -0.2400    -1.7530 H     1 <1>   0.0800 
 46 H      -12.4990     0.8880    -0.5940 H     1 <1>   0.0800 
@<TRIPOS>BOND
  1   1   2  1   
  2   2   3  ar  
  3   2   4  ar  
  4   3   5  1   
  5   3   6  ar  
  6   4   7  ar  
  7   4  25  1   
  8   5   8  am  
  9   5  26  1   
 10   6   9  ar  
 11   6  27  1   
 12   7   9  ar  
 13   7  10  1   
 14   8  11  2   
 15   8  12  am  
 16   9  28  1   
 17  12  13  1   
 18  12  14  1   
 19  13  15  1   
 20  13  29  1   
 21  13  30  1   
 22  14  16  1   
 23  14  31  1   
 24  14  32  1   
 25  15  17  1   
 26  15  33  1   
 27  15  34  1   
 28  16  17  1   
 29  16  35  1   
 30  16  36  1   
 31  17  18  1   
 32  17  19  1   
 33  18  20  1   
 34  19  21  1   
 35  19  37  1   
 36  19  38  1   
 37  20  22  1   
 38  20  39  1   
 39  20  40  1   
 40  21  22  1   
 41  21  23  1   
 42  21  24  1   
 43  22  41  1   
 44  22  42  1   
 45  23  43  1   
 46  24  44  1   
 47  24  45  1   
 48  24  46  1   
@<TRIPOS>SUBSTRUCTURE
  1 ****  12 GROUP 4 **** **** 0

# MOE 2024.06 (io_trps.svl 2023.06)
