@<TRIPOS>MOLECULE
NONAME
30 31 1 0 0 
SMALL
USER_CHARGES


@<TRIPOS>ATOM
  1 F       -0.3150   -12.8320     0.5430 F     1 <1>  -0.1900 
  2 C       -0.2780   -11.5300     0.4170 C.ar  1 <1>   0.1900 
  3 C        0.3940   -10.9840    -0.6610 C.ar  1 <1>  -0.1500 
  4 C       -0.9120   -10.7490     1.3650 C.ar  1 <1>  -0.1500 
  5 C        0.4290    -9.6060    -0.7890 C.ar  1 <1>  -0.1500 
  6 C       -0.8680    -9.3730     1.2230 C.ar  1 <1>  -0.1500 
  7 C       -0.2000    -8.7900     0.1500 C.ar  1 <1>   0.1000 
  8 N       -0.1740    -7.4060     0.0350 N.pl3 1 <1>  -0.8380 
  9 C       -0.9760    -6.8270    -1.0620 C.3   1 <1>   0.2090 
 10 C        1.1300    -6.7560     0.2750 C.3   1 <1>   0.2090 
 11 C       -1.3050    -5.3890    -0.6730 C.3   1 <1>  -0.1600 
 12 C        0.8490    -5.3160     0.6940 C.3   1 <1>  -0.1600 
 13 C       -0.0230    -4.6160    -0.3520 C.3   1 <1>   0.4230 
 14 N       -0.3920    -3.2860     0.1580 N.4   1 <1>  -0.8530 
 15 H        0.8750   -11.6250    -1.3760 H     1 <1>   0.1500 
 16 H       -1.4250   -11.2110     2.1890 H     1 <1>   0.1500 
 17 H        0.9450    -9.1590    -1.6170 H     1 <1>   0.1500 
 18 H       -1.3510    -8.7380     1.9420 H     1 <1>   0.1500 
 19 H       -1.8830    -7.3980    -1.1870 H     1 <1>   0.0800 
 20 H       -0.4180    -6.8640    -1.9830 H     1 <1>   0.0800 
 21 H        1.7280    -6.7920    -0.6210 H     1 <1>   0.0800 
 22 H        1.6570    -7.2780     1.0580 H     1 <1>   0.0800 
 23 H       -1.9540    -5.4230     0.1850 H     1 <1>   0.0800 
 24 H       -1.8310    -4.9260    -1.4880 H     1 <1>   0.0800 
 25 H        1.7870    -4.8030     0.8080 H     1 <1>   0.0800 
 26 H        0.3510    -5.3450     1.6480 H     1 <1>   0.0800 
 27 H        0.5500    -4.5120    -1.2610 H     1 <1>   0.0800 
 28 H       -0.9360    -3.3870     1.0220 H     1 <1>   0.4500 
 29 H       -0.9630    -2.7770    -0.5240 H     1 <1>   0.4500 
 30 H        0.4430    -2.7290     0.3680 H     1 <1>   0.4500 
@<TRIPOS>BOND
  1   1   2  1   
  2   2   3  ar  
  3   2   4  ar  
  4   3   5  ar  
  5   3  15  1   
  6   4   6  ar  
  7   4  16  1   
  8   5   7  ar  
  9   5  17  1   
 10   6   7  ar  
 11   6  18  1   
 12   7   8  1   
 13   8   9  1   
 14   8  10  1   
 15   9  11  1   
 16   9  19  1   
 17   9  20  1   
 18  10  12  1   
 19  10  21  1   
 20  10  22  1   
 21  11  13  1   
 22  11  23  1   
 23  11  24  1   
 24  12  13  1   
 25  12  25  1   
 26  12  26  1   
 27  13  14  1   
 28  13  27  1   
 29  14  28  1   
 30  14  29  1   
 31  14  30  1   
@<TRIPOS>SUBSTRUCTURE
  1 ****   7 GROUP 4 **** **** 0

# MOE 2024.06 (io_trps.svl 2023.06)
