@<TRIPOS>MOLECULE
NONAME
49 52 1 0 0 
SMALL
USER_CHARGES


@<TRIPOS>ATOM
  1 O        0.3230     0.9030    -1.1290 O.2   1 <1>  -0.5700 
  2 C        0.9540     1.8420    -0.6970 C.2   1 <1>   0.7800 
  3 O        0.5550     3.0900    -0.8820 O.3   1 <1>  -0.4300 
  4 N        2.1100     1.7760     0.0020 N.am  1 <1>  -0.6600 
  5 C        1.4560     4.0120    -0.2880 C.3   1 <1>   0.2800 
  6 C        2.5670     3.1300     0.3230 C.3   1 <1>   0.1400 
  7 C        2.8690     0.5610     0.3740 C.3   1 <1>   0.0600 
  8 C        1.9830     4.9330    -1.4140 C.3   1 <1>   0.2090 
  9 C        0.6650     4.7920     0.7890 C.3   1 <1>  -0.1600 
 10 N        2.2340     6.3190    -0.9070 N.pl3 1 <1>  -0.8380 
 11 C       -0.0090     6.0360     0.1850 C.3   1 <1>  -0.1600 
 12 C        3.5240     6.7740    -0.6820 C.ar  1 <1>   0.4100 
 13 C        1.0330     7.0260    -0.3690 C.3   1 <1>   0.2090 
 14 N        4.3550     5.8490    -0.1950 N.ar  1 <1>  -0.6200 
 15 C        3.9190     8.1040    -0.9380 C.ar  1 <1>   0.0860 
 16 C        5.6000     6.2200     0.0280 C.ar  1 <1>   0.1600 
 17 C        3.0060     9.1010    -1.4340 C.2   1 <1>   0.5440 
 18 C        5.2390     8.4540    -0.6920 C.ar  1 <1>  -0.1500 
 19 C        6.0900     7.4920    -0.2010 C.ar  1 <1>  -0.1500 
 20 O        2.6870     9.1280    -2.6090 O.2   1 <1>  -0.5700 
 21 N        2.5010    10.0690    -0.5950 N.am  1 <1>  -0.6600 
 22 C        2.7980    10.2010     0.8470 C.3   1 <1>   0.1400 
 23 C        1.5410    11.1000    -1.0440 C.3   1 <1>   0.1400 
 24 C        1.7250    11.1490     1.3690 C.3   1 <1>  -0.1600 
 25 C        1.3580    12.0130     0.1640 C.3   1 <1>  -0.1600 
 26 H        3.5240     3.3220    -0.1290 H     1 <1>   0.0800 
 27 H        2.6430     3.2640     1.3870 H     1 <1>   0.0800 
 28 H        2.3520    -0.3160     0.0210 H     1 <1>   0.0800 
 29 H        2.9640     0.5030     1.4440 H     1 <1>   0.0800 
 30 H        3.8480     0.5920    -0.0720 H     1 <1>   0.0800 
 31 H        1.2420     4.9970    -2.1930 H     1 <1>   0.0800 
 32 H        2.8780     4.5280    -1.8520 H     1 <1>   0.0800 
 33 H        1.3480     5.1310     1.5490 H     1 <1>   0.0800 
 34 H       -0.0590     4.1480     1.2570 H     1 <1>   0.0800 
 35 H       -0.6070     6.5320     0.9270 H     1 <1>   0.0800 
 36 H       -0.6680     5.7350    -0.6110 H     1 <1>   0.0800 
 37 H        0.5920     7.6290    -1.1450 H     1 <1>   0.0800 
 38 H        1.3440     7.6780     0.4280 H     1 <1>   0.0800 
 39 H        6.2710     5.4720     0.4130 H     1 <1>   0.1500 
 40 H        5.5790     9.4560    -0.8890 H     1 <1>   0.1500 
 41 H        7.1210     7.7200     0.0010 H     1 <1>   0.1500 
 42 H        3.7740    10.6410     0.9650 H     1 <1>   0.0800 
 43 H        2.7650     9.2480     1.3480 H     1 <1>   0.0800 
 44 H        0.6130    10.6230    -1.3090 H     1 <1>   0.0800 
 45 H        1.9270    11.6340    -1.8960 H     1 <1>   0.0800 
 46 H        2.0770    11.7330     2.2010 H     1 <1>   0.0800 
 47 H        0.8710    10.5740     1.6800 H     1 <1>   0.0800 
 48 H        0.3550    12.3980     0.2240 H     1 <1>   0.0800 
 49 H        2.0440    12.8380     0.0820 H     1 <1>   0.0800 
@<TRIPOS>BOND
  1   1   2  2   
  2   2   3  1   
  3   2   4  am  
  4   3   5  1   
  5   4   6  1   
  6   4   7  1   
  7   5   6  1   
  8   5   8  1   
  9   5   9  1   
 10   6  26  1   
 11   6  27  1   
 12   7  28  1   
 13   7  29  1   
 14   7  30  1   
 15   8  10  1   
 16   8  31  1   
 17   8  32  1   
 18   9  11  1   
 19   9  33  1   
 20   9  34  1   
 21  10  12  1   
 22  10  13  1   
 23  11  13  1   
 24  11  35  1   
 25  11  36  1   
 26  12  14  ar  
 27  12  15  ar  
 28  13  37  1   
 29  13  38  1   
 30  14  16  ar  
 31  15  17  1   
 32  15  18  ar  
 33  16  19  ar  
 34  16  39  1   
 35  17  20  2   
 36  17  21  am  
 37  18  19  ar  
 38  18  40  1   
 39  19  41  1   
 40  21  22  1   
 41  21  23  1   
 42  22  24  1   
 43  22  42  1   
 44  22  43  1   
 45  23  25  1   
 46  23  44  1   
 47  23  45  1   
 48  24  25  1   
 49  24  46  1   
 50  24  47  1   
 51  25  48  1   
 52  25  49  1   
@<TRIPOS>SUBSTRUCTURE
  1 ****  10 GROUP 4 **** **** 0

# MOE 2024.06 (io_trps.svl 2023.06)
