@<TRIPOS>MOLECULE
NONAME
44 45 1 0 0 
SMALL
USER_CHARGES


@<TRIPOS>ATOM
  1 O        2.2310     0.9290     1.1620 O.3   1 <1>  -0.3630 
  2 C        3.2740     0.7080     0.3290 C.ar  1 <1>   0.0830 
  3 C        1.8690    -0.0470     2.1190 C.3   1 <1>   0.0400 
  4 C        3.2280     1.2760    -0.9430 C.ar  1 <1>  -0.1440 
  5 C        4.3930    -0.0120     0.7330 C.ar  1 <1>  -0.1500 
  6 C        4.3150     1.1250    -1.7900 C.ar  1 <1>  -0.1500 
  7 C        2.0080     2.0630    -1.4220 C.3   1 <1>  -0.0160 
  8 C        5.4690    -0.1540    -0.1230 C.ar  1 <1>  -0.1500 
  9 C        5.4320     0.4170    -1.3820 C.ar  1 <1>  -0.1500 
 10 C        1.8240     3.4050    -0.6990 C.3   1 <1>   0.2090 
 11 N        2.9700     4.3290    -0.9320 N.pl3 1 <1>  -0.8690 
 12 C        4.1630     4.4180    -0.3340 C.ar  1 <1>   0.7710 
 13 N        4.8830     5.4810    -0.6200 N.ar  1 <1>  -0.6200 
 14 N        4.5790     3.4590     0.5020 N.ar  1 <1>  -0.1790 
 15 C        6.0580     5.6040    -0.0290 C.ar  1 <1>   0.4100 
 16 C        5.7950     3.5170     1.0850 C.ar  1 <1>   0.2110 
 17 N        6.7470     6.7430    -0.2980 N.pl3 1 <1>  -0.8380 
 18 C        6.5740     4.5990     0.8330 C.ar  1 <1>  -0.1430 
 19 C        7.1860     7.6850     0.7680 C.3   1 <1>   0.1290 
 20 C        6.7660     7.3300    -1.6680 C.3   1 <1>   0.1290 
 21 C        7.9780     4.6890     1.4290 C.3   1 <1>  -0.0970 
 22 H        0.8960     0.2020     2.5030 H     1 <1>   0.0800 
 23 H        2.5850    -0.0420     2.9210 H     1 <1>   0.0800 
 24 H        1.8350    -1.0120     1.6430 H     1 <1>   0.0800 
 25 H        4.4420    -0.4660     1.7060 H     1 <1>   0.1500 
 26 H        4.3000     1.5530    -2.7790 H     1 <1>   0.1500 
 27 H        1.1300     1.4630    -1.2580 H     1 <1>   0.0800 
 28 H        2.0680     2.2420    -2.4820 H     1 <1>   0.0800 
 29 H        6.3360    -0.7180     0.1830 H     1 <1>   0.1500 
 30 H        6.2680     0.3000    -2.0520 H     1 <1>   0.1500 
 31 H        1.6950     3.2440     0.3580 H     1 <1>   0.0800 
 32 H        0.9240     3.8750    -1.0600 H     1 <1>   0.0800 
 33 H        2.7760     5.0990    -1.5810 H     1 <1>   0.4000 
 34 H        3.9690     2.6430     0.5680 H     1 <1>   0.4570 
 35 H        6.1050     2.6990     1.7150 H     1 <1>   0.1500 
 36 H        6.8380     7.3550     1.7300 H     1 <1>   0.0800 
 37 H        6.7800     8.6650     0.5820 H     1 <1>   0.0800 
 38 H        8.2610     7.7480     0.7790 H     1 <1>   0.0800 
 39 H        6.5250     6.5790    -2.4010 H     1 <1>   0.0800 
 40 H        7.7450     7.7210    -1.8870 H     1 <1>   0.0800 
 41 H        6.0420     8.1240    -1.7350 H     1 <1>   0.0800 
 42 H        8.6770     5.0100     0.6770 H     1 <1>   0.0800 
 43 H        8.3060     3.7350     1.8020 H     1 <1>   0.0800 
 44 H        7.9970     5.3930     2.2420 H     1 <1>   0.0800 
@<TRIPOS>BOND
  1   1   2  1   
  2   1   3  1   
  3   2   4  ar  
  4   2   5  ar  
  5   3  22  1   
  6   3  23  1   
  7   3  24  1   
  8   4   6  ar  
  9   4   7  1   
 10   5   8  ar  
 11   5  25  1   
 12   6   9  ar  
 13   6  26  1   
 14   7  10  1   
 15   7  27  1   
 16   7  28  1   
 17   8   9  ar  
 18   8  29  1   
 19   9  30  1   
 20  10  11  1   
 21  10  31  1   
 22  10  32  1   
 23  11  12  1   
 24  11  33  1   
 25  12  13  ar  
 26  12  14  ar  
 27  13  15  ar  
 28  14  16  ar  
 29  14  34  1   
 30  15  17  1   
 31  15  18  ar  
 32  16  18  ar  
 33  16  35  1   
 34  17  19  1   
 35  17  20  1   
 36  18  21  1   
 37  19  36  1   
 38  19  37  1   
 39  19  38  1   
 40  20  39  1   
 41  20  40  1   
 42  20  41  1   
 43  21  42  1   
 44  21  43  1   
 45  21  44  1   
@<TRIPOS>SUBSTRUCTURE
  1 ****  14 GROUP 4 **** **** 0

# MOE 2024.06 (io_trps.svl 2023.06)
