@<TRIPOS>MOLECULE
NONAME
34 34 1 0 0 
SMALL
USER_CHARGES


@<TRIPOS>ATOM
  1 O        0.2680    -0.1480     0.8730 O.2   1 <1>  -0.5700 
  2 C        1.1700    -0.7360     0.3010 C.2   1 <1>   0.8060 
  3 O        2.1370     0.0050    -0.2610 O.3   1 <1>  -0.4300 
  4 C        1.2700    -2.1790     0.1810 C.2   1 <1>   0.1410 
  5 C        2.1160     1.4130    -0.2150 C.3   1 <1>   0.1200 
  6 N        0.1800    -3.0040     0.1760 N.2   1 <1>  -0.5650 
  7 C        2.4080    -2.9430     0.0200 C.2   1 <1>  -0.1970 
  8 C        3.3710     1.9240    -0.9150 C.3   1 <1>  -0.2400 
  9 C        0.6460    -4.1900    -0.0080 C.2   1 <1>   0.0060 
 10 N        1.9860    -4.2100    -0.1190 N.pl3 1 <1>   0.0330 
 11 C        3.8080    -2.6130     0.0050 C.2   1 <1>  -0.0930 
 12 C       -0.1820    -5.4660    -0.0950 C.3   1 <1>   0.0200 
 13 C        4.6310    -2.9160    -1.0110 C.2   1 <1>  -0.3000 
 14 C        4.3340    -1.9100     1.2450 C.3   1 <1>  -0.1020 
 15 C       -1.6910    -5.2190     0.0450 C.3   1 <1>  -0.1600 
 16 C       -2.4940    -6.5210    -0.0480 C.3   1 <1>  -0.2400 
 17 H        2.0950     1.7220     0.8170 H     1 <1>   0.0800 
 18 H        1.2250     1.7570    -0.7140 H     1 <1>   0.0800 
 19 H        4.2490     1.5600    -0.4130 H     1 <1>   0.0800 
 20 H        3.3840     2.9980    -0.8980 H     1 <1>   0.0800 
 21 H        3.3810     1.5970    -1.9400 H     1 <1>   0.0800 
 22 H        2.5830    -5.0280    -0.2590 H     1 <1>   0.2700 
 23 H        0.1380    -6.1370     0.6830 H     1 <1>   0.0800 
 24 H        0.0100    -5.9360    -1.0440 H     1 <1>   0.0800 
 25 H        5.6810    -2.6840    -1.0280 H     1 <1>   0.1500 
 26 H        4.3110    -3.4130    -1.9090 H     1 <1>   0.1500 
 27 H        4.1060    -2.4940     2.1190 H     1 <1>   0.0800 
 28 H        3.8880    -0.9400     1.3550 H     1 <1>   0.0800 
 29 H        5.4000    -1.7840     1.1890 H     1 <1>   0.0800 
 30 H       -2.0120    -4.5420    -0.7290 H     1 <1>   0.0800 
 31 H       -1.8850    -4.7450     0.9930 H     1 <1>   0.0800 
 32 H       -2.3330    -6.9960    -1.0010 H     1 <1>   0.0800 
 33 H       -3.5440    -6.3100     0.0550 H     1 <1>   0.0800 
 34 H       -2.2040    -7.2000     0.7350 H     1 <1>   0.0800 
@<TRIPOS>BOND
  1   1   2  2   
  2   2   3  1   
  3   2   4  1   
  4   3   5  1   
  5   4   6  1   
  6   4   7  2   
  7   5   8  1   
  8   5  17  1   
  9   5  18  1   
 10   6   9  2   
 11   7  10  1   
 12   7  11  1   
 13   8  19  1   
 14   8  20  1   
 15   8  21  1   
 16   9  10  1   
 17   9  12  1   
 18  10  22  1   
 19  11  13  2   
 20  11  14  1   
 21  12  15  1   
 22  12  23  1   
 23  12  24  1   
 24  13  25  1   
 25  13  26  1   
 26  14  27  1   
 27  14  28  1   
 28  14  29  1   
 29  15  16  1   
 30  15  30  1   
 31  15  31  1   
 32  16  32  1   
 33  16  33  1   
 34  16  34  1   
@<TRIPOS>SUBSTRUCTURE
  1 ****   4 GROUP 4 **** **** 0

# MOE 2024.06 (io_trps.svl 2023.06)
