@<TRIPOS>MOLECULE
NONAME
59 62 1 0 0 
SMALL
USER_CHARGES


@<TRIPOS>ATOM
  1 O       -2.2940     0.5060     0.8480 O.co2 1 <1>  -0.9000 
  2 C       -1.5240     1.4560     1.0300 C.2   1 <1>   0.9060 
  3 O       -1.2370     1.8800     2.1530 O.co2 1 <1>  -0.9000 
  4 C       -0.9190     2.1750    -0.1720 C.3   1 <1>  -0.1060 
  5 C       -2.1910     3.1590    -0.2720 C.3   1 <1>   0.2000 
  6 C       -0.2700     2.9700    -1.3580 C.3   1 <1>   0.3430 
  7 C        0.3290     1.1660    -0.1370 C.3   1 <1>  -0.0170 
  8 O       -3.4610     2.6980     0.0590 O.3   1 <1>  -0.6800 
  9 C       -1.9250     4.4500     0.4980 C.3   1 <1>  -0.1600 
 10 N        0.0620     4.4110    -0.9830 N.4   1 <1>  -0.9590 
 11 C        1.6970     1.7860     0.1760 C.ar  1 <1>  -0.1430 
 12 C       -0.4440     4.7900     0.3830 C.3   1 <1>   0.3430 
 13 C        1.5240     4.6810    -1.0740 C.3   1 <1>   0.5230 
 14 C        2.7320     1.7270    -0.7480 C.ar  1 <1>  -0.1500 
 15 C        1.9200     2.3990     1.4000 C.ar  1 <1>  -0.1500 
 16 C        1.7660     6.1700    -0.9690 C.2   1 <1>  -0.0400 
 17 C        3.9570     2.3080    -0.4680 C.ar  1 <1>  -0.1500 
 18 C        3.1430     2.9800     1.6820 C.ar  1 <1>  -0.1500 
 19 O        1.1730     6.9700    -1.8110 O.3   1 <1>  -0.0190 
 20 C        2.4970     6.9170    -0.1280 C.2   1 <1>  -0.1500 
 21 C        4.1610     2.9410     0.7460 C.ar  1 <1>  -0.1500 
 22 N        1.4580     8.2130    -1.5740 N.2   1 <1>  -0.4100 
 23 C        2.2610     8.2190    -0.5660 C.2   1 <1>   0.1080 
 24 C        2.8660     9.4680     0.0680 C.3   1 <1>   0.1010 
 25 C        1.7710    10.3490     0.6930 C.3   1 <1>  -0.1600 
 26 C        3.6870    10.2680    -0.9570 C.3   1 <1>  -0.1600 
 27 C        2.3590    11.6220     1.3180 C.3   1 <1>  -0.1600 
 28 C        4.2800    11.5410    -0.3350 C.3   1 <1>  -0.1600 
 29 C        3.1830    12.4120     0.2930 C.3   1 <1>  -0.1600 
 30 H       -2.3870     3.4700    -1.2860 H     1 <1>   0.0800 
 31 H       -0.9420     2.9640    -2.2010 H     1 <1>   0.0800 
 32 H        0.6210     2.5090    -1.7440 H     1 <1>   0.0800 
 33 H        0.2670     0.3270     0.5480 H     1 <1>   0.0800 
 34 H        0.3780     0.6540    -1.0850 H     1 <1>   0.0800 
 35 H       -3.3710     1.7910     0.4820 H     1 <1>   0.4000 
 36 H       -2.5270     5.2480     0.1040 H     1 <1>   0.0800 
 37 H       -2.1660     4.3190     1.5400 H     1 <1>   0.0800 
 38 H       -0.3900     5.0450    -1.6550 H     1 <1>   0.4500 
 39 H        0.0890     4.2210     1.1290 H     1 <1>   0.0800 
 40 H       -0.2880     5.8380     0.5780 H     1 <1>   0.0800 
 41 H        2.0480     4.1800    -0.2800 H     1 <1>   0.0800 
 42 H        1.9090     4.3270    -2.0160 H     1 <1>   0.0800 
 43 H        2.5970     1.2180    -1.6880 H     1 <1>   0.1500 
 44 H        1.1410     2.4150     2.1470 H     1 <1>   0.1500 
 45 H        4.7570     2.2550    -1.1860 H     1 <1>   0.1500 
 46 H        3.3040     3.4470     2.6390 H     1 <1>   0.1500 
 47 H        3.1230     6.6270     0.6980 H     1 <1>   0.1500 
 48 H        5.1170     3.3850     0.9700 H     1 <1>   0.1500 
 49 H        3.5310     9.1550     0.8540 H     1 <1>   0.0800 
 50 H        1.0620    10.6250    -0.0690 H     1 <1>   0.0800 
 51 H        1.2430     9.7890     1.4450 H     1 <1>   0.0800 
 52 H        4.4810     9.6520    -1.3440 H     1 <1>   0.0800 
 53 H        3.0530    10.5420    -1.7840 H     1 <1>   0.0800 
 54 H        1.5620    12.2420     1.6910 H     1 <1>   0.0800 
 55 H        2.9870    11.3570     2.1520 H     1 <1>   0.0800 
 56 H        4.9980    11.2720     0.4200 H     1 <1>   0.0800 
 57 H        4.7960    12.1050    -1.0930 H     1 <1>   0.0800 
 58 H        3.6310    13.2660     0.7700 H     1 <1>   0.0800 
 59 H        2.5310    12.7740    -0.4840 H     1 <1>   0.0800 
@<TRIPOS>BOND
  1   1   2  ar  
  2   2   3  ar  
  3   2   4  1   
  4   4   5  1   
  5   4   6  1   
  6   4   7  1   
  7   5   8  1   
  8   5   9  1   
  9   5  30  1   
 10   6  10  1   
 11   6  31  1   
 12   6  32  1   
 13   7  11  1   
 14   7  33  1   
 15   7  34  1   
 16   8  35  1   
 17   9  12  1   
 18   9  36  1   
 19   9  37  1   
 20  10  12  1   
 21  10  13  1   
 22  10  38  1   
 23  11  14  ar  
 24  11  15  ar  
 25  12  39  1   
 26  12  40  1   
 27  13  16  1   
 28  13  41  1   
 29  13  42  1   
 30  14  17  ar  
 31  14  43  1   
 32  15  18  ar  
 33  15  44  1   
 34  16  19  1   
 35  16  20  2   
 36  17  21  ar  
 37  17  45  1   
 38  18  21  ar  
 39  18  46  1   
 40  19  22  1   
 41  20  23  1   
 42  20  47  1   
 43  21  48  1   
 44  22  23  2   
 45  23  24  1   
 46  24  25  1   
 47  24  26  1   
 48  24  49  1   
 49  25  27  1   
 50  25  50  1   
 51  25  51  1   
 52  26  28  1   
 53  26  52  1   
 54  26  53  1   
 55  27  29  1   
 56  27  54  1   
 57  27  55  1   
 58  28  29  1   
 59  28  56  1   
 60  28  57  1   
 61  29  58  1   
 62  29  59  1   
@<TRIPOS>SUBSTRUCTURE
  1 ****  13 GROUP 4 **** **** 0

# MOE 2024.06 (io_trps.svl 2023.06)
