@<TRIPOS>MOLECULE
NONAME
54 56 1 0 0 
SMALL
USER_CHARGES


@<TRIPOS>ATOM
  1 S        0.0720     0.6240    -1.2780 S.o2  1 <1>   1.3330 
  2 O       -0.3090    -0.5720    -0.5600 O.2   1 <1>  -0.6500 
  3 O       -0.6040     0.9610    -2.5090 O.2   1 <1>  -0.6500 
  4 N       -0.1070     1.9380    -0.2180 N.am  1 <1>  -0.8490 
  5 C        1.8370     0.5400    -1.5800 C.3   1 <1>  -0.0550 
  6 C       -1.4360     1.9600     0.3930 C.3   1 <1>   0.1160 
  7 C        0.1760     3.2390    -0.8410 C.3   1 <1>   0.1160 
  8 C        2.6790     0.4220    -0.2960 C.3   1 <1>  -0.0800 
  9 C        4.1580     0.7000    -0.5480 C.3   1 <1>   0.2200 
 10 C        2.6700    -0.9630     0.3460 C.3   1 <1>   0.1200 
 11 N        4.5170     1.9760     0.1090 N.am  1 <1>  -0.7300 
 12 C        4.8690    -0.4960     0.0840 C.3   1 <1>   0.1200 
 13 O        3.9320    -1.0980     0.9160 O.3   1 <1>  -0.5600 
 14 C        4.2470     3.1970    -0.4370 C.2   1 <1>   0.5690 
 15 O        3.8380     3.2720    -1.5750 O.2   1 <1>  -0.5700 
 16 C        4.4230     4.4650     0.4130 C.3   1 <1>   0.2680 
 17 C        3.1050     5.2450     0.5090 C.ar  1 <1>  -0.1440 
 18 C        5.5850     5.3810    -0.0040 C.ar  1 <1>  -0.1440 
 19 C        2.3200     5.1700     1.6520 C.ar  1 <1>  -0.1500 
 20 C        2.6790     6.0370    -0.5480 C.ar  1 <1>  -0.1500 
 21 C        6.3230     5.1900    -1.1670 C.ar  1 <1>  -0.1500 
 22 C        5.9150     6.4470     0.8230 C.ar  1 <1>  -0.1500 
 23 C        1.1360     5.8810     1.7390 C.ar  1 <1>  -0.1500 
 24 C        1.4950     6.7480    -0.4630 C.ar  1 <1>  -0.1500 
 25 C        7.3670     6.0400    -1.4880 C.ar  1 <1>  -0.1500 
 26 C        6.9580     7.2990     0.5030 C.ar  1 <1>  -0.1500 
 27 C        0.7230     6.6730     0.6820 C.ar  1 <1>  -0.1500 
 28 C        7.6870     7.0940    -0.6540 C.ar  1 <1>  -0.1500 
 29 H        2.0490    -0.2880    -2.2270 H     1 <1>   0.0800 
 30 H        2.1290     1.4320    -2.1000 H     1 <1>   0.0800 
 31 H       -1.5130     2.7790     1.0880 H     1 <1>   0.0800 
 32 H       -1.6090     1.0430     0.9310 H     1 <1>   0.0800 
 33 H       -2.1950     2.0650    -0.3650 H     1 <1>   0.0800 
 34 H        0.0670     4.0260    -0.1160 H     1 <1>   0.0800 
 35 H       -0.5000     3.4230    -1.6600 H     1 <1>   0.0800 
 36 H        1.1860     3.2700    -1.2110 H     1 <1>   0.0800 
 37 H        2.3020     1.1130     0.4370 H     1 <1>   0.0800 
 38 H        4.3950     0.7540    -1.5990 H     1 <1>   0.0800 
 39 H        2.5470    -1.7460    -0.3840 H     1 <1>   0.0800 
 40 H        1.9200    -1.0570     1.1130 H     1 <1>   0.0800 
 41 H        4.7700     1.8870     1.0950 H     1 <1>   0.3700 
 42 H        5.7340    -0.2170     0.6600 H     1 <1>   0.0800 
 43 H        5.1450    -1.2140    -0.6690 H     1 <1>   0.0800 
 44 H        4.6640     4.1300     1.4040 H     1 <1>   0.0800 
 45 H        2.6220     4.5590     2.4850 H     1 <1>   0.1500 
 46 H        3.2750     6.1030    -1.4440 H     1 <1>   0.1500 
 47 H        6.1010     4.3840    -1.8450 H     1 <1>   0.1500 
 48 H        5.3540     6.6270     1.7240 H     1 <1>   0.1500 
 49 H        0.5360     5.8210     2.6300 H     1 <1>   0.1500 
 50 H        1.1790     7.3620    -1.2890 H     1 <1>   0.1500 
 51 H        7.9300     5.8800    -2.3920 H     1 <1>   0.1500 
 52 H        7.2010     8.1210     1.1530 H     1 <1>   0.1500 
 53 H       -0.1950     7.2300     0.7500 H     1 <1>   0.1500 
 54 H        8.4980     7.7550    -0.9050 H     1 <1>   0.1500 
@<TRIPOS>BOND
  1   1   2  2   
  2   1   3  2   
  3   1   4  am  
  4   1   5  1   
  5   4   6  1   
  6   4   7  1   
  7   5   8  1   
  8   5  29  1   
  9   5  30  1   
 10   6  31  1   
 11   6  32  1   
 12   6  33  1   
 13   7  34  1   
 14   7  35  1   
 15   7  36  1   
 16   8   9  1   
 17   8  10  1   
 18   8  37  1   
 19   9  11  1   
 20   9  12  1   
 21   9  38  1   
 22  10  13  1   
 23  10  39  1   
 24  10  40  1   
 25  11  14  am  
 26  11  41  1   
 27  12  13  1   
 28  12  42  1   
 29  12  43  1   
 30  14  15  2   
 31  14  16  1   
 32  16  17  1   
 33  16  18  1   
 34  16  44  1   
 35  17  19  ar  
 36  17  20  ar  
 37  18  21  ar  
 38  18  22  ar  
 39  19  23  ar  
 40  19  45  1   
 41  20  24  ar  
 42  20  46  1   
 43  21  25  ar  
 44  21  47  1   
 45  22  26  ar  
 46  22  48  1   
 47  23  27  ar  
 48  23  49  1   
 49  24  27  ar  
 50  24  50  1   
 51  25  28  ar  
 52  25  51  1   
 53  26  28  ar  
 54  26  52  1   
 55  27  53  1   
 56  28  54  1   
@<TRIPOS>SUBSTRUCTURE
  1 ****  14 GROUP 4 **** **** 0

# MOE 2024.06 (io_trps.svl 2023.06)
