@<TRIPOS>MOLECULE
NONAME
49 51 1 0 0 
SMALL
USER_CHARGES


@<TRIPOS>ATOM
  1 CL      -0.6490     0.1880     1.1300 Cl    1 <1>  -0.1770 
  2 C       -1.9830    -0.6450     0.3640 C.ar  1 <1>   0.1770 
  3 C       -1.7390    -1.6930    -0.5120 C.ar  1 <1>  -0.1440 
  4 C       -3.2650    -0.2260     0.6570 C.ar  1 <1>  -0.1500 
  5 C       -2.8270    -2.3220    -1.0980 C.ar  1 <1>  -0.1500 
  6 C       -0.3230    -2.1490    -0.8270 C.3   1 <1>  -0.0960 
  7 C       -4.3560    -0.8560     0.0730 C.ar  1 <1>   0.1170 
  8 C       -4.1150    -1.9070    -0.8090 C.ar  1 <1>  -0.1500 
  9 N       -5.6460    -0.4010     0.3750 N.am  1 <1>  -0.5470 
 10 C       -6.8550    -1.0350     0.3380 C.2   1 <1>   0.6900 
 11 O       -6.9320    -2.2360     0.1580 O.2   1 <1>  -0.5700 
 12 N       -7.9910    -0.2950     0.5400 N.am  1 <1>  -0.6600 
 13 C       -9.2760    -0.9940     0.8280 C.3   1 <1>   0.1400 
 14 C       -8.0650     1.1770     0.3070 C.3   1 <1>   0.1400 
 15 C      -10.2710    -0.0310     1.4780 C.3   1 <1>  -0.1600 
 16 C       -9.4060     1.5280    -0.3380 C.3   1 <1>  -0.1600 
 17 C      -10.6060     1.1860     0.5830 C.3   1 <1>   0.2800 
 18 O      -10.8130     2.2410     1.4840 O.3   1 <1>  -0.5600 
 19 C      -11.9090     0.9170    -0.2090 C.3   1 <1>  -0.1600 
 20 C      -11.3550     3.4540     1.0370 C.3   1 <1>   0.1200 
 21 C      -12.6000     2.1700    -0.7500 C.3   1 <1>   0.2800 
 22 C      -12.7020     3.2190     0.3540 C.3   1 <1>  -0.1600 
 23 O      -11.8440     2.6880    -1.7730 O.3   1 <1>  -0.6800 
 24 C      -13.9660     1.8500    -1.3510 C.3   1 <1>  -0.2400 
 25 H       -3.4070     0.5870     1.3420 H     1 <1>   0.1500 
 26 H       -2.6800    -3.1400    -1.7820 H     1 <1>   0.1500 
 27 H        0.2360    -1.3390    -1.2600 H     1 <1>   0.0800 
 28 H       -0.3270    -2.9700    -1.5210 H     1 <1>   0.0800 
 29 H        0.1690    -2.4670     0.0740 H     1 <1>   0.0800 
 30 H       -4.9440    -2.4070    -1.2780 H     1 <1>   0.1500 
 31 H       -5.7030     0.5100     0.8150 H     1 <1>   0.3700 
 32 H       -9.0890    -1.8230     1.4900 H     1 <1>   0.0800 
 33 H       -9.6790    -1.3840    -0.0910 H     1 <1>   0.0800 
 34 H       -7.2680     1.4880    -0.3480 H     1 <1>   0.0800 
 35 H       -7.9660     1.6940     1.2470 H     1 <1>   0.0800 
 36 H       -9.8310     0.3080     2.4000 H     1 <1>   0.0800 
 37 H      -11.1590    -0.5750     1.7400 H     1 <1>   0.0800 
 38 H       -9.4790     0.9620    -1.2500 H     1 <1>   0.0800 
 39 H       -9.3930     2.5620    -0.6140 H     1 <1>   0.0800 
 40 H      -12.6090     0.4410     0.4530 H     1 <1>   0.0800 
 41 H      -11.7260     0.2230    -1.0090 H     1 <1>   0.0800 
 42 H      -10.6580     3.9370     0.3770 H     1 <1>   0.0800 
 43 H      -11.4870     4.0830     1.9000 H     1 <1>   0.0800 
 44 H      -13.0780     4.1420    -0.0490 H     1 <1>   0.0800 
 45 H      -13.4000     2.8840     1.1000 H     1 <1>   0.0800 
 46 H      -10.9470     2.8650    -1.4450 H     1 <1>   0.4000 
 47 H      -14.6200     1.4450    -0.6000 H     1 <1>   0.0800 
 48 H      -13.8660     1.1270    -2.1410 H     1 <1>   0.0800 
 49 H      -14.4170     2.7420    -1.7480 H     1 <1>   0.0800 
@<TRIPOS>BOND
  1   1   2  1   
  2   2   3  ar  
  3   2   4  ar  
  4   3   5  ar  
  5   3   6  1   
  6   4   7  ar  
  7   4  25  1   
  8   5   8  ar  
  9   5  26  1   
 10   6  27  1   
 11   6  28  1   
 12   6  29  1   
 13   7   8  ar  
 14   7   9  1   
 15   8  30  1   
 16   9  10  am  
 17   9  31  1   
 18  10  11  2   
 19  10  12  am  
 20  12  13  1   
 21  12  14  1   
 22  13  15  1   
 23  13  32  1   
 24  13  33  1   
 25  14  16  1   
 26  14  34  1   
 27  14  35  1   
 28  15  17  1   
 29  15  36  1   
 30  15  37  1   
 31  16  17  1   
 32  16  38  1   
 33  16  39  1   
 34  17  18  1   
 35  17  19  1   
 36  18  20  1   
 37  19  21  1   
 38  19  40  1   
 39  19  41  1   
 40  20  22  1   
 41  20  42  1   
 42  20  43  1   
 43  21  22  1   
 44  21  23  1   
 45  21  24  1   
 46  22  44  1   
 47  22  45  1   
 48  23  46  1   
 49  24  47  1   
 50  24  48  1   
 51  24  49  1   
@<TRIPOS>SUBSTRUCTURE
  1 ****  12 GROUP 4 **** **** 0

# MOE 2024.06 (io_trps.svl 2023.06)
