@<TRIPOS>MOLECULE
NONAME
52 54 1 0 0 
SMALL
USER_CHARGES


@<TRIPOS>ATOM
  1 O        1.8880     0.8370     2.4970 O.co2 1 <1>  -0.9000 
  2 C        1.5670     0.2560     1.4540 C.2   1 <1>   0.9060 
  3 O        1.1190    -0.9000     1.4630 O.co2 1 <1>  -0.9000 
  4 C        1.8300     0.9080     0.0950 C.3   1 <1>  -0.1060 
  5 C        3.0150     0.0770    -0.4600 C.3   1 <1>   0.2000 
  6 C        2.2480     2.4050     0.2150 C.3   1 <1>  -0.1600 
  7 C        0.5610     0.8210    -0.8060 C.3   1 <1>  -0.0160 
  8 O        2.5520    -1.0820    -1.0640 O.3   1 <1>  -0.6800 
  9 C        3.9170     0.8740    -1.4090 C.3   1 <1>   0.1400 
 10 C        3.7440     2.5720     0.4800 C.3   1 <1>   0.1400 
 11 C       -0.5460     1.8100    -0.4400 C.ar  1 <1>  -0.1440 
 12 N        4.5310     2.0420    -0.6840 N.am  1 <1>  -0.6600 
 13 C       -1.2800     1.6390     0.7230 C.ar  1 <1>  -0.1500 
 14 C       -0.8330     2.8840    -1.2690 C.ar  1 <1>  -0.1500 
 15 C        5.7530     2.5260    -1.0770 C.2   1 <1>   0.5690 
 16 C       -2.2820     2.5330     1.0580 C.ar  1 <1>  -0.1500 
 17 C       -1.8370     3.7790    -0.9370 C.ar  1 <1>  -0.1500 
 18 O        6.2720     2.1570    -2.1070 O.2   1 <1>  -0.5700 
 19 C        6.5040     3.5590    -0.2230 C.3   1 <1>  -0.0190 
 20 C       -2.5620     3.6040     0.2280 C.ar  1 <1>  -0.1500 
 21 C        6.1990     4.9940    -0.7000 C.3   1 <1>  -0.1600 
 22 C        8.0290     3.3160    -0.2070 C.3   1 <1>  -0.1600 
 23 C        6.9190     6.0400     0.1660 C.3   1 <1>  -0.1600 
 24 C        8.7530     4.3520     0.6660 C.3   1 <1>  -0.1600 
 25 C        8.4260     5.7760     0.2060 C.3   1 <1>   0.2000 
 26 O        8.9940     6.6580     1.0980 O.3   1 <1>  -0.6800 
 27 H        3.6380    -0.2460     0.3590 H     1 <1>   0.0800 
 28 H        1.6880     2.8740     1.0060 H     1 <1>   0.0800 
 29 H        2.0190     2.9360    -0.6920 H     1 <1>   0.0800 
 30 H        0.8510     0.9880    -1.8270 H     1 <1>   0.0800 
 31 H        0.1440    -0.1700    -0.7640 H     1 <1>   0.0800 
 32 H        1.9670    -1.5150    -0.3910 H     1 <1>   0.4000 
 33 H        3.3410     1.2380    -2.2400 H     1 <1>   0.0800 
 34 H        4.6960     0.2290    -1.7790 H     1 <1>   0.0800 
 35 H        4.0120     2.0350     1.3760 H     1 <1>   0.0800 
 36 H        3.9490     3.6150     0.6310 H     1 <1>   0.0800 
 37 H       -1.0670     0.8080     1.3770 H     1 <1>   0.1500 
 38 H       -0.2740     3.0280    -2.1750 H     1 <1>   0.1500 
 39 H       -2.8370     2.3890     1.9680 H     1 <1>   0.1500 
 40 H       -2.0510     4.6100    -1.5850 H     1 <1>   0.1500 
 41 H        6.1730     3.4590     0.7930 H     1 <1>   0.0800 
 42 H       -3.3400     4.2980     0.4900 H     1 <1>   0.1500 
 43 H        6.5170     5.0960    -1.7240 H     1 <1>   0.0800 
 44 H        5.1390     5.1710    -0.6700 H     1 <1>   0.0800 
 45 H        8.2290     2.3260     0.1640 H     1 <1>   0.0800 
 46 H        8.4110     3.3700    -1.2130 H     1 <1>   0.0800 
 47 H        6.5150     6.0010     1.1630 H     1 <1>   0.0800 
 48 H        6.7410     7.0200    -0.2390 H     1 <1>   0.0800 
 49 H        9.8150     4.1920     0.5990 H     1 <1>   0.0800 
 50 H        8.4490     4.2200     1.6890 H     1 <1>   0.0800 
 51 H        8.8610     5.9610    -0.7630 H     1 <1>   0.0800 
 52 H        8.6280     6.5070     1.9880 H     1 <1>   0.4000 
@<TRIPOS>BOND
  1   1   2  ar  
  2   2   3  ar  
  3   2   4  1   
  4   4   5  1   
  5   4   6  1   
  6   4   7  1   
  7   5   8  1   
  8   5   9  1   
  9   5  27  1   
 10   6  10  1   
 11   6  28  1   
 12   6  29  1   
 13   7  11  1   
 14   7  30  1   
 15   7  31  1   
 16   8  32  1   
 17   9  12  1   
 18   9  33  1   
 19   9  34  1   
 20  10  12  1   
 21  10  35  1   
 22  10  36  1   
 23  11  13  ar  
 24  11  14  ar  
 25  12  15  am  
 26  13  16  ar  
 27  13  37  1   
 28  14  17  ar  
 29  14  38  1   
 30  15  18  2   
 31  15  19  1   
 32  16  20  ar  
 33  16  39  1   
 34  17  20  ar  
 35  17  40  1   
 36  19  21  1   
 37  19  22  1   
 38  19  41  1   
 39  20  42  1   
 40  21  23  1   
 41  21  43  1   
 42  21  44  1   
 43  22  24  1   
 44  22  45  1   
 45  22  46  1   
 46  23  25  1   
 47  23  47  1   
 48  23  48  1   
 49  24  25  1   
 50  24  49  1   
 51  24  50  1   
 52  25  26  1   
 53  25  51  1   
 54  26  52  1   
@<TRIPOS>SUBSTRUCTURE
  1 ****  10 GROUP 4 **** **** 0

# MOE 2024.06 (io_trps.svl 2023.06)
