@<TRIPOS>MOLECULE
NONAME
36 38 1 0 0 
SMALL
USER_CHARGES


@<TRIPOS>ATOM
  1 O        0.6810    -0.0840    -2.7900 O.2   1 <1>  -0.5700 
  2 C        0.8420    -0.6420    -1.7290 C.2   1 <1>   0.5690 
  3 N        1.3600    -0.0340    -0.6230 N.am  1 <1>  -0.4930 
  4 C        0.4620    -2.1170    -1.6140 C.3   1 <1>   0.1250 
  5 C        1.7960     1.3010    -0.4370 C.2   1 <1>   0.0630 
  6 C        0.0900    -2.5310    -0.2010 C.ar  1 <1>  -0.1440 
  7 C        1.6480    -3.0470    -1.9580 C.3   1 <1>  -0.1600 
  8 C        2.2160     1.8820     0.7610 C.2   1 <1>   0.1080 
  9 C        1.9060     2.2900    -1.3450 C.2   1 <1>  -0.3020 
 10 C        0.7770    -3.6520     0.1910 C.ar  1 <1>  -0.1430 
 11 C       -0.8070    -1.9180     0.6580 C.ar  1 <1>  -0.1500 
 12 C        1.6720    -4.1700    -0.9060 C.3   1 <1>  -0.0170 
 13 N        2.5590     3.1250     0.6120 N.2   1 <1>  -0.7070 
 14 C        2.2790     1.1800     2.0990 C.3   1 <1>  -0.0590 
 15 N        2.3650     3.3770    -0.6940 N.pl3 1 <1>   0.3140 
 16 C        0.6020    -4.1830     1.4550 C.ar  1 <1>  -0.1500 
 17 C       -0.9900    -2.4420     1.9270 C.ar  1 <1>  -0.1500 
 18 C        2.6390     4.6910    -1.2820 C.3   1 <1>   0.0160 
 19 C       -0.2860    -3.5700     2.3260 C.ar  1 <1>  -0.1500 
 20 H        1.3890    -0.6230     0.2110 H     1 <1>   0.3700 
 21 H       -0.3680    -2.3230    -2.2650 H     1 <1>   0.0800 
 22 H        2.5700    -2.4950    -1.8940 H     1 <1>   0.0800 
 23 H        1.5550    -3.4410    -2.9550 H     1 <1>   0.0800 
 24 H        1.6830     2.2710    -2.3960 H     1 <1>   0.1500 
 25 H       -1.3570    -1.0450     0.3480 H     1 <1>   0.1500 
 26 H        2.6690    -4.3540    -0.5470 H     1 <1>   0.0800 
 27 H        1.2560    -5.0770    -1.3090 H     1 <1>   0.0800 
 28 H        1.3370     0.7100     2.3120 H     1 <1>   0.0800 
 29 H        2.4940     1.8930     2.8740 H     1 <1>   0.0800 
 30 H        3.0550     0.4380     2.0830 H     1 <1>   0.0800 
 31 H        1.1430    -5.0620     1.7590 H     1 <1>   0.1500 
 32 H       -1.6820    -1.9760     2.6060 H     1 <1>   0.1500 
 33 H        1.8090     4.9850    -1.8950 H     1 <1>   0.0800 
 34 H        3.5320     4.6300    -1.8750 H     1 <1>   0.0800 
 35 H        2.7780     5.4060    -0.4920 H     1 <1>   0.0800 
 36 H       -0.4330    -3.9730     3.3120 H     1 <1>   0.1500 
@<TRIPOS>BOND
  1   1   2  2   
  2   2   3  am  
  3   2   4  1   
  4   3   5  1   
  5   3  20  1   
  6   4   6  1   
  7   4   7  1   
  8   4  21  1   
  9   5   8  1   
 10   5   9  2   
 11   6  10  ar  
 12   6  11  ar  
 13   7  12  1   
 14   7  22  1   
 15   7  23  1   
 16   8  13  2   
 17   8  14  1   
 18   9  15  1   
 19   9  24  1   
 20  10  12  1   
 21  10  16  ar  
 22  11  17  ar  
 23  11  25  1   
 24  12  26  1   
 25  12  27  1   
 26  13  15  1   
 27  14  28  1   
 28  14  29  1   
 29  14  30  1   
 30  15  18  1   
 31  16  19  ar  
 32  16  31  1   
 33  17  19  ar  
 34  17  32  1   
 35  18  33  1   
 36  18  34  1   
 37  18  35  1   
 38  19  36  1   
@<TRIPOS>SUBSTRUCTURE
  1 ****   3 GROUP 4 **** **** 0

# MOE 2024.06 (io_trps.svl 2023.06)
