@<TRIPOS>MOLECULE
NONAME
48 51 1 0 0 
SMALL
USER_CHARGES


@<TRIPOS>ATOM
  1 F       -0.1060    -0.4310     0.3910 F     1 <1>  -0.3400 
  2 C       -1.2680    -0.7020    -0.1860 C.3   1 <1>   1.2400 
  3 F       -1.3890     0.0850    -1.2450 F     1 <1>  -0.3400 
  4 O       -1.3060    -2.0640    -0.5880 O.3   1 <1>  -0.3630 
  5 O       -2.3320    -0.4630     0.7220 O.3   1 <1>  -0.3630 
  6 C       -2.3470    -2.5890     0.0670 C.ar  1 <1>   0.0830 
  7 C       -2.9550    -1.6400     0.8430 C.ar  1 <1>   0.0830 
  8 C       -2.8060    -3.8900     0.0200 C.ar  1 <1>  -0.1500 
  9 C       -4.0550    -1.9470     1.6170 C.ar  1 <1>  -0.1500 
 10 C       -3.9270    -4.2200     0.7790 C.ar  1 <1>  -0.1440 
 11 C       -4.5350    -3.2490     1.5790 C.ar  1 <1>  -0.1500 
 12 C       -4.4890    -5.6300     0.7510 C.3   1 <1>   0.4870 
 13 N       -4.8100    -6.0120    -0.6600 N.4   1 <1>  -0.9590 
 14 C       -6.1970    -5.7430    -1.1520 C.3   1 <1>   0.4230 
 15 C       -4.4410    -7.4390    -0.9070 C.3   1 <1>   0.2630 
 16 C       -7.3180    -6.3390    -0.3030 C.3   1 <1>  -0.1600 
 17 C       -6.5480    -4.2650    -1.2540 C.3   1 <1>  -0.1600 
 18 C       -8.5760    -5.5860    -0.7640 C.3   1 <1>  -0.0800 
 19 C       -8.0780    -4.2490    -1.3630 C.3   1 <1>  -0.0800 
 20 C       -9.6430    -5.4500     0.3420 C.3   1 <1>   0.1400 
 21 C       -8.7180    -3.0030    -0.7220 C.3   1 <1>  -0.0990 
 22 N      -10.6240    -4.4030    -0.0300 N.am  1 <1>  -0.6600 
 23 C      -10.2080    -3.2050    -0.5430 C.2   1 <1>   0.5690 
 24 C      -12.0580    -4.7040     0.2310 C.3   1 <1>   0.0600 
 25 O      -10.9610    -2.3150    -0.8540 O.2   1 <1>  -0.5700 
 26 H       -2.2810    -4.6020    -0.5920 H     1 <1>   0.1500 
 27 H       -4.5170    -1.1890     2.2270 H     1 <1>   0.1500 
 28 H       -5.3930    -3.4940     2.1840 H     1 <1>   0.1500 
 29 H       -5.3600    -5.6960     1.3790 H     1 <1>   0.0800 
 30 H       -3.7410    -6.2960     1.1500 H     1 <1>   0.0800 
 31 H       -4.1960    -5.4190    -1.2350 H     1 <1>   0.4500 
 32 H       -6.2940    -6.1530    -2.1450 H     1 <1>   0.0800 
 33 H       -5.0560    -8.0960    -0.3130 H     1 <1>   0.0800 
 34 H       -3.4070    -7.6110    -0.6520 H     1 <1>   0.0800 
 35 H       -4.5800    -7.6870    -1.9480 H     1 <1>   0.0800 
 36 H       -7.4250    -7.3970    -0.4640 H     1 <1>   0.0800 
 37 H       -7.1610    -6.1450     0.7410 H     1 <1>   0.0800 
 38 H       -6.2610    -3.7380    -0.3670 H     1 <1>   0.0800 
 39 H       -6.0930    -3.8010    -2.1120 H     1 <1>   0.0800 
 40 H       -9.0260    -6.1480    -1.5660 H     1 <1>   0.0800 
 41 H       -8.3490    -4.2470    -2.4070 H     1 <1>   0.0800 
 42 H       -9.1880    -5.1640     1.2750 H     1 <1>   0.0800 
 43 H      -10.1440    -6.3920     0.4840 H     1 <1>   0.0800 
 44 H       -8.5470    -2.1380    -1.3390 H     1 <1>   0.0800 
 45 H       -8.3010    -2.8090     0.2490 H     1 <1>   0.0800 
 46 H      -12.3620    -5.5610    -0.3440 H     1 <1>   0.0800 
 47 H      -12.6770    -3.8680    -0.0490 H     1 <1>   0.0800 
 48 H      -12.2060    -4.9040     1.2770 H     1 <1>   0.0800 
@<TRIPOS>BOND
  1   1   2  1   
  2   2   3  1   
  3   2   4  1   
  4   2   5  1   
  5   4   6  1   
  6   5   7  1   
  7   6   7  ar  
  8   6   8  ar  
  9   7   9  ar  
 10   8  10  ar  
 11   8  26  1   
 12   9  11  ar  
 13   9  27  1   
 14  10  11  ar  
 15  10  12  1   
 16  11  28  1   
 17  12  13  1   
 18  12  29  1   
 19  12  30  1   
 20  13  14  1   
 21  13  15  1   
 22  13  31  1   
 23  14  16  1   
 24  14  17  1   
 25  14  32  1   
 26  15  33  1   
 27  15  34  1   
 28  15  35  1   
 29  16  18  1   
 30  16  36  1   
 31  16  37  1   
 32  17  19  1   
 33  17  38  1   
 34  17  39  1   
 35  18  19  1   
 36  18  20  1   
 37  18  40  1   
 38  19  21  1   
 39  19  41  1   
 40  20  22  1   
 41  20  42  1   
 42  20  43  1   
 43  21  23  1   
 44  21  44  1   
 45  21  45  1   
 46  22  23  am  
 47  22  24  1   
 48  23  25  2   
 49  24  46  1   
 50  24  47  1   
 51  24  48  1   
@<TRIPOS>SUBSTRUCTURE
  1 ****  17 GROUP 4 **** **** 0

# MOE 2024.06 (io_trps.svl 2023.06)
