@<TRIPOS>MOLECULE
NONAME
47 50 1 0 0 
SMALL
USER_CHARGES


@<TRIPOS>ATOM
  1 N       -0.5710     0.3260    -0.8300 N.2   1 <1>  -0.5650 
  2 C        0.4320     1.2330    -0.6660 C.ar  1 <1>   0.2270 
  3 C       -1.4430     0.6430     0.0630 C.2   1 <1>   0.0060 
  4 C        0.1270     2.1080     0.3580 C.ar  1 <1>  -0.1520 
  5 C        1.6340     1.3650    -1.3590 C.ar  1 <1>  -0.1500 
  6 N       -1.0870     1.7170     0.8160 N.pl3 1 <1>   0.0330 
  7 C       -2.7560    -0.0990     0.2590 C.3   1 <1>   0.0200 
  8 C        1.0030     3.1340     0.7220 C.ar  1 <1>  -0.1500 
  9 C        2.5060     2.3730    -1.0080 C.ar  1 <1>  -0.1500 
 10 C       -2.6060    -1.6180     0.0230 C.3   1 <1>  -0.0800 
 11 C        2.1890     3.2560     0.0320 C.ar  1 <1>  -0.1500 
 12 C       -3.9820    -2.3070    -0.0470 C.3   1 <1>   0.3430 
 13 C       -1.6900    -2.2770     1.0730 C.3   1 <1>  -0.1600 
 14 N       -3.9390    -3.7460     0.3980 N.4   1 <1>  -0.9590 
 15 C       -1.5010    -3.7740     0.7650 C.3   1 <1>  -0.1600 
 16 C       -2.6610    -4.3960    -0.0220 C.3   1 <1>   0.3430 
 17 C       -5.1630    -4.4720    -0.0800 C.3   1 <1>   0.3430 
 18 C       -5.3330    -5.8540     0.5620 C.3   1 <1>   0.0960 
 19 N       -6.5960    -6.4250     0.0800 N.pl3 1 <1>   0.0480 
 20 C       -6.7830    -7.2760    -0.9540 C.2   1 <1>   0.0360 
 21 C       -7.8350    -6.1470     0.5250 C.2   1 <1>  -0.3020 
 22 N       -8.0240    -7.5410    -1.1930 N.2   1 <1>  -0.5650 
 23 C       -8.6910    -6.8380    -0.2600 C.2   1 <1>   0.0770 
 24 H        1.8510     0.6750    -2.1530 H     1 <1>   0.1500 
 25 H       -1.6130     2.1630     1.5710 H     1 <1>   0.2700 
 26 H       -3.4640     0.3090    -0.4420 H     1 <1>   0.0800 
 27 H       -3.1280     0.0810     1.2520 H     1 <1>   0.0800 
 28 H        0.7520     3.8080     1.5220 H     1 <1>   0.1500 
 29 H        3.4380     2.4900    -1.5320 H     1 <1>   0.1500 
 30 H       -2.1480    -1.7450    -0.9450 H     1 <1>   0.0800 
 31 H        2.8870     4.0350     0.2870 H     1 <1>   0.1500 
 32 H       -4.3390    -2.2460    -1.0630 H     1 <1>   0.0800 
 33 H       -4.6780    -1.7700     0.5770 H     1 <1>   0.0800 
 34 H       -2.1230    -2.1590     2.0520 H     1 <1>   0.0800 
 35 H       -0.7250    -1.7970     1.0870 H     1 <1>   0.0800 
 36 H       -3.9270    -3.7300     1.4280 H     1 <1>   0.4500 
 37 H       -1.3520    -4.3130     1.6840 H     1 <1>   0.0800 
 38 H       -0.6050    -3.9020     0.1820 H     1 <1>   0.0800 
 39 H       -2.5060    -4.2320    -1.0770 H     1 <1>   0.0800 
 40 H       -2.6850    -5.4580     0.1570 H     1 <1>   0.0800 
 41 H       -5.1190    -4.5840    -1.1510 H     1 <1>   0.0800 
 42 H       -6.0360    -3.8840     0.1570 H     1 <1>   0.0800 
 43 H       -5.3830    -5.7750     1.6330 H     1 <1>   0.0800 
 44 H       -4.5320    -6.5140     0.2830 H     1 <1>   0.0800 
 45 H       -5.9680    -7.6870    -1.5250 H     1 <1>   0.1500 
 46 H       -8.0540    -5.5000     1.3540 H     1 <1>   0.1500 
 47 H       -9.7670    -6.8690    -0.2040 H     1 <1>   0.1500 
@<TRIPOS>BOND
  1   1   2  1   
  2   1   3  2   
  3   2   4  ar  
  4   2   5  ar  
  5   3   6  1   
  6   3   7  1   
  7   4   6  1   
  8   4   8  ar  
  9   5   9  ar  
 10   5  24  1   
 11   6  25  1   
 12   7  10  1   
 13   7  26  1   
 14   7  27  1   
 15   8  11  ar  
 16   8  28  1   
 17   9  11  ar  
 18   9  29  1   
 19  10  12  1   
 20  10  13  1   
 21  10  30  1   
 22  11  31  1   
 23  12  14  1   
 24  12  32  1   
 25  12  33  1   
 26  13  15  1   
 27  13  34  1   
 28  13  35  1   
 29  14  16  1   
 30  14  17  1   
 31  14  36  1   
 32  15  16  1   
 33  15  37  1   
 34  15  38  1   
 35  16  39  1   
 36  16  40  1   
 37  17  18  1   
 38  17  41  1   
 39  17  42  1   
 40  18  19  1   
 41  18  43  1   
 42  18  44  1   
 43  19  20  1   
 44  19  21  1   
 45  20  22  2   
 46  20  45  1   
 47  21  23  2   
 48  21  46  1   
 49  22  23  1   
 50  23  47  1   
@<TRIPOS>SUBSTRUCTURE
  1 ****  10 GROUP 4 **** **** 0

# MOE 2024.06 (io_trps.svl 2023.06)
