@<TRIPOS>MOLECULE
NONAME
54 56 1 0 0 
SMALL
USER_CHARGES


@<TRIPOS>ATOM
  1 O       -0.4180     1.0990    -1.6520 O.2   1 <1>  -0.5700 
  2 C       -0.1990     2.0920    -1.0070 C.2   1 <1>   0.5690 
  3 N       -1.0700     3.1250    -1.0180 N.am  1 <1>  -0.7300 
  4 C        1.0960     2.2090    -0.1950 C.3   1 <1>   0.1810 
  5 C       -0.8720     4.3680    -0.2350 C.3   1 <1>   0.3640 
  6 O        1.0740     3.2550     0.7540 O.3   1 <1>  -0.5600 
  7 C       -1.2580     5.5640    -1.1040 C.ar  1 <1>  -0.1440 
  8 C        0.5910     4.4940     0.2580 C.3   1 <1>   0.2610 
  9 C       -0.7890     5.6930    -2.4050 C.ar  1 <1>  -0.1500 
 10 C       -2.0810     6.5540    -0.5850 C.ar  1 <1>  -0.1500 
 11 C        0.7350     5.6160     1.3000 C.2   1 <1>   0.5690 
 12 C       -1.1350     6.7920    -3.1710 C.ar  1 <1>  -0.1500 
 13 C       -2.4290     7.6530    -1.3500 C.ar  1 <1>  -0.1500 
 14 O       -0.2390     5.9310     1.9500 O.2   1 <1>  -0.5700 
 15 N        1.9300     6.2770     1.4630 N.am  1 <1>  -0.6600 
 16 C       -1.9560     7.7730    -2.6440 C.ar  1 <1>  -0.1500 
 17 C        1.9570     7.6120     2.1220 C.3   1 <1>   0.2840 
 18 C        3.2410     5.8110     0.9390 C.3   1 <1>   0.1400 
 19 C        2.0140     8.6870     1.0470 C.ar  1 <1>  -0.1430 
 20 C        3.9400     4.9830     2.0130 C.3   1 <1>  -0.2400 
 21 C        3.1480     9.4670     0.8810 C.ar  1 <1>  -0.1500 
 22 C        0.9270     8.8870     0.2100 C.ar  1 <1>  -0.1500 
 23 C        3.2050    10.4330    -0.1100 C.ar  1 <1>   0.0820 
 24 C        0.9750     9.8480    -0.7850 C.ar  1 <1>  -0.1500 
 25 O        4.3560    11.1450    -0.1990 O.3   1 <1>  -0.3620 
 26 C        2.1100    10.6220    -0.9480 C.ar  1 <1>  -0.1500 
 27 C        4.5090    12.1730    -1.1490 C.3   1 <1>   0.1200 
 28 C        5.8970    12.7800    -0.9690 C.3   1 <1>  -0.2400 
 29 H       -1.9320     3.0480    -1.5600 H     1 <1>   0.3700 
 30 H        1.9200     2.3790    -0.8640 H     1 <1>   0.0800 
 31 H        1.2650     1.2900     0.3360 H     1 <1>   0.0800 
 32 H       -1.5270     4.3230     0.6190 H     1 <1>   0.0800 
 33 H        1.1910     4.7570    -0.5910 H     1 <1>   0.0800 
 34 H       -0.1520     4.9380    -2.8330 H     1 <1>   0.1500 
 35 H       -2.4500     6.4790     0.4240 H     1 <1>   0.1500 
 36 H       -0.7670     6.8840    -4.1790 H     1 <1>   0.1500 
 37 H       -3.0670     8.4150    -0.9360 H     1 <1>   0.1500 
 38 H       -2.2260     8.6280    -3.2400 H     1 <1>   0.1500 
 39 H        1.0790     7.7590     2.7280 H     1 <1>   0.0800 
 40 H        2.8140     7.6770     2.7700 H     1 <1>   0.0800 
 41 H        3.1150     5.2140     0.0550 H     1 <1>   0.0800 
 42 H        3.8510     6.6580     0.6730 H     1 <1>   0.0800 
 43 H        3.3400     4.1280     2.2710 H     1 <1>   0.0800 
 44 H        4.1130     5.5750     2.8940 H     1 <1>   0.0800 
 45 H        4.8880     4.6360     1.6440 H     1 <1>   0.0800 
 46 H        4.0040     9.3340     1.5170 H     1 <1>   0.1500 
 47 H        0.0390     8.2900     0.3280 H     1 <1>   0.1500 
 48 H        0.1250     9.9870    -1.4300 H     1 <1>   0.1500 
 49 H        2.1200    11.3590    -1.7280 H     1 <1>   0.1500 
 50 H        4.4040    11.7470    -2.1320 H     1 <1>   0.0800 
 51 H        3.7450    12.9120    -0.9770 H     1 <1>   0.0800 
 52 H        6.6510    12.0290    -1.1280 H     1 <1>   0.0800 
 53 H        5.9970    13.1860     0.0210 H     1 <1>   0.0800 
 54 H        6.0440    13.5710    -1.6820 H     1 <1>   0.0800 
@<TRIPOS>BOND
  1   1   2  2   
  2   2   3  am  
  3   2   4  1   
  4   3   5  1   
  5   3  29  1   
  6   4   6  1   
  7   4  30  1   
  8   4  31  1   
  9   5   7  1   
 10   5   8  1   
 11   5  32  1   
 12   6   8  1   
 13   7   9  ar  
 14   7  10  ar  
 15   8  11  1   
 16   8  33  1   
 17   9  12  ar  
 18   9  34  1   
 19  10  13  ar  
 20  10  35  1   
 21  11  14  2   
 22  11  15  am  
 23  12  16  ar  
 24  12  36  1   
 25  13  16  ar  
 26  13  37  1   
 27  15  17  1   
 28  15  18  1   
 29  16  38  1   
 30  17  19  1   
 31  17  39  1   
 32  17  40  1   
 33  18  20  1   
 34  18  41  1   
 35  18  42  1   
 36  19  21  ar  
 37  19  22  ar  
 38  20  43  1   
 39  20  44  1   
 40  20  45  1   
 41  21  23  ar  
 42  21  46  1   
 43  22  24  ar  
 44  22  47  1   
 45  23  25  1   
 46  23  26  ar  
 47  24  26  ar  
 48  24  48  1   
 49  25  27  1   
 50  26  49  1   
 51  27  28  1   
 52  27  50  1   
 53  27  51  1   
 54  28  52  1   
 55  28  53  1   
 56  28  54  1   
@<TRIPOS>SUBSTRUCTURE
  1 ****  11 GROUP 4 **** **** 0

# MOE 2024.06 (io_trps.svl 2023.06)
