@<TRIPOS>MOLECULE
NONAME
56 59 1 0 0 
SMALL
USER_CHARGES


@<TRIPOS>ATOM
  1 S        0.0270     0.0260    -0.9740 S.3   1 <1>  -0.0800 
  2 C        0.4270     1.5280    -0.1540 C.2   1 <1>  -0.1400 
  3 C        0.8650    -0.9290     0.2420 C.2   1 <1>  -0.1400 
  4 C        1.1350     1.2690     0.9650 C.2   1 <1>  -0.1500 
  5 C       -0.0760     2.7980    -0.8230 C.3   1 <1>   0.5230 
  6 C        1.3870    -0.1220     1.1850 C.2   1 <1>  -0.1500 
  7 C        0.9090    -2.4360     0.0620 C.3   1 <1>   0.5230 
  8 N        0.6060     3.9910    -0.2540 N.4   1 <1>  -0.9590 
  9 N       -0.2960    -3.0520     0.6740 N.4   1 <1>  -0.9590 
 10 C       -0.0960     5.2490    -0.6390 C.3   1 <1>   0.3430 
 11 C        2.0500     4.0280    -0.6370 C.3   1 <1>   0.3430 
 12 C       -1.5910    -2.7260     0.0240 C.3   1 <1>   0.3430 
 13 C       -0.2400    -4.5400     0.7520 C.3   1 <1>   0.3430 
 14 C        0.5490     6.4360     0.0780 C.3   1 <1>  -0.1600 
 15 C        2.7420     5.1880     0.0810 C.3   1 <1>  -0.1600 
 16 C       -2.5420    -3.7900     0.5710 C.3   1 <1>   0.2000 
 17 C       -1.6830    -5.0570     0.5880 C.3   1 <1>  -0.0800 
 18 C        2.0530     6.5270    -0.2120 C.3   1 <1>  -0.1600 
 19 O       -2.8370    -3.4580     1.8880 O.3   1 <1>  -0.6800 
 20 C       -1.8620    -5.8770    -0.7080 C.3   1 <1>  -0.0170 
 21 C       -1.0600    -7.1710    -0.6880 C.ar  1 <1>   0.1670 
 22 N        0.2510    -7.0520    -0.8330 N.ar  1 <1>  -0.6200 
 23 C       -1.7080    -8.3960    -0.5280 C.ar  1 <1>   0.1600 
 24 C        0.8610    -8.2290    -0.8200 C.ar  1 <1>   0.1600 
 25 N       -1.0980    -9.5660    -0.5020 N.ar  1 <1>  -0.6200 
 26 C        0.2090    -9.4450    -0.6580 C.ar  1 <1>   0.1600 
 27 H        1.5110     1.9910     1.6710 H     1 <1>   0.1500 
 28 H       -1.1410     2.8730    -0.6710 H     1 <1>   0.0800 
 29 H        0.1100     2.7450    -1.8830 H     1 <1>   0.0800 
 30 H        1.9560    -0.4400     2.0450 H     1 <1>   0.1500 
 31 H        1.7910    -2.8170     0.5510 H     1 <1>   0.0800 
 32 H        0.9710    -2.6830    -0.9860 H     1 <1>   0.0800 
 33 H        0.5580     3.9110     0.7680 H     1 <1>   0.4500 
 34 H       -0.3930    -2.7050     1.6410 H     1 <1>   0.4500 
 35 H       -0.0290     5.3960    -1.7050 H     1 <1>   0.0800 
 36 H       -1.1390     5.1920    -0.3670 H     1 <1>   0.0800 
 37 H        2.5330     3.1010    -0.3680 H     1 <1>   0.0800 
 38 H        2.1430     4.1600    -1.7030 H     1 <1>   0.0800 
 39 H       -1.9310    -1.7340     0.2710 H     1 <1>   0.0800 
 40 H       -1.5060    -2.8280    -1.0450 H     1 <1>   0.0800 
 41 H        0.3850    -4.9230    -0.0380 H     1 <1>   0.0800 
 42 H        0.1690    -4.8550     1.6990 H     1 <1>   0.0800 
 43 H        0.0700     7.3450    -0.2450 H     1 <1>   0.0800 
 44 H        0.3840     6.3480     1.1380 H     1 <1>   0.0800 
 45 H        2.7470     5.0010     1.1410 H     1 <1>   0.0800 
 46 H        3.7680     5.2390    -0.2400 H     1 <1>   0.0800 
 47 H       -3.4600    -3.8680     0.0120 H     1 <1>   0.0800 
 48 H       -1.9440    -5.6880     1.4210 H     1 <1>   0.0800 
 49 H        2.4960     7.3050     0.3880 H     1 <1>   0.0800 
 50 H        2.2040     6.7890    -1.2470 H     1 <1>   0.0800 
 51 H       -3.5600    -4.0160     2.2480 H     1 <1>   0.4000 
 52 H       -1.5580    -5.3020    -1.5650 H     1 <1>   0.0800 
 53 H       -2.9040    -6.1150    -0.8360 H     1 <1>   0.0800 
 54 H       -2.7780    -8.4140    -0.4170 H     1 <1>   0.1500 
 55 H        1.9300    -8.2360    -0.9430 H     1 <1>   0.1500 
 56 H        0.7900   -10.3500    -0.6590 H     1 <1>   0.1500 
@<TRIPOS>BOND
  1   1   2  1   
  2   1   3  1   
  3   2   4  2   
  4   2   5  1   
  5   3   6  2   
  6   3   7  1   
  7   4   6  1   
  8   4  27  1   
  9   5   8  1   
 10   5  28  1   
 11   5  29  1   
 12   6  30  1   
 13   7   9  1   
 14   7  31  1   
 15   7  32  1   
 16   8  10  1   
 17   8  11  1   
 18   8  33  1   
 19   9  12  1   
 20   9  13  1   
 21   9  34  1   
 22  10  14  1   
 23  10  35  1   
 24  10  36  1   
 25  11  15  1   
 26  11  37  1   
 27  11  38  1   
 28  12  16  1   
 29  12  39  1   
 30  12  40  1   
 31  13  17  1   
 32  13  41  1   
 33  13  42  1   
 34  14  18  1   
 35  14  43  1   
 36  14  44  1   
 37  15  18  1   
 38  15  45  1   
 39  15  46  1   
 40  16  17  1   
 41  16  19  1   
 42  16  47  1   
 43  17  20  1   
 44  17  48  1   
 45  18  49  1   
 46  18  50  1   
 47  19  51  1   
 48  20  21  1   
 49  20  52  1   
 50  20  53  1   
 51  21  22  ar  
 52  21  23  ar  
 53  22  24  ar  
 54  23  25  ar  
 55  23  54  1   
 56  24  26  ar  
 57  24  55  1   
 58  25  26  ar  
 59  26  56  1   
@<TRIPOS>SUBSTRUCTURE
  1 ****   7 GROUP 4 **** **** 0

# MOE 2024.06 (io_trps.svl 2023.06)
