@<TRIPOS>MOLECULE
NONAME
56 58 1 0 0 
SMALL
USER_CHARGES


@<TRIPOS>ATOM
  1 O       -0.1400     1.1330     1.3310 O.2   1 <1>  -0.5700 
  2 C       -0.0160     2.1310     0.6500 C.2   1 <1>   0.5690 
  3 N       -1.1300     2.9320     0.4450 N.am  1 <1>  -0.6600 
  4 C        1.4040     2.4060     0.0380 C.3   1 <1>   0.3410 
  5 C       -2.3830     2.6710     1.2210 C.3   1 <1>   0.1400 
  6 C       -1.3190     3.9470    -0.6380 C.3   1 <1>   0.1400 
  7 O        2.3700     1.7650     0.8870 O.3   1 <1>  -0.3630 
  8 C        1.4920     1.7860    -1.3710 C.3   1 <1>  -0.2400 
  9 C        1.7940     3.9000    -0.0080 C.3   1 <1>  -0.2400 
 10 C       -3.4580     2.0280     0.3170 C.3   1 <1>   0.0000 
 11 C       -2.7830     4.0520    -1.1030 C.3   1 <1>  -0.1600 
 12 C        3.6810     1.6330     0.5720 C.ar  1 <1>   0.0820 
 13 C       -4.8290     2.0950     1.0150 C.3   1 <1>   0.2000 
 14 C       -3.4690     2.6780    -1.1020 C.3   1 <1>  -0.1600 
 15 C       -3.2680     0.5080     0.1850 C.3   1 <1>  -0.1600 
 16 C        4.5970     2.5780     1.0120 C.ar  1 <1>  -0.1500 
 17 C        4.1170     0.5260    -0.1400 C.ar  1 <1>  -0.1500 
 18 O       -5.4340     3.3430     0.8450 O.3   1 <1>  -0.5600 
 19 C       -5.6640     0.9680     0.3970 C.3   1 <1>  -0.1600 
 20 C       -4.6530    -0.0430    -0.1660 C.3   1 <1>  -0.1600 
 21 C        5.9410     2.4460     0.7040 C.ar  1 <1>  -0.1440 
 22 C        5.4590     0.3910    -0.4500 C.ar  1 <1>  -0.1500 
 23 C       -6.5260     3.5850     1.6740 C.3   1 <1>   0.0400 
 24 C        6.3660     1.3510    -0.0340 C.ar  1 <1>  -0.1500 
 25 C        6.9440     3.4850     1.1700 C.3   1 <1>  -0.0970 
 26 H       -2.1890     2.0480     2.0770 H     1 <1>   0.0800 
 27 H       -2.7500     3.6110     1.5970 H     1 <1>   0.0800 
 28 H       -0.9920     4.9100    -0.2860 H     1 <1>   0.0800 
 29 H       -0.7250     3.6720    -1.4890 H     1 <1>   0.0800 
 30 H        0.7370     2.1930    -2.0130 H     1 <1>   0.0800 
 31 H        1.3310     0.7250    -1.3070 H     1 <1>   0.0800 
 32 H        2.4480     1.9820    -1.8210 H     1 <1>   0.0800 
 33 H        1.2010     4.4450    -0.7110 H     1 <1>   0.0800 
 34 H        2.8120     4.0200    -0.3250 H     1 <1>   0.0800 
 35 H        1.6680     4.3380     0.9650 H     1 <1>   0.0800 
 36 H       -3.3210     4.7180    -0.4510 H     1 <1>   0.0800 
 37 H       -2.8140     4.4780    -2.0890 H     1 <1>   0.0800 
 38 H       -4.6960     1.9110     2.0690 H     1 <1>   0.0800 
 39 H       -2.9370     2.0520    -1.7970 H     1 <1>   0.0800 
 40 H       -4.4740     2.7750    -1.4730 H     1 <1>   0.0800 
 41 H       -2.5200     0.2400    -0.5400 H     1 <1>   0.0800 
 42 H       -2.9640     0.1000     1.1350 H     1 <1>   0.0800 
 43 H        4.2470     3.4090     1.5950 H     1 <1>   0.1500 
 44 H        3.4090    -0.2230    -0.4420 H     1 <1>   0.1500 
 45 H       -6.2870     0.5090     1.1430 H     1 <1>   0.0800 
 46 H       -6.2750     1.3500    -0.4030 H     1 <1>   0.0800 
 47 H       -4.7960    -1.0250     0.2510 H     1 <1>   0.0800 
 48 H       -4.7600    -0.1000    -1.2360 H     1 <1>   0.0800 
 49 H        5.7980    -0.4630    -1.0100 H     1 <1>   0.1500 
 50 H       -6.8870     4.5770     1.4680 H     1 <1>   0.0800 
 51 H       -6.2140     3.5200     2.7020 H     1 <1>   0.0800 
 52 H       -7.3010     2.8690     1.4660 H     1 <1>   0.0800 
 53 H        7.4070     1.2400    -0.2810 H     1 <1>   0.1500 
 54 H        7.8530     3.0070     1.4890 H     1 <1>   0.0800 
 55 H        6.5500     4.0480     1.9970 H     1 <1>   0.0800 
 56 H        7.1690     4.1610     0.3650 H     1 <1>   0.0800 
@<TRIPOS>BOND
  1   1   2  2   
  2   2   3  am  
  3   2   4  1   
  4   3   5  1   
  5   3   6  1   
  6   4   7  1   
  7   4   8  1   
  8   4   9  1   
  9   5  10  1   
 10   5  26  1   
 11   5  27  1   
 12   6  11  1   
 13   6  28  1   
 14   6  29  1   
 15   7  12  1   
 16   8  30  1   
 17   8  31  1   
 18   8  32  1   
 19   9  33  1   
 20   9  34  1   
 21   9  35  1   
 22  10  13  1   
 23  10  14  1   
 24  10  15  1   
 25  11  14  1   
 26  11  36  1   
 27  11  37  1   
 28  12  16  ar  
 29  12  17  ar  
 30  13  18  1   
 31  13  19  1   
 32  13  38  1   
 33  14  39  1   
 34  14  40  1   
 35  15  20  1   
 36  15  41  1   
 37  15  42  1   
 38  16  21  ar  
 39  16  43  1   
 40  17  22  ar  
 41  17  44  1   
 42  18  23  1   
 43  19  20  1   
 44  19  45  1   
 45  19  46  1   
 46  20  47  1   
 47  20  48  1   
 48  21  24  ar  
 49  21  25  1   
 50  22  24  ar  
 51  22  49  1   
 52  23  50  1   
 53  23  51  1   
 54  23  52  1   
 55  24  53  1   
 56  25  54  1   
 57  25  55  1   
 58  25  56  1   
@<TRIPOS>SUBSTRUCTURE
  1 ****   2 GROUP 4 **** **** 0

# MOE 2024.06 (io_trps.svl 2023.06)
