@<TRIPOS>MOLECULE
NONAME
50 51 1 0 0 
SMALL
USER_CHARGES


@<TRIPOS>ATOM
  1 O       -0.4980     0.9290    -1.0180 O.2   1 <1>  -0.5700 
  2 C       -0.6130     2.1310    -0.9630 C.2   1 <1>   0.5690 
  3 N       -1.3770     2.7810    -0.0250 N.am  1 <1>  -0.6600 
  4 C        0.1420     2.9550    -2.0040 C.3   1 <1>   0.1810 
  5 C       -1.4550     4.2820    -0.0120 C.3   1 <1>   0.3640 
  6 C       -2.0670     2.1110     1.1150 C.3   1 <1>   0.2200 
  7 O        0.5290     4.2050    -1.4970 O.3   1 <1>  -0.5600 
  8 C       -2.9060     4.7320    -0.1890 C.ar  1 <1>  -0.1440 
  9 C       -0.5600     4.9970    -1.0580 C.3   1 <1>   0.2610 
 10 C       -1.0390     1.4830     2.0550 C.3   1 <1>  -0.2400 
 11 C       -3.0950     1.0900     0.6270 C.3   1 <1>  -0.2400 
 12 C       -3.7220     4.1670    -1.1610 C.ar  1 <1>  -0.1500 
 13 C       -3.4220     5.7310     0.6250 C.ar  1 <1>  -0.1500 
 14 C       -0.1010     6.3440    -0.4790 C.2   1 <1>   0.5690 
 15 C       -5.0320     4.5870    -1.3110 C.ar  1 <1>  -0.1500 
 16 C       -4.7320     6.1520     0.4750 C.ar  1 <1>  -0.1500 
 17 O       -0.6990     7.3270    -0.8560 O.2   1 <1>  -0.5700 
 18 N        0.9150     6.4520     0.4530 N.am  1 <1>  -0.6600 
 19 C       -5.5380     5.5790    -0.4920 C.ar  1 <1>  -0.1500 
 20 C        1.3510     7.7900     0.9410 C.3   1 <1>   0.1400 
 21 C        1.7500     5.3090     0.9280 C.3   1 <1>   0.0600 
 22 C        2.5400     8.2850     0.1150 C.3   1 <1>  -0.1600 
 23 C        2.9740     9.6740     0.5790 C.3   1 <1>   0.1200 
 24 O        4.0460    10.0800    -0.1900 O.3   1 <1>  -0.6800 
 25 H       -0.4740     3.1060    -2.8710 H     1 <1>   0.0800 
 26 H        1.0330     2.4310    -2.2960 H     1 <1>   0.0800 
 27 H       -1.1300     4.6000     0.9630 H     1 <1>   0.0800 
 28 H       -2.6060     2.8560     1.6770 H     1 <1>   0.0800 
 29 H       -1.1530     5.2130    -1.9290 H     1 <1>   0.0800 
 30 H       -0.5150     0.6810     1.5670 H     1 <1>   0.0800 
 31 H       -1.5350     1.0810     2.9190 H     1 <1>   0.0800 
 32 H       -0.3320     2.2230     2.3810 H     1 <1>   0.0800 
 33 H       -2.6210     0.2600     0.1360 H     1 <1>   0.0800 
 34 H       -3.7900     1.5530    -0.0480 H     1 <1>   0.0800 
 35 H       -3.6480     0.7060     1.4650 H     1 <1>   0.0800 
 36 H       -3.3430     3.3920    -1.8040 H     1 <1>   0.1500 
 37 H       -2.8090     6.1960     1.3770 H     1 <1>   0.1500 
 38 H       -5.6570     4.1410    -2.0650 H     1 <1>   0.1500 
 39 H       -5.1240     6.9280     1.1090 H     1 <1>   0.1500 
 40 H       -6.5560     5.9070    -0.6090 H     1 <1>   0.1500 
 41 H        0.5380     8.4930     0.8560 H     1 <1>   0.0800 
 42 H        1.6190     7.7250     1.9810 H     1 <1>   0.0800 
 43 H        2.1220     5.5030     1.9190 H     1 <1>   0.0800 
 44 H        2.5830     5.1720     0.2600 H     1 <1>   0.0800 
 45 H        1.1800     4.3970     0.9570 H     1 <1>   0.0800 
 46 H        2.2450     8.3390    -0.9190 H     1 <1>   0.0800 
 47 H        3.3600     7.5980     0.2200 H     1 <1>   0.0800 
 48 H        3.2810     9.6660     1.6120 H     1 <1>   0.0800 
 49 H        2.1810    10.3910     0.4460 H     1 <1>   0.0800 
 50 H        4.7760     9.4340    -0.1390 H     1 <1>   0.4000 
@<TRIPOS>BOND
  1   1   2  2   
  2   2   3  am  
  3   2   4  1   
  4   3   5  1   
  5   3   6  1   
  6   4   7  1   
  7   4  25  1   
  8   4  26  1   
  9   5   8  1   
 10   5   9  1   
 11   5  27  1   
 12   6  10  1   
 13   6  11  1   
 14   6  28  1   
 15   7   9  1   
 16   8  12  ar  
 17   8  13  ar  
 18   9  14  1   
 19   9  29  1   
 20  10  30  1   
 21  10  31  1   
 22  10  32  1   
 23  11  33  1   
 24  11  34  1   
 25  11  35  1   
 26  12  15  ar  
 27  12  36  1   
 28  13  16  ar  
 29  13  37  1   
 30  14  17  2   
 31  14  18  am  
 32  15  19  ar  
 33  15  38  1   
 34  16  19  ar  
 35  16  39  1   
 36  18  20  1   
 37  18  21  1   
 38  19  40  1   
 39  20  22  1   
 40  20  41  1   
 41  20  42  1   
 42  21  43  1   
 43  21  44  1   
 44  21  45  1   
 45  22  23  1   
 46  22  46  1   
 47  22  47  1   
 48  23  24  1   
 49  23  48  1   
 50  23  49  1   
 51  24  50  1   
@<TRIPOS>SUBSTRUCTURE
  1 ****   5 GROUP 4 **** **** 0

# MOE 2024.06 (io_trps.svl 2023.06)
