@<TRIPOS>MOLECULE
NONAME
44 47 1 0 0 
SMALL
USER_CHARGES


@<TRIPOS>ATOM
  1 CL      -0.4870     0.2880     1.6780 Cl    1 <1>  -0.1230 
  2 C       -1.9400     0.5470     0.7280 C.2   1 <1>   0.1230 
  3 C       -2.8920    -0.4150     0.3780 C.2   1 <1>   0.2030 
  4 C       -2.3460     1.7210     0.2190 C.2   1 <1>  -0.3020 
  5 N       -3.8560     0.1720    -0.3230 N.2   1 <1>  -0.7070 
  6 C       -2.7950    -1.8240     0.7290 C.2   1 <1>   0.7160 
  7 N       -3.5060     1.4660    -0.4150 N.pl3 1 <1>   0.3140 
  8 O       -1.7250    -2.4020     0.6340 O.2   1 <1>  -0.5700 
  9 N       -3.8870    -2.5700     1.1440 N.am  1 <1>  -0.6600 
 10 C       -4.3280     2.4460    -1.1360 C.3   1 <1>   0.0160 
 11 C       -3.9390    -4.0550     0.9670 C.3   1 <1>   0.1400 
 12 C       -5.2430    -2.0010     1.4020 C.3   1 <1>   0.1400 
 13 C       -4.9950    -4.4340    -0.0930 C.3   1 <1>   0.3440 
 14 C       -6.2110    -2.4440     0.2910 C.3   1 <1>   0.2950 
 15 O       -6.2350    -3.8420     0.2100 O.3   1 <1>  -0.5600 
 16 C       -5.1560    -5.9500    -0.1690 C.ar  1 <1>  -0.1440 
 17 C       -7.6400    -1.9690     0.5670 C.3   1 <1>  -0.1950 
 18 C       -6.0590    -6.6250     0.6420 C.ar  1 <1>  -0.1500 
 19 C       -4.3750    -6.6780    -1.0570 C.ar  1 <1>  -0.1500 
 20 C       -8.6310    -1.8070    -0.5430 C.3   1 <1>  -0.2000 
 21 C       -8.0800    -0.5970     0.1600 C.3   1 <1>  -0.2000 
 22 C       -6.1780    -8.0020     0.5690 C.ar  1 <1>  -0.1500 
 23 C       -4.4930    -8.0550    -1.1320 C.ar  1 <1>  -0.1500 
 24 C       -5.3950    -8.7180    -0.3180 C.ar  1 <1>  -0.1500 
 25 H       -1.8890     2.6900     0.2730 H     1 <1>   0.1500 
 26 H       -3.7390     2.9020    -1.9090 H     1 <1>   0.0800 
 27 H       -4.6720     3.1940    -0.4470 H     1 <1>   0.0800 
 28 H       -5.1720     1.9450    -1.5750 H     1 <1>   0.0800 
 29 H       -2.9820    -4.4400     0.6620 H     1 <1>   0.0800 
 30 H       -4.1940    -4.5180     1.9030 H     1 <1>   0.0800 
 31 H       -5.6040    -2.3630     2.3480 H     1 <1>   0.0800 
 32 H       -5.2170    -0.9290     1.4590 H     1 <1>   0.0800 
 33 H       -4.6840    -4.0640    -1.0550 H     1 <1>   0.0800 
 34 H       -5.8780    -2.0530    -0.6570 H     1 <1>   0.0800 
 35 H       -8.0140    -2.3430     1.5040 H     1 <1>   0.1000 
 36 H       -6.6760    -6.0760     1.3320 H     1 <1>   0.1500 
 37 H       -3.6690    -6.1760    -1.6960 H     1 <1>   0.1500 
 38 H       -8.3140    -2.0190    -1.5490 H     1 <1>   0.1000 
 39 H       -9.6500    -2.1010    -0.3620 H     1 <1>   0.1000 
 40 H       -8.7290    -0.0440     0.8170 H     1 <1>   0.1000 
 41 H       -7.3940     0.0380    -0.3750 H     1 <1>   0.1000 
 42 H       -6.8820    -8.5140     1.2010 H     1 <1>   0.1500 
 43 H       -3.8840    -8.6110    -1.8230 H     1 <1>   0.1500 
 44 H       -5.4870    -9.7890    -0.3760 H     1 <1>   0.1500 
@<TRIPOS>BOND
  1   1   2  1   
  2   2   3  1   
  3   2   4  2   
  4   3   5  2   
  5   3   6  1   
  6   4   7  1   
  7   4  25  1   
  8   5   7  1   
  9   6   8  2   
 10   6   9  am  
 11   7  10  1   
 12   9  11  1   
 13   9  12  1   
 14  10  26  1   
 15  10  27  1   
 16  10  28  1   
 17  11  13  1   
 18  11  29  1   
 19  11  30  1   
 20  12  14  1   
 21  12  31  1   
 22  12  32  1   
 23  13  15  1   
 24  13  16  1   
 25  13  33  1   
 26  14  15  1   
 27  14  17  1   
 28  14  34  1   
 29  16  18  ar  
 30  16  19  ar  
 31  17  20  1   
 32  17  21  1   
 33  17  35  1   
 34  18  22  ar  
 35  18  36  1   
 36  19  23  ar  
 37  19  37  1   
 38  20  21  1   
 39  20  38  1   
 40  20  39  1   
 41  21  40  1   
 42  21  41  1   
 43  22  24  ar  
 44  22  42  1   
 45  23  24  ar  
 46  23  43  1   
 47  24  44  1   
@<TRIPOS>SUBSTRUCTURE
  1 ****   9 GROUP 4 **** **** 0

# MOE 2024.06 (io_trps.svl 2023.06)
