@<TRIPOS>MOLECULE
NONAME
47 50 1 0 0 
SMALL
USER_CHARGES


@<TRIPOS>ATOM
  1 O       -0.8230     0.4230     0.4440 O.2   1 <1>  -0.5700 
  2 C        0.1320     1.0510     0.0340 C.2   1 <1>   0.5440 
  3 N        1.3130     0.4800    -0.3470 N.am  1 <1>  -0.6600 
  4 C        0.2070     2.4750    -0.1130 C.ar  1 <1>   0.0860 
  5 C        2.2460     1.5270    -0.8470 C.3   1 <1>   0.2840 
  6 C        1.5400    -0.9550    -0.6970 C.3   1 <1>   0.1400 
  7 C        1.4470     2.8010    -0.6300 C.ar  1 <1>  -0.1440 
  8 C       -0.7090     3.4820     0.1660 C.ar  1 <1>  -0.1500 
  9 C        2.1040    -1.8120     0.4770 C.3   1 <1>   0.0000 
 10 C        1.8020     4.1150    -0.8730 C.ar  1 <1>  -0.1500 
 11 C       -0.3640     4.8020    -0.0740 C.ar  1 <1>  -0.1500 
 12 C        3.3630    -1.1610     1.1080 C.3   1 <1>  -0.1600 
 13 C        2.5040    -3.2110    -0.0620 C.3   1 <1>  -0.1600 
 14 C        1.0380    -1.9840     1.5970 C.3   1 <1>  -0.0990 
 15 C        0.8860     5.1170    -0.5910 C.ar  1 <1>  -0.1500 
 16 C        4.5750    -1.1210     0.1620 C.3   1 <1>  -0.1600 
 17 C        3.7370    -3.2120    -0.9810 C.3   1 <1>  -0.1600 
 18 C       -0.1330    -2.8820     1.2260 C.2   1 <1>   0.5690 
 19 C        4.9360    -2.5300    -0.3160 C.3   1 <1>  -0.1600 
 20 O       -0.1010    -4.0290     1.6120 O.2   1 <1>  -0.5700 
 21 N       -1.1540    -2.3670     0.5180 N.am  1 <1>  -0.5060 
 22 C       -1.6980    -2.9560    -0.6070 C.2   1 <1>   0.8130 
 23 N       -2.9370    -2.8460    -0.9210 N.2   1 <1>  -0.6190 
 24 N       -0.9920    -3.5420    -1.5140 N.2   1 <1>  -0.6190 
 25 N       -3.0380    -3.4110    -2.0780 N.2   1 <1>  -0.2500 
 26 N       -1.8590    -3.8320    -2.4380 N.2   1 <1>  -0.2500 
 27 H        2.4580     1.3760    -1.8920 H     1 <1>   0.0800 
 28 H        3.1530     1.5340    -0.2690 H     1 <1>   0.0800 
 29 H        2.2210    -0.9900    -1.5270 H     1 <1>   0.0800 
 30 H        0.6190    -1.3790    -1.0560 H     1 <1>   0.0800 
 31 H       -1.6740     3.2190     0.5640 H     1 <1>   0.1500 
 32 H        2.7700     4.3620    -1.2750 H     1 <1>   0.1500 
 33 H       -1.0680     5.5890     0.1400 H     1 <1>   0.1500 
 34 H        3.6500    -1.7290     1.9760 H     1 <1>   0.0800 
 35 H        3.1370    -0.1670     1.4520 H     1 <1>   0.0800 
 36 H        1.6800    -3.6490    -0.6030 H     1 <1>   0.0800 
 37 H        2.7090    -3.8620     0.7710 H     1 <1>   0.0800 
 38 H        0.6680    -1.0300     1.9170 H     1 <1>   0.0800 
 39 H        1.5040    -2.4310     2.4560 H     1 <1>   0.0800 
 40 H        1.1440     6.1460    -0.7730 H     1 <1>   0.1500 
 41 H        5.4170    -0.6940     0.6800 H     1 <1>   0.0800 
 42 H        4.3650    -0.5000    -0.6890 H     1 <1>   0.0800 
 43 H        3.5050    -2.7180    -1.9080 H     1 <1>   0.0800 
 44 H        3.9930    -4.2300    -1.2210 H     1 <1>   0.0800 
 45 H        5.2540    -3.1210     0.5270 H     1 <1>   0.0800 
 46 H        5.7560    -2.4800    -1.0110 H     1 <1>   0.0800 
 47 H       -1.2210    -1.3530     0.4300 H     1 <1>   0.3700 
@<TRIPOS>BOND
  1   1   2  2   
  2   2   3  am  
  3   2   4  1   
  4   3   5  1   
  5   3   6  1   
  6   4   7  ar  
  7   4   8  ar  
  8   5   7  1   
  9   5  27  1   
 10   5  28  1   
 11   6   9  1   
 12   6  29  1   
 13   6  30  1   
 14   7  10  ar  
 15   8  11  ar  
 16   8  31  1   
 17   9  12  1   
 18   9  13  1   
 19   9  14  1   
 20  10  15  ar  
 21  10  32  1   
 22  11  15  ar  
 23  11  33  1   
 24  12  16  1   
 25  12  34  1   
 26  12  35  1   
 27  13  17  1   
 28  13  36  1   
 29  13  37  1   
 30  14  18  1   
 31  14  38  1   
 32  14  39  1   
 33  15  40  1   
 34  16  19  1   
 35  16  41  1   
 36  16  42  1   
 37  17  19  1   
 38  17  43  1   
 39  17  44  1   
 40  18  20  2   
 41  18  21  am  
 42  19  45  1   
 43  19  46  1   
 44  21  22  1   
 45  21  47  1   
 46  22  23  1   
 47  22  24  2   
 48  23  25  1   
 49  24  26  1   
 50  25  26  2   
@<TRIPOS>SUBSTRUCTURE
  1 ****   6 GROUP 4 **** **** 0

# MOE 2024.06 (io_trps.svl 2023.06)
