@<TRIPOS>MOLECULE
NONAME
50 51 1 0 0 
SMALL
USER_CHARGES


@<TRIPOS>ATOM
  1 O       -0.0130    -0.6320     0.0230 O.2   1 <1>  -0.5700 
  2 C        1.1360    -0.9150     0.3030 C.2   1 <1>   0.5440 
  3 N        2.0930     0.0580     0.4080 N.am  1 <1>  -0.4930 
  4 C        1.4930    -2.3080     0.4980 C.ar  1 <1>   0.0860 
  5 C        1.9760     1.4620     0.2510 C.2   1 <1>   0.0630 
  6 C        0.8410    -3.3030    -0.2300 C.ar  1 <1>  -0.1500 
  7 C        2.4680    -2.7150     1.4090 C.ar  1 <1>  -0.1500 
  8 C        1.0100     2.3440     0.7470 C.2   1 <1>   0.1080 
  9 C        2.8470     2.2490    -0.4190 C.2   1 <1>  -0.3320 
 10 C        1.1270    -4.6470    -0.0560 C.ar  1 <1>  -0.1430 
 11 C        2.7750    -4.0520     1.5800 C.ar  1 <1>  -0.1500 
 12 N        1.2550     3.5740     0.4180 N.2   1 <1>  -0.7070 
 13 C       -0.1930     1.9790     1.5870 C.3   1 <1>  -0.0590 
 14 N        2.3850     3.5210    -0.3060 N.pl3 1 <1>   0.3140 
 15 C        4.1060     1.8620    -1.1830 C.3   1 <1>  -0.0600 
 16 C        2.1080    -5.0190     0.8500 C.ar  1 <1>  -0.1500 
 17 C        0.3640    -5.6940    -0.8470 C.3   1 <1>   0.4860 
 18 C        2.9750     4.7510    -0.8730 C.3   1 <1>   0.0960 
 19 N       -0.7620    -6.1990    -0.0100 N.4   1 <1>  -0.9590 
 20 C        4.0090     5.3590     0.0860 C.3   1 <1>  -0.1600 
 21 C       -1.3850    -7.4160    -0.6120 C.3   1 <1>   0.2630 
 22 C       -1.7920    -5.1390     0.2430 C.3   1 <1>   0.2630 
 23 C        4.6370     6.6290    -0.5000 C.3   1 <1>  -0.2400 
 24 H        3.0560    -0.2610     0.4640 H     1 <1>   0.3700 
 25 H        0.0920    -2.9920    -0.9410 H     1 <1>   0.1500 
 26 H        2.9860    -1.9800     2.0020 H     1 <1>   0.1500 
 27 H        3.5360    -4.3410     2.2870 H     1 <1>   0.1500 
 28 H        0.0300     1.1350     2.2120 H     1 <1>   0.0800 
 29 H       -1.0160     1.7340     0.9420 H     1 <1>   0.0800 
 30 H       -0.4700     2.8110     2.2080 H     1 <1>   0.0800 
 31 H        4.2520     0.7980    -1.1630 H     1 <1>   0.0800 
 32 H        4.9670     2.3340    -0.7450 H     1 <1>   0.0800 
 33 H        4.0230     2.1690    -2.2100 H     1 <1>   0.0800 
 34 H        2.3650    -6.0550     1.0000 H     1 <1>   0.1500 
 35 H        1.0310    -6.5020    -1.0990 H     1 <1>   0.0800 
 36 H       -0.0130    -5.2650    -1.7620 H     1 <1>   0.0800 
 37 H        2.1780     5.4520    -1.0430 H     1 <1>   0.0800 
 38 H        3.4270     4.5140    -1.8170 H     1 <1>   0.0800 
 39 H       -0.3480    -6.4490     0.9010 H     1 <1>   0.4500 
 40 H        4.7850     4.6400     0.2850 H     1 <1>   0.0800 
 41 H        3.5230     5.6000     1.0160 H     1 <1>   0.0800 
 42 H       -1.8190    -7.1810    -1.5710 H     1 <1>   0.0800 
 43 H       -2.1620    -7.7960     0.0320 H     1 <1>   0.0800 
 44 H       -0.6460    -8.1900    -0.7480 H     1 <1>   0.0800 
 45 H       -2.2170    -4.7970    -0.6860 H     1 <1>   0.0800 
 46 H       -1.3480    -4.2960     0.7490 H     1 <1>   0.0800 
 47 H       -2.5840    -5.5270     0.8630 H     1 <1>   0.0800 
 48 H        5.1430     6.4100    -1.4240 H     1 <1>   0.0800 
 49 H        5.3510     7.0380     0.1930 H     1 <1>   0.0800 
 50 H        3.8800     7.3710    -0.6850 H     1 <1>   0.0800 
@<TRIPOS>BOND
  1   1   2  2   
  2   2   3  am  
  3   2   4  1   
  4   3   5  1   
  5   3  24  1   
  6   4   6  ar  
  7   4   7  ar  
  8   5   8  1   
  9   5   9  2   
 10   6  10  ar  
 11   6  25  1   
 12   7  11  ar  
 13   7  26  1   
 14   8  12  2   
 15   8  13  1   
 16   9  14  1   
 17   9  15  1   
 18  10  16  ar  
 19  10  17  1   
 20  11  16  ar  
 21  11  27  1   
 22  12  14  1   
 23  13  28  1   
 24  13  29  1   
 25  13  30  1   
 26  14  18  1   
 27  15  31  1   
 28  15  32  1   
 29  15  33  1   
 30  16  34  1   
 31  17  19  1   
 32  17  35  1   
 33  17  36  1   
 34  18  20  1   
 35  18  37  1   
 36  18  38  1   
 37  19  21  1   
 38  19  22  1   
 39  19  39  1   
 40  20  23  1   
 41  20  40  1   
 42  20  41  1   
 43  21  42  1   
 44  21  43  1   
 45  21  44  1   
 46  22  45  1   
 47  22  46  1   
 48  22  47  1   
 49  23  48  1   
 50  23  49  1   
 51  23  50  1   
@<TRIPOS>SUBSTRUCTURE
  1 ****   2 GROUP 4 **** **** 0

# MOE 2024.06 (io_trps.svl 2023.06)
