@<TRIPOS>MOLECULE
NONAME
52 53 1 0 0 
SMALL
USER_CHARGES


@<TRIPOS>ATOM
  1 O        1.5850    -1.7250    -1.7670 O.2   1 <1>  -0.5700 
  2 C        2.5630    -2.0010    -1.1140 C.2   1 <1>   0.5690 
  3 N        3.4340    -1.0170    -0.7040 N.am  1 <1>  -0.6600 
  4 C        2.7070    -3.4830    -0.7680 C.3   1 <1>  -0.0190 
  5 C        4.4800    -1.1360     0.3670 C.3   1 <1>   0.1400 
  6 C        3.4360     0.2900    -1.4350 C.3   1 <1>   0.1400 
  7 C        2.2430    -3.7360     0.6770 C.3   1 <1>   0.3430 
  8 C        4.1020    -4.0790    -1.0580 C.3   1 <1>  -0.2400 
  9 C        4.3810    -0.0330     1.4330 C.3   1 <1>   0.1400 
 10 C        2.7770     1.3850    -0.5880 C.3   1 <1>  -0.1600 
 11 N        0.7780    -4.0450     0.8350 N.4   1 <1>  -0.9590 
 12 N        4.8200     1.2840     0.8900 N.am  1 <1>  -0.6600 
 13 C        3.7530     2.1540     0.3160 C.3   1 <1>   0.1400 
 14 C        0.4140    -5.3800     0.2740 C.3   1 <1>   0.3430 
 15 C       -0.1180    -2.9750     0.2920 C.3   1 <1>   0.3430 
 16 C        6.1560     1.6120     0.9210 C.2   1 <1>   0.5690 
 17 C       -1.0200    -5.7290     0.6790 C.3   1 <1>  -0.1600 
 18 C       -1.5620    -3.2630     0.7050 C.3   1 <1>  -0.1600 
 19 O        6.9900     0.7940     1.2480 O.2   1 <1>  -0.5700 
 20 C        6.6510     3.0130     0.5290 C.3   1 <1>   0.1810 
 21 C       -2.0170    -4.6500     0.2330 C.3   1 <1>  -0.1600 
 22 O        7.8960     3.2960     1.0910 O.3   1 <1>  -0.6800 
 23 H        2.0460    -4.0130    -1.4300 H     1 <1>   0.0800 
 24 H        5.4600    -1.1090    -0.0810 H     1 <1>   0.0800 
 25 H        4.3840    -2.0720     0.8780 H     1 <1>   0.0800 
 26 H        2.8910     0.1900    -2.3580 H     1 <1>   0.0800 
 27 H        4.4450     0.5640    -1.6940 H     1 <1>   0.0800 
 28 H        2.4890    -2.8720     1.2710 H     1 <1>   0.0800 
 29 H        2.8080    -4.5650     1.0710 H     1 <1>   0.0800 
 30 H        4.8590    -3.7240    -0.3850 H     1 <1>   0.0800 
 31 H        4.4020    -3.8250    -2.0610 H     1 <1>   0.0800 
 32 H        4.0710    -5.1520    -0.9860 H     1 <1>   0.0800 
 33 H        5.0210    -0.2960     2.2590 H     1 <1>   0.0800 
 34 H        3.3780     0.0330     1.8130 H     1 <1>   0.0800 
 35 H        1.9780     0.9640    -0.0050 H     1 <1>   0.0800 
 36 H        2.3260     2.1000    -1.2520 H     1 <1>   0.0800 
 37 H        0.5750    -4.0950     1.8410 H     1 <1>   0.4500 
 38 H        3.2080     2.6240     1.1180 H     1 <1>   0.0800 
 39 H        4.2020     2.9330    -0.2740 H     1 <1>   0.0800 
 40 H        1.0860    -6.1370     0.6470 H     1 <1>   0.0800 
 41 H        0.4860    -5.3590    -0.8020 H     1 <1>   0.0800 
 42 H       -0.0580    -2.9560    -0.7850 H     1 <1>   0.0800 
 43 H        0.1820    -2.0080     0.6620 H     1 <1>   0.0800 
 44 H       -1.0710    -5.8570     1.7460 H     1 <1>   0.0800 
 45 H       -1.2930    -6.6690     0.2300 H     1 <1>   0.0800 
 46 H       -2.2040    -2.5130     0.2730 H     1 <1>   0.0800 
 47 H       -1.6530    -3.1860     1.7750 H     1 <1>   0.0800 
 48 H        5.9660     3.7680     0.8670 H     1 <1>   0.0800 
 49 H        6.7530     3.0690    -0.5390 H     1 <1>   0.0800 
 50 H       -2.9960    -4.8690     0.6260 H     1 <1>   0.0800 
 51 H       -2.0890    -4.6530    -0.8430 H     1 <1>   0.0800 
 52 H        8.3260     2.4380     1.3100 H     1 <1>   0.4000 
@<TRIPOS>BOND
  1   1   2  2   
  2   2   3  am  
  3   2   4  1   
  4   3   5  1   
  5   3   6  1   
  6   4   7  1   
  7   4   8  1   
  8   4  23  1   
  9   5   9  1   
 10   5  24  1   
 11   5  25  1   
 12   6  10  1   
 13   6  26  1   
 14   6  27  1   
 15   7  11  1   
 16   7  28  1   
 17   7  29  1   
 18   8  30  1   
 19   8  31  1   
 20   8  32  1   
 21   9  12  1   
 22   9  33  1   
 23   9  34  1   
 24  10  13  1   
 25  10  35  1   
 26  10  36  1   
 27  11  14  1   
 28  11  15  1   
 29  11  37  1   
 30  12  13  1   
 31  12  16  am  
 32  13  38  1   
 33  13  39  1   
 34  14  17  1   
 35  14  40  1   
 36  14  41  1   
 37  15  18  1   
 38  15  42  1   
 39  15  43  1   
 40  16  19  2   
 41  16  20  1   
 42  17  21  1   
 43  17  44  1   
 44  17  45  1   
 45  18  21  1   
 46  18  46  1   
 47  18  47  1   
 48  20  22  1   
 49  20  48  1   
 50  20  49  1   
 51  21  50  1   
 52  21  51  1   
 53  22  52  1   
@<TRIPOS>SUBSTRUCTURE
  1 ****   3 GROUP 4 **** **** 0

# MOE 2024.06 (io_trps.svl 2023.06)
