@<TRIPOS>MOLECULE
NONAME
42 43 1 0 0 
SMALL
USER_CHARGES


@<TRIPOS>ATOM
  1 S        0.3880    -0.0860    -0.2470 S.o2  1 <1>   1.3330 
  2 O        0.4740    -0.6250     1.0930 O.2   1 <1>  -0.6500 
  3 O        0.2380    -0.9880    -1.3670 O.2   1 <1>  -0.6500 
  4 N       -0.8970     1.0210    -0.2780 N.am  1 <1>  -0.8490 
  5 C        1.8240     0.9380    -0.5550 C.3   1 <1>  -0.0550 
  6 C       -2.1660     0.3850    -0.6400 C.3   1 <1>   0.1160 
  7 C       -1.0520     1.7720     0.9720 C.3   1 <1>   0.1160 
  8 C        3.1210     0.1240    -0.7320 C.3   1 <1>  -0.0800 
  9 C        4.3570     0.9460    -1.0670 C.3   1 <1>   0.2200 
 10 C        3.5630    -0.6650     0.5090 C.3   1 <1>   0.1200 
 11 N        4.4220     2.1670    -0.2290 N.am  1 <1>  -0.7300 
 12 C        5.4500    -0.0090    -0.6130 C.3   1 <1>   0.1200 
 13 O        4.9590    -0.5750     0.5640 O.3   1 <1>  -0.5600 
 14 C        4.0600     3.4230    -0.6220 C.2   1 <1>   0.5440 
 15 O        3.5920     3.5520    -1.7360 O.2   1 <1>  -0.5700 
 16 C        4.2110     4.5680     0.2640 C.ar  1 <1>   0.0860 
 17 C        4.1110     5.8670    -0.2360 C.ar  1 <1>  -0.1500 
 18 C        4.4530     4.4280     1.6350 C.ar  1 <1>  -0.1500 
 19 C        4.2530     6.9660     0.5920 C.ar  1 <1>   0.0820 
 20 C        4.5960     5.5270     2.4640 C.ar  1 <1>  -0.1500 
 21 O        4.1530     8.2060     0.0930 O.3   1 <1>  -0.5330 
 22 C        4.4970     6.8030     1.9430 C.ar  1 <1>  -0.1500 
 23 H        1.6560     1.5080    -1.4490 H     1 <1>   0.0800 
 24 H        1.9370     1.6310     0.2540 H     1 <1>   0.0800 
 25 H       -2.9560     1.1160    -0.6710 H     1 <1>   0.0800 
 26 H       -2.4190    -0.3810     0.0750 H     1 <1>   0.0800 
 27 H       -2.0870    -0.0650    -1.6160 H     1 <1>   0.0800 
 28 H       -1.8270     2.5130     0.8640 H     1 <1>   0.0800 
 29 H       -0.1350     2.2780     1.2180 H     1 <1>   0.0800 
 30 H       -1.3120     1.1090     1.7810 H     1 <1>   0.0800 
 31 H        2.9670    -0.5840    -1.5280 H     1 <1>   0.0800 
 32 H        4.4290     1.1920    -2.1140 H     1 <1>   0.0800 
 33 H        3.2800    -1.7020     0.4450 H     1 <1>   0.0800 
 34 H        3.1730    -0.2390     1.4170 H     1 <1>   0.0800 
 35 H        4.8200     2.0010     0.6970 H     1 <1>   0.3700 
 36 H        6.3860     0.4840    -0.4190 H     1 <1>   0.0800 
 37 H        5.5910    -0.8010    -1.3280 H     1 <1>   0.0800 
 38 H        3.9220     6.0080    -1.2850 H     1 <1>   0.1500 
 39 H        4.5280     3.4480     2.0710 H     1 <1>   0.1500 
 40 H        4.7840     5.3930     3.5160 H     1 <1>   0.1500 
 41 H        3.9730     8.2230    -0.8650 H     1 <1>   0.4500 
 42 H        4.6060     7.6690     2.5710 H     1 <1>   0.1500 
@<TRIPOS>BOND
  1   1   2  2   
  2   1   3  2   
  3   1   4  am  
  4   1   5  1   
  5   4   6  1   
  6   4   7  1   
  7   5   8  1   
  8   5  23  1   
  9   5  24  1   
 10   6  25  1   
 11   6  26  1   
 12   6  27  1   
 13   7  28  1   
 14   7  29  1   
 15   7  30  1   
 16   8   9  1   
 17   8  10  1   
 18   8  31  1   
 19   9  11  1   
 20   9  12  1   
 21   9  32  1   
 22  10  13  1   
 23  10  33  1   
 24  10  34  1   
 25  11  14  am  
 26  11  35  1   
 27  12  13  1   
 28  12  36  1   
 29  12  37  1   
 30  14  15  2   
 31  14  16  1   
 32  16  17  ar  
 33  16  18  ar  
 34  17  19  ar  
 35  17  38  1   
 36  18  20  ar  
 37  18  39  1   
 38  19  21  1   
 39  19  22  ar  
 40  20  22  ar  
 41  20  40  1   
 42  21  41  1   
 43  22  42  1   
@<TRIPOS>SUBSTRUCTURE
  1 ****  11 GROUP 4 **** **** 0

# MOE 2024.06 (io_trps.svl 2023.06)
