@<TRIPOS>MOLECULE
NONAME
50 53 1 0 0 
SMALL
USER_CHARGES


@<TRIPOS>ATOM
  1 O       -2.0420    -0.5490     1.5290 O.2   1 <1>  -0.5700 
  2 C       -1.4160    -1.5880     1.5410 C.2   1 <1>   0.6900 
  3 N       -1.6580    -2.6880     0.7660 N.am  1 <1>  -0.4770 
  4 N       -0.3440    -1.7700     2.3280 N.am  1 <1>  -0.7300 
  5 C       -2.6030    -2.8430    -0.2600 C.ar  1 <1>   0.1170 
  6 C       -0.6150    -3.7110     1.0330 C.3   1 <1>   0.1400 
  7 C        0.3290    -3.0460     2.0490 C.3   1 <1>   0.1400 
  8 C       -3.2740    -4.0470    -0.4200 C.ar  1 <1>  -0.1500 
  9 C       -2.8890    -1.8050    -1.1390 C.ar  1 <1>  -0.1500 
 10 C       -4.2200    -4.2360    -1.4210 C.ar  1 <1>   0.0860 
 11 C       -3.8120    -1.9730    -2.1550 C.ar  1 <1>  -0.1500 
 12 C       -4.9350    -5.4900    -1.5200 C.2   1 <1>   0.5440 
 13 C       -4.4690    -3.1810    -2.2960 C.ar  1 <1>  -0.1500 
 14 O       -4.3510    -6.4750    -1.9300 O.2   1 <1>  -0.5700 
 15 N       -6.2490    -5.5980    -1.1110 N.am  1 <1>  -0.6600 
 16 C       -6.9790    -6.8980    -1.1810 C.3   1 <1>   0.1400 
 17 C       -6.9430    -4.5220    -0.3500 C.3   1 <1>   0.1400 
 18 C       -7.1500    -7.5210     0.2120 C.3   1 <1>   0.1400 
 19 C       -6.6830    -4.7170     1.1470 C.3   1 <1>  -0.1600 
 20 N       -8.1730    -6.7860     1.0210 N.am  1 <1>  -0.6600 
 21 C       -7.6800    -5.6460     1.8550 C.3   1 <1>   0.1400 
 22 C       -9.4760    -7.2410     1.1710 C.2   1 <1>   0.7150 
 23 O      -10.1190    -6.8170     2.1180 O.2   1 <1>  -0.5700 
 24 C      -10.1230    -8.1950     0.2870 C.2   1 <1>   0.0550 
 25 O       -9.6740    -8.4860    -0.9340 O.3   1 <1>  -0.2800 
 26 C      -11.2570    -8.9200     0.4990 C.2   1 <1>  -0.1500 
 27 C      -10.4770    -9.3650    -1.4900 C.2   1 <1>  -0.0100 
 28 C      -11.4840    -9.6790    -0.6490 C.2   1 <1>  -0.1500 
 29 H        0.0870    -0.9810     2.8100 H     1 <1>   0.3700 
 30 H       -0.0940    -3.9610     0.1260 H     1 <1>   0.0800 
 31 H       -1.0590    -4.5950     1.4540 H     1 <1>   0.0800 
 32 H        0.4190    -3.6350     2.9450 H     1 <1>   0.0800 
 33 H        1.3000    -2.8730     1.6180 H     1 <1>   0.0800 
 34 H       -3.0740    -4.8620     0.2510 H     1 <1>   0.1500 
 35 H       -2.3840    -0.8620    -1.0260 H     1 <1>   0.1500 
 36 H       -4.0160    -1.1610    -2.8330 H     1 <1>   0.1500 
 37 H       -5.1880    -3.3160    -3.0860 H     1 <1>   0.1500 
 38 H       -6.4380    -7.5910    -1.8020 H     1 <1>   0.0800 
 39 H       -7.9400    -6.7460    -1.6380 H     1 <1>   0.0800 
 40 H       -7.9990    -4.5420    -0.5590 H     1 <1>   0.0800 
 41 H       -6.5720    -3.5590    -0.6540 H     1 <1>   0.0800 
 42 H       -6.2030    -7.5210     0.7230 H     1 <1>   0.0800 
 43 H       -7.4470    -8.5490     0.1050 H     1 <1>   0.0800 
 44 H       -6.7440    -3.7570     1.6290 H     1 <1>   0.0800 
 45 H       -5.6800    -5.0720     1.3030 H     1 <1>   0.0800 
 46 H       -8.5230    -5.0460     2.1560 H     1 <1>   0.0800 
 47 H       -7.2330    -6.0380     2.7530 H     1 <1>   0.0800 
 48 H      -11.8730    -8.9130     1.3820 H     1 <1>   0.1500 
 49 H      -10.2640    -9.7160    -2.4850 H     1 <1>   0.1500 
 50 H      -12.3020   -10.3610    -0.8020 H     1 <1>   0.1500 
@<TRIPOS>BOND
  1   1   2  2   
  2   2   3  am  
  3   2   4  am  
  4   3   5  1   
  5   3   6  1   
  6   4   7  1   
  7   4  29  1   
  8   5   8  ar  
  9   5   9  ar  
 10   6   7  1   
 11   6  30  1   
 12   6  31  1   
 13   7  32  1   
 14   7  33  1   
 15   8  10  ar  
 16   8  34  1   
 17   9  11  ar  
 18   9  35  1   
 19  10  12  1   
 20  10  13  ar  
 21  11  13  ar  
 22  11  36  1   
 23  12  14  2   
 24  12  15  am  
 25  13  37  1   
 26  15  16  1   
 27  15  17  1   
 28  16  18  1   
 29  16  38  1   
 30  16  39  1   
 31  17  19  1   
 32  17  40  1   
 33  17  41  1   
 34  18  20  1   
 35  18  42  1   
 36  18  43  1   
 37  19  21  1   
 38  19  44  1   
 39  19  45  1   
 40  20  21  1   
 41  20  22  am  
 42  21  46  1   
 43  21  47  1   
 44  22  23  2   
 45  22  24  1   
 46  24  25  1   
 47  24  26  2   
 48  25  27  1   
 49  26  28  1   
 50  26  48  1   
 51  27  28  2   
 52  27  49  1   
 53  28  50  1   
@<TRIPOS>SUBSTRUCTURE
  1 ****  15 GROUP 4 **** **** 0

# MOE 2024.06 (io_trps.svl 2023.06)
