@<TRIPOS>MOLECULE
NONAME
42 44 1 0 0 
SMALL
USER_CHARGES


@<TRIPOS>ATOM
  1 O       -0.7520     1.7890     0.1630 O.3   1 <1>  -0.5600 
  2 C        0.0880     1.7870    -0.9510 C.3   1 <1>   0.1200 
  3 C       -0.0340     1.4940     1.3240 C.3   1 <1>   0.1200 
  4 C        1.4830     2.0950    -0.4190 C.3   1 <1>   0.2890 
  5 C        1.4370     1.3950     0.9210 C.3   1 <1>  -0.1600 
  6 N        1.6130     3.5510    -0.1840 N.pl3 1 <1>  -0.8690 
  7 C        2.6470     4.3890    -0.3380 C.ar  1 <1>   0.4100 
  8 N        2.3720     5.6500    -0.1060 N.ar  1 <1>  -0.6200 
  9 C        3.9330     3.9580    -0.7130 C.ar  1 <1>  -0.1500 
 10 C        3.3510     6.5340    -0.2410 C.ar  1 <1>   0.7710 
 11 C        4.9190     4.8780    -0.8490 C.ar  1 <1>   0.2180 
 12 N        4.5920     6.1700    -0.6070 N.ar  1 <1>  -0.1790 
 13 N        3.0970     7.8440    -0.0060 N.pl3 1 <1>  -0.8380 
 14 C        6.3480     4.5360    -1.2520 C.3   1 <1>  -0.0170 
 15 C        4.0400     8.9960    -0.0340 C.3   1 <1>   0.2090 
 16 C        1.7320     8.3150     0.3690 C.3   1 <1>   0.2090 
 17 C        7.3570     4.8700    -0.1450 C.3   1 <1>  -0.2400 
 18 C        3.2790    10.1450     0.6130 C.3   1 <1>  -0.1600 
 19 C        1.8120     9.8350     0.3430 C.3   1 <1>  -0.1600 
 20 H       -0.2550     2.5160    -1.6650 H     1 <1>   0.0800 
 21 H        0.0540     0.8030    -1.3840 H     1 <1>   0.0800 
 22 H       -0.4040     0.5720     1.7390 H     1 <1>   0.0800 
 23 H       -0.1940     2.2990     2.0200 H     1 <1>   0.0800 
 24 H        2.2550     1.7250    -1.0700 H     1 <1>   0.0800 
 25 H        1.6950     0.3580     0.8010 H     1 <1>   0.0800 
 26 H        2.0930     1.8360     1.6500 H     1 <1>   0.0800 
 27 H        0.7300     3.9660     0.1360 H     1 <1>   0.4000 
 28 H        4.1060     2.9130    -0.8790 H     1 <1>   0.1500 
 29 H        5.2630     6.9220    -0.6850 H     1 <1>   0.4570 
 30 H        6.6080     5.0660    -2.1530 H     1 <1>   0.0800 
 31 H        6.4140     3.4830    -1.4710 H     1 <1>   0.0800 
 32 H        4.2700     9.2480    -1.0560 H     1 <1>   0.0800 
 33 H        4.9440     8.7880     0.5130 H     1 <1>   0.0800 
 34 H        1.4970     7.9690     1.3620 H     1 <1>   0.0800 
 35 H        0.9880     7.9510    -0.3210 H     1 <1>   0.0800 
 36 H        7.3870     5.9250     0.0590 H     1 <1>   0.0800 
 37 H        8.3440     4.5620    -0.4480 H     1 <1>   0.0800 
 38 H        7.1090     4.3460     0.7620 H     1 <1>   0.0800 
 39 H        3.5750    11.1000     0.2150 H     1 <1>   0.0800 
 40 H        3.4630    10.1380     1.6740 H     1 <1>   0.0800 
 41 H        1.1570    10.2800     1.0710 H     1 <1>   0.0800 
 42 H        1.5340    10.1840    -0.6360 H     1 <1>   0.0800 
@<TRIPOS>BOND
  1   1   2  1   
  2   1   3  1   
  3   2   4  1   
  4   2  20  1   
  5   2  21  1   
  6   3   5  1   
  7   3  22  1   
  8   3  23  1   
  9   4   5  1   
 10   4   6  1   
 11   4  24  1   
 12   5  25  1   
 13   5  26  1   
 14   6   7  1   
 15   6  27  1   
 16   7   8  ar  
 17   7   9  ar  
 18   8  10  ar  
 19   9  11  ar  
 20   9  28  1   
 21  10  12  ar  
 22  10  13  1   
 23  11  12  ar  
 24  11  14  1   
 25  12  29  1   
 26  13  15  1   
 27  13  16  1   
 28  14  17  1   
 29  14  30  1   
 30  14  31  1   
 31  15  18  1   
 32  15  32  1   
 33  15  33  1   
 34  16  19  1   
 35  16  34  1   
 36  16  35  1   
 37  17  36  1   
 38  17  37  1   
 39  17  38  1   
 40  18  19  1   
 41  18  39  1   
 42  18  40  1   
 43  19  41  1   
 44  19  42  1   
@<TRIPOS>SUBSTRUCTURE
  1 ****   8 GROUP 4 **** **** 0

# MOE 2024.06 (io_trps.svl 2023.06)
