@<TRIPOS>MOLECULE
NONAME
57 59 1 0 0 
SMALL
USER_CHARGES


@<TRIPOS>ATOM
  1 S       -0.8280    -0.4840     0.9520 S.3   1 <1>  -0.0800 
  2 C       -2.4820    -0.3380     0.3810 C.2   1 <1>  -0.1400 
  3 C       -0.2740     0.7710    -0.1400 C.2   1 <1>  -0.1400 
  4 C       -2.5570     0.6150    -0.5720 C.2   1 <1>  -0.1500 
  5 C       -3.4520    -1.2880     1.0630 C.3   1 <1>   0.5230 
  6 C       -1.3050     1.2410    -0.8660 C.2   1 <1>  -0.1500 
  7 C        1.2070     1.1070    -0.0890 C.3   1 <1>   0.0200 
  8 N       -4.7690    -1.3750     0.3610 N.4   1 <1>  -0.9590 
  9 C        1.5860     2.2100    -1.0800 C.3   1 <1>  -0.2400 
 10 C       -4.6210    -1.8820    -1.0460 C.3   1 <1>   0.3430 
 11 C       -5.5400    -0.1100     0.4700 C.3   1 <1>   0.3430 
 12 C       -5.9730    -2.1970    -1.7280 C.3   1 <1>   0.1400 
 13 C       -6.9910    -0.4410     0.8180 C.3   1 <1>  -0.1600 
 14 N       -7.0780    -2.4130    -0.7330 N.am  1 <1>  -0.6600 
 15 C       -7.7650    -1.1600    -0.2930 C.3   1 <1>   0.1400 
 16 C       -7.5030    -3.6240    -0.2490 C.2   1 <1>   0.5690 
 17 O       -8.0310    -3.7000     0.8360 O.2   1 <1>  -0.5700 
 18 C       -7.3260    -4.9300    -1.0190 C.3   1 <1>  -0.0190 
 19 C       -8.6420    -5.7280    -0.9300 C.3   1 <1>   0.3430 
 20 C       -6.1130    -5.7340    -0.4850 C.3   1 <1>  -0.1600 
 21 N       -8.7120    -6.4350     0.3820 N.4   1 <1>  -0.9590 
 22 C       -6.4330    -7.2320    -0.3450 C.3   1 <1>  -0.1600 
 23 C       -7.6690    -7.5020     0.5330 C.3   1 <1>   0.3430 
 24 C      -10.0810    -6.9560     0.6680 C.3   1 <1>   0.2630 
 25 H       -3.4320     0.9370    -1.1060 H     1 <1>   0.1500 
 26 H       -3.5990    -0.9660     2.0820 H     1 <1>   0.0800 
 27 H       -3.0010    -2.2670     1.0940 H     1 <1>   0.0800 
 28 H       -1.2370     2.0170    -1.6100 H     1 <1>   0.1500 
 29 H        1.7760     0.2210    -0.3090 H     1 <1>   0.0800 
 30 H        1.4600     1.4240     0.9080 H     1 <1>   0.0800 
 31 H       -5.3470    -2.0740     0.8510 H     1 <1>   0.4500 
 32 H        1.3610     1.9020    -2.0860 H     1 <1>   0.0800 
 33 H        2.6390     2.4180    -1.0130 H     1 <1>   0.0800 
 34 H        1.0440     3.1130    -0.8600 H     1 <1>   0.0800 
 35 H       -4.0380    -2.7870    -1.0300 H     1 <1>   0.0800 
 36 H       -4.0780    -1.1700    -1.6460 H     1 <1>   0.0800 
 37 H       -5.4910     0.4470    -0.4510 H     1 <1>   0.0800 
 38 H       -5.1280     0.5040     1.2560 H     1 <1>   0.0800 
 39 H       -5.8460    -3.0550    -2.3620 H     1 <1>   0.0800 
 40 H       -6.2350    -1.3760    -2.3740 H     1 <1>   0.0800 
 41 H       -7.5020     0.4840     1.0220 H     1 <1>   0.0800 
 42 H       -7.0350    -1.0210     1.7230 H     1 <1>   0.0800 
 43 H       -7.8930    -0.5020    -1.1370 H     1 <1>   0.0800 
 44 H       -8.7520    -1.3980     0.0710 H     1 <1>   0.0800 
 45 H       -7.1830    -4.7110    -2.0600 H     1 <1>   0.0800 
 46 H       -8.6850    -6.4510    -1.7290 H     1 <1>   0.0800 
 47 H       -9.4770    -5.0540    -1.0350 H     1 <1>   0.0800 
 48 H       -5.8290    -5.3650     0.4880 H     1 <1>   0.0800 
 49 H       -5.2680    -5.6030    -1.1390 H     1 <1>   0.0800 
 50 H       -8.5070    -5.6900     1.0780 H     1 <1>   0.4500 
 51 H       -5.5890    -7.7510     0.0750 H     1 <1>   0.0800 
 52 H       -6.6020    -7.6570    -1.3210 H     1 <1>   0.0800 
 53 H       -8.0800    -8.4620     0.2640 H     1 <1>   0.0800 
 54 H       -7.3680    -7.5520     1.5670 H     1 <1>   0.0800 
 55 H      -10.3550    -7.7090    -0.0520 H     1 <1>   0.0800 
 56 H      -10.8010    -6.1550     0.6230 H     1 <1>   0.0800 
 57 H      -10.1170    -7.3900     1.6540 H     1 <1>   0.0800 
@<TRIPOS>BOND
  1   1   2  1   
  2   1   3  1   
  3   2   4  2   
  4   2   5  1   
  5   3   6  2   
  6   3   7  1   
  7   4   6  1   
  8   4  25  1   
  9   5   8  1   
 10   5  26  1   
 11   5  27  1   
 12   6  28  1   
 13   7   9  1   
 14   7  29  1   
 15   7  30  1   
 16   8  10  1   
 17   8  11  1   
 18   8  31  1   
 19   9  32  1   
 20   9  33  1   
 21   9  34  1   
 22  10  12  1   
 23  10  35  1   
 24  10  36  1   
 25  11  13  1   
 26  11  37  1   
 27  11  38  1   
 28  12  14  1   
 29  12  39  1   
 30  12  40  1   
 31  13  15  1   
 32  13  41  1   
 33  13  42  1   
 34  14  15  1   
 35  14  16  am  
 36  15  43  1   
 37  15  44  1   
 38  16  17  2   
 39  16  18  1   
 40  18  19  1   
 41  18  20  1   
 42  18  45  1   
 43  19  21  1   
 44  19  46  1   
 45  19  47  1   
 46  20  22  1   
 47  20  48  1   
 48  20  49  1   
 49  21  23  1   
 50  21  24  1   
 51  21  50  1   
 52  22  23  1   
 53  22  51  1   
 54  22  52  1   
 55  23  53  1   
 56  23  54  1   
 57  24  55  1   
 58  24  56  1   
 59  24  57  1   
@<TRIPOS>SUBSTRUCTURE
  1 ****  10 GROUP 4 **** **** 0

# MOE 2024.06 (io_trps.svl 2023.06)
