@<TRIPOS>MOLECULE
NONAME
47 49 1 0 0 
SMALL
USER_CHARGES


@<TRIPOS>ATOM
  1 S       -0.8400     0.8940     1.1320 S.o2  1 <1>   1.4470 
  2 O       -1.4000     2.2070     1.3660 O.2   1 <1>  -0.6500 
  3 O       -0.9580    -0.1180     2.1630 O.2   1 <1>  -0.6500 
  4 N       -1.5460     0.2840    -0.2870 N.am  1 <1>  -0.8490 
  5 C        0.9050     1.0790     0.6630 C.ar  1 <1>  -0.0090 
  6 C       -3.0030     0.4100    -0.3070 C.3   1 <1>   0.1960 
  7 C       -1.2870    -1.1400    -0.5020 C.3   1 <1>   0.1960 
  8 C        1.2650     1.7500    -0.4980 C.ar  1 <1>  -0.1500 
  9 C        1.9270     0.5660     1.4520 C.ar  1 <1>  -0.1500 
 10 C       -3.5360    -0.8380     0.4000 C.3   1 <1>  -0.0800 
 11 C       -2.5110    -1.9170     0.0080 C.3   1 <1>  -0.0800 
 12 C        2.5920     1.9000    -0.8640 C.ar  1 <1>  -0.1500 
 13 C        3.2560     0.7110     1.0950 C.ar  1 <1>  -0.1500 
 14 C       -5.0270    -1.2010     0.1520 C.3   1 <1>   0.2800 
 15 C       -3.0480    -2.8860    -1.0590 C.3   1 <1>  -0.1600 
 16 C        3.6100     1.3790    -0.0720 C.ar  1 <1>  -0.1430 
 17 O       -5.3820    -0.8820    -1.1450 O.3   1 <1>  -0.6800 
 18 C       -5.2190    -2.7200     0.3190 C.3   1 <1>  -0.1600 
 19 C       -6.0050    -0.4570     1.0900 C.3   1 <1>  -0.1600 
 20 C       -4.3450    -3.5820    -0.6160 C.3   1 <1>  -0.1600 
 21 C        5.0860     1.5470    -0.4710 C.3   1 <1>   1.1630 
 22 C       -5.9920     1.0790     1.0130 C.3   1 <1>  -0.2400 
 23 F        5.8480     0.5430    -0.0520 F     1 <1>  -0.3400 
 24 F        5.6140     2.6530     0.0360 F     1 <1>  -0.3400 
 25 F        5.2590     1.6170    -1.7850 F     1 <1>  -0.3400 
 26 H       -3.3340     1.3240     0.1520 H     1 <1>   0.0800 
 27 H       -3.3220     0.4170    -1.3350 H     1 <1>   0.0800 
 28 H       -1.1650    -1.3020    -1.5590 H     1 <1>   0.0800 
 29 H       -0.3850    -1.4620    -0.0080 H     1 <1>   0.0800 
 30 H        0.4900     2.1620    -1.1240 H     1 <1>   0.1500 
 31 H        1.6770     0.0450     2.3630 H     1 <1>   0.1500 
 32 H       -3.4250    -0.6780     1.4570 H     1 <1>   0.0800 
 33 H       -2.2350    -2.4820     0.8820 H     1 <1>   0.0800 
 34 H        2.8240     2.4310    -1.7740 H     1 <1>   0.1500 
 35 H        4.0170     0.2980     1.7390 H     1 <1>   0.1500 
 36 H       -3.2530    -2.3280    -1.9580 H     1 <1>   0.0800 
 37 H       -2.3050    -3.6260    -1.3010 H     1 <1>   0.0800 
 38 H       -6.3010    -1.1630    -1.3040 H     1 <1>   0.4000 
 39 H       -4.9570    -2.9680     1.3330 H     1 <1>   0.0800 
 40 H       -6.2530    -2.9870     0.1930 H     1 <1>   0.0800 
 41 H       -7.0050    -0.7960     0.8820 H     1 <1>   0.0800 
 42 H       -5.7900    -0.7400     2.1050 H     1 <1>   0.0800 
 43 H       -4.1050    -4.5020    -0.1110 H     1 <1>   0.0800 
 44 H       -4.9090    -3.8360    -1.4970 H     1 <1>   0.0800 
 45 H       -6.0820     1.4160    -0.0050 H     1 <1>   0.0800 
 46 H       -5.0870     1.4740     1.4370 H     1 <1>   0.0800 
 47 H       -6.8170     1.4780     1.5760 H     1 <1>   0.0800 
@<TRIPOS>BOND
  1   1   2  2   
  2   1   3  2   
  3   1   4  am  
  4   1   5  1   
  5   4   6  1   
  6   4   7  1   
  7   5   8  ar  
  8   5   9  ar  
  9   6  10  1   
 10   6  26  1   
 11   6  27  1   
 12   7  11  1   
 13   7  28  1   
 14   7  29  1   
 15   8  12  ar  
 16   8  30  1   
 17   9  13  ar  
 18   9  31  1   
 19  10  11  1   
 20  10  14  1   
 21  10  32  1   
 22  11  15  1   
 23  11  33  1   
 24  12  16  ar  
 25  12  34  1   
 26  13  16  ar  
 27  13  35  1   
 28  14  17  1   
 29  14  18  1   
 30  14  19  1   
 31  15  20  1   
 32  15  36  1   
 33  15  37  1   
 34  16  21  1   
 35  17  38  1   
 36  18  20  1   
 37  18  39  1   
 38  18  40  1   
 39  19  22  1   
 40  19  41  1   
 41  19  42  1   
 42  20  43  1   
 43  20  44  1   
 44  21  23  1   
 45  21  24  1   
 46  21  25  1   
 47  22  45  1   
 48  22  46  1   
 49  22  47  1   
@<TRIPOS>SUBSTRUCTURE
  1 ****   4 GROUP 4 **** **** 0

# MOE 2024.06 (io_trps.svl 2023.06)
