@<TRIPOS>MOLECULE
NONAME
38 40 1 0 0 
SMALL
USER_CHARGES


@<TRIPOS>ATOM
  1 O       -0.6110     0.3010     1.5000 O.3   1 <1>  -0.0190 
  2 N        0.3340     1.1660     1.2880 N.2   1 <1>  -0.4100 
  3 C       -1.5090     0.5860     0.5910 C.2   1 <1>   0.2980 
  4 C       -0.0280     1.8900     0.3040 C.2   1 <1>   0.3350 
  5 N       -1.2190     1.5580    -0.1810 N.2   1 <1>  -0.5650 
  6 C       -2.7950    -0.2350     0.5440 C.3   1 <1>   0.2900 
  7 C        0.7690     3.0440    -0.3060 C.3   1 <1>   0.1010 
  8 N       -2.5840    -1.6770     0.2720 N.3   1 <1>  -0.8100 
  9 C        2.2860     2.8600    -0.1440 C.3   1 <1>  -0.2400 
 10 C        0.3330     4.3840     0.3050 C.3   1 <1>  -0.2400 
 11 C       -3.8720    -2.4190     0.3710 C.3   1 <1>   0.2910 
 12 C       -1.9330    -1.8950    -1.0320 C.3   1 <1>   0.0300 
 13 C       -3.7510    -3.9440     0.2590 C.2   1 <1>   0.3350 
 14 N       -3.5770    -4.7130     1.2950 N.2   1 <1>  -0.7070 
 15 N       -3.8470    -4.5450    -0.9320 N.2   1 <1>  -0.5650 
 16 N       -3.5260    -5.9130     0.7380 N.pl3 1 <1>   0.6010 
 17 C       -3.6960    -5.7890    -0.6090 C.2   1 <1>   0.3120 
 18 C       -3.3480    -7.1560     1.3050 C.2   1 <1>  -0.1810 
 19 N       -3.7050    -6.8630    -1.4690 N.2   1 <1>  -0.5760 
 20 C       -3.3530    -8.2270     0.4690 C.2   1 <1>  -0.1360 
 21 C       -3.5370    -8.0260    -0.9290 C.2   1 <1>   0.3760 
 22 H       -3.4380     0.1820    -0.2120 H     1 <1>   0.0800 
 23 H       -3.2840    -0.1250     1.4950 H     1 <1>   0.0800 
 24 H        0.5500     3.0650    -1.3590 H     1 <1>   0.0800 
 25 H        2.5560     2.8580     0.8980 H     1 <1>   0.0800 
 26 H        2.8170     3.6540    -0.6380 H     1 <1>   0.0800 
 27 H        2.5890     1.9230    -0.5760 H     1 <1>   0.0800 
 28 H        0.5310     4.3910     1.3630 H     1 <1>   0.0800 
 29 H       -0.7220     4.5290     0.1530 H     1 <1>   0.0800 
 30 H        0.8620     5.1980    -0.1560 H     1 <1>   0.0800 
 31 H       -4.5450    -2.0770    -0.3960 H     1 <1>   0.0800 
 32 H       -4.3210    -2.2070     1.3250 H     1 <1>   0.0800 
 33 H       -0.9990    -1.3620    -1.0800 H     1 <1>   0.0800 
 34 H       -2.5690    -1.5630    -1.8360 H     1 <1>   0.0800 
 35 H       -1.7160    -2.9400    -1.1680 H     1 <1>   0.0800 
 36 H       -3.2180    -7.1880     2.3710 H     1 <1>   0.1500 
 37 H       -3.2210    -9.2340     0.8220 H     1 <1>   0.1500 
 38 H       -3.5360    -8.8960    -1.5610 H     1 <1>   0.0600 
@<TRIPOS>BOND
  1   1   2  1   
  2   1   3  1   
  3   2   4  2   
  4   3   5  2   
  5   3   6  1   
  6   4   5  1   
  7   4   7  1   
  8   6   8  1   
  9   6  22  1   
 10   6  23  1   
 11   7   9  1   
 12   7  10  1   
 13   7  24  1   
 14   8  11  1   
 15   8  12  1   
 16   9  25  1   
 17   9  26  1   
 18   9  27  1   
 19  10  28  1   
 20  10  29  1   
 21  10  30  1   
 22  11  13  1   
 23  11  31  1   
 24  11  32  1   
 25  12  33  1   
 26  12  34  1   
 27  12  35  1   
 28  13  14  2   
 29  13  15  1   
 30  14  16  1   
 31  15  17  2   
 32  16  17  1   
 33  16  18  1   
 34  17  19  1   
 35  18  20  2   
 36  18  36  1   
 37  19  21  2   
 38  20  21  1   
 39  20  37  1   
 40  21  38  1   
@<TRIPOS>SUBSTRUCTURE
  1 ****   8 GROUP 4 **** **** 0

# MOE 2024.06 (io_trps.svl 2023.06)
