@<TRIPOS>MOLECULE
NONAME
53 54 1 0 0 
SMALL
USER_CHARGES


@<TRIPOS>ATOM
  1 O       -1.7490     0.7680    -2.2900 O.2   1 <1>  -0.5700 
  2 C       -2.2740     1.2000    -1.2800 C.2   1 <1>   0.5440 
  3 N       -3.2920     0.4770    -0.6990 N.am  1 <1>  -0.6600 
  4 C       -1.8180     2.4650    -0.7300 C.ar  1 <1>   0.0860 
  5 C       -3.5590    -0.9420    -1.1190 C.3   1 <1>   0.1400 
  6 C       -4.2390     1.0610     0.3070 C.3   1 <1>   0.1400 
  7 C       -1.6620     3.5840    -1.5420 C.ar  1 <1>  -0.1500 
  8 C       -1.5090     2.6170     0.6200 C.ar  1 <1>  -0.1500 
  9 C       -4.3160    -1.6880    -0.0130 C.3   1 <1>   0.2000 
 10 C       -5.6410     0.4860     0.0950 C.3   1 <1>  -0.1600 
 11 C       -1.2380     4.7960    -1.0290 C.ar  1 <1>  -0.1500 
 12 C       -1.0860     3.8280     1.1370 C.ar  1 <1>  -0.1500 
 13 O       -4.4570    -3.0350    -0.3040 O.3   1 <1>  -0.6800 
 14 C       -5.6900    -1.0570     0.3400 C.3   1 <1>  -0.1060 
 15 C       -0.9430     4.9480     0.3220 C.ar  1 <1>  -0.1430 
 16 C       -5.8430    -1.3920     1.8340 C.2   1 <1>   0.9060 
 17 C       -6.9210    -1.6430    -0.4290 C.3   1 <1>  -0.1600 
 18 C       -0.4750     6.3220     0.8500 C.3   1 <1>   0.1440 
 19 O       -5.8450    -0.4910     2.6820 O.co2 1 <1>  -0.9000 
 20 O       -5.8970    -2.5880     2.1570 O.co2 1 <1>  -0.9000 
 21 C       -6.8520    -1.6480    -1.9700 C.3   1 <1>  -0.1600 
 22 C       -0.1880     6.3250     2.3610 C.3   1 <1>  -0.2400 
 23 C        0.8190     6.7340     0.1320 C.3   1 <1>  -0.2400 
 24 C       -1.5630     7.3720     0.5830 C.3   1 <1>  -0.2400 
 25 C       -8.1400    -2.2190    -2.5690 C.3   1 <1>  -0.2400 
 26 H       -4.1370    -0.9350    -2.0240 H     1 <1>   0.0800 
 27 H       -2.6240    -1.4400    -1.3060 H     1 <1>   0.0800 
 28 H       -3.9030     0.8270     1.3040 H     1 <1>   0.0800 
 29 H       -4.2780     2.1320     0.2030 H     1 <1>   0.0800 
 30 H       -1.8780     3.4910    -2.5920 H     1 <1>   0.1500 
 31 H       -1.6040     1.7650     1.2710 H     1 <1>   0.1500 
 32 H       -3.6810    -1.6490     0.8580 H     1 <1>   0.0800 
 33 H       -6.3330     0.9800     0.7540 H     1 <1>   0.0800 
 34 H       -5.9370     0.7390    -0.9030 H     1 <1>   0.0800 
 35 H       -1.1380     5.6270    -1.7020 H     1 <1>   0.1500 
 36 H       -0.8730     3.8680     2.1880 H     1 <1>   0.1500 
 37 H       -4.9740    -3.4090     0.4540 H     1 <1>   0.4000 
 38 H       -7.0730    -2.6600    -0.1080 H     1 <1>   0.0800 
 39 H       -7.7950    -1.0960    -0.1190 H     1 <1>   0.0800 
 40 H       -6.7040    -0.6570    -2.3550 H     1 <1>   0.0800 
 41 H       -6.0260    -2.2580    -2.2920 H     1 <1>   0.0800 
 42 H        0.1350     7.2990     2.6830 H     1 <1>   0.0800 
 43 H        0.5900     5.6210     2.5990 H     1 <1>   0.0800 
 44 H       -1.0730     6.0690     2.9140 H     1 <1>   0.0800 
 45 H        1.1820     7.6720     0.5110 H     1 <1>   0.0800 
 46 H        0.6600     6.8410    -0.9250 H     1 <1>   0.0800 
 47 H        1.5770     5.9860     0.2840 H     1 <1>   0.0800 
 48 H       -1.2720     8.3300     0.9760 H     1 <1>   0.0800 
 49 H       -2.4840     7.0740     1.0530 H     1 <1>   0.0800 
 50 H       -1.7440     7.4850    -0.4700 H     1 <1>   0.0800 
 51 H       -8.9860    -1.6200    -2.2790 H     1 <1>   0.0800 
 52 H       -8.2950    -3.2270    -2.2250 H     1 <1>   0.0800 
 53 H       -8.0750    -2.2290    -3.6420 H     1 <1>   0.0800 
@<TRIPOS>BOND
  1   1   2  2   
  2   2   3  am  
  3   2   4  1   
  4   3   5  1   
  5   3   6  1   
  6   4   7  ar  
  7   4   8  ar  
  8   5   9  1   
  9   5  26  1   
 10   5  27  1   
 11   6  10  1   
 12   6  28  1   
 13   6  29  1   
 14   7  11  ar  
 15   7  30  1   
 16   8  12  ar  
 17   8  31  1   
 18   9  13  1   
 19   9  14  1   
 20   9  32  1   
 21  10  14  1   
 22  10  33  1   
 23  10  34  1   
 24  11  15  ar  
 25  11  35  1   
 26  12  15  ar  
 27  12  36  1   
 28  13  37  1   
 29  14  16  1   
 30  14  17  1   
 31  15  18  1   
 32  16  19  ar  
 33  16  20  ar  
 34  17  21  1   
 35  17  38  1   
 36  17  39  1   
 37  18  22  1   
 38  18  23  1   
 39  18  24  1   
 40  21  25  1   
 41  21  40  1   
 42  21  41  1   
 43  22  42  1   
 44  22  43  1   
 45  22  44  1   
 46  23  45  1   
 47  23  46  1   
 48  23  47  1   
 49  24  48  1   
 50  24  49  1   
 51  24  50  1   
 52  25  51  1   
 53  25  52  1   
 54  25  53  1   
@<TRIPOS>SUBSTRUCTURE
  1 ****   6 GROUP 4 **** **** 0

# MOE 2024.06 (io_trps.svl 2023.06)
