@<TRIPOS>MOLECULE
NONAME
48 50 1 0 0 
SMALL
USER_CHARGES


@<TRIPOS>ATOM
  1 O        3.4820    -1.8740    -1.3350 O.2   1 <1>  -0.5700 
  2 C        2.7050    -1.5690    -0.4630 C.2   1 <1>   0.5690 
  3 N        2.6190    -0.2710    -0.0610 N.am  1 <1>  -0.6600 
  4 C        1.8990    -2.6400     0.2400 C.3   1 <1>  -0.0990 
  5 C        3.2790     0.0840     1.2450 C.3   1 <1>   0.2200 
  6 C        2.5110     0.7900    -1.1160 C.3   1 <1>   0.1400 
  7 C        1.0010    -3.4000    -0.7420 C.3   1 <1>   0.0210 
  8 C        2.7900     1.4200     1.8290 C.3   1 <1>   0.1200 
  9 C        4.8260     0.0780     1.0990 C.3   1 <1>   0.3430 
 10 C        3.5460     1.9270    -1.0200 C.3   1 <1>  -0.0800 
 11 C        0.1990    -4.4550    -0.0020 C.2   1 <1>  -0.1810 
 12 O        3.5500     2.4790     1.3320 O.3   1 <1>  -0.5600 
 13 N        5.2850     0.1660    -0.3340 N.4   1 <1>  -0.9590 
 14 C        3.1920     2.9450     0.0760 C.3   1 <1>   0.1200 
 15 C        5.0280     1.4980    -0.9680 C.3   1 <1>   0.3430 
 16 C        0.4710    -5.7570     0.1880 C.2   1 <1>  -0.0400 
 17 C       -1.0190    -4.2860     0.6590 C.2   1 <1>   0.1080 
 18 C        6.7100    -0.2420    -0.4830 C.3   1 <1>   0.2630 
 19 O       -0.4990    -6.2720     0.8950 O.3   1 <1>  -0.0190 
 20 C        1.6210    -6.6430    -0.2440 C.3   1 <1>  -0.0600 
 21 N       -1.4080    -5.3890     1.1880 N.2   1 <1>  -0.4100 
 22 C       -1.8090    -2.9980     0.7560 C.3   1 <1>  -0.0590 
 23 H        2.5750    -3.3310     0.7090 H     1 <1>   0.0800 
 24 H        1.2890    -2.1930     1.0040 H     1 <1>   0.0800 
 25 H        3.0140    -0.6710     1.9650 H     1 <1>   0.0800 
 26 H        2.5990     0.3300    -2.0870 H     1 <1>   0.0800 
 27 H        1.5200     1.2110    -1.0670 H     1 <1>   0.0800 
 28 H        1.6080    -3.8740    -1.4940 H     1 <1>   0.0800 
 29 H        0.3340    -2.7200    -1.2420 H     1 <1>   0.0800 
 30 H        2.9390     1.4150     2.8950 H     1 <1>   0.0800 
 31 H        1.7430     1.5870     1.6370 H     1 <1>   0.0800 
 32 H        5.1900    -0.8420     1.5250 H     1 <1>   0.0800 
 33 H        5.2470     0.8860     1.6750 H     1 <1>   0.0800 
 34 H        3.4400     2.4830    -1.9350 H     1 <1>   0.0800 
 35 H        4.6910    -0.5230    -0.8490 H     1 <1>   0.4500 
 36 H        2.1410     3.1860     0.0760 H     1 <1>   0.0800 
 37 H        3.7400     3.8590    -0.0840 H     1 <1>   0.0800 
 38 H        5.5910     2.2570    -0.4500 H     1 <1>   0.0800 
 39 H        5.3940     1.4600    -1.9810 H     1 <1>   0.0800 
 40 H        7.3540     0.4410     0.0480 H     1 <1>   0.0800 
 41 H        6.9900    -0.2450    -1.5240 H     1 <1>   0.0800 
 42 H        6.8570    -1.2350    -0.0900 H     1 <1>   0.0800 
 43 H        2.3490    -6.0790    -0.7970 H     1 <1>   0.0800 
 44 H        1.2500    -7.4370    -0.8660 H     1 <1>   0.0800 
 45 H        2.0930    -7.0710     0.6210 H     1 <1>   0.0800 
 46 H       -1.2360    -2.2510     1.2710 H     1 <1>   0.0800 
 47 H       -2.7210    -3.1700     1.2990 H     1 <1>   0.0800 
 48 H       -2.0560    -2.6470    -0.2290 H     1 <1>   0.0800 
@<TRIPOS>BOND
  1   1   2  2   
  2   2   3  am  
  3   2   4  1   
  4   3   5  1   
  5   3   6  1   
  6   4   7  1   
  7   4  23  1   
  8   4  24  1   
  9   5   8  1   
 10   5   9  1   
 11   5  25  1   
 12   6  10  1   
 13   6  26  1   
 14   6  27  1   
 15   7  11  1   
 16   7  28  1   
 17   7  29  1   
 18   8  12  1   
 19   8  30  1   
 20   8  31  1   
 21   9  13  1   
 22   9  32  1   
 23   9  33  1   
 24  10  14  1   
 25  10  15  1   
 26  10  34  1   
 27  11  16  2   
 28  11  17  1   
 29  12  14  1   
 30  13  15  1   
 31  13  18  1   
 32  13  35  1   
 33  14  36  1   
 34  14  37  1   
 35  15  38  1   
 36  15  39  1   
 37  16  19  1   
 38  16  20  1   
 39  17  21  2   
 40  17  22  1   
 41  18  40  1   
 42  18  41  1   
 43  18  42  1   
 44  19  21  1   
 45  20  43  1   
 46  20  44  1   
 47  20  45  1   
 48  22  46  1   
 49  22  47  1   
 50  22  48  1   
@<TRIPOS>SUBSTRUCTURE
  1 ****   2 GROUP 4 **** **** 0

# MOE 2024.06 (io_trps.svl 2023.06)
