@<TRIPOS>MOLECULE
NONAME
50 52 1 0 0 
SMALL
USER_CHARGES


@<TRIPOS>ATOM
  1 S        1.6170     0.6880     0.0560 S.o2  1 <1>   1.3330 
  2 O        1.3750     1.0050     1.4450 O.2   1 <1>  -0.6500 
  3 O        0.6010    -0.0120    -0.6980 O.2   1 <1>  -0.6500 
  4 N        3.0380    -0.2370    -0.0200 N.am  1 <1>  -0.8490 
  5 C        2.0130     2.1960    -0.8300 C.3   1 <1>  -0.0550 
  6 C        2.7780    -1.6510     0.2620 C.3   1 <1>   0.1160 
  7 C        4.0940     0.2560     0.8730 C.3   1 <1>   0.1160 
  8 C        2.2510     2.0090    -2.3440 C.3   1 <1>  -0.0800 
  9 C        2.3440     3.3020    -3.1420 C.3   1 <1>   0.2200 
 10 C        3.5590     1.2940    -2.7040 C.3   1 <1>   0.1200 
 11 N        3.1690     4.2930    -2.4160 N.am  1 <1>  -0.7300 
 12 C        3.1180     2.8190    -4.3600 C.3   1 <1>   0.1200 
 13 O        4.0540     1.9150    -3.8570 O.3   1 <1>  -0.5600 
 14 C        2.6960     5.3150    -1.6570 C.2   1 <1>   0.5690 
 15 O        1.5210     5.5820    -1.6170 O.2   1 <1>  -0.5700 
 16 C        3.6560     6.1130    -0.7990 C.3   1 <1>   0.1570 
 17 N        4.4950     5.1840    -0.0170 N.pl3 1 <1>   0.0480 
 18 C        5.6390     4.5950    -0.4590 C.ar  1 <1>  -0.1520 
 19 C        4.1680     4.5240     1.1310 C.2   1 <1>   0.0060 
 20 C        5.9400     3.6240     0.4770 C.ar  1 <1>   0.2270 
 21 C        6.4420     4.7790    -1.5890 C.ar  1 <1>  -0.1500 
 22 N        5.0020     3.6030     1.4600 N.2   1 <1>  -0.5650 
 23 C        2.9190     4.8250     1.9380 C.3   1 <1>  -0.0600 
 24 C        7.0630     2.8160     0.3110 C.ar  1 <1>  -0.1500 
 25 C        7.5450     3.9700    -1.7500 C.ar  1 <1>  -0.1500 
 26 C        7.8580     2.9900    -0.8010 C.ar  1 <1>  -0.1500 
 27 H        1.1930     2.8770    -0.7060 H     1 <1>   0.0800 
 28 H        2.8740     2.6490    -0.3820 H     1 <1>   0.0800 
 29 H        3.6890    -2.2200     0.1870 H     1 <1>   0.0800 
 30 H        2.0760    -2.0460    -0.4530 H     1 <1>   0.0800 
 31 H        2.3670    -1.7650     1.2510 H     1 <1>   0.0800 
 32 H        4.9830    -0.3420     0.7660 H     1 <1>   0.0800 
 33 H        3.7720     0.2250     1.9010 H     1 <1>   0.0800 
 34 H        4.3440     1.2700     0.6230 H     1 <1>   0.0800 
 35 H        1.4390     1.4290    -2.7490 H     1 <1>   0.0800 
 36 H        1.3810     3.7130    -3.3960 H     1 <1>   0.0800 
 37 H        3.4020     0.2480    -2.9060 H     1 <1>   0.0800 
 38 H        4.3030     1.4060    -1.9330 H     1 <1>   0.0800 
 39 H        4.1590     4.0190    -2.3560 H     1 <1>   0.3700 
 40 H        3.6220     3.6150    -4.8790 H     1 <1>   0.0800 
 41 H        2.4740     2.2860    -5.0370 H     1 <1>   0.0800 
 42 H        3.1040     6.7460    -0.1310 H     1 <1>   0.0800 
 43 H        4.2790     6.7230    -1.4230 H     1 <1>   0.0800 
 44 H        6.2070     5.5360    -2.3160 H     1 <1>   0.1500 
 45 H        2.8490     4.1430     2.7670 H     1 <1>   0.0800 
 46 H        2.0400     4.7100     1.3300 H     1 <1>   0.0800 
 47 H        2.9590     5.8270     2.3230 H     1 <1>   0.0800 
 48 H        7.2810     2.0750     1.0560 H     1 <1>   0.1500 
 49 H        8.1810     4.0850    -2.6110 H     1 <1>   0.1500 
 50 H        8.7280     2.3730    -0.9490 H     1 <1>   0.1500 
@<TRIPOS>BOND
  1   1   2  2   
  2   1   3  2   
  3   1   4  am  
  4   1   5  1   
  5   4   6  1   
  6   4   7  1   
  7   5   8  1   
  8   5  27  1   
  9   5  28  1   
 10   6  29  1   
 11   6  30  1   
 12   6  31  1   
 13   7  32  1   
 14   7  33  1   
 15   7  34  1   
 16   8   9  1   
 17   8  10  1   
 18   8  35  1   
 19   9  11  1   
 20   9  12  1   
 21   9  36  1   
 22  10  13  1   
 23  10  37  1   
 24  10  38  1   
 25  11  14  am  
 26  11  39  1   
 27  12  13  1   
 28  12  40  1   
 29  12  41  1   
 30  14  15  2   
 31  14  16  1   
 32  16  17  1   
 33  16  42  1   
 34  16  43  1   
 35  17  18  1   
 36  17  19  1   
 37  18  20  ar  
 38  18  21  ar  
 39  19  22  2   
 40  19  23  1   
 41  20  22  1   
 42  20  24  ar  
 43  21  25  ar  
 44  21  44  1   
 45  23  45  1   
 46  23  46  1   
 47  23  47  1   
 48  24  26  ar  
 49  24  48  1   
 50  25  26  ar  
 51  25  49  1   
 52  26  50  1   
@<TRIPOS>SUBSTRUCTURE
  1 ****   5 GROUP 4 **** **** 0

# MOE 2024.06 (io_trps.svl 2023.06)
