@<TRIPOS>MOLECULE
NONAME
36 37 1 0 0 
SMALL
USER_CHARGES


@<TRIPOS>ATOM
  1 O       -0.4430     0.2550     1.1220 O.2   1 <1>  -0.5700 
  2 C       -1.4290     0.6960     0.5850 C.2   1 <1>   0.5690 
  3 N       -2.4920    -0.0160     0.1090 N.am  1 <1>  -0.4770 
  4 C       -1.6080     2.1710     0.3520 C.3   1 <1>  -0.0990 
  5 C       -2.6290    -1.4170     0.0450 C.ar  1 <1>   0.1170 
  6 C       -3.4850     0.8740    -0.5250 C.3   1 <1>   0.1400 
  7 C       -3.0580     2.2930    -0.1320 C.3   1 <1>  -0.1600 
  8 C       -1.5520    -2.2230    -0.3090 C.ar  1 <1>  -0.1500 
  9 C       -3.8470    -2.0310     0.3220 C.ar  1 <1>  -0.1500 
 10 C       -1.6900    -3.5960    -0.3960 C.ar  1 <1>  -0.1500 
 11 C       -3.9920    -3.4050     0.2360 C.ar  1 <1>  -0.1500 
 12 C       -2.9080    -4.1980    -0.1280 C.ar  1 <1>   0.0830 
 13 O       -2.9600    -5.5520    -0.2390 O.3   1 <1>  -0.3630 
 14 C       -4.1400    -6.2590     0.0640 C.3   1 <1>   0.1200 
 15 C       -3.8670    -7.7500    -0.1300 C.3   1 <1>  -0.1600 
 16 C       -5.1120    -8.5890     0.1840 C.3   1 <1>  -0.1600 
 17 C       -4.8340   -10.0820    -0.0120 C.3   1 <1>  -0.2400 
 18 H       -0.9160     2.4890    -0.4050 H     1 <1>   0.0800 
 19 H       -1.4390     2.7210     1.2600 H     1 <1>   0.0800 
 20 H       -4.4790     0.6600    -0.1720 H     1 <1>   0.0800 
 21 H       -3.4420     0.7410    -1.5920 H     1 <1>   0.0800 
 22 H       -3.1540     2.9770    -0.9570 H     1 <1>   0.0800 
 23 H       -3.6820     2.6340     0.6750 H     1 <1>   0.0800 
 24 H       -0.5980    -1.7710    -0.5150 H     1 <1>   0.1500 
 25 H       -4.6880    -1.4340     0.6160 H     1 <1>   0.1500 
 26 H       -0.8510    -4.2100    -0.6700 H     1 <1>   0.1500 
 27 H       -4.9490    -3.8360     0.4580 H     1 <1>   0.1500 
 28 H       -4.9160    -5.9250    -0.6010 H     1 <1>   0.0800 
 29 H       -4.4060    -6.0510     1.0860 H     1 <1>   0.0800 
 30 H       -3.0620    -8.0460     0.5200 H     1 <1>   0.0800 
 31 H       -3.5670    -7.9210    -1.1500 H     1 <1>   0.0800 
 32 H       -5.9210    -8.2930    -0.4630 H     1 <1>   0.0800 
 33 H       -5.4180    -8.4170     1.2020 H     1 <1>   0.0800 
 34 H       -4.5470   -10.2800    -1.0300 H     1 <1>   0.0800 
 35 H       -5.7160   -10.6540     0.2120 H     1 <1>   0.0800 
 36 H       -4.0420   -10.4050     0.6400 H     1 <1>   0.0800 
@<TRIPOS>BOND
  1   1   2  2   
  2   2   3  am  
  3   2   4  1   
  4   3   5  1   
  5   3   6  1   
  6   4   7  1   
  7   4  18  1   
  8   4  19  1   
  9   5   8  ar  
 10   5   9  ar  
 11   6   7  1   
 12   6  20  1   
 13   6  21  1   
 14   7  22  1   
 15   7  23  1   
 16   8  10  ar  
 17   8  24  1   
 18   9  11  ar  
 19   9  25  1   
 20  10  12  ar  
 21  10  26  1   
 22  11  12  ar  
 23  11  27  1   
 24  12  13  1   
 25  13  14  1   
 26  14  15  1   
 27  14  28  1   
 28  14  29  1   
 29  15  16  1   
 30  15  30  1   
 31  15  31  1   
 32  16  17  1   
 33  16  32  1   
 34  16  33  1   
 35  17  34  1   
 36  17  35  1   
 37  17  36  1   
@<TRIPOS>SUBSTRUCTURE
  1 ****  11 GROUP 4 **** **** 0

# MOE 2024.06 (io_trps.svl 2023.06)
