@<TRIPOS>MOLECULE
NONAME
64 66 1 0 0 
SMALL
USER_CHARGES


@<TRIPOS>ATOM
  1 O       -1.1030     0.9000    -1.9550 O.2   1 <1>  -0.5700 
  2 C       -1.2530     1.4030    -0.8550 C.2   1 <1>   0.5440 
  3 N       -1.9740     0.6990     0.0930 N.am  1 <1>  -0.6600 
  4 C       -0.6950     2.7120    -0.5870 C.ar  1 <1>   0.0860 
  5 C       -2.2840    -0.7410    -0.1330 C.3   1 <1>   0.1400 
  6 C       -2.5840     1.3470     1.2900 C.3   1 <1>   0.1400 
  7 C       -0.9080     3.7770    -1.4630 C.ar  1 <1>  -0.1500 
  8 C        0.0750     2.9650     0.5500 C.ar  1 <1>  -0.1500 
  9 C       -3.5280    -0.9140    -1.0190 C.3   1 <1>   0.1400 
 10 C       -4.0600     0.9780     1.4970 C.3   1 <1>  -0.1600 
 11 C       -0.4020     5.0350    -1.2040 C.ar  1 <1>  -0.1500 
 12 C        0.5790     4.2240     0.8110 C.ar  1 <1>  -0.1500 
 13 N       -4.8040    -0.5540    -0.3100 N.am  1 <1>  -0.6600 
 14 C       -4.8610     0.8510     0.1970 C.3   1 <1>   0.1400 
 15 C        0.3460     5.2840    -0.0570 C.ar  1 <1>   0.1000 
 16 C       -5.8680    -1.3950    -0.1130 C.2   1 <1>   0.5690 
 17 N        0.8570     6.5430     0.2270 N.pl3 1 <1>  -0.8380 
 18 O       -6.7760    -1.1060     0.6360 O.2   1 <1>  -0.5700 
 19 C       -5.9540    -2.7560    -0.8100 C.3   1 <1>  -0.0190 
 20 C        2.3250     6.7200     0.3770 C.3   1 <1>   0.1290 
 21 C        0.0850     7.7740    -0.0840 C.3   1 <1>   0.1290 
 22 C       -7.4140    -3.1630    -0.9470 C.3   1 <1>   0.3430 
 23 C       -5.3660    -3.8750     0.0630 C.3   1 <1>  -0.1600 
 24 N       -7.7390    -3.7230     0.3880 N.4   1 <1>  -0.9590 
 25 C       -6.5450    -4.4940     0.8180 C.3   1 <1>   0.3430 
 26 C       -9.0250    -4.4810     0.4760 C.3   1 <1>   0.3430 
 27 C      -10.2460    -3.5790     0.2650 C.3   1 <1>   0.1200 
 28 O      -11.3720    -4.3860     0.3320 O.3   1 <1>  -0.5600 
 29 C      -12.5780    -3.7010     0.1960 C.3   1 <1>   0.0400 
 30 H       -2.4170    -1.2480     0.8060 H     1 <1>   0.0800 
 31 H       -1.4430    -1.1960    -0.6310 H     1 <1>   0.0800 
 32 H       -2.5280     2.4170     1.1820 H     1 <1>   0.0800 
 33 H       -2.0190     1.0780     2.1660 H     1 <1>   0.0800 
 34 H       -1.4780     3.6010    -2.3580 H     1 <1>   0.1500 
 35 H        0.2770     2.1590     1.2330 H     1 <1>   0.1500 
 36 H       -3.5500    -1.9370    -1.3390 H     1 <1>   0.0800 
 37 H       -3.4220    -0.3040    -1.9000 H     1 <1>   0.0800 
 38 H       -4.5020     1.7550     2.0930 H     1 <1>   0.0800 
 39 H       -4.1410     0.0700     2.0680 H     1 <1>   0.0800 
 40 H       -0.5770     5.8340    -1.8990 H     1 <1>   0.1500 
 41 H        1.1590     4.4040     1.6970 H     1 <1>   0.1500 
 42 H       -4.4840     1.5300    -0.5500 H     1 <1>   0.0800 
 43 H       -5.8850     1.1250     0.3890 H     1 <1>   0.0800 
 44 H       -5.5050    -2.7070    -1.7840 H     1 <1>   0.0800 
 45 H        2.8210     5.7660     0.3560 H     1 <1>   0.0800 
 46 H        2.5370     7.2040     1.3140 H     1 <1>   0.0800 
 47 H        2.7060     7.3230    -0.4290 H     1 <1>   0.0800 
 48 H       -0.9680     7.5520    -0.1090 H     1 <1>   0.0800 
 49 H        0.3870     8.1650    -1.0400 H     1 <1>   0.0800 
 50 H        0.2620     8.5150     0.6760 H     1 <1>   0.0800 
 51 H       -7.5170    -3.9240    -1.7040 H     1 <1>   0.0800 
 52 H       -8.0380    -2.3170    -1.1880 H     1 <1>   0.0800 
 53 H       -4.6250    -3.5020     0.7490 H     1 <1>   0.0800 
 54 H       -4.9080    -4.6310    -0.5510 H     1 <1>   0.0800 
 55 H       -7.7840    -2.8870     1.0060 H     1 <1>   0.4500 
 56 H       -6.4080    -4.4200     1.8850 H     1 <1>   0.0800 
 57 H       -6.6500    -5.5320     0.5430 H     1 <1>   0.0800 
 58 H       -9.1090    -4.9330     1.4500 H     1 <1>   0.0800 
 59 H       -9.0380    -5.2630    -0.2650 H     1 <1>   0.0800 
 60 H      -10.2240    -3.1130    -0.7050 H     1 <1>   0.0800 
 61 H      -10.3090    -2.8360     1.0420 H     1 <1>   0.0800 
 62 H      -13.3800    -4.4170     0.2620 H     1 <1>   0.0800 
 63 H      -12.6090    -3.2140    -0.7630 H     1 <1>   0.0800 
 64 H      -12.6740    -2.9810     0.9910 H     1 <1>   0.0800 
@<TRIPOS>BOND
  1   1   2  2   
  2   2   3  am  
  3   2   4  1   
  4   3   5  1   
  5   3   6  1   
  6   4   7  ar  
  7   4   8  ar  
  8   5   9  1   
  9   5  30  1   
 10   5  31  1   
 11   6  10  1   
 12   6  32  1   
 13   6  33  1   
 14   7  11  ar  
 15   7  34  1   
 16   8  12  ar  
 17   8  35  1   
 18   9  13  1   
 19   9  36  1   
 20   9  37  1   
 21  10  14  1   
 22  10  38  1   
 23  10  39  1   
 24  11  15  ar  
 25  11  40  1   
 26  12  15  ar  
 27  12  41  1   
 28  13  14  1   
 29  13  16  am  
 30  14  42  1   
 31  14  43  1   
 32  15  17  1   
 33  16  18  2   
 34  16  19  1   
 35  17  20  1   
 36  17  21  1   
 37  19  22  1   
 38  19  23  1   
 39  19  44  1   
 40  20  45  1   
 41  20  46  1   
 42  20  47  1   
 43  21  48  1   
 44  21  49  1   
 45  21  50  1   
 46  22  24  1   
 47  22  51  1   
 48  22  52  1   
 49  23  25  1   
 50  23  53  1   
 51  23  54  1   
 52  24  25  1   
 53  24  26  1   
 54  24  55  1   
 55  25  56  1   
 56  25  57  1   
 57  26  27  1   
 58  26  58  1   
 59  26  59  1   
 60  27  28  1   
 61  27  60  1   
 62  27  61  1   
 63  28  29  1   
 64  29  62  1   
 65  29  63  1   
 66  29  64  1   
@<TRIPOS>SUBSTRUCTURE
  1 ****  14 GROUP 4 **** **** 0

# MOE 2024.06 (io_trps.svl 2023.06)
