@<TRIPOS>MOLECULE
NONAME
49 51 1 0 0 
SMALL
USER_CHARGES


@<TRIPOS>ATOM
  1 O       -0.1870     0.2720     0.0730 O.2   1 <1>  -0.5700 
  2 C        0.7450    -0.4640     0.2820 C.2   1 <1>   0.5690 
  3 N        1.8500    -0.0650     0.9610 N.am  1 <1>  -0.7300 
  4 C        0.6870    -1.8880    -0.2170 C.3   1 <1>  -0.0990 
  5 C        2.0680     1.2890     1.5050 C.3   1 <1>   0.1400 
  6 C        0.1480    -2.8280     0.8680 C.3   1 <1>  -0.0160 
  7 C        3.3520     1.8580     0.9080 C.3   1 <1>  -0.1600 
  8 C        0.2520    -4.2800     0.4230 C.ar  1 <1>   0.1670 
  9 C        3.5950     3.2890     1.4010 C.3   1 <1>   0.0960 
 10 N        1.3320    -4.9110     0.7670 N.ar  1 <1>  -0.6200 
 11 C       -0.8000    -4.8710    -0.3390 C.ar  1 <1>   0.3930 
 12 N        4.8790     3.8000     0.8890 N.pl3 1 <1>   0.3140 
 13 C        1.3830    -6.2030     0.3500 C.ar  1 <1>   0.3100 
 14 O       -1.8640    -4.0990    -0.6460 O.3   1 <1>  -0.3620 
 15 N       -0.7810    -6.1070    -0.7550 N.ar  1 <1>  -0.6200 
 16 N        6.0380     3.5710     1.5330 N.2   1 <1>  -0.7070 
 17 C        5.0760     4.5180    -0.2340 C.2   1 <1>  -0.3020 
 18 C        0.3350    -6.7910    -0.4020 C.ar  1 <1>   0.3100 
 19 C        2.5040    -6.9820     0.6720 C.ar  1 <1>  -0.1500 
 20 C       -2.9480    -4.5970    -1.4060 C.3   1 <1>   0.0400 
 21 C        6.9420     4.1510     0.8040 C.2   1 <1>   0.1390 
 22 C        6.3990     4.7640    -0.3200 C.2   1 <1>  -0.1810 
 23 C        0.4630    -8.1330    -0.7940 C.ar  1 <1>  -0.1500 
 24 C        2.6020    -8.2920     0.2750 C.ar  1 <1>  -0.1500 
 25 C        7.1520     5.5290    -1.3880 C.3   1 <1>  -0.0590 
 26 C        1.5700    -8.8730    -0.4660 C.ar  1 <1>  -0.1500 
 27 H        2.6070    -0.7330     1.1180 H     1 <1>   0.3700 
 28 H        1.6720    -2.2000    -0.5130 H     1 <1>   0.0800 
 29 H        0.0500    -1.9300    -1.0810 H     1 <1>   0.0800 
 30 H        2.1440     1.2320     2.5780 H     1 <1>   0.0800 
 31 H        1.2310     1.9220     1.2560 H     1 <1>   0.0800 
 32 H       -0.8720    -2.5740     1.0990 H     1 <1>   0.0800 
 33 H        0.7200    -2.7000     1.7710 H     1 <1>   0.0800 
 34 H        3.2730     1.8630    -0.1650 H     1 <1>   0.0800 
 35 H        4.1850     1.2410     1.2010 H     1 <1>   0.0800 
 36 H        3.6370     3.3120     2.4750 H     1 <1>   0.0800 
 37 H        2.8090     3.9420     1.0700 H     1 <1>   0.0800 
 38 H        4.2800     4.8070    -0.8950 H     1 <1>   0.1500 
 39 H        3.2870    -6.5180     1.2440 H     1 <1>   0.1500 
 40 H       -3.6690    -3.8090    -1.5240 H     1 <1>   0.0800 
 41 H       -3.3880    -5.4270    -0.8810 H     1 <1>   0.0800 
 42 H       -2.5820    -4.9120    -2.3670 H     1 <1>   0.0800 
 43 H        7.9900     4.1510     1.0520 H     1 <1>   0.1500 
 44 H       -0.3400    -8.5650    -1.3640 H     1 <1>   0.1500 
 45 H        3.4670    -8.8820     0.5280 H     1 <1>   0.1500 
 46 H        6.4700     5.8910    -2.1360 H     1 <1>   0.0800 
 47 H        7.8740     4.8870    -1.8590 H     1 <1>   0.0800 
 48 H        7.6610     6.3670    -0.9480 H     1 <1>   0.0800 
 49 H        1.6560    -9.9010    -0.7730 H     1 <1>   0.1500 
@<TRIPOS>BOND
  1   1   2  2   
  2   2   3  am  
  3   2   4  1   
  4   3   5  1   
  5   3  27  1   
  6   4   6  1   
  7   4  28  1   
  8   4  29  1   
  9   5   7  1   
 10   5  30  1   
 11   5  31  1   
 12   6   8  1   
 13   6  32  1   
 14   6  33  1   
 15   7   9  1   
 16   7  34  1   
 17   7  35  1   
 18   8  10  ar  
 19   8  11  ar  
 20   9  12  1   
 21   9  36  1   
 22   9  37  1   
 23  10  13  ar  
 24  11  14  1   
 25  11  15  ar  
 26  12  16  1   
 27  12  17  1   
 28  13  18  ar  
 29  13  19  ar  
 30  14  20  1   
 31  15  18  ar  
 32  16  21  2   
 33  17  22  2   
 34  17  38  1   
 35  18  23  ar  
 36  19  24  ar  
 37  19  39  1   
 38  20  40  1   
 39  20  41  1   
 40  20  42  1   
 41  21  22  1   
 42  21  43  1   
 43  22  25  1   
 44  23  26  ar  
 45  23  44  1   
 46  24  26  ar  
 47  24  45  1   
 48  25  46  1   
 49  25  47  1   
 50  25  48  1   
 51  26  49  1   
@<TRIPOS>SUBSTRUCTURE
  1 ****   4 GROUP 4 **** **** 0

# MOE 2024.06 (io_trps.svl 2023.06)
