@<TRIPOS>MOLECULE
NONAME
46 49 1 0 0 
SMALL
USER_CHARGES


@<TRIPOS>ATOM
  1 S        1.3040    -0.5190    -0.3810 S.3   1 <1>  -0.0800 
  2 C        1.4630    -1.9750     0.5670 C.2   1 <1>  -0.1400 
  3 C        1.7650     0.4130     1.0240 C.2   1 <1>   0.2280 
  4 C        1.8430    -1.6380     1.8110 C.2   1 <1>   0.0460 
  5 C        1.1890    -3.2970    -0.1110 C.3   1 <1>   0.5230 
  6 N        2.0030    -0.2890     2.0580 N.2   1 <1>  -0.5650 
  7 C        2.1230    -2.5570     2.9830 C.3   1 <1>  -0.0590 
  8 N       -0.2640    -3.6020    -0.0310 N.4   1 <1>  -0.9590 
  9 C       -1.1660    -2.6570    -0.7490 C.3   1 <1>   0.3430 
 10 C       -0.6410    -4.9730    -0.4850 C.3   1 <1>   0.3430 
 11 C       -2.4760    -3.4330    -0.8750 C.3   1 <1>   0.2000 
 12 C       -1.9820    -4.8390    -1.2250 C.3   1 <1>  -0.0800 
 13 O       -3.0770    -3.4510     0.3800 O.3   1 <1>  -0.6800 
 14 C       -2.9640    -6.0000    -0.9660 C.3   1 <1>  -0.0160 
 15 C       -2.2670    -7.3350    -1.2110 C.ar  1 <1>  -0.1440 
 16 C       -1.6520    -8.0920    -0.1820 C.ar  1 <1>   0.0000 
 17 C       -2.2010    -7.8270    -2.4820 C.ar  1 <1>  -0.1500 
 18 C       -0.9670    -9.2730    -0.5610 C.ar  1 <1>   0.3100 
 19 C       -1.6700    -7.7560     1.1940 C.ar  1 <1>  -0.1500 
 20 C       -1.5160    -9.0180    -2.7440 C.ar  1 <1>   0.1600 
 21 N       -0.9060    -9.7140    -1.8400 N.ar  1 <1>  -0.6200 
 22 C       -0.3140   -10.0300     0.4250 C.ar  1 <1>  -0.1500 
 23 C       -1.0260    -8.5190     2.1300 C.ar  1 <1>  -0.1500 
 24 C       -0.3340    -9.6680     1.7430 C.ar  1 <1>  -0.1500 
 25 H        1.8130     1.4830     0.9170 H     1 <1>   0.1500 
 26 H        1.7460    -4.0690     0.3940 H     1 <1>   0.0800 
 27 H        1.5150    -3.2580    -1.1370 H     1 <1>   0.0800 
 28 H        1.9810    -3.5880     2.7190 H     1 <1>   0.0800 
 29 H        1.4670    -2.3100     3.7990 H     1 <1>   0.0800 
 30 H        3.1380    -2.4190     3.3110 H     1 <1>   0.0800 
 31 H       -0.5550    -3.5220     0.9550 H     1 <1>   0.4500 
 32 H       -1.3050    -1.7370    -0.2030 H     1 <1>   0.0800 
 33 H       -0.7740    -2.4410    -1.7290 H     1 <1>   0.0800 
 34 H        0.1020    -5.3890    -1.1480 H     1 <1>   0.0800 
 35 H       -0.7450    -5.6200     0.3690 H     1 <1>   0.0800 
 36 H       -3.1550    -3.0040    -1.5940 H     1 <1>   0.0800 
 37 H       -1.7490    -4.8480    -2.2760 H     1 <1>   0.0800 
 38 H       -4.0350    -3.6560     0.3150 H     1 <1>   0.4000 
 39 H       -3.7980    -5.9100    -1.6420 H     1 <1>   0.0800 
 40 H       -3.3750    -5.9660     0.0250 H     1 <1>   0.0800 
 41 H       -2.6610    -7.3220    -3.3130 H     1 <1>   0.1500 
 42 H       -2.2070    -6.8910     1.5320 H     1 <1>   0.1500 
 43 H       -1.4890    -9.3750    -3.7610 H     1 <1>   0.1500 
 44 H        0.2050   -10.9160     0.1050 H     1 <1>   0.1500 
 45 H       -1.0480    -8.2550     3.1740 H     1 <1>   0.1500 
 46 H        0.1690   -10.2610     2.4880 H     1 <1>   0.1500 
@<TRIPOS>BOND
  1   1   2  1   
  2   1   3  1   
  3   2   4  2   
  4   2   5  1   
  5   3   6  2   
  6   3  25  1   
  7   4   6  1   
  8   4   7  1   
  9   5   8  1   
 10   5  26  1   
 11   5  27  1   
 12   7  28  1   
 13   7  29  1   
 14   7  30  1   
 15   8   9  1   
 16   8  10  1   
 17   8  31  1   
 18   9  11  1   
 19   9  32  1   
 20   9  33  1   
 21  10  12  1   
 22  10  34  1   
 23  10  35  1   
 24  11  12  1   
 25  11  13  1   
 26  11  36  1   
 27  12  14  1   
 28  12  37  1   
 29  13  38  1   
 30  14  15  1   
 31  14  39  1   
 32  14  40  1   
 33  15  16  ar  
 34  15  17  ar  
 35  16  18  ar  
 36  16  19  ar  
 37  17  20  ar  
 38  17  41  1   
 39  18  21  ar  
 40  18  22  ar  
 41  19  23  ar  
 42  19  42  1   
 43  20  21  ar  
 44  20  43  1   
 45  22  24  ar  
 46  22  44  1   
 47  23  24  ar  
 48  23  45  1   
 49  24  46  1   
@<TRIPOS>SUBSTRUCTURE
  1 ****  10 GROUP 4 **** **** 0

# MOE 2024.06 (io_trps.svl 2023.06)
