@<TRIPOS>MOLECULE
NONAME
18 17 1 0 0 
SMALL
USER_CHARGES


@<TRIPOS>ATOM
  1 O        0.2790     3.6550     2.1250 O.co2 1 <1>  -0.9000 
  2 C        0.0770     3.9210     0.9220 C.2   1 <1>   0.9060 
  3 O       -1.1010     4.0940     0.5470 O.co2 1 <1>  -0.9000 
  4 C        1.3020     3.9250    -0.0880 C.3   1 <1>   0.1740 
  5 O        0.9440     4.3030    -1.3890 O.3   1 <1>  -0.6800 
  6 C        2.3820     4.9500     0.3350 C.3   1 <1>  -0.2660 
  7 C        1.8720     2.4830    -0.1750 C.3   1 <1>  -0.2660 
  8 C        1.9700     6.4090     0.2900 C.2   1 <1>   0.9060 
  9 C        3.0750     2.1800    -1.0450 C.2   1 <1>   0.9060 
 10 O        1.2870     6.8330    -0.6570 O.co2 1 <1>  -0.9000 
 11 O        2.4160     7.1860     1.1460 O.co2 1 <1>  -0.9000 
 12 O        4.2140     2.4570    -0.6380 O.co2 1 <1>  -0.9000 
 13 O        2.9300     1.4950    -2.0700 O.co2 1 <1>  -0.9000 
 14 H        0.8230     5.2910    -1.3390 H     1 <1>   0.4000 
 15 H        3.2440     4.8470    -0.2930 H     1 <1>   0.0800 
 16 H        2.6870     4.7280     1.3390 H     1 <1>   0.0800 
 17 H        1.0770     1.8350    -0.4880 H     1 <1>   0.0800 
 18 H        2.1410     2.1820     0.8180 H     1 <1>   0.0800 
@<TRIPOS>BOND
  1   1   2  ar  
  2   2   3  ar  
  3   2   4  1   
  4   4   5  1   
  5   4   6  1   
  6   4   7  1   
  7   5  14  1   
  8   6   8  1   
  9   6  15  1   
 10   6  16  1   
 11   7   9  1   
 12   7  17  1   
 13   7  18  1   
 14   8  10  ar  
 15   8  11  ar  
 16   9  12  ar  
 17   9  13  ar  
@<TRIPOS>SUBSTRUCTURE
  1 ****   4 GROUP 4 **** **** 0

# MOE 2024.06 (io_trps.svl 2023.06)
