@<TRIPOS>MOLECULE
NONAME
52 54 1 0 0 
SMALL
USER_CHARGES


@<TRIPOS>ATOM
  1 O        1.2020     0.3440    -2.2770 O.2   1 <1>  -0.5700 
  2 C        1.8370    -0.4350    -1.6080 C.2   1 <1>   0.5690 
  3 N        2.7230     0.0300    -0.6610 N.am  1 <1>  -0.6600 
  4 C        1.6210    -1.9180    -1.8830 C.3   1 <1>   0.0810 
  5 C        3.7860    -0.7760     0.0220 C.3   1 <1>   0.1400 
  6 C        2.5370     1.4020    -0.1150 C.3   1 <1>   0.1400 
  7 C        0.9270    -2.6130    -0.7250 C.2   1 <1>  -0.0400 
  8 C        5.2200    -0.3260    -0.3340 C.3   1 <1>   0.3430 
  9 C        3.3940     2.4070    -0.8870 C.3   1 <1>  -0.1600 
 10 O        1.5720    -2.8390     0.3880 O.3   1 <1>  -0.0190 
 11 C       -0.3180    -3.0900    -0.5800 C.2   1 <1>  -0.1500 
 12 N        5.4540     1.1620    -0.2650 N.4   1 <1>  -0.9590 
 13 C        4.7350     1.8610    -1.3720 C.3   1 <1>   0.3430 
 14 N        0.8300    -3.4360     1.2700 N.2   1 <1>  -0.4100 
 15 C       -0.3180    -3.6020     0.7150 C.2   1 <1>   0.1080 
 16 C        6.9080     1.5120    -0.3220 C.3   1 <1>   0.3430 
 17 C       -1.5010    -4.2620     1.3860 C.3   1 <1>  -0.0590 
 18 C        7.6470     1.1530     0.9700 C.3   1 <1>  -0.0170 
 19 C        9.0600     1.6920     0.8930 C.ar  1 <1>   0.1670 
 20 N        9.1690     2.9410     0.4710 N.ar  1 <1>  -0.6200 
 21 C       10.1360     0.8930     1.2500 C.ar  1 <1>  -0.1500 
 22 C       10.3980     3.4260     0.4030 C.ar  1 <1>   0.1670 
 23 C       11.4130     1.4060     1.1720 C.ar  1 <1>  -0.1500 
 24 C       11.5350     2.7070     0.7360 C.ar  1 <1>  -0.1500 
 25 C       10.5210     4.8590    -0.0710 C.3   1 <1>  -0.0970 
 26 H        2.5550    -2.3980    -2.0990 H     1 <1>   0.0800 
 27 H        1.0020    -2.0120    -2.7570 H     1 <1>   0.0800 
 28 H        3.7020    -1.8130    -0.2430 H     1 <1>   0.0800 
 29 H        3.6420    -0.7170     1.0880 H     1 <1>   0.0800 
 30 H        2.7980     1.4120     0.9300 H     1 <1>   0.0800 
 31 H        1.4990     1.6870    -0.1840 H     1 <1>   0.0800 
 32 H        5.4460    -0.6710    -1.3290 H     1 <1>   0.0800 
 33 H        5.8960    -0.8290     0.3370 H     1 <1>   0.0800 
 34 H        3.5480     3.2840    -0.2850 H     1 <1>   0.0800 
 35 H        2.8360     2.7220    -1.7520 H     1 <1>   0.0800 
 36 H       -1.1420    -3.0920    -1.2690 H     1 <1>   0.1500 
 37 H        5.0710     1.5260     0.6160 H     1 <1>   0.4500 
 38 H        5.3270     2.6810    -1.7460 H     1 <1>   0.0800 
 39 H        4.5640     1.1750    -2.1870 H     1 <1>   0.0800 
 40 H        7.0070     2.5760    -0.4750 H     1 <1>   0.0800 
 41 H        7.3810     1.0200    -1.1570 H     1 <1>   0.0800 
 42 H       -1.7920    -5.1370     0.8350 H     1 <1>   0.0800 
 43 H       -2.3280    -3.5770     1.4260 H     1 <1>   0.0800 
 44 H       -1.2420    -4.5520     2.3880 H     1 <1>   0.0800 
 45 H        7.6710     0.0900     1.1150 H     1 <1>   0.0800 
 46 H        7.1630     1.6180     1.8100 H     1 <1>   0.0800 
 47 H        9.9930    -0.1160     1.5910 H     1 <1>   0.1500 
 48 H       12.2760     0.8200     1.4400 H     1 <1>   0.1500 
 49 H       12.5080     3.1570     0.6590 H     1 <1>   0.1500 
 50 H        9.9730     5.5050     0.5910 H     1 <1>   0.0800 
 51 H       10.1120     4.9490    -1.0600 H     1 <1>   0.0800 
 52 H       11.5470     5.1750    -0.0900 H     1 <1>   0.0800 
@<TRIPOS>BOND
  1   1   2  2   
  2   2   3  am  
  3   2   4  1   
  4   3   5  1   
  5   3   6  1   
  6   4   7  1   
  7   4  26  1   
  8   4  27  1   
  9   5   8  1   
 10   5  28  1   
 11   5  29  1   
 12   6   9  1   
 13   6  30  1   
 14   6  31  1   
 15   7  10  1   
 16   7  11  2   
 17   8  12  1   
 18   8  32  1   
 19   8  33  1   
 20   9  13  1   
 21   9  34  1   
 22   9  35  1   
 23  10  14  1   
 24  11  15  1   
 25  11  36  1   
 26  12  13  1   
 27  12  16  1   
 28  12  37  1   
 29  13  38  1   
 30  13  39  1   
 31  14  15  2   
 32  15  17  1   
 33  16  18  1   
 34  16  40  1   
 35  16  41  1   
 36  17  42  1   
 37  17  43  1   
 38  17  44  1   
 39  18  19  1   
 40  18  45  1   
 41  18  46  1   
 42  19  20  ar  
 43  19  21  ar  
 44  20  22  ar  
 45  21  23  ar  
 46  21  47  1   
 47  22  24  ar  
 48  22  25  1   
 49  23  24  ar  
 50  23  48  1   
 51  24  49  1   
 52  25  50  1   
 53  25  51  1   
 54  25  52  1   
@<TRIPOS>SUBSTRUCTURE
  1 ****   8 GROUP 4 **** **** 0

# MOE 2024.06 (io_trps.svl 2023.06)
