@<TRIPOS>MOLECULE
NONAME
37 38 1 0 0 
SMALL
USER_CHARGES


@<TRIPOS>ATOM
  1 O        0.3030     0.9400    -0.3870 O.3   1 <1>  -0.6800 
  2 C        1.2650     1.9120    -0.6380 C.3   1 <1>   0.1200 
  3 C        1.8180     2.4380     0.6880 C.3   1 <1>   0.2090 
  4 N        2.9820     3.3350     0.4410 N.pl3 1 <1>  -0.8690 
  5 C        2.8610     4.6810     0.1850 C.ar  1 <1>   0.4100 
  6 N        1.6750     5.1410    -0.1640 N.ar  1 <1>  -0.6200 
  7 C        3.9470     5.5160     0.2830 C.ar  1 <1>  -0.1500 
  8 C        1.6230     6.4360    -0.4030 C.ar  1 <1>   0.4700 
  9 C        3.7740     6.8550     0.0210 C.ar  1 <1>   0.4100 
 10 N        2.5920     7.3270    -0.3360 N.ar  1 <1>  -0.6200 
 11 N        4.8210     7.7510     0.1230 N.pl3 1 <1>  -0.8380 
 12 C        4.7390     9.0450    -0.6160 C.3   1 <1>   0.3900 
 13 C        5.6600     7.7740     1.3550 C.3   1 <1>   0.1290 
 14 C        6.1210     9.6550    -0.7980 C.2   1 <1>  -0.1810 
 15 C        6.6330    10.8350    -0.3750 C.2   1 <1>  -0.3320 
 16 C        7.1620     9.0440    -1.4870 C.2   1 <1>   0.1390 
 17 N        7.9100    10.8770    -0.8160 N.pl3 1 <1>   0.3000 
 18 C        5.9960    11.9530     0.4320 C.3   1 <1>  -0.0600 
 19 N        8.2390     9.7680    -1.5040 N.2   1 <1>  -0.7070 
 20 H       -0.1060     0.6440    -1.2240 H     1 <1>   0.4000 
 21 H        0.8060     2.7130    -1.1910 H     1 <1>   0.0800 
 22 H        2.0510     1.4640    -1.2200 H     1 <1>   0.0800 
 23 H        2.1360     1.6090     1.2960 H     1 <1>   0.0800 
 24 H        1.0460     2.9770     1.2110 H     1 <1>   0.0800 
 25 H        3.8590     3.0210     0.8600 H     1 <1>   0.4000 
 26 H        4.9090     5.1360     0.5500 H     1 <1>   0.1500 
 27 H        0.6580     6.8170    -0.6900 H     1 <1>   0.1500 
 28 H        4.1010     9.7190    -0.0750 H     1 <1>   0.0800 
 29 H        4.3020     8.8760    -1.5860 H     1 <1>   0.0800 
 30 H        5.3540     7.0030     2.0410 H     1 <1>   0.0800 
 31 H        5.5650     8.7260     1.8480 H     1 <1>   0.0800 
 32 H        6.6920     7.6200     1.0920 H     1 <1>   0.0800 
 33 H        7.0870     8.0750    -1.9530 H     1 <1>   0.1500 
 34 H        8.5780    11.6420    -0.6680 H     1 <1>   0.2700 
 35 H        4.9840    11.7040     0.6940 H     1 <1>   0.0800 
 36 H        5.9850    12.8630    -0.1400 H     1 <1>   0.0800 
 37 H        6.5510    12.1170     1.3390 H     1 <1>   0.0800 
@<TRIPOS>BOND
  1   1   2  1   
  2   1  20  1   
  3   2   3  1   
  4   2  21  1   
  5   2  22  1   
  6   3   4  1   
  7   3  23  1   
  8   3  24  1   
  9   4   5  1   
 10   4  25  1   
 11   5   6  ar  
 12   5   7  ar  
 13   6   8  ar  
 14   7   9  ar  
 15   7  26  1   
 16   8  10  ar  
 17   8  27  1   
 18   9  10  ar  
 19   9  11  1   
 20  11  12  1   
 21  11  13  1   
 22  12  14  1   
 23  12  28  1   
 24  12  29  1   
 25  13  30  1   
 26  13  31  1   
 27  13  32  1   
 28  14  15  2   
 29  14  16  1   
 30  15  17  1   
 31  15  18  1   
 32  16  19  2   
 33  16  33  1   
 34  17  19  1   
 35  17  34  1   
 36  18  35  1   
 37  18  36  1   
 38  18  37  1   
@<TRIPOS>SUBSTRUCTURE
  1 ****   9 GROUP 4 **** **** 0

# MOE 2024.06 (io_trps.svl 2023.06)
