@<TRIPOS>MOLECULE
NONAME
61 64 1 0 0 
SMALL
USER_CHARGES


@<TRIPOS>ATOM
  1 O       -3.2300     0.0630    -0.6410 O.2   1 <1>  -0.5700 
  2 C       -2.4510     0.9730    -0.8500 C.2   1 <1>   0.5690 
  3 N       -1.1230     0.7370    -1.1000 N.am  1 <1>  -0.6600 
  4 C       -2.9980     2.4020    -0.7990 C.3   1 <1>   0.1810 
  5 C       -0.0910     1.7880    -1.3330 C.3   1 <1>   0.1400 
  6 C       -0.5660    -0.6480    -1.1140 C.3   1 <1>   0.1400 
  7 O       -4.4110     2.3870    -0.6370 O.3   1 <1>  -0.3620 
  8 C        0.9870     1.6940    -0.2480 C.3   1 <1>  -0.1600 
  9 C        0.5090    -0.7780    -0.0300 C.3   1 <1>  -0.1600 
 10 C       -4.9550     3.1810     0.3050 C.ar  1 <1>   0.0820 
 11 C        1.6030     0.2880    -0.1870 C.3   1 <1>  -0.1600 
 12 C       -5.4760     2.6360     1.4780 C.ar  1 <1>  -0.1440 
 13 C       -5.0230     4.5450     0.0620 C.ar  1 <1>  -0.1500 
 14 C       -6.0660     3.4920     2.3990 C.ar  1 <1>  -0.1500 
 15 C       -5.4070     1.1520     1.8240 C.3   1 <1>   0.4860 
 16 C       -5.6100     5.3820     0.9910 C.ar  1 <1>  -0.1500 
 17 C       -6.1330     4.8540     2.1580 C.ar  1 <1>  -0.1500 
 18 N       -5.6960     0.2820     0.6600 N.4   1 <1>  -0.9590 
 19 C       -6.9460     0.5630    -0.0840 C.3   1 <1>   0.3430 
 20 C       -5.6420    -1.1770     0.9230 C.3   1 <1>   0.3430 
 21 C       -7.1410    -0.6880    -0.9390 C.3   1 <1>   0.2000 
 22 C       -6.5490    -1.8410    -0.1220 C.3   1 <1>  -0.0800 
 23 O       -8.4780    -0.9270    -1.2190 O.3   1 <1>  -0.6800 
 24 C       -5.7940    -2.8510    -1.0080 C.3   1 <1>  -0.0170 
 25 C       -5.4170    -4.1160    -0.2460 C.ar  1 <1>   0.1670 
 26 N       -4.6490    -3.9640     0.8230 N.ar  1 <1>  -0.6200 
 27 C       -5.8790    -5.3560    -0.6880 C.ar  1 <1>   0.1600 
 28 C       -4.3700    -5.1220     1.4040 C.ar  1 <1>   0.1600 
 29 N       -5.6100    -6.5090    -0.1020 N.ar  1 <1>  -0.6200 
 30 C       -4.8360    -6.3520     0.9570 C.ar  1 <1>   0.1600 
 31 H       -2.7820     2.9140    -1.7190 H     1 <1>   0.0800 
 32 H       -2.5540     2.9300     0.0250 H     1 <1>   0.0800 
 33 H        0.3570     1.6280    -2.3000 H     1 <1>   0.0800 
 34 H       -0.5190     2.7740    -1.3270 H     1 <1>   0.0800 
 35 H       -1.3390    -1.3780    -0.9420 H     1 <1>   0.0800 
 36 H       -0.1360    -0.8440    -2.0810 H     1 <1>   0.0800 
 37 H        1.7600     2.4140    -0.4510 H     1 <1>   0.0800 
 38 H        0.5520     1.9400     0.7040 H     1 <1>   0.0800 
 39 H        0.0430    -0.6820     0.9350 H     1 <1>   0.0800 
 40 H        0.9510    -1.7570    -0.0840 H     1 <1>   0.0800 
 41 H        2.2920     0.2270     0.6380 H     1 <1>   0.0800 
 42 H        2.1540     0.1010    -1.0930 H     1 <1>   0.0800 
 43 H       -4.6270     4.9500    -0.8520 H     1 <1>   0.1500 
 44 H       -6.4780     3.1140     3.3200 H     1 <1>   0.1500 
 45 H       -6.1120     0.9410     2.6100 H     1 <1>   0.0800 
 46 H       -4.4190     0.9290     2.1940 H     1 <1>   0.0800 
 47 H       -5.6660     6.4420     0.8070 H     1 <1>   0.1500 
 48 H       -6.5920     5.5090     2.8810 H     1 <1>   0.1500 
 49 H       -4.9130     0.4700    -0.0050 H     1 <1>   0.4500 
 50 H       -7.7680     0.6740     0.6020 H     1 <1>   0.0800 
 51 H       -6.8470     1.4470    -0.6940 H     1 <1>   0.0800 
 52 H       -4.6270    -1.5330     0.8370 H     1 <1>   0.0800 
 53 H       -6.0080    -1.4000     1.9120 H     1 <1>   0.0800 
 54 H       -6.6220    -0.5590    -1.8740 H     1 <1>   0.0800 
 55 H       -7.3290    -2.3600     0.4070 H     1 <1>   0.0800 
 56 H       -8.9840    -1.2090    -0.4310 H     1 <1>   0.4000 
 57 H       -4.8970    -2.4000    -1.3980 H     1 <1>   0.0800 
 58 H       -6.4150    -3.1140    -1.8460 H     1 <1>   0.0800 
 59 H       -6.5000    -5.4000    -1.5660 H     1 <1>   0.1500 
 60 H       -3.7410    -5.1000     2.2770 H     1 <1>   0.1500 
 61 H       -4.5570    -7.2400     1.4970 H     1 <1>   0.1500 
@<TRIPOS>BOND
  1   1   2  2   
  2   2   3  am  
  3   2   4  1   
  4   3   5  1   
  5   3   6  1   
  6   4   7  1   
  7   4  31  1   
  8   4  32  1   
  9   5   8  1   
 10   5  33  1   
 11   5  34  1   
 12   6   9  1   
 13   6  35  1   
 14   6  36  1   
 15   7  10  1   
 16   8  11  1   
 17   8  37  1   
 18   8  38  1   
 19   9  11  1   
 20   9  39  1   
 21   9  40  1   
 22  10  12  ar  
 23  10  13  ar  
 24  11  41  1   
 25  11  42  1   
 26  12  14  ar  
 27  12  15  1   
 28  13  16  ar  
 29  13  43  1   
 30  14  17  ar  
 31  14  44  1   
 32  15  18  1   
 33  15  45  1   
 34  15  46  1   
 35  16  17  ar  
 36  16  47  1   
 37  17  48  1   
 38  18  19  1   
 39  18  20  1   
 40  18  49  1   
 41  19  21  1   
 42  19  50  1   
 43  19  51  1   
 44  20  22  1   
 45  20  52  1   
 46  20  53  1   
 47  21  22  1   
 48  21  23  1   
 49  21  54  1   
 50  22  24  1   
 51  22  55  1   
 52  23  56  1   
 53  24  25  1   
 54  24  57  1   
 55  24  58  1   
 56  25  26  ar  
 57  25  27  ar  
 58  26  28  ar  
 59  27  29  ar  
 60  27  59  1   
 61  28  30  ar  
 62  28  60  1   
 63  29  30  ar  
 64  30  61  1   
@<TRIPOS>SUBSTRUCTURE
  1 ****   1 GROUP 4 **** **** 0

# MOE 2024.06 (io_trps.svl 2023.06)
