@<TRIPOS>MOLECULE
NONAME
47 49 1 0 0 
SMALL
USER_CHARGES


@<TRIPOS>ATOM
  1 O        0.0910     1.4400    -1.1960 O.co2 1 <1>  -0.9000 
  2 C       -0.6530     0.5340    -0.7830 C.2   1 <1>   0.9060 
  3 O       -0.4020    -0.6660    -0.8750 O.co2 1 <1>  -0.9000 
  4 C       -1.9530     1.0100    -0.1060 C.3   1 <1>   0.3170 
  5 N       -1.9630     2.5160     0.0080 N.4   1 <1>  -0.9590 
  6 C       -3.2220     0.6490    -0.8860 C.3   1 <1>  -0.1600 
  7 C       -3.2210     3.0190    -0.6050 C.3   1 <1>   0.3430 
  8 C       -1.7110     2.9600     1.3870 C.3   1 <1>   0.5240 
  9 C       -4.1640     1.8140    -0.6360 C.3   1 <1>   0.2000 
 10 C       -1.5340     4.4620     1.3680 C.2   1 <1>  -0.1810 
 11 O       -4.7250     1.6520     0.6260 O.3   1 <1>  -0.6800 
 12 C       -2.4310     5.3940     1.8710 C.2   1 <1>   0.1390 
 13 C       -0.5180     5.2010     0.8740 C.2   1 <1>  -0.3020 
 14 N       -2.0170     6.6070     1.6980 N.2   1 <1>  -0.7070 
 15 N       -0.8120     6.5120     1.0730 N.pl3 1 <1>   0.5930 
 16 C       -0.0180     7.6410     0.7110 C.ar  1 <1>  -0.0230 
 17 C        0.8770     7.5880    -0.3560 C.ar  1 <1>  -0.1500 
 18 C       -0.1180     8.8350     1.4200 C.ar  1 <1>  -0.1500 
 19 C        1.6470     8.6870    -0.6920 C.ar  1 <1>  -0.1500 
 20 C        0.6510     9.9330     1.0810 C.ar  1 <1>  -0.1500 
 21 C        1.5440     9.8710     0.0220 C.ar  1 <1>  -0.1430 
 22 C        2.3860    11.0940    -0.3370 C.3   1 <1>   0.0630 
 23 C        2.0670    11.5810    -1.7540 C.3   1 <1>  -0.2400 
 24 C        3.8810    10.7920    -0.1880 C.3   1 <1>  -0.2400 
 25 H       -2.0020     0.5660     0.8720 H     1 <1>   0.0800 
 26 H       -1.1230     2.7650    -0.5660 H     1 <1>   0.4500 
 27 H       -3.6210    -0.3020    -0.5820 H     1 <1>   0.0800 
 28 H       -2.9820     0.5940    -1.9340 H     1 <1>   0.0800 
 29 H       -3.6490     3.8380    -0.0530 H     1 <1>   0.0800 
 30 H       -3.0180     3.3360    -1.6140 H     1 <1>   0.0800 
 31 H       -2.5380     2.6850     2.0200 H     1 <1>   0.0800 
 32 H       -0.8120     2.4970     1.7590 H     1 <1>   0.0800 
 33 H       -4.9500     1.9110    -1.3660 H     1 <1>   0.0800 
 34 H       -5.3410     0.8890     0.6320 H     1 <1>   0.4000 
 35 H       -3.3680     5.1570     2.3510 H     1 <1>   0.1500 
 36 H        0.3910     4.8820     0.3980 H     1 <1>   0.1500 
 37 H        0.9790     6.6880    -0.9360 H     1 <1>   0.1500 
 38 H       -0.8080     8.9060     2.2440 H     1 <1>   0.1500 
 39 H        2.3310     8.6170    -1.5200 H     1 <1>   0.1500 
 40 H        0.5480    10.8400     1.6510 H     1 <1>   0.1500 
 41 H        2.1440    11.8920     0.3450 H     1 <1>   0.0800 
 42 H        2.3380    10.8400    -2.4840 H     1 <1>   0.0800 
 43 H        2.6060    12.4870    -1.9670 H     1 <1>   0.0800 
 44 H        1.0140    11.7800    -1.8420 H     1 <1>   0.0800 
 45 H        4.1900    10.0340    -0.8840 H     1 <1>   0.0800 
 46 H        4.0850    10.4450     0.8090 H     1 <1>   0.0800 
 47 H        4.4590    11.6810    -0.3660 H     1 <1>   0.0800 
@<TRIPOS>BOND
  1   1   2  ar  
  2   2   3  ar  
  3   2   4  1   
  4   4   5  1   
  5   4   6  1   
  6   4  25  1   
  7   5   7  1   
  8   5   8  1   
  9   5  26  1   
 10   6   9  1   
 11   6  27  1   
 12   6  28  1   
 13   7   9  1   
 14   7  29  1   
 15   7  30  1   
 16   8  10  1   
 17   8  31  1   
 18   8  32  1   
 19   9  11  1   
 20   9  33  1   
 21  10  12  1   
 22  10  13  2   
 23  11  34  1   
 24  12  14  2   
 25  12  35  1   
 26  13  15  1   
 27  13  36  1   
 28  14  15  1   
 29  15  16  1   
 30  16  17  ar  
 31  16  18  ar  
 32  17  19  ar  
 33  17  37  1   
 34  18  20  ar  
 35  18  38  1   
 36  19  21  ar  
 37  19  39  1   
 38  20  21  ar  
 39  20  40  1   
 40  21  22  1   
 41  22  23  1   
 42  22  24  1   
 43  22  41  1   
 44  23  42  1   
 45  23  43  1   
 46  23  44  1   
 47  24  45  1   
 48  24  46  1   
 49  24  47  1   
@<TRIPOS>SUBSTRUCTURE
  1 ****  13 GROUP 4 **** **** 0

# MOE 2024.06 (io_trps.svl 2023.06)
