@<TRIPOS>MOLECULE
NONAME
40 42 1 0 0 
SMALL
USER_CHARGES


@<TRIPOS>ATOM
  1 CL      -1.4560     0.6690     2.1330 Cl    1 <1>  -0.1230 
  2 C       -2.0140     0.6350     0.4700 C.2   1 <1>   0.1230 
  3 C       -2.6360    -0.4430    -0.1370 C.2   1 <1>   0.1080 
  4 C       -1.9370     1.6100    -0.4570 C.2   1 <1>  -0.3320 
  5 N       -2.9470    -0.1760    -1.3780 N.2   1 <1>  -0.7070 
  6 C       -2.9280    -1.7720     0.5410 C.3   1 <1>   0.5240 
  7 N       -2.5050     1.0960    -1.5730 N.pl3 1 <1>   0.3000 
  8 C       -1.3530     3.0100    -0.3590 C.3   1 <1>  -0.0600 
  9 N       -4.0240    -2.4230    -0.2280 N.4   1 <1>  -0.9590 
 10 C       -5.3840    -1.9190     0.1170 C.3   1 <1>   0.3430 
 11 C       -4.0380    -3.9120    -0.2070 C.3   1 <1>   0.3430 
 12 C       -6.3150    -3.0970    -0.1610 C.3   1 <1>   0.2000 
 13 C       -5.4740    -4.3380     0.1220 C.3   1 <1>  -0.0800 
 14 O       -7.4400    -3.0790     0.6480 O.3   1 <1>  -0.6800 
 15 C       -5.9480    -5.5700    -0.6730 C.3   1 <1>  -0.0170 
 16 C       -5.1420    -6.8180    -0.3370 C.ar  1 <1>   0.1670 
 17 N       -3.8540    -6.7910    -0.6490 N.ar  1 <1>  -0.6200 
 18 C       -5.7660    -7.9110     0.2640 C.ar  1 <1>   0.1600 
 19 C       -3.2440    -7.9260    -0.3370 C.ar  1 <1>   0.1600 
 20 N       -5.1520    -9.0350     0.5890 N.ar  1 <1>  -0.6200 
 21 C       -3.8720    -9.0100     0.2630 C.ar  1 <1>   0.1600 
 22 H       -3.2100    -1.6210     1.5690 H     1 <1>   0.0800 
 23 H       -2.0380    -2.3780     0.5030 H     1 <1>   0.0800 
 24 H       -2.6020     1.5850    -2.4740 H     1 <1>   0.2700 
 25 H       -0.9600     3.1840     0.6270 H     1 <1>   0.0800 
 26 H       -2.1120     3.7480    -0.5560 H     1 <1>   0.0800 
 27 H       -0.5540     3.1340    -1.0690 H     1 <1>   0.0800 
 28 H       -3.8280    -2.0860    -1.1920 H     1 <1>   0.4500 
 29 H       -5.4290    -1.6660     1.1630 H     1 <1>   0.0800 
 30 H       -5.6430    -1.0600    -0.4810 H     1 <1>   0.0800 
 31 H       -3.7540    -4.2930    -1.1760 H     1 <1>   0.0800 
 32 H       -3.3550    -4.3080     0.5280 H     1 <1>   0.0800 
 33 H       -6.6410    -3.0630    -1.1880 H     1 <1>   0.0800 
 34 H       -5.5050    -4.5650     1.1730 H     1 <1>   0.0800 
 35 H       -7.2410    -3.2770     1.5860 H     1 <1>   0.4000 
 36 H       -5.8650    -5.3850    -1.7300 H     1 <1>   0.0800 
 37 H       -6.9890    -5.7460    -0.4600 H     1 <1>   0.0800 
 38 H       -6.8170    -7.8580     0.4860 H     1 <1>   0.1500 
 39 H       -2.1960    -8.0050    -0.5670 H     1 <1>   0.1500 
 40 H       -3.2930    -9.8910     0.4810 H     1 <1>   0.1500 
@<TRIPOS>BOND
  1   1   2  1   
  2   2   3  1   
  3   2   4  2   
  4   3   5  2   
  5   3   6  1   
  6   4   7  1   
  7   4   8  1   
  8   5   7  1   
  9   6   9  1   
 10   6  22  1   
 11   6  23  1   
 12   7  24  1   
 13   8  25  1   
 14   8  26  1   
 15   8  27  1   
 16   9  10  1   
 17   9  11  1   
 18   9  28  1   
 19  10  12  1   
 20  10  29  1   
 21  10  30  1   
 22  11  13  1   
 23  11  31  1   
 24  11  32  1   
 25  12  13  1   
 26  12  14  1   
 27  12  33  1   
 28  13  15  1   
 29  13  34  1   
 30  14  35  1   
 31  15  16  1   
 32  15  36  1   
 33  15  37  1   
 34  16  17  ar  
 35  16  18  ar  
 36  17  19  ar  
 37  18  20  ar  
 38  18  38  1   
 39  19  21  ar  
 40  19  39  1   
 41  20  21  ar  
 42  21  40  1   
@<TRIPOS>SUBSTRUCTURE
  1 ****  11 GROUP 4 **** **** 0

# MOE 2024.06 (io_trps.svl 2023.06)
