@<TRIPOS>MOLECULE
NONAME
43 46 1 0 0 
SMALL
USER_CHARGES


@<TRIPOS>ATOM
  1 O       -1.6820     0.4750    -1.4940 O.2   1 <1>  -0.5700 
  2 C       -1.5280     0.4150    -0.2840 C.2   1 <1>   0.7160 
  3 N       -1.6470    -0.8020     0.3200 N.am  1 <1>  -0.7300 
  4 C       -1.2440     1.5870     0.5300 C.2   1 <1>   0.2030 
  5 C       -1.9420    -2.0940    -0.3380 C.3   1 <1>   0.2200 
  6 N       -1.1100     1.5980     1.8520 N.2   1 <1>  -0.7070 
  7 C       -1.0720     2.8860     0.0390 C.2   1 <1>  -0.1810 
  8 C       -3.3820    -2.5220    -0.0970 C.3   1 <1>  -0.0800 
  9 C       -1.1910    -3.2080     0.3810 C.3   1 <1>   0.1200 
 10 N       -0.8550     2.8800     2.1810 N.pl3 1 <1>   0.3000 
 11 C       -0.8320     3.6600     1.0870 C.2   1 <1>  -0.3320 
 12 C       -1.0720     3.6530    -1.2540 C.3   1 <1>   0.0210 
 13 C       -3.3100    -3.1980     1.2750 C.3   1 <1>   0.1200 
 14 C       -4.4430    -1.4110    -0.1990 C.3   1 <1>  -0.0160 
 15 O       -1.9710    -3.5390     1.4910 O.3   1 <1>  -0.5600 
 16 C       -0.6180     5.1080     0.7510 C.3   1 <1>   0.0200 
 17 C       -0.7460     5.0980    -0.7940 C.3   1 <1>  -0.1600 
 18 C       -5.8420    -1.9790    -0.0150 C.ar  1 <1>  -0.1430 
 19 C       -6.5090    -1.9060     1.1910 C.ar  1 <1>  -0.1500 
 20 C       -6.5150    -2.6000    -1.0470 C.ar  1 <1>  -0.1500 
 21 C       -7.7790    -2.4470     1.3050 C.ar  1 <1>   0.1600 
 22 C       -7.7850    -3.1080    -0.8280 C.ar  1 <1>   0.1600 
 23 N       -8.4330    -3.0490     0.3240 N.ar  1 <1>  -0.6200 
 24 H       -1.5310    -0.8200     1.3380 H     1 <1>   0.3700 
 25 H       -1.6930    -2.0490    -1.3850 H     1 <1>   0.0800 
 26 H       -3.6230    -3.2840    -0.8170 H     1 <1>   0.0800 
 27 H       -0.2090    -2.9080     0.7030 H     1 <1>   0.0800 
 28 H       -1.1220    -4.0820    -0.2430 H     1 <1>   0.0800 
 29 H       -0.7020     3.1900     3.1490 H     1 <1>   0.2700 
 30 H       -0.3200     3.2690    -1.9200 H     1 <1>   0.0800 
 31 H       -2.0400     3.5960    -1.7210 H     1 <1>   0.0800 
 32 H       -3.9130    -4.0880     1.3170 H     1 <1>   0.0800 
 33 H       -3.6010    -2.5230     2.0610 H     1 <1>   0.0800 
 34 H       -4.3740    -0.9370    -1.1630 H     1 <1>   0.0800 
 35 H       -4.2680    -0.6530     0.5450 H     1 <1>   0.0800 
 36 H       -1.3780     5.7210     1.2020 H     1 <1>   0.0800 
 37 H        0.3590     5.4360     1.0600 H     1 <1>   0.0800 
 38 H       -1.5260     5.7700    -1.1050 H     1 <1>   0.0800 
 39 H        0.1810     5.4180    -1.2370 H     1 <1>   0.0800 
 40 H       -6.0550    -1.4330     2.0430 H     1 <1>   0.1500 
 41 H       -6.0650    -2.6920    -2.0180 H     1 <1>   0.1500 
 42 H       -8.2840    -2.3800     2.2530 H     1 <1>   0.1500 
 43 H       -8.2950    -3.5890    -1.6450 H     1 <1>   0.1500 
@<TRIPOS>BOND
  1   1   2  2   
  2   2   3  am  
  3   2   4  1   
  4   3   5  1   
  5   3  24  1   
  6   4   6  2   
  7   4   7  1   
  8   5   8  1   
  9   5   9  1   
 10   5  25  1   
 11   6  10  1   
 12   7  11  2   
 13   7  12  1   
 14   8  13  1   
 15   8  14  1   
 16   8  26  1   
 17   9  15  1   
 18   9  27  1   
 19   9  28  1   
 20  10  11  1   
 21  10  29  1   
 22  11  16  1   
 23  12  17  1   
 24  12  30  1   
 25  12  31  1   
 26  13  15  1   
 27  13  32  1   
 28  13  33  1   
 29  14  18  1   
 30  14  34  1   
 31  14  35  1   
 32  16  17  1   
 33  16  36  1   
 34  16  37  1   
 35  17  38  1   
 36  17  39  1   
 37  18  19  ar  
 38  18  20  ar  
 39  19  21  ar  
 40  19  40  1   
 41  20  22  ar  
 42  20  41  1   
 43  21  23  ar  
 44  21  42  1   
 45  22  23  ar  
 46  22  43  1   
@<TRIPOS>SUBSTRUCTURE
  1 ****   3 GROUP 4 **** **** 0

# MOE 2024.06 (io_trps.svl 2023.06)
