@<TRIPOS>MOLECULE
NONAME
50 52 1 0 0 
SMALL
USER_CHARGES


@<TRIPOS>ATOM
  1 O       -1.6480     1.7970     1.9140 O.2   1 <1>  -0.5700 
  2 C       -1.0660     2.0740     0.8830 C.2   1 <1>   0.5440 
  3 N       -1.8070     2.2670    -0.2610 N.am  1 <1>  -0.6600 
  4 C        0.3800     2.1850     0.8920 C.ar  1 <1>   0.0860 
  5 C       -3.2230     1.7580    -0.3290 C.3   1 <1>   0.2810 
  6 C       -1.2900     2.9390    -1.4840 C.3   1 <1>   0.1400 
  7 C        1.0290     3.0320     1.7890 C.ar  1 <1>  -0.1500 
  8 C        1.1710     1.4450     0.0120 C.ar  1 <1>  -0.1500 
  9 C       -3.2730     0.2100    -0.4060 C.2   1 <1>   0.5690 
 10 C       -4.0010     2.4120    -1.4930 C.3   1 <1>  -0.1600 
 11 C       -2.1750     4.1430    -1.8400 C.3   1 <1>  -0.1600 
 12 C        2.4070     3.1490     1.7980 C.ar  1 <1>  -0.1500 
 13 C        2.5490     1.5580     0.0160 C.ar  1 <1>  -0.1500 
 14 O       -2.9060    -0.3180    -1.4380 O.2   1 <1>  -0.5700 
 15 N       -3.7450    -0.5690     0.6260 N.am  1 <1>  -0.6600 
 16 C       -3.6800     3.9090    -1.6050 C.3   1 <1>  -0.1600 
 17 C        3.1700     2.4130     0.9090 C.ar  1 <1>  -0.1500 
 18 C       -3.6870    -2.0560     0.5220 C.3   1 <1>   0.3200 
 19 C       -4.4160    -0.0580     1.8590 C.3   1 <1>   0.1400 
 20 C       -4.8920    -2.5680    -0.2460 C.2   1 <1>   0.0070 
 21 C       -5.9130     0.1440     1.5980 C.3   1 <1>   0.1200 
 22 N       -5.8490    -3.2880     0.2490 N.2   1 <1>  -0.5650 
 23 N       -5.0510    -2.2790    -1.5540 N.pl3 1 <1>   0.0330 
 24 O       -6.5080     0.6980     2.7220 O.3   1 <1>  -0.6800 
 25 C       -6.6760    -3.4800    -0.7980 C.2   1 <1>   0.0770 
 26 C       -6.2050    -2.8700    -1.9080 C.2   1 <1>  -0.3020 
 27 H       -3.7120     2.0840     0.5670 H     1 <1>   0.0800 
 28 H       -1.3000     2.2270    -2.2930 H     1 <1>   0.0800 
 29 H       -0.2760     3.2730    -1.3490 H     1 <1>   0.0800 
 30 H        0.4370     3.5990     2.4860 H     1 <1>   0.1500 
 31 H        0.6910     0.7720    -0.6780 H     1 <1>   0.1500 
 32 H       -5.0550     2.2750    -1.3300 H     1 <1>   0.0800 
 33 H       -3.7540     1.9250    -2.4200 H     1 <1>   0.0800 
 34 H       -2.0070     4.3850    -2.8750 H     1 <1>   0.0800 
 35 H       -1.8580     4.9930    -1.2620 H     1 <1>   0.0800 
 36 H        2.8870     3.8110     2.4990 H     1 <1>   0.1500 
 37 H        3.1410     0.9800    -0.6730 H     1 <1>   0.1500 
 38 H       -3.9680     4.3900    -0.6850 H     1 <1>   0.0800 
 39 H       -4.2500     4.3540    -2.4020 H     1 <1>   0.0800 
 40 H        4.2420     2.5030     0.9140 H     1 <1>   0.1500 
 41 H       -3.6690    -2.5000     1.5020 H     1 <1>   0.0800 
 42 H       -2.7860    -2.3520     0.0140 H     1 <1>   0.0800 
 43 H       -3.9720     0.8680     2.1730 H     1 <1>   0.0800 
 44 H       -4.2840    -0.7640     2.6590 H     1 <1>   0.0800 
 45 H       -6.4020    -0.7920     1.3820 H     1 <1>   0.0800 
 46 H       -6.0640     0.8270     0.7810 H     1 <1>   0.0800 
 47 H       -4.4040    -1.7010    -2.1090 H     1 <1>   0.2700 
 48 H       -6.5710     0.0370     3.4400 H     1 <1>   0.4000 
 49 H       -7.5810    -4.0560    -0.6960 H     1 <1>   0.1500 
 50 H       -6.6160    -2.8250    -2.9000 H     1 <1>   0.1500 
@<TRIPOS>BOND
  1   1   2  2   
  2   2   3  am  
  3   2   4  1   
  4   3   5  1   
  5   3   6  1   
  6   4   7  ar  
  7   4   8  ar  
  8   5   9  1   
  9   5  10  1   
 10   5  27  1   
 11   6  11  1   
 12   6  28  1   
 13   6  29  1   
 14   7  12  ar  
 15   7  30  1   
 16   8  13  ar  
 17   8  31  1   
 18   9  14  2   
 19   9  15  am  
 20  10  16  1   
 21  10  32  1   
 22  10  33  1   
 23  11  16  1   
 24  11  34  1   
 25  11  35  1   
 26  12  17  ar  
 27  12  36  1   
 28  13  17  ar  
 29  13  37  1   
 30  15  18  1   
 31  15  19  1   
 32  16  38  1   
 33  16  39  1   
 34  17  40  1   
 35  18  20  1   
 36  18  41  1   
 37  18  42  1   
 38  19  21  1   
 39  19  43  1   
 40  19  44  1   
 41  20  22  2   
 42  20  23  1   
 43  21  24  1   
 44  21  45  1   
 45  21  46  1   
 46  22  25  1   
 47  23  26  1   
 48  23  47  1   
 49  24  48  1   
 50  25  26  2   
 51  25  49  1   
 52  26  50  1   
@<TRIPOS>SUBSTRUCTURE
  1 ****   9 GROUP 4 **** **** 0

# MOE 2024.06 (io_trps.svl 2023.06)
