@<TRIPOS>MOLECULE
NONAME
46 49 1 0 0 
SMALL
USER_CHARGES


@<TRIPOS>ATOM
  1 O       -0.6260     0.0220    -0.2140 O.2   1 <1>  -0.5700 
  2 C       -1.5960     0.7390    -0.3600 C.2   1 <1>   0.5440 
  3 N       -2.8080     0.1700    -0.6900 N.am  1 <1>  -0.6600 
  4 C       -1.4500     2.1670    -0.1830 C.ar  1 <1>   0.0860 
  5 C       -4.1380     0.8070    -0.4250 C.3   1 <1>   0.1400 
  6 C       -2.9180    -1.2550    -1.1340 C.3   1 <1>   0.1400 
  7 C       -1.9300     3.0540    -1.1460 C.ar  1 <1>   0.1600 
  8 C       -0.8310     2.7110     0.9320 C.ar  1 <1>  -0.1500 
  9 C       -4.9960    -0.0640     0.5140 C.3   1 <1>   0.1900 
 10 C       -3.8110    -2.0650    -0.1810 C.3   1 <1>   0.1100 
 11 N       -1.8800     4.3770    -1.0810 N.ar  1 <1>  -0.6200 
 12 C       -0.7540     4.0830     1.0210 C.ar  1 <1>   0.0820 
 13 N       -5.1430    -1.4370    -0.0280 N.3   1 <1>  -0.8100 
 14 C       -6.3790     0.5840     0.7310 C.3   1 <1>   0.1200 
 15 C       -1.2900     4.8630     0.0010 C.ar  1 <1>   0.1600 
 16 O       -0.1580     4.6330     2.0960 O.3   1 <1>  -0.5320 
 17 C       -6.0300    -2.2360     0.8520 C.3   1 <1>   0.3330 
 18 O       -7.1630    -0.2050     1.5790 O.3   1 <1>  -0.5600 
 19 C       -6.3090    -3.6120     0.2470 C.ar  1 <1>  -0.1430 
 20 C       -7.3680    -1.5050     1.0900 C.3   1 <1>   0.1200 
 21 C       -6.6730    -3.7430    -1.0860 C.ar  1 <1>  -0.1500 
 22 C       -6.2040    -4.7510     1.0320 C.ar  1 <1>  -0.1500 
 23 C       -6.9310    -4.9900    -1.6260 C.ar  1 <1>  -0.1500 
 24 C       -6.4610    -6.0000     0.4940 C.ar  1 <1>  -0.1500 
 25 C       -6.8250    -6.1210    -0.8360 C.ar  1 <1>  -0.1500 
 26 H       -4.0100     1.7740     0.0270 H     1 <1>   0.0800 
 27 H       -4.6560     0.9370    -1.3590 H     1 <1>   0.0800 
 28 H       -3.3450    -1.2840    -2.1200 H     1 <1>   0.0800 
 29 H       -1.9470    -1.7150    -1.1840 H     1 <1>   0.0800 
 30 H       -2.3860     2.6330    -2.0250 H     1 <1>   0.1500 
 31 H       -0.4210     2.0800     1.7020 H     1 <1>   0.1500 
 32 H       -4.5010    -0.1070     1.4690 H     1 <1>   0.0800 
 33 H       -3.3250    -2.1440     0.7760 H     1 <1>   0.0800 
 34 H       -3.9190    -3.0580    -0.5830 H     1 <1>   0.0800 
 35 H       -6.8960     0.7000    -0.2060 H     1 <1>   0.0800 
 36 H       -6.2720     1.5490     1.1940 H     1 <1>   0.0800 
 37 H       -1.2300     5.9340     0.0800 H     1 <1>   0.1500 
 38 H       -0.1040     5.6060     2.0770 H     1 <1>   0.4500 
 39 H       -5.5500    -2.3650     1.8070 H     1 <1>   0.0800 
 40 H       -7.9550    -2.0400     1.8140 H     1 <1>   0.0800 
 41 H       -7.9270    -1.4420     0.1730 H     1 <1>   0.0800 
 42 H       -6.7500    -2.8660    -1.7060 H     1 <1>   0.1500 
 43 H       -5.9230    -4.6740     2.0680 H     1 <1>   0.1500 
 44 H       -7.2120    -5.0800    -2.6610 H     1 <1>   0.1500 
 45 H       -6.3790    -6.8790     1.1090 H     1 <1>   0.1500 
 46 H       -7.0250    -7.0910    -1.2540 H     1 <1>   0.1500 
@<TRIPOS>BOND
  1   1   2  2   
  2   2   3  am  
  3   2   4  1   
  4   3   5  1   
  5   3   6  1   
  6   4   7  ar  
  7   4   8  ar  
  8   5   9  1   
  9   5  26  1   
 10   5  27  1   
 11   6  10  1   
 12   6  28  1   
 13   6  29  1   
 14   7  11  ar  
 15   7  30  1   
 16   8  12  ar  
 17   8  31  1   
 18   9  13  1   
 19   9  14  1   
 20   9  32  1   
 21  10  13  1   
 22  10  33  1   
 23  10  34  1   
 24  11  15  ar  
 25  12  15  ar  
 26  12  16  1   
 27  13  17  1   
 28  14  18  1   
 29  14  35  1   
 30  14  36  1   
 31  15  37  1   
 32  16  38  1   
 33  17  19  1   
 34  17  20  1   
 35  17  39  1   
 36  18  20  1   
 37  19  21  ar  
 38  19  22  ar  
 39  20  40  1   
 40  20  41  1   
 41  21  23  ar  
 42  21  42  1   
 43  22  24  ar  
 44  22  43  1   
 45  23  25  ar  
 46  23  44  1   
 47  24  25  ar  
 48  24  45  1   
 49  25  46  1   
@<TRIPOS>SUBSTRUCTURE
  1 ****   9 GROUP 4 **** **** 0

# MOE 2024.06 (io_trps.svl 2023.06)
