@<TRIPOS>MOLECULE
NONAME
36 38 1 0 0 
SMALL
USER_CHARGES


@<TRIPOS>ATOM
  1 F       -2.2630     0.5160     2.4840 F     1 <1>  -0.1900 
  2 C       -2.3170    -0.2650     1.4380 C.ar  1 <1>   0.1900 
  3 C       -2.4020     0.2910     0.1690 C.ar  1 <1>  -0.1440 
  4 C       -2.2940    -1.6320     1.6630 C.ar  1 <1>  -0.1500 
  5 C       -2.4910    -0.6130    -0.8800 C.ar  1 <1>   0.1900 
  6 C       -2.4310     1.8010    -0.0610 C.3   1 <1>   0.2540 
  7 C       -2.3690    -2.5000     0.5850 C.ar  1 <1>  -0.1500 
  8 F       -2.6050    -0.1720    -2.1050 F     1 <1>  -0.1900 
  9 C       -2.4710    -1.9860    -0.6980 C.ar  1 <1>  -0.1500 
 10 N       -1.0880     2.3960    -0.2140 N.3   1 <1>  -0.8100 
 11 C       -0.2840     2.3800     1.0300 C.3   1 <1>   0.1100 
 12 C       -0.4080     1.9810    -1.4580 C.3   1 <1>   0.1100 
 13 C        0.8900     3.4000     1.1090 C.3   1 <1>   0.2200 
 14 C        0.9690     2.6270    -1.6900 C.3   1 <1>  -0.0190 
 15 N        0.8650     4.4180     0.0240 N.am  1 <1>  -0.7300 
 16 C        2.2640     2.6890     1.1490 C.3   1 <1>   0.1200 
 17 C        0.9570     4.0940    -1.2850 C.2   1 <1>   0.5690 
 18 C        2.0990     1.7850    -1.0550 C.3   1 <1>   0.1200 
 19 O        2.8470     2.4870    -0.1110 O.3   1 <1>  -0.5600 
 20 O        1.0150     4.9540    -2.1300 O.2   1 <1>  -0.5700 
 21 H       -2.2230    -2.0080     2.6690 H     1 <1>   0.1500 
 22 H       -2.9340     2.2810     0.7620 H     1 <1>   0.0800 
 23 H       -3.0090     2.0220    -0.9420 H     1 <1>   0.0800 
 24 H       -2.3520    -3.5650     0.7440 H     1 <1>   0.1500 
 25 H       -2.5380    -2.6400    -1.5490 H     1 <1>   0.1500 
 26 H       -0.9390     2.6160     1.8510 H     1 <1>   0.0800 
 27 H        0.0780     1.3820     1.2060 H     1 <1>   0.0800 
 28 H       -0.3050     0.9110    -1.4820 H     1 <1>   0.0800 
 29 H       -1.0420     2.2620    -2.2820 H     1 <1>   0.0800 
 30 H        0.7830     3.9140     2.0480 H     1 <1>   0.0800 
 31 H        1.1370     2.5950    -2.7500 H     1 <1>   0.0800 
 32 H        0.8440     5.4060     0.2650 H     1 <1>   0.3700 
 33 H        2.1990     1.7400     1.6510 H     1 <1>   0.0800 
 34 H        2.9510     3.3030     1.7030 H     1 <1>   0.0800 
 35 H        2.7880     1.4910    -1.8270 H     1 <1>   0.0800 
 36 H        1.7220     0.8890    -0.5910 H     1 <1>   0.0800 
@<TRIPOS>BOND
  1   1   2  1   
  2   2   3  ar  
  3   2   4  ar  
  4   3   5  ar  
  5   3   6  1   
  6   4   7  ar  
  7   4  21  1   
  8   5   8  1   
  9   5   9  ar  
 10   6  10  1   
 11   6  22  1   
 12   6  23  1   
 13   7   9  ar  
 14   7  24  1   
 15   9  25  1   
 16  10  11  1   
 17  10  12  1   
 18  11  13  1   
 19  11  26  1   
 20  11  27  1   
 21  12  14  1   
 22  12  28  1   
 23  12  29  1   
 24  13  15  1   
 25  13  16  1   
 26  13  30  1   
 27  14  17  1   
 28  14  18  1   
 29  14  31  1   
 30  15  17  am  
 31  15  32  1   
 32  16  19  1   
 33  16  33  1   
 34  16  34  1   
 35  17  20  2   
 36  18  19  1   
 37  18  35  1   
 38  18  36  1   
@<TRIPOS>SUBSTRUCTURE
  1 ****  10 GROUP 4 **** **** 0

# MOE 2024.06 (io_trps.svl 2023.06)
