@<TRIPOS>MOLECULE
NONAME
40 42 1 0 0 
SMALL
USER_CHARGES


@<TRIPOS>ATOM
  1 S       -0.6790    -0.0030    -1.4490 S.3   1 <1>  -0.0800 
  2 C        0.5850     0.6130    -0.4060 C.ar  1 <1>   0.0400 
  3 C       -1.8670     0.3830    -0.2070 C.2   1 <1>   0.1980 
  4 C       -0.0030     1.0470     0.7670 C.ar  1 <1>   0.2270 
  5 C        1.9450     0.6810    -0.6490 C.ar  1 <1>  -0.1500 
  6 N       -1.3870     0.9040     0.8470 N.2   1 <1>  -0.5650 
  7 C       -3.3160     0.0620    -0.5110 C.3   1 <1>   0.0200 
  8 C        0.8140     1.5800     1.7530 C.ar  1 <1>  -0.1500 
  9 C        2.7460     1.2160     0.3460 C.ar  1 <1>  -0.1500 
 10 C       -3.5830    -1.4480    -0.4310 C.3   1 <1>  -0.1600 
 11 C        2.1820     1.6630     1.5400 C.ar  1 <1>  -0.1500 
 12 C       -5.0570    -1.7620    -0.6770 C.3   1 <1>   0.1400 
 13 N       -5.2470    -3.2260    -0.6450 N.am  1 <1>  -0.7300 
 14 C       -5.6830    -3.9880    -1.6840 C.2   1 <1>   0.5690 
 15 O       -5.9520    -3.5020    -2.7560 O.2   1 <1>  -0.5700 
 16 C       -5.8260    -5.4940    -1.5160 C.3   1 <1>   0.1310 
 17 S       -5.9470    -5.9820     0.2770 S.3   1 <1>  -0.2860 
 18 C       -6.0360    -7.7690     0.1880 C.2   1 <1>   0.2430 
 19 N       -6.1690    -8.5200     1.2720 N.pl3 1 <1>   0.0330 
 20 N       -5.9780    -8.4500    -0.9000 N.2   1 <1>  -0.3380 
 21 C       -6.1900    -9.7530     0.7590 C.2   1 <1>   0.0060 
 22 N       -6.0780    -9.7330    -0.5280 N.2   1 <1>  -0.3380 
 23 C       -6.3290   -11.0100     1.5930 C.3   1 <1>  -0.0600 
 24 H        2.3550     0.3300    -1.5790 H     1 <1>   0.1500 
 25 H       -3.5600     0.4320    -1.4910 H     1 <1>   0.0800 
 26 H       -3.9330     0.5760     0.2050 H     1 <1>   0.0800 
 27 H        0.3690     1.9220     2.6690 H     1 <1>   0.1500 
 28 H        3.8100     1.2890     0.1990 H     1 <1>   0.1500 
 29 H       -3.2970    -1.8030     0.5440 H     1 <1>   0.0800 
 30 H       -2.9870    -1.9530    -1.1710 H     1 <1>   0.0800 
 31 H        2.8170     2.0770     2.3040 H     1 <1>   0.1500 
 32 H       -5.3600    -1.3760    -1.6370 H     1 <1>   0.0800 
 33 H       -5.6710    -1.3070     0.0810 H     1 <1>   0.0800 
 34 H       -5.0610    -3.6860     0.2500 H     1 <1>   0.3700 
 35 H       -4.9720    -5.9980    -1.9280 H     1 <1>   0.0800 
 36 H       -6.7190    -5.8410    -2.0000 H     1 <1>   0.0800 
 37 H       -6.2380    -8.2090     2.2410 H     1 <1>   0.2700 
 38 H       -7.2570   -10.9950     2.1360 H     1 <1>   0.0800 
 39 H       -5.5110   -11.0890     2.2850 H     1 <1>   0.0800 
 40 H       -6.3210   -11.8740     0.9520 H     1 <1>   0.0800 
@<TRIPOS>BOND
  1   1   2  1   
  2   1   3  1   
  3   2   4  ar  
  4   2   5  ar  
  5   3   6  2   
  6   3   7  1   
  7   4   6  1   
  8   4   8  ar  
  9   5   9  ar  
 10   5  24  1   
 11   7  10  1   
 12   7  25  1   
 13   7  26  1   
 14   8  11  ar  
 15   8  27  1   
 16   9  11  ar  
 17   9  28  1   
 18  10  12  1   
 19  10  29  1   
 20  10  30  1   
 21  11  31  1   
 22  12  13  1   
 23  12  32  1   
 24  12  33  1   
 25  13  14  am  
 26  13  34  1   
 27  14  15  2   
 28  14  16  1   
 29  16  17  1   
 30  16  35  1   
 31  16  36  1   
 32  17  18  1   
 33  18  19  1   
 34  18  20  2   
 35  19  21  1   
 36  19  37  1   
 37  20  22  1   
 38  21  22  2   
 39  21  23  1   
 40  23  38  1   
 41  23  39  1   
 42  23  40  1   
@<TRIPOS>SUBSTRUCTURE
  1 ****  10 GROUP 4 **** **** 0

# MOE 2024.06 (io_trps.svl 2023.06)
