@<TRIPOS>MOLECULE
NONAME
52 55 1 0 0 
SMALL
USER_CHARGES


@<TRIPOS>ATOM
  1 O        1.4550     0.3940     1.1760 O.3   1 <1>  -0.3630 
  2 C        1.6470    -0.5200     0.1900 C.ar  1 <1>   0.0830 
  3 C        0.4120     1.3210     0.9390 C.3   1 <1>   0.1200 
  4 C        0.7530    -1.5890     0.0710 C.ar  1 <1>   0.0830 
  5 C        2.7160    -0.3790    -0.6970 C.ar  1 <1>  -0.1440 
  6 C        1.0000     2.6670     0.4880 C.3   1 <1>  -0.1600 
  7 O       -0.2670    -1.6750     0.9720 O.3   1 <1>  -0.3620 
  8 C        0.9260    -2.5110    -0.9540 C.ar  1 <1>  -0.1500 
  9 C        2.8630    -1.3160    -1.7120 C.ar  1 <1>  -0.1500 
 10 C        3.7690     0.7240    -0.6320 C.3   1 <1>   0.4860 
 11 C        2.1250     2.5630    -0.5510 C.3   1 <1>   0.3430 
 12 C       -1.0930    -2.8170     1.0450 C.3   1 <1>   0.0400 
 13 C        1.9770    -2.3700    -1.8410 C.ar  1 <1>  -0.1500 
 14 N        3.3280     1.9470     0.0910 N.4   1 <1>  -0.9590 
 15 C        4.4850     2.8830     0.3320 C.3   1 <1>   0.3430 
 16 C        4.2250     4.0520     1.3110 C.3   1 <1>   0.2000 
 17 O        3.2010     4.8710     0.7730 O.3   1 <1>  -0.3630 
 18 C        5.4530     4.9810     1.4530 C.3   1 <1>  -0.0170 
 19 C        3.7140     6.0030     0.3050 C.ar  1 <1>   0.3930 
 20 C        5.0240     6.1660     0.6350 C.ar  1 <1>  -0.1430 
 21 N        3.0150     6.8300    -0.4230 N.ar  1 <1>  -0.6200 
 22 C        5.6450     7.3020     0.1820 C.ar  1 <1>   0.1670 
 23 C        3.7070     7.8920    -0.8070 C.ar  1 <1>   0.4770 
 24 N        4.9790     8.1730    -0.5490 N.ar  1 <1>  -0.6200 
 25 C        7.0940     7.6240     0.4820 C.3   1 <1>  -0.0970 
 26 C        2.9670     8.9110    -1.6380 C.3   1 <1>  -0.0970 
 27 H       -0.1430     1.4340     1.8540 H     1 <1>   0.0800 
 28 H       -0.2520     0.9230     0.1890 H     1 <1>   0.0800 
 29 H        1.3360     3.2100     1.3520 H     1 <1>   0.0800 
 30 H        0.2010     3.2480     0.0620 H     1 <1>   0.0800 
 31 H        0.2570    -3.3410    -1.0810 H     1 <1>   0.1500 
 32 H        3.6730    -1.2440    -2.4190 H     1 <1>   0.1500 
 33 H        4.0550     0.9900    -1.6370 H     1 <1>   0.0800 
 34 H        4.6380     0.3180    -0.1420 H     1 <1>   0.0800 
 35 H        2.3650     3.5440    -0.9320 H     1 <1>   0.0800 
 36 H        1.7860     1.9570    -1.3760 H     1 <1>   0.0800 
 37 H       -1.7630    -2.6920     1.8770 H     1 <1>   0.0800 
 38 H       -0.4780    -3.6850     1.2010 H     1 <1>   0.0800 
 39 H       -1.6570    -2.9010     0.1330 H     1 <1>   0.0800 
 40 H        2.1050    -3.0880    -2.6340 H     1 <1>   0.1500 
 41 H        2.9630     1.5730     0.9860 H     1 <1>   0.4500 
 42 H        4.8060     3.3000    -0.6090 H     1 <1>   0.0800 
 43 H        5.3100     2.3120     0.7240 H     1 <1>   0.0800 
 44 H        3.9050     3.6870     2.2710 H     1 <1>   0.0800 
 45 H        6.3590     4.5370     1.0790 H     1 <1>   0.0800 
 46 H        5.5910     5.2690     2.4810 H     1 <1>   0.0800 
 47 H        7.5420     6.8750     1.1070 H     1 <1>   0.0800 
 48 H        7.1520     8.5730     0.9830 H     1 <1>   0.0800 
 49 H        7.6450     7.6890    -0.4380 H     1 <1>   0.0800 
 50 H        2.0300     8.5130    -1.9810 H     1 <1>   0.0800 
 51 H        3.5620     9.1860    -2.4880 H     1 <1>   0.0800 
 52 H        2.7800     9.7850    -1.0430 H     1 <1>   0.0800 
@<TRIPOS>BOND
  1   1   2  1   
  2   1   3  1   
  3   2   4  ar  
  4   2   5  ar  
  5   3   6  1   
  6   3  27  1   
  7   3  28  1   
  8   4   7  1   
  9   4   8  ar  
 10   5   9  ar  
 11   5  10  1   
 12   6  11  1   
 13   6  29  1   
 14   6  30  1   
 15   7  12  1   
 16   8  13  ar  
 17   8  31  1   
 18   9  13  ar  
 19   9  32  1   
 20  10  14  1   
 21  10  33  1   
 22  10  34  1   
 23  11  14  1   
 24  11  35  1   
 25  11  36  1   
 26  12  37  1   
 27  12  38  1   
 28  12  39  1   
 29  13  40  1   
 30  14  15  1   
 31  14  41  1   
 32  15  16  1   
 33  15  42  1   
 34  15  43  1   
 35  16  17  1   
 36  16  18  1   
 37  16  44  1   
 38  17  19  1   
 39  18  20  1   
 40  18  45  1   
 41  18  46  1   
 42  19  20  ar  
 43  19  21  ar  
 44  20  22  ar  
 45  21  23  ar  
 46  22  24  ar  
 47  22  25  1   
 48  23  24  ar  
 49  23  26  1   
 50  25  47  1   
 51  25  48  1   
 52  25  49  1   
 53  26  50  1   
 54  26  51  1   
 55  26  52  1   
@<TRIPOS>SUBSTRUCTURE
  1 ****  14 GROUP 4 **** **** 0

# MOE 2024.06 (io_trps.svl 2023.06)
