@<TRIPOS>MOLECULE
NONAME
48 50 1 0 0 
SMALL
USER_CHARGES


@<TRIPOS>ATOM
  1 O        0.5070     1.1520     0.4670 O.co2 1 <1>  -0.9000 
  2 C        1.4410     0.4020     0.7480 C.2   1 <1>   0.9060 
  3 O        1.4530    -0.2540     1.8030 O.co2 1 <1>  -0.9000 
  4 C        2.6190     0.2580    -0.2340 C.3   1 <1>  -0.1060 
  5 C        3.8980    -0.0630     0.5670 C.3   1 <1>   0.4230 
  6 C        2.8560     1.5840    -1.0100 C.3   1 <1>  -0.1600 
  7 C        2.3470    -0.8740    -1.2530 C.3   1 <1>  -0.1600 
  8 N        3.7610    -1.3960     1.2540 N.4   1 <1>  -0.9590 
  9 C        4.2510     1.1200     1.5070 C.3   1 <1>   0.2090 
 10 C        3.2390     2.7450    -0.0810 C.3   1 <1>   0.2090 
 11 C        2.3180    -2.2490    -0.5680 C.3   1 <1>  -0.1600 
 12 C        3.5650    -2.5000     0.2820 C.3   1 <1>   0.3430 
 13 C        4.8150    -1.6980     2.2570 C.3   1 <1>   0.2630 
 14 N        4.4480     2.3690     0.7100 N.pl3 1 <1>  -0.8380 
 15 C        5.7050     2.6500     0.1930 C.ar  1 <1>   0.4100 
 16 N        6.3790     1.5890    -0.2490 N.ar  1 <1>  -0.6200 
 17 C        6.2080     3.9620     0.1490 C.ar  1 <1>   0.0730 
 18 C        7.5670     1.8160    -0.7700 C.ar  1 <1>   0.1670 
 19 C        5.4370     5.0480     0.6760 C.1   1 <1>   0.4840 
 20 C        7.4630     4.1770    -0.4030 C.ar  1 <1>  -0.1430 
 21 C        8.1420     3.0700    -0.8690 C.ar  1 <1>  -0.1500 
 22 C        8.3120     0.6000    -1.2790 C.3   1 <1>  -0.0970 
 23 N        4.8640     5.9580     1.0610 N.1   1 <1>  -0.5570 
 24 C        8.0950     5.5610    -0.5030 C.3   1 <1>  -0.0970 
 25 H        4.7100    -0.1410    -0.1350 H     1 <1>   0.0800 
 26 H        1.9610     1.8550    -1.5430 H     1 <1>   0.0800 
 27 H        3.6400     1.4590    -1.7370 H     1 <1>   0.0800 
 28 H        1.4020    -0.6950    -1.7400 H     1 <1>   0.0800 
 29 H        3.1130    -0.8740    -2.0090 H     1 <1>   0.0800 
 30 H        2.8360    -1.2640     1.7470 H     1 <1>   0.4500 
 31 H        5.1620     0.9130     2.0380 H     1 <1>   0.0800 
 32 H        3.4660     1.2820     2.2270 H     1 <1>   0.0800 
 33 H        2.4240     2.9710     0.5890 H     1 <1>   0.0800 
 34 H        3.4340     3.6250    -0.6700 H     1 <1>   0.0800 
 35 H        2.2390    -3.0180    -1.3160 H     1 <1>   0.0800 
 36 H        1.4450    -2.3250     0.0590 H     1 <1>   0.0800 
 37 H        4.4290    -2.5720    -0.3590 H     1 <1>   0.0800 
 38 H        3.4500    -3.4330     0.8090 H     1 <1>   0.0800 
 39 H        5.7840    -1.7120     1.7850 H     1 <1>   0.0800 
 40 H        4.6300    -2.6570     2.7110 H     1 <1>   0.0800 
 41 H        4.8140    -0.9510     3.0330 H     1 <1>   0.0800 
 42 H        9.1180     3.1790    -1.3070 H     1 <1>   0.1500 
 43 H        9.2640     0.8720    -1.6950 H     1 <1>   0.0800 
 44 H        7.7290     0.1150    -2.0410 H     1 <1>   0.0800 
 45 H        8.4710    -0.0900    -0.4710 H     1 <1>   0.0800 
 46 H        9.0600     5.5130    -0.9740 H     1 <1>   0.0800 
 47 H        8.2200     5.9840     0.4790 H     1 <1>   0.0800 
 48 H        7.4680     6.2150    -1.0830 H     1 <1>   0.0800 
@<TRIPOS>BOND
  1   1   2  ar  
  2   2   3  ar  
  3   2   4  1   
  4   4   5  1   
  5   4   6  1   
  6   4   7  1   
  7   5   8  1   
  8   5   9  1   
  9   5  25  1   
 10   6  10  1   
 11   6  26  1   
 12   6  27  1   
 13   7  11  1   
 14   7  28  1   
 15   7  29  1   
 16   8  12  1   
 17   8  13  1   
 18   8  30  1   
 19   9  14  1   
 20   9  31  1   
 21   9  32  1   
 22  10  14  1   
 23  10  33  1   
 24  10  34  1   
 25  11  12  1   
 26  11  35  1   
 27  11  36  1   
 28  12  37  1   
 29  12  38  1   
 30  13  39  1   
 31  13  40  1   
 32  13  41  1   
 33  14  15  1   
 34  15  16  ar  
 35  15  17  ar  
 36  16  18  ar  
 37  17  19  1   
 38  17  20  ar  
 39  18  21  ar  
 40  18  22  1   
 41  19  23  3   
 42  20  21  ar  
 43  20  24  1   
 44  21  42  1   
 45  22  43  1   
 46  22  44  1   
 47  22  45  1   
 48  24  46  1   
 49  24  47  1   
 50  24  48  1   
@<TRIPOS>SUBSTRUCTURE
  1 ****  14 GROUP 4 **** **** 0

# MOE 2024.06 (io_trps.svl 2023.06)
