@<TRIPOS>MOLECULE
NONAME
53 55 1 0 0 
SMALL
USER_CHARGES


@<TRIPOS>ATOM
  1 O       -0.3040     0.7450    -0.7540 O.2   1 <1>  -0.5700 
  2 C       -1.2820     1.0920    -0.1280 C.2   1 <1>   0.5690 
  3 N       -2.2150     0.1360     0.2320 N.am  1 <1>  -0.6600 
  4 C       -1.4100     2.6200     0.1860 C.3   1 <1>   0.2040 
  5 C       -1.8210    -1.3110     0.2730 C.3   1 <1>   0.1400 
  6 C       -3.6980     0.3340     0.3100 C.3   1 <1>   0.1400 
  7 C       -0.0070     3.2610     0.4180 C.ar  1 <1>  -0.1440 
  8 C       -2.2160     3.0110     1.4480 C.3   1 <1>  -0.1600 
  9 C       -2.2010     3.2990    -0.9570 C.3   1 <1>  -0.1600 
 10 C       -2.3940    -2.1000    -0.9180 C.3   1 <1>  -0.1860 
 11 C       -4.4700    -0.7250    -0.4890 C.3   1 <1>  -0.1600 
 12 C        0.3760     4.5020    -0.0900 C.ar  1 <1>  -0.1500 
 13 C        0.9110     2.5830     1.2130 C.ar  1 <1>  -0.1500 
 14 C       -2.7630     4.4090     1.1620 C.3   1 <1>  -0.1600 
 15 C       -3.0240     4.4430    -0.3450 C.3   1 <1>  -0.1600 
 16 C       -2.6780    -3.5090    -0.4230 C.2   1 <1>   0.9060 
 17 C       -3.5840    -1.3590    -1.5590 C.3   1 <1>   0.2000 
 18 C        1.6320     5.0510     0.1660 C.ar  1 <1>   0.0820 
 19 C        2.1630     3.1070     1.4730 C.ar  1 <1>  -0.1500 
 20 O       -1.7560    -4.1330     0.1090 O.co2 1 <1>  -0.9000 
 21 O       -3.8130    -3.9980    -0.5320 O.co2 1 <1>  -0.9000 
 22 O       -4.3560    -2.2200    -2.3040 O.3   1 <1>  -0.6800 
 23 O        1.9880     6.2820    -0.3070 O.3   1 <1>  -0.3630 
 24 C        2.5420     4.3280     0.9490 C.ar  1 <1>   0.0820 
 25 C        1.0640     7.1430    -0.9340 C.3   1 <1>   0.0400 
 26 O        3.8030     4.7380     1.2570 O.3   1 <1>  -0.3630 
 27 C        4.6140     5.2980     0.2480 C.3   1 <1>   0.0400 
 28 H       -0.7500    -1.4210     0.2920 H     1 <1>   0.0800 
 29 H       -2.1940    -1.7300     1.1930 H     1 <1>   0.0800 
 30 H       -4.0070     0.2910     1.3400 H     1 <1>   0.0800 
 31 H       -3.9580     1.3000    -0.0790 H     1 <1>   0.0800 
 32 H       -3.0440     2.3620     1.6250 H     1 <1>   0.0800 
 33 H       -1.6070     3.0030     2.3350 H     1 <1>   0.0800 
 34 H       -1.5520     3.6290    -1.7480 H     1 <1>   0.0800 
 35 H       -2.8770     2.5930    -1.4040 H     1 <1>   0.0800 
 36 H       -1.6240    -2.1850    -1.6580 H     1 <1>   0.0800 
 37 H       -5.3310    -0.2720    -0.9450 H     1 <1>   0.0800 
 38 H       -4.8120    -1.4930     0.1830 H     1 <1>   0.0800 
 39 H       -0.3150     5.0570    -0.6850 H     1 <1>   0.1500 
 40 H        0.6590     1.6260     1.6360 H     1 <1>   0.1500 
 41 H       -3.6520     4.6180     1.7310 H     1 <1>   0.0800 
 42 H       -2.0130     5.1420     1.4130 H     1 <1>   0.0800 
 43 H       -2.7450     5.3970    -0.7590 H     1 <1>   0.0800 
 44 H       -4.0710     4.2780    -0.5390 H     1 <1>   0.0800 
 45 H       -3.2220    -0.5940    -2.2250 H     1 <1>   0.0800 
 46 H        2.8590     2.5620     2.0840 H     1 <1>   0.1500 
 47 H       -4.3930    -3.0690    -1.7650 H     1 <1>   0.4000 
 48 H        1.5620     8.0740    -1.1390 H     1 <1>   0.0800 
 49 H        0.2360     7.3100    -0.2680 H     1 <1>   0.0800 
 50 H        0.7380     6.6940    -1.8550 H     1 <1>   0.0800 
 51 H        5.6420     5.1560     0.5280 H     1 <1>   0.0800 
 52 H        4.3990     6.3480     0.1730 H     1 <1>   0.0800 
 53 H        4.4110     4.8000    -0.6840 H     1 <1>   0.0800 
@<TRIPOS>BOND
  1   1   2  2   
  2   2   3  am  
  3   2   4  1   
  4   3   5  1   
  5   3   6  1   
  6   4   7  1   
  7   4   8  1   
  8   4   9  1   
  9   5  10  1   
 10   5  28  1   
 11   5  29  1   
 12   6  11  1   
 13   6  30  1   
 14   6  31  1   
 15   7  12  ar  
 16   7  13  ar  
 17   8  14  1   
 18   8  32  1   
 19   8  33  1   
 20   9  15  1   
 21   9  34  1   
 22   9  35  1   
 23  10  16  1   
 24  10  17  1   
 25  10  36  1   
 26  11  17  1   
 27  11  37  1   
 28  11  38  1   
 29  12  18  ar  
 30  12  39  1   
 31  13  19  ar  
 32  13  40  1   
 33  14  15  1   
 34  14  41  1   
 35  14  42  1   
 36  15  43  1   
 37  15  44  1   
 38  16  20  ar  
 39  16  21  ar  
 40  17  22  1   
 41  17  45  1   
 42  18  23  1   
 43  18  24  ar  
 44  19  24  ar  
 45  19  46  1   
 46  22  47  1   
 47  23  25  1   
 48  24  26  1   
 49  25  48  1   
 50  25  49  1   
 51  25  50  1   
 52  26  27  1   
 53  27  51  1   
 54  27  52  1   
 55  27  53  1   
@<TRIPOS>SUBSTRUCTURE
  1 ****   2 GROUP 4 **** **** 0

# MOE 2024.06 (io_trps.svl 2023.06)
