@<TRIPOS>MOLECULE
NONAME
60 64 1 0 0 
SMALL
USER_CHARGES


@<TRIPOS>ATOM
  1 O       -1.0290     0.5150     2.4040 O.2   1 <1>  -0.5700 
  2 C       -1.5610     1.0910     1.4840 C.2   1 <1>   0.5690 
  3 N       -2.3940     0.4250     0.6270 N.am  1 <1>  -0.6600 
  4 C       -1.2930     2.5830     1.3320 C.3   1 <1>  -0.0990 
  5 C       -3.2110     0.9820    -0.4820 C.3   1 <1>   0.1400 
  6 C       -2.6610    -1.0230     0.7650 C.3   1 <1>   0.1400 
  7 C        0.0030     2.9540     0.5710 C.3   1 <1>   0.0000 
  8 C       -4.0710    -0.1830    -0.9940 C.3   1 <1>   0.2000 
  9 C       -3.2930    -1.4300    -0.5650 C.3   1 <1>  -0.0800 
 10 C        1.2580     2.3810     1.2750 C.3   1 <1>  -0.1600 
 11 C       -0.0190     2.4360    -0.8870 C.3   1 <1>  -0.1600 
 12 C        0.1340     4.4970     0.5310 C.3   1 <1>  -0.1600 
 13 O       -5.3110    -0.1800    -0.3440 O.3   1 <1>  -0.5600 
 14 C       -4.1350    -2.7160    -0.4790 C.3   1 <1>   0.0200 
 15 C        2.5240     2.8090     0.5220 C.3   1 <1>   0.2800 
 16 C        1.2600     2.8500    -1.6410 C.3   1 <1>  -0.0800 
 17 C        1.4120     4.9290    -0.2150 C.3   1 <1>  -0.0800 
 18 C       -6.2900     0.6180    -0.9310 C.3   1 <1>   0.0400 
 19 C       -3.2990    -3.9610    -0.2270 C.2   1 <1>  -0.0400 
 20 O        3.6220     2.2900     1.1640 O.3   1 <1>  -0.6800 
 21 C        2.4870     2.2680    -0.9140 C.3   1 <1>  -0.1600 
 22 C        2.6380     4.3400     0.5070 C.3   1 <1>  -0.1600 
 23 C        1.3620     4.3870    -1.6560 C.3   1 <1>  -0.1600 
 24 O       -3.9100    -5.1050    -0.0640 O.3   1 <1>  -0.0190 
 25 C       -1.9790    -4.1880    -0.1290 C.2   1 <1>  -0.1500 
 26 N       -3.0730    -6.0810     0.1400 N.2   1 <1>  -0.4100 
 27 C       -1.9010    -5.5570     0.1080 C.2   1 <1>   0.1080 
 28 C       -0.6160    -6.3300     0.3030 C.3   1 <1>  -0.0590 
 29 H       -2.1340     3.0500     0.8590 H     1 <1>   0.0800 
 30 H       -1.2350     2.9910     2.3240 H     1 <1>   0.0800 
 31 H       -3.8190     1.8010    -0.1420 H     1 <1>   0.0800 
 32 H       -2.5570     1.3110    -1.2680 H     1 <1>   0.0800 
 33 H       -1.7520    -1.5610     0.9700 H     1 <1>   0.0800 
 34 H       -3.3540    -1.1700     1.5770 H     1 <1>   0.0800 
 35 H       -4.2260    -0.1510    -2.0590 H     1 <1>   0.0800 
 36 H       -2.4990    -1.5810    -1.2760 H     1 <1>   0.0800 
 37 H        1.2140     1.3070     1.2980 H     1 <1>   0.0800 
 38 H        1.3040     2.7350     2.2900 H     1 <1>   0.0800 
 39 H       -0.0980     1.3630    -0.8940 H     1 <1>   0.0800 
 40 H       -0.8730     2.8380    -1.4020 H     1 <1>   0.0800 
 41 H       -0.7230     4.9260     0.0420 H     1 <1>   0.0800 
 42 H        0.1620     4.8870     1.5340 H     1 <1>   0.0800 
 43 H       -4.6730    -2.8520    -1.3990 H     1 <1>   0.0800 
 44 H       -4.8600    -2.6250     0.3110 H     1 <1>   0.0800 
 45 H        1.2250     2.4770    -2.6510 H     1 <1>   0.0800 
 46 H        1.4800     6.0030    -0.2300 H     1 <1>   0.0800 
 47 H       -7.1820     0.5430    -0.3340 H     1 <1>   0.0800 
 48 H       -6.4920     0.2600    -1.9260 H     1 <1>   0.0800 
 49 H       -5.9580     1.6410    -0.9550 H     1 <1>   0.0800 
 50 H        4.4280     2.5580     0.6910 H     1 <1>   0.4000 
 51 H        3.3820     2.5470    -1.4400 H     1 <1>   0.0800 
 52 H        2.4210     1.1940    -0.8950 H     1 <1>   0.0800 
 53 H        2.6770     4.7110     1.5160 H     1 <1>   0.0800 
 54 H        3.5340     4.6410    -0.0040 H     1 <1>   0.0800 
 55 H        0.5140     4.8040    -2.1720 H     1 <1>   0.0800 
 56 H        2.2460     4.6900    -2.1900 H     1 <1>   0.0800 
 57 H       -1.1470    -3.5140    -0.2070 H     1 <1>   0.1500 
 58 H       -0.0260    -5.8700     1.0730 H     1 <1>   0.0800 
 59 H       -0.0580    -6.3440    -0.6150 H     1 <1>   0.0800 
 60 H       -0.8380    -7.3420     0.5910 H     1 <1>   0.0800 
@<TRIPOS>BOND
  1   1   2  2   
  2   2   3  am  
  3   2   4  1   
  4   3   5  1   
  5   3   6  1   
  6   4   7  1   
  7   4  29  1   
  8   4  30  1   
  9   5   8  1   
 10   5  31  1   
 11   5  32  1   
 12   6   9  1   
 13   6  33  1   
 14   6  34  1   
 15   7  10  1   
 16   7  11  1   
 17   7  12  1   
 18   8   9  1   
 19   8  13  1   
 20   8  35  1   
 21   9  14  1   
 22   9  36  1   
 23  10  15  1   
 24  10  37  1   
 25  10  38  1   
 26  11  16  1   
 27  11  39  1   
 28  11  40  1   
 29  12  17  1   
 30  12  41  1   
 31  12  42  1   
 32  13  18  1   
 33  14  19  1   
 34  14  43  1   
 35  14  44  1   
 36  15  20  1   
 37  15  21  1   
 38  15  22  1   
 39  16  21  1   
 40  16  23  1   
 41  16  45  1   
 42  17  22  1   
 43  17  23  1   
 44  17  46  1   
 45  18  47  1   
 46  18  48  1   
 47  18  49  1   
 48  19  24  1   
 49  19  25  2   
 50  20  50  1   
 51  21  51  1   
 52  21  52  1   
 53  22  53  1   
 54  22  54  1   
 55  23  55  1   
 56  23  56  1   
 57  24  26  1   
 58  25  27  1   
 59  25  57  1   
 60  26  27  2   
 61  27  28  1   
 62  28  58  1   
 63  28  59  1   
 64  28  60  1   
@<TRIPOS>SUBSTRUCTURE
  1 ****   3 GROUP 4 **** **** 0

# MOE 2024.06 (io_trps.svl 2023.06)
