@<TRIPOS>MOLECULE
NONAME
42 43 1 0 0 
SMALL
USER_CHARGES


@<TRIPOS>ATOM
  1 O       -1.3980     0.2580     2.1630 O.2   1 <1>  -0.5700 
  2 C       -1.5750     0.7030     1.0520 C.2   1 <1>   0.5690 
  3 N       -1.9790    -0.1190     0.0220 N.am  1 <1>  -0.6600 
  4 C       -1.3370     2.2120     0.8950 C.3   1 <1>  -0.0190 
  5 C       -2.2600    -1.5590     0.2940 C.3   1 <1>   0.2840 
  6 C       -2.2950     0.2940    -1.3770 C.3   1 <1>   0.0600 
  7 C       -2.6090     3.0050     0.5210 C.3   1 <1>  -0.1600 
  8 C       -0.1150     2.5550     0.0060 C.3   1 <1>  -0.1600 
  9 C       -3.7610    -1.7930     0.3190 C.ar  1 <1>  -0.1440 
 10 C       -2.3830     4.5310     0.5670 C.3   1 <1>   0.2000 
 11 C       -0.2130     3.9410    -0.6580 C.3   1 <1>  -0.1600 
 12 C       -4.3920    -2.4780    -0.7090 C.ar  1 <1>   0.1600 
 13 C       -4.5220    -1.3240     1.3710 C.ar  1 <1>  -0.1500 
 14 O       -3.2350     5.1230    -0.3830 O.3   1 <1>  -0.5600 
 15 C       -0.9150     4.9400     0.2650 C.3   1 <1>   0.2000 
 16 N       -5.6920    -2.7230    -0.7720 N.ar  1 <1>  -0.6200 
 17 C       -5.8770    -1.5720     1.3240 C.ar  1 <1>  -0.1500 
 18 C       -4.5540     5.3020     0.0340 C.3   1 <1>   0.0400 
 19 O       -0.9060     6.1720    -0.3570 O.3   1 <1>  -0.6800 
 20 C       -6.4020    -2.2650     0.2460 C.ar  1 <1>   0.1600 
 21 H       -1.0790     2.5590     1.8810 H     1 <1>   0.0800 
 22 H       -1.7980    -2.1610    -0.4680 H     1 <1>   0.0800 
 23 H       -1.8390    -1.8620     1.2370 H     1 <1>   0.0800 
 24 H       -1.9060    -0.4320    -2.0690 H     1 <1>   0.0800 
 25 H       -1.8630     1.2450    -1.6210 H     1 <1>   0.0800 
 26 H       -3.3630     0.3570    -1.5020 H     1 <1>   0.0800 
 27 H       -3.3980     2.7440     1.2040 H     1 <1>   0.0800 
 28 H       -2.9260     2.7380    -0.4690 H     1 <1>   0.0800 
 29 H        0.7640     2.5260     0.6280 H     1 <1>   0.0800 
 30 H        0.0310     1.8130    -0.7580 H     1 <1>   0.0800 
 31 H       -2.6320     4.9120     1.5430 H     1 <1>   0.0800 
 32 H       -0.7780     3.8590    -1.5710 H     1 <1>   0.0800 
 33 H        0.7740     4.2960    -0.8990 H     1 <1>   0.0800 
 34 H       -3.8000    -2.8450    -1.5290 H     1 <1>   0.1500 
 35 H       -4.0730    -0.7870     2.1900 H     1 <1>   0.1500 
 36 H       -0.3570     5.0290     1.1810 H     1 <1>   0.0800 
 37 H       -6.5210    -1.2340     2.1140 H     1 <1>   0.1500 
 38 H       -5.0980     5.7670    -0.7700 H     1 <1>   0.0800 
 39 H       -4.5700     5.9420     0.8980 H     1 <1>   0.0800 
 40 H       -4.9940     4.3470     0.2600 H     1 <1>   0.0800 
 41 H       -1.7730     6.2420    -0.8190 H     1 <1>   0.4000 
 42 H       -7.4620    -2.4530     0.2210 H     1 <1>   0.1500 
@<TRIPOS>BOND
  1   1   2  2   
  2   2   3  am  
  3   2   4  1   
  4   3   5  1   
  5   3   6  1   
  6   4   7  1   
  7   4   8  1   
  8   4  21  1   
  9   5   9  1   
 10   5  22  1   
 11   5  23  1   
 12   6  24  1   
 13   6  25  1   
 14   6  26  1   
 15   7  10  1   
 16   7  27  1   
 17   7  28  1   
 18   8  11  1   
 19   8  29  1   
 20   8  30  1   
 21   9  12  ar  
 22   9  13  ar  
 23  10  14  1   
 24  10  15  1   
 25  10  31  1   
 26  11  15  1   
 27  11  32  1   
 28  11  33  1   
 29  12  16  ar  
 30  12  34  1   
 31  13  17  ar  
 32  13  35  1   
 33  14  18  1   
 34  15  19  1   
 35  15  36  1   
 36  16  20  ar  
 37  17  20  ar  
 38  17  37  1   
 39  18  38  1   
 40  18  39  1   
 41  18  40  1   
 42  19  41  1   
 43  20  42  1   
@<TRIPOS>SUBSTRUCTURE
  1 ****   2 GROUP 4 **** **** 0

# MOE 2024.06 (io_trps.svl 2023.06)
