@<TRIPOS>MOLECULE
NONAME
49 51 1 0 0 
SMALL
USER_CHARGES


@<TRIPOS>ATOM
  1 O       -2.3180    -2.4880    -2.5290 O.3   1 <1>  -0.5600 
  2 C       -2.3250    -1.7190    -1.3560 C.3   1 <1>   0.1200 
  3 C       -2.8640    -3.7730    -2.3720 C.3   1 <1>   0.1200 
  4 C       -1.5380    -2.4160    -0.2200 C.3   1 <1>   0.3430 
  5 C       -2.1590    -4.5540    -1.2420 C.3   1 <1>   0.3430 
  6 N       -1.0320    -3.7640    -0.6370 N.4   1 <1>  -0.9590 
  7 C       -0.3860    -4.5070     0.4950 C.3   1 <1>   0.3430 
  8 C        0.3450    -5.7950     0.0660 C.3   1 <1>   0.2090 
  9 N        0.0880    -6.8790     1.0590 N.pl3 1 <1>  -0.8380 
 10 C       -1.2030    -7.3490     1.2510 C.ar  1 <1>   0.4100 
 11 C        1.2200    -7.8250     1.2500 C.3   1 <1>   0.2090 
 12 N       -2.0860    -7.1240     0.3140 N.ar  1 <1>  -0.6200 
 13 C       -1.5200    -8.0260     2.4450 C.ar  1 <1>  -0.1500 
 14 C        2.1330    -7.2880     2.3460 C.3   1 <1>  -0.2400 
 15 C       -3.3480    -7.6170     0.4790 C.ar  1 <1>   0.3100 
 16 C       -2.7730    -8.5030     2.6560 C.ar  1 <1>  -0.1500 
 17 C       -4.3240    -7.4500    -0.5430 C.ar  1 <1>   0.0820 
 18 C       -3.7350    -8.3050     1.6520 C.ar  1 <1>   0.0000 
 19 O       -3.9590    -6.8180    -1.6950 O.3   1 <1>  -0.3620 
 20 C       -5.6100    -7.9170    -0.3740 C.ar  1 <1>  -0.1500 
 21 C       -5.0540    -8.7730     1.7880 C.ar  1 <1>  -0.1500 
 22 C       -4.5300    -7.2140    -2.9260 C.3   1 <1>   0.0400 
 23 C       -5.9760    -8.5810     0.7970 C.ar  1 <1>  -0.1500 
 24 H       -3.3470    -1.5510    -1.0620 H     1 <1>   0.0800 
 25 H       -1.8800    -0.7670    -1.5850 H     1 <1>   0.0800 
 26 H       -2.7480    -4.2960    -3.3060 H     1 <1>   0.0800 
 27 H       -3.9170    -3.6830    -2.1670 H     1 <1>   0.0800 
 28 H       -2.1850    -2.5170     0.6360 H     1 <1>   0.0800 
 29 H       -0.7130    -1.7870     0.0720 H     1 <1>   0.0800 
 30 H       -1.7980    -5.4910    -1.6350 H     1 <1>   0.0800 
 31 H       -2.8840    -4.8010    -0.4840 H     1 <1>   0.0800 
 32 H       -0.3670    -3.5980    -1.4040 H     1 <1>   0.4500 
 33 H       -1.1470    -4.7800     1.2070 H     1 <1>   0.0800 
 34 H        0.3210    -3.8680     0.9960 H     1 <1>   0.0800 
 35 H        1.4010    -5.5940     0.0100 H     1 <1>   0.0800 
 36 H        0.0140    -6.1310    -0.9010 H     1 <1>   0.0800 
 37 H        1.7680    -7.9350     0.3290 H     1 <1>   0.0800 
 38 H        0.8510    -8.7990     1.5260 H     1 <1>   0.0800 
 39 H       -0.7510    -8.1460     3.1830 H     1 <1>   0.1500 
 40 H        2.5520    -6.3410     2.0620 H     1 <1>   0.0800 
 41 H        2.9390    -7.9790     2.5140 H     1 <1>   0.0800 
 42 H        1.5850    -7.1760     3.2640 H     1 <1>   0.0800 
 43 H       -3.0400    -9.0210     3.5600 H     1 <1>   0.1500 
 44 H       -6.3630    -7.7830    -1.1270 H     1 <1>   0.1500 
 45 H       -5.3310    -9.2890     2.6910 H     1 <1>   0.1500 
 46 H       -3.9380    -6.8010    -3.7230 H     1 <1>   0.0800 
 47 H       -5.5350    -6.8380    -2.9880 H     1 <1>   0.0800 
 48 H       -4.5200    -8.2890    -2.9870 H     1 <1>   0.0800 
 49 H       -6.9860    -8.9390     0.9070 H     1 <1>   0.1500 
@<TRIPOS>BOND
  1   1   2  1   
  2   1   3  1   
  3   2   4  1   
  4   2  24  1   
  5   2  25  1   
  6   3   5  1   
  7   3  26  1   
  8   3  27  1   
  9   4   6  1   
 10   4  28  1   
 11   4  29  1   
 12   5   6  1   
 13   5  30  1   
 14   5  31  1   
 15   6   7  1   
 16   6  32  1   
 17   7   8  1   
 18   7  33  1   
 19   7  34  1   
 20   8   9  1   
 21   8  35  1   
 22   8  36  1   
 23   9  10  1   
 24   9  11  1   
 25  10  12  ar  
 26  10  13  ar  
 27  11  14  1   
 28  11  37  1   
 29  11  38  1   
 30  12  15  ar  
 31  13  16  ar  
 32  13  39  1   
 33  14  40  1   
 34  14  41  1   
 35  14  42  1   
 36  15  17  ar  
 37  15  18  ar  
 38  16  18  ar  
 39  16  43  1   
 40  17  19  1   
 41  17  20  ar  
 42  18  21  ar  
 43  19  22  1   
 44  20  23  ar  
 45  20  44  1   
 46  21  23  ar  
 47  21  45  1   
 48  22  46  1   
 49  22  47  1   
 50  22  48  1   
 51  23  49  1   
@<TRIPOS>SUBSTRUCTURE
  1 ****  12 GROUP 4 **** **** 0

# MOE 2024.06 (io_trps.svl 2023.06)
