@<TRIPOS>MOLECULE
NONAME
47 49 1 0 0 
SMALL
USER_CHARGES


@<TRIPOS>ATOM
  1 F        0.5040    -0.6050    -0.8650 F     1 <1>  -0.3400 
  2 C        0.0730    -1.6120    -0.1200 C.3   1 <1>   0.8800 
  3 F        0.7490    -1.5380     1.0200 F     1 <1>  -0.3400 
  4 O        0.4140    -2.8130    -0.7720 O.3   1 <1>  -0.3630 
  5 C       -0.1030    -4.0010    -0.3850 C.ar  1 <1>   0.0830 
  6 C        0.1620    -5.0890    -1.2000 C.ar  1 <1>  -0.1500 
  7 C       -0.8690    -4.1860     0.7640 C.ar  1 <1>  -0.1500 
  8 C       -0.3370    -6.3390    -0.8870 C.ar  1 <1>  -0.1500 
  9 C       -1.3650    -5.4410     1.0680 C.ar  1 <1>  -0.1500 
 10 C       -1.1210    -6.5430     0.2470 C.ar  1 <1>   0.0860 
 11 C       -1.6540    -7.8560     0.5570 C.2   1 <1>   0.5440 
 12 O       -0.8830    -8.7900     0.6770 O.2   1 <1>  -0.5700 
 13 N       -3.0080    -8.0850     0.7120 N.am  1 <1>  -0.6600 
 14 C       -4.0340    -7.1480     0.1630 C.3   1 <1>   0.2200 
 15 C       -3.4670    -9.3950     1.2730 C.3   1 <1>   0.0600 
 16 C       -5.0310    -7.8060    -0.7870 C.3   1 <1>  -0.1600 
 17 C       -4.9010    -6.5150     1.2470 C.3   1 <1>  -0.1600 
 18 C       -6.2170    -6.8330    -0.8240 C.3   1 <1>  -0.0800 
 19 C       -6.1640    -6.0490     0.5090 C.3   1 <1>  -0.0800 
 20 C       -7.5570    -7.5370    -1.1190 C.3   1 <1>   0.1400 
 21 C       -7.4420    -6.1860     1.3550 C.3   1 <1>  -0.0990 
 22 N       -8.6930    -6.6720    -0.7150 N.am  1 <1>  -0.6600 
 23 C       -8.6700    -6.0130     0.4840 C.2   1 <1>   0.5690 
 24 C       -9.8560    -6.6110    -1.6410 C.3   1 <1>   0.0600 
 25 O       -9.5710    -5.3130     0.8770 O.2   1 <1>  -0.5700 
 26 H       -0.9820    -1.5110     0.0600 H     1 <1>   0.0800 
 27 H        0.7660    -4.9520    -2.0800 H     1 <1>   0.1500 
 28 H       -1.0810    -3.3780     1.4400 H     1 <1>   0.1500 
 29 H       -0.1180    -7.1810    -1.5220 H     1 <1>   0.1500 
 30 H       -1.9460    -5.5860     1.9620 H     1 <1>   0.1500 
 31 H       -3.5540    -6.3540    -0.3840 H     1 <1>   0.0800 
 32 H       -4.4180    -9.2960     1.7620 H     1 <1>   0.0800 
 33 H       -2.7530    -9.7580     1.9930 H     1 <1>   0.0800 
 34 H       -3.5460   -10.1160     0.4790 H     1 <1>   0.0800 
 35 H       -4.6050    -7.9500    -1.7640 H     1 <1>   0.0800 
 36 H       -5.3610    -8.7500    -0.3960 H     1 <1>   0.0800 
 37 H       -5.1580    -7.2460     1.9910 H     1 <1>   0.0800 
 38 H       -4.4010    -5.6900     1.7200 H     1 <1>   0.0800 
 39 H       -6.0410    -6.1290    -1.6200 H     1 <1>   0.0800 
 40 H       -6.0490    -5.0070     0.2600 H     1 <1>   0.0800 
 41 H       -7.6250    -8.4570    -0.5640 H     1 <1>   0.0800 
 42 H       -7.6200    -7.7700    -2.1680 H     1 <1>   0.0800 
 43 H       -7.4500    -5.4490     2.1370 H     1 <1>   0.0800 
 44 H       -7.4970    -7.1590     1.8060 H     1 <1>   0.0800 
 45 H       -9.5450    -6.2070    -2.5880 H     1 <1>   0.0800 
 46 H      -10.6290    -5.9800    -1.2350 H     1 <1>   0.0800 
 47 H      -10.2580    -7.5980    -1.7860 H     1 <1>   0.0800 
@<TRIPOS>BOND
  1   1   2  1   
  2   2   3  1   
  3   2   4  1   
  4   2  26  1   
  5   4   5  1   
  6   5   6  ar  
  7   5   7  ar  
  8   6   8  ar  
  9   6  27  1   
 10   7   9  ar  
 11   7  28  1   
 12   8  10  ar  
 13   8  29  1   
 14   9  10  ar  
 15   9  30  1   
 16  10  11  1   
 17  11  12  2   
 18  11  13  am  
 19  13  14  1   
 20  13  15  1   
 21  14  16  1   
 22  14  17  1   
 23  14  31  1   
 24  15  32  1   
 25  15  33  1   
 26  15  34  1   
 27  16  18  1   
 28  16  35  1   
 29  16  36  1   
 30  17  19  1   
 31  17  37  1   
 32  17  38  1   
 33  18  19  1   
 34  18  20  1   
 35  18  39  1   
 36  19  21  1   
 37  19  40  1   
 38  20  22  1   
 39  20  41  1   
 40  20  42  1   
 41  21  23  1   
 42  21  43  1   
 43  21  44  1   
 44  22  23  am  
 45  22  24  1   
 46  23  25  2   
 47  24  45  1   
 48  24  46  1   
 49  24  47  1   
@<TRIPOS>SUBSTRUCTURE
  1 ****  14 GROUP 4 **** **** 0

# MOE 2024.06 (io_trps.svl 2023.06)
