@<TRIPOS>MOLECULE
NONAME
51 53 1 0 0 
SMALL
USER_CHARGES


@<TRIPOS>ATOM
  1 O        1.8250    -0.0590    -1.7950 O.2   1 <1>  -0.5700 
  2 C        2.2880    -1.1040    -1.3750 C.2   1 <1>   0.7670 
  3 N        3.2610    -1.0700    -0.4160 N.2   1 <1>  -0.6610 
  4 C        1.8080    -2.3450    -1.8640 C.2   1 <1>  -0.1360 
  5 C        3.7250    -2.1800     0.0160 C.2   1 <1>   0.4390 
  6 C        2.3050    -3.5050    -1.3770 C.2   1 <1>  -0.0380 
  7 N        3.2920    -3.4010    -0.4190 N.pl3 1 <1>  -0.5500 
  8 C        4.8090    -2.1780     1.0640 C.3   1 <1>  -0.1790 
  9 C        1.8330    -4.8840    -1.8320 C.3   1 <1>   0.4810 
 10 N        0.7440    -5.4420    -0.9610 N.4   1 <1>  -0.9590 
 11 C        0.6560    -6.9270    -1.2310 C.3   1 <1>   0.3430 
 12 C        0.9120    -5.0590     0.4770 C.3   1 <1>   0.3430 
 13 C        0.3030    -7.8400    -0.0360 C.3   1 <1>   0.0000 
 14 C       -0.1250    -5.7030     1.3950 C.3   1 <1>  -0.1600 
 15 C       -0.6410    -7.0540     0.9010 C.3   1 <1>   0.2000 
 16 C       -0.5100    -9.0290    -0.6020 C.3   1 <1>   0.1200 
 17 C        1.5810    -8.4380     0.6420 C.3   1 <1>  -0.0170 
 18 O       -1.0060    -7.8200     1.9910 O.3   1 <1>  -0.6800 
 19 O        0.1200    -9.5220    -1.7380 O.3   1 <1>  -0.6800 
 20 C        2.7490    -7.4930     0.9090 C.ar  1 <1>  -0.1440 
 21 C        2.9270    -6.9210     2.1610 C.ar  1 <1>  -0.1500 
 22 C        3.6750    -7.2260    -0.0910 C.ar  1 <1>  -0.1500 
 23 C        3.9860    -6.0590     2.3930 C.ar  1 <1>  -0.1500 
 24 C        4.7370    -6.3690     0.1410 C.ar  1 <1>  -0.1500 
 25 C        4.8900    -5.7810     1.3840 C.ar  1 <1>  -0.1500 
 26 H        1.0470    -2.2850    -2.6180 H     1 <1>   0.1500 
 27 H        3.7580    -4.2250    -0.0130 H     1 <1>   0.4000 
 28 H        4.4760    -2.6970     1.9430 H     1 <1>   0.0800 
 29 H        5.0530    -1.1660     1.3380 H     1 <1>   0.0800 
 30 H        5.6950    -2.6470     0.6790 H     1 <1>   0.0800 
 31 H        2.6820    -5.5470    -1.8240 H     1 <1>   0.0800 
 32 H        1.4790    -4.8200    -2.8490 H     1 <1>   0.0800 
 33 H       -0.1390    -5.0120    -1.2660 H     1 <1>   0.4500 
 34 H       -0.0890    -7.0810    -1.9960 H     1 <1>   0.0800 
 35 H        1.5840    -7.2840    -1.6430 H     1 <1>   0.0800 
 36 H        1.8970    -5.3350     0.7980 H     1 <1>   0.0800 
 37 H        0.8430    -3.9870     0.5820 H     1 <1>   0.0800 
 38 H       -0.9620    -5.0330     1.4890 H     1 <1>   0.0800 
 39 H        0.3130    -5.7930     2.3720 H     1 <1>   0.0800 
 40 H       -1.5540    -6.8630     0.3590 H     1 <1>   0.0800 
 41 H       -1.5050    -8.7290    -0.8870 H     1 <1>   0.0800 
 42 H       -0.5870    -9.8240     0.1230 H     1 <1>   0.0800 
 43 H        1.3090    -8.9290     1.5600 H     1 <1>   0.0800 
 44 H        1.9710    -9.2210     0.0140 H     1 <1>   0.0800 
 45 H       -0.2750    -7.9230     2.6310 H     1 <1>   0.4000 
 46 H       -0.3040   -10.3570    -2.0350 H     1 <1>   0.4000 
 47 H        2.2520    -7.1470     2.9680 H     1 <1>   0.1500 
 48 H        3.5910    -7.7050    -1.0520 H     1 <1>   0.1500 
 49 H        4.1180    -5.6200     3.3690 H     1 <1>   0.1500 
 50 H        5.4610    -6.1810    -0.6350 H     1 <1>   0.1500 
 51 H        5.7270    -5.1300     1.5770 H     1 <1>   0.1500 
@<TRIPOS>BOND
  1   1   2  2   
  2   2   3  1   
  3   2   4  1   
  4   3   5  2   
  5   4   6  2   
  6   4  26  1   
  7   5   7  1   
  8   5   8  1   
  9   6   7  1   
 10   6   9  1   
 11   7  27  1   
 12   8  28  1   
 13   8  29  1   
 14   8  30  1   
 15   9  10  1   
 16   9  31  1   
 17   9  32  1   
 18  10  11  1   
 19  10  12  1   
 20  10  33  1   
 21  11  13  1   
 22  11  34  1   
 23  11  35  1   
 24  12  14  1   
 25  12  36  1   
 26  12  37  1   
 27  13  15  1   
 28  13  16  1   
 29  13  17  1   
 30  14  15  1   
 31  14  38  1   
 32  14  39  1   
 33  15  18  1   
 34  15  40  1   
 35  16  19  1   
 36  16  41  1   
 37  16  42  1   
 38  17  20  1   
 39  17  43  1   
 40  17  44  1   
 41  18  45  1   
 42  19  46  1   
 43  20  21  ar  
 44  20  22  ar  
 45  21  23  ar  
 46  21  47  1   
 47  22  24  ar  
 48  22  48  1   
 49  23  25  ar  
 50  23  49  1   
 51  24  25  ar  
 52  24  50  1   
 53  25  51  1   
@<TRIPOS>SUBSTRUCTURE
  1 ****  12 GROUP 4 **** **** 0

# MOE 2024.06 (io_trps.svl 2023.06)
