@<TRIPOS>MOLECULE
NONAME
42 44 1 0 0 
SMALL
USER_CHARGES


@<TRIPOS>ATOM
  1 F       -1.6210    -3.9050    -0.4000 F     1 <1>  -0.1900 
  2 C       -2.6150    -3.3410     0.2300 C.ar  1 <1>   0.1900 
  3 C       -3.5150    -2.5890    -0.4960 C.ar  1 <1>  -0.1500 
  4 C       -2.7290    -3.5250     1.5940 C.ar  1 <1>  -0.1500 
  5 C       -4.6000    -2.0020     0.1520 C.ar  1 <1>   0.0540 
  6 C       -3.7880    -2.9220     2.2500 C.ar  1 <1>  -0.1500 
  7 C       -5.6020    -1.2560    -0.5750 C.2   1 <1>   0.2350 
  8 C       -4.7040    -2.1680     1.5340 C.ar  1 <1>  -0.1500 
  9 N       -5.9310    -0.0240    -0.2940 N.2   1 <1>  -0.7070 
 10 C       -6.3710    -1.7410    -1.6390 C.2   1 <1>  -0.1810 
 11 N       -6.8820     0.3100    -1.1800 N.pl3 1 <1>   0.3000 
 12 C       -7.1710    -0.7160    -2.0030 C.2   1 <1>  -0.3020 
 13 C       -6.2980    -3.1400    -2.2120 C.3   1 <1>   0.5240 
 14 N       -7.2960    -3.9940    -1.5350 N.4   1 <1>  -0.9590 
 15 C       -7.1000    -4.1410    -0.0520 C.3   1 <1>   0.3430 
 16 C       -7.4900    -5.3370    -2.1730 C.3   1 <1>   0.3430 
 17 C       -8.2480    -4.9540     0.5820 C.3   1 <1>   0.1100 
 18 C       -8.6570    -6.1010    -1.5110 C.3   1 <1>   0.1100 
 19 N       -9.2860    -5.3290    -0.4110 N.3   1 <1>  -0.8100 
 20 C      -10.3150    -6.1950     0.2670 C.3   1 <1>   0.0040 
 21 C       -9.8170    -7.5090     0.8970 C.2   1 <1>   0.9060 
 22 O       -9.7450    -8.5170     0.1840 O.co2 1 <1>  -0.9000 
 23 O       -9.4150    -7.4920     2.0660 O.co2 1 <1>  -0.9000 
 24 H       -3.3640    -2.4540    -1.5510 H     1 <1>   0.1500 
 25 H       -2.0040    -4.1160     2.1250 H     1 <1>   0.1500 
 26 H       -3.8960    -3.0350     3.3170 H     1 <1>   0.1500 
 27 H       -5.5170    -1.6870     2.0520 H     1 <1>   0.1500 
 28 H       -7.3130     1.2450    -1.1930 H     1 <1>   0.2700 
 29 H       -7.9170    -0.6460    -2.7750 H     1 <1>   0.1500 
 30 H       -5.3100    -3.5470    -2.0820 H     1 <1>   0.0800 
 31 H       -6.5130    -3.0970    -3.2670 H     1 <1>   0.0800 
 32 H       -8.2280    -3.5560    -1.5930 H     1 <1>   0.4500 
 33 H       -7.0780    -3.1700     0.4140 H     1 <1>   0.0800 
 34 H       -6.1630    -4.6290     0.1580 H     1 <1>   0.0800 
 35 H       -6.5930    -5.9260    -2.0790 H     1 <1>   0.0800 
 36 H       -7.7050    -5.2230    -3.2220 H     1 <1>   0.0800 
 37 H       -8.7000    -4.3820     1.3740 H     1 <1>   0.0800 
 38 H       -7.8250    -5.8370     1.0320 H     1 <1>   0.0800 
 39 H       -8.2720    -7.0370    -1.1410 H     1 <1>   0.0800 
 40 H       -9.4020    -6.3370    -2.2510 H     1 <1>   0.0800 
 41 H      -11.0770    -6.4570    -0.4440 H     1 <1>   0.0800 
 42 H      -10.7880    -5.6320     1.0490 H     1 <1>   0.0800 
@<TRIPOS>BOND
  1   1   2  1   
  2   2   3  ar  
  3   2   4  ar  
  4   3   5  ar  
  5   3  24  1   
  6   4   6  ar  
  7   4  25  1   
  8   5   7  1   
  9   5   8  ar  
 10   6   8  ar  
 11   6  26  1   
 12   7   9  2   
 13   7  10  1   
 14   8  27  1   
 15   9  11  1   
 16  10  12  2   
 17  10  13  1   
 18  11  12  1   
 19  11  28  1   
 20  12  29  1   
 21  13  14  1   
 22  13  30  1   
 23  13  31  1   
 24  14  15  1   
 25  14  16  1   
 26  14  32  1   
 27  15  17  1   
 28  15  33  1   
 29  15  34  1   
 30  16  18  1   
 31  16  35  1   
 32  16  36  1   
 33  17  19  1   
 34  17  37  1   
 35  17  38  1   
 36  18  19  1   
 37  18  39  1   
 38  18  40  1   
 39  19  20  1   
 40  20  21  1   
 41  20  41  1   
 42  20  42  1   
 43  21  22  ar  
 44  21  23  ar  
@<TRIPOS>SUBSTRUCTURE
  1 ****  15 GROUP 4 **** **** 0

# MOE 2024.06 (io_trps.svl 2023.06)
