@<TRIPOS>MOLECULE
NONAME
56 59 1 0 0 
SMALL
USER_CHARGES


@<TRIPOS>ATOM
  1 CL      -0.6020     0.3410     1.2850 Cl    1 <1>  -0.1770 
  2 C       -0.2670     1.9350     0.6650 C.ar  1 <1>   0.1770 
  3 C        0.9940     2.2230     0.1880 C.ar  1 <1>  -0.1500 
  4 C       -1.2700     2.8850     0.6590 C.ar  1 <1>  -0.1500 
  5 C        1.2680     3.4970    -0.3020 C.ar  1 <1>   0.0830 
  6 C       -0.9970     4.1470     0.1660 C.ar  1 <1>  -0.1500 
  7 O        2.4930     3.8230    -0.7760 O.3   1 <1>  -0.3630 
  8 C        0.2690     4.4840    -0.3170 C.ar  1 <1>   0.0860 
  9 C        3.6540     3.0710    -0.5030 C.3   1 <1>   0.1200 
 10 C        0.4960     5.8240    -0.8190 C.2   1 <1>   0.5440 
 11 C        4.8430     3.9840    -0.7920 C.3   1 <1>  -0.1600 
 12 O       -0.0720     6.1820    -1.8340 O.2   1 <1>  -0.5700 
 13 N        1.2830     6.7380    -0.1530 N.am  1 <1>  -0.6600 
 14 C        6.1800     3.4170    -0.2830 C.3   1 <1>   0.0960 
 15 C        1.6480     8.0520    -0.7280 C.3   1 <1>   0.1400 
 16 C        2.0330     6.4780     1.0940 C.3   1 <1>   0.1400 
 17 N        7.1990     4.4840    -0.3170 N.pl3 1 <1>   0.3140 
 18 C        2.9760     8.3950    -0.0620 C.3   1 <1>  -0.0800 
 19 C        2.8790     7.7280     1.3150 C.3   1 <1>  -0.1600 
 20 N        8.0910     4.6240    -1.3010 N.2   1 <1>  -0.4180 
 21 C        7.2030     5.5770     0.4450 C.2   1 <1>  -0.3020 
 22 C        3.2710     9.9010    -0.0070 C.3   1 <1>   0.1400 
 23 N        8.6450     5.7830    -1.1860 N.2   1 <1>  -0.2270 
 24 C        8.0920     6.3940    -0.1340 C.2   1 <1>   0.0460 
 25 N        4.6300    10.0840     0.5450 N.am  1 <1>  -0.7300 
 26 C        8.3700     7.8360     0.2400 C.3   1 <1>   0.0210 
 27 C        5.6800    10.5840    -0.1570 C.2   1 <1>   0.5690 
 28 C        7.2520     8.6810    -0.3880 C.3   1 <1>  -0.1600 
 29 O        5.5420    11.3240    -1.0980 O.2   1 <1>  -0.5700 
 30 C        7.0630    10.0840     0.2140 C.3   1 <1>  -0.0990 
 31 H        1.7330     1.4450     0.2000 H     1 <1>   0.1500 
 32 H       -2.2480     2.6330     1.0310 H     1 <1>   0.1500 
 33 H       -1.7730     4.8940     0.1440 H     1 <1>   0.1500 
 34 H        3.6580     2.1990    -1.1340 H     1 <1>   0.0800 
 35 H        3.6380     2.7870     0.5350 H     1 <1>   0.0800 
 36 H        4.6550     4.9280    -0.3100 H     1 <1>   0.0800 
 37 H        4.9100     4.1530    -1.8530 H     1 <1>   0.0800 
 38 H        6.5080     2.6020    -0.9040 H     1 <1>   0.0800 
 39 H        6.0890     3.0740     0.7300 H     1 <1>   0.0800 
 40 H        0.8860     8.7680    -0.4720 H     1 <1>   0.0800 
 41 H        1.7440     7.9930    -1.8000 H     1 <1>   0.0800 
 42 H        2.6670     5.6210     0.9630 H     1 <1>   0.0800 
 43 H        1.3560     6.3080     1.9140 H     1 <1>   0.0800 
 44 H        3.7460     7.9120    -0.6410 H     1 <1>   0.0800 
 45 H        3.8440     7.4810     1.7190 H     1 <1>   0.0800 
 46 H        2.3640     8.3730     2.0060 H     1 <1>   0.0800 
 47 H        6.5620     5.7230     1.2920 H     1 <1>   0.1500 
 48 H        2.5540    10.4090     0.6150 H     1 <1>   0.0800 
 49 H        3.2210    10.3220    -0.9990 H     1 <1>   0.0800 
 50 H        4.8220     9.5330     1.3800 H     1 <1>   0.3700 
 51 H        9.3370     8.1430    -0.1190 H     1 <1>   0.0800 
 52 H        8.3510     7.9250     1.3110 H     1 <1>   0.0800 
 53 H        6.3290     8.1400    -0.2690 H     1 <1>   0.0800 
 54 H        7.4220     8.7660    -1.4490 H     1 <1>   0.0800 
 55 H        7.1440    10.0560     1.2850 H     1 <1>   0.0800 
 56 H        7.8070    10.7590    -0.1680 H     1 <1>   0.0800 
@<TRIPOS>BOND
  1   1   2  1   
  2   2   3  ar  
  3   2   4  ar  
  4   3   5  ar  
  5   3  31  1   
  6   4   6  ar  
  7   4  32  1   
  8   5   7  1   
  9   5   8  ar  
 10   6   8  ar  
 11   6  33  1   
 12   7   9  1   
 13   8  10  1   
 14   9  11  1   
 15   9  34  1   
 16   9  35  1   
 17  10  12  2   
 18  10  13  am  
 19  11  14  1   
 20  11  36  1   
 21  11  37  1   
 22  13  15  1   
 23  13  16  1   
 24  14  17  1   
 25  14  38  1   
 26  14  39  1   
 27  15  18  1   
 28  15  40  1   
 29  15  41  1   
 30  16  19  1   
 31  16  42  1   
 32  16  43  1   
 33  17  20  1   
 34  17  21  1   
 35  18  19  1   
 36  18  22  1   
 37  18  44  1   
 38  19  45  1   
 39  19  46  1   
 40  20  23  2   
 41  21  24  2   
 42  21  47  1   
 43  22  25  1   
 44  22  48  1   
 45  22  49  1   
 46  23  24  1   
 47  24  26  1   
 48  25  27  am  
 49  25  50  1   
 50  26  28  1   
 51  26  51  1   
 52  26  52  1   
 53  27  29  2   
 54  27  30  1   
 55  28  30  1   
 56  28  53  1   
 57  28  54  1   
 58  30  55  1   
 59  30  56  1   
@<TRIPOS>SUBSTRUCTURE
  1 ****  16 GROUP 4 **** **** 0

# MOE 2024.06 (io_trps.svl 2023.06)
