@<TRIPOS>MOLECULE
NONAME
52 55 1 0 0 
SMALL
USER_CHARGES


@<TRIPOS>ATOM
  1 S       -0.1060     0.0460    -1.5750 S.o2  1 <1>   1.4470 
  2 O       -0.6840    -0.2470    -2.8620 O.2   1 <1>  -0.6500 
  3 O        1.1190     0.7980    -1.4650 O.2   1 <1>  -0.6500 
  4 N       -1.2240     1.0660    -0.9090 N.am  1 <1>  -0.9780 
  5 C       -0.1200    -1.4000    -0.4800 C.ar  1 <1>  -0.0090 
  6 C       -0.6850    -2.6010    -0.8810 C.ar  1 <1>  -0.1500 
  7 C        0.4180    -1.3350     0.7970 C.ar  1 <1>  -0.1500 
  8 C       -0.7420    -3.7240    -0.0560 C.ar  1 <1>   0.0860 
  9 C        0.3940    -2.4340     1.6360 C.ar  1 <1>  -0.1500 
 10 C       -0.1770    -3.6240     1.2210 C.ar  1 <1>  -0.1430 
 11 C       -1.3800    -4.9370    -0.5420 C.2   1 <1>   0.5440 
 12 C       -0.1670    -4.8170     2.1700 C.3   1 <1>  -0.0960 
 13 O       -0.7190    -5.9520    -0.6530 O.2   1 <1>  -0.5700 
 14 N       -2.7180    -4.9640    -0.8850 N.am  1 <1>  -0.6600 
 15 C       -3.6690    -3.8260    -0.6630 C.3   1 <1>   0.1400 
 16 C       -3.3490    -6.1630    -1.5100 C.3   1 <1>   0.1400 
 17 C       -4.8720    -4.2570     0.1960 C.3   1 <1>   0.1440 
 18 C       -4.5460    -6.6290    -0.6700 C.3   1 <1>  -0.1600 
 19 C       -5.8060    -3.0680     0.3230 C.ar  1 <1>   0.1670 
 20 C       -5.5540    -5.4900    -0.4330 C.3   1 <1>  -0.1600 
 21 C       -4.4570    -4.5090     1.6700 C.3   1 <1>  -0.1600 
 22 N       -6.5930    -2.6090    -0.6250 N.ar  1 <1>  -0.6200 
 23 C       -5.7210    -2.4940     1.5570 C.ar  1 <1>  -0.1430 
 24 C       -4.7300    -3.2070     2.4420 C.3   1 <1>  -0.0170 
 25 C       -7.3080    -1.5490    -0.2780 C.ar  1 <1>   0.4770 
 26 C       -6.5050    -1.3960     1.8070 C.ar  1 <1>   0.1600 
 27 N       -7.3110    -0.9100     0.8850 N.ar  1 <1>  -0.6200 
 28 C       -8.2270    -1.0010    -1.3420 C.3   1 <1>  -0.0970 
 29 H       -1.9410     1.1280    -1.6280 H     1 <1>   0.4200 
 30 H       -0.7470     1.9650    -0.9100 H     1 <1>   0.4200 
 31 H       -1.1010    -2.6790    -1.8720 H     1 <1>   0.1500 
 32 H        0.8650    -0.4150     1.1380 H     1 <1>   0.1500 
 33 H        0.8300    -2.3530     2.6180 H     1 <1>   0.1500 
 34 H       -1.1460    -5.2520     2.2430 H     1 <1>   0.0800 
 35 H        0.1510    -4.5300     3.1550 H     1 <1>   0.0800 
 36 H        0.5100    -5.5670     1.7990 H     1 <1>   0.0800 
 37 H       -4.0260    -3.4850    -1.6200 H     1 <1>   0.0800 
 38 H       -3.1820    -2.9990    -0.1820 H     1 <1>   0.0800 
 39 H       -2.6400    -6.9680    -1.5990 H     1 <1>   0.0800 
 40 H       -3.6790    -5.9040    -2.5010 H     1 <1>   0.0800 
 41 H       -4.1830    -7.0070     0.2690 H     1 <1>   0.0800 
 42 H       -5.0350    -7.4400    -1.1790 H     1 <1>   0.0800 
 43 H       -5.9820    -5.2050    -1.3790 H     1 <1>   0.0800 
 44 H       -6.3590    -5.8290     0.1940 H     1 <1>   0.0800 
 45 H       -3.4320    -4.8200     1.7610 H     1 <1>   0.0800 
 46 H       -5.0790    -5.2800     2.0890 H     1 <1>   0.0800 
 47 H       -3.8320    -2.6190     2.5270 H     1 <1>   0.0800 
 48 H       -5.1360    -3.4030     3.4190 H     1 <1>   0.0800 
 49 H       -6.4740    -0.9080     2.7660 H     1 <1>   0.1500 
 50 H       -8.7430    -1.8090    -1.8270 H     1 <1>   0.0800 
 51 H       -7.6480    -0.4640    -2.0680 H     1 <1>   0.0800 
 52 H       -8.9520    -0.3370    -0.9070 H     1 <1>   0.0800 
@<TRIPOS>BOND
  1   1   2  2   
  2   1   3  2   
  3   1   4  am  
  4   1   5  1   
  5   4  29  1   
  6   4  30  1   
  7   5   6  ar  
  8   5   7  ar  
  9   6   8  ar  
 10   6  31  1   
 11   7   9  ar  
 12   7  32  1   
 13   8  10  ar  
 14   8  11  1   
 15   9  10  ar  
 16   9  33  1   
 17  10  12  1   
 18  11  13  2   
 19  11  14  am  
 20  12  34  1   
 21  12  35  1   
 22  12  36  1   
 23  14  15  1   
 24  14  16  1   
 25  15  17  1   
 26  15  37  1   
 27  15  38  1   
 28  16  18  1   
 29  16  39  1   
 30  16  40  1   
 31  17  19  1   
 32  17  20  1   
 33  17  21  1   
 34  18  20  1   
 35  18  41  1   
 36  18  42  1   
 37  19  22  ar  
 38  19  23  ar  
 39  20  43  1   
 40  20  44  1   
 41  21  24  1   
 42  21  45  1   
 43  21  46  1   
 44  22  25  ar  
 45  23  24  1   
 46  23  26  ar  
 47  24  47  1   
 48  24  48  1   
 49  25  27  ar  
 50  25  28  1   
 51  26  27  ar  
 52  26  49  1   
 53  28  50  1   
 54  28  51  1   
 55  28  52  1   
@<TRIPOS>SUBSTRUCTURE
  1 ****  15 GROUP 4 **** **** 0

# MOE 2024.06 (io_trps.svl 2023.06)
