@<TRIPOS>MOLECULE
NONAME
53 56 1 0 0 
SMALL
USER_CHARGES


@<TRIPOS>ATOM
  1 O       -0.1950     1.3380    -1.4520 O.2   1 <1>  -0.5700 
  2 C       -0.3730     2.5230    -1.2920 C.2   1 <1>   0.5690 
  3 N       -1.0970     3.0480    -0.2550 N.am  1 <1>  -0.5090 
  4 C        0.2190     3.4820    -2.3200 C.3   1 <1>   0.1810 
  5 C       -1.4740     4.4970    -0.2330 C.3   1 <1>   0.3640 
  6 C       -1.6940     2.2180     0.8170 C.3   1 <1>   0.0490 
  7 O        0.4760     4.7440    -1.7600 O.3   1 <1>  -0.5600 
  8 C       -2.9750     4.6430    -0.5040 C.ar  1 <1>  -0.1440 
  9 C       -0.6720     5.3890    -1.2220 C.3   1 <1>   0.2610 
 10 C       -1.3030     2.4990     2.2350 C.3   1 <1>  -0.2000 
 11 C       -0.8400     1.2450     1.5660 C.3   1 <1>  -0.2000 
 12 C       -3.6160     3.8990    -1.4880 C.ar  1 <1>  -0.1500 
 13 C       -3.7210     5.5460     0.2420 C.ar  1 <1>  -0.1500 
 14 C       -0.2620     6.6880    -0.5170 C.2   1 <1>   0.5690 
 15 C       -4.9710     4.0580    -1.7170 C.ar  1 <1>  -0.1500 
 16 C       -5.0760     5.7070     0.0150 C.ar  1 <1>  -0.1500 
 17 O       -1.1010     7.3580     0.0370 O.2   1 <1>  -0.5700 
 18 N        1.0490     7.0510    -0.5110 N.am  1 <1>  -0.7300 
 19 C       -5.7110     4.9590    -0.9720 C.ar  1 <1>   0.0830 
 20 C        1.6200     8.2380     0.1680 C.3   1 <1>   0.1400 
 21 O       -7.0330     5.0550    -1.2620 O.3   1 <1>  -0.3630 
 22 C        2.4390     7.8240     1.3990 C.3   1 <1>   0.0000 
 23 C       -7.8670     5.9620    -0.5770 C.3   1 <1>   0.0400 
 24 C        3.8050     7.2060     1.0580 C.3   1 <1>   0.2580 
 25 C        3.3080     8.9690     1.9450 C.3   1 <1>   0.2580 
 26 C        1.6460     7.0690     2.4880 C.3   1 <1>  -0.2400 
 27 O        4.3740     8.0350     2.0640 O.3   1 <1>  -0.5160 
 28 H       -0.4560     3.5980    -3.1480 H     1 <1>   0.0800 
 29 H        1.1510     3.0850    -2.6800 H     1 <1>   0.0800 
 30 H       -1.2810     4.8550     0.7640 H     1 <1>   0.0800 
 31 H       -2.7150     1.9420     0.6080 H     1 <1>   0.1000 
 32 H       -1.3030     5.6570    -2.0500 H     1 <1>   0.0800 
 33 H       -0.5660     3.2510     2.4500 H     1 <1>   0.1000 
 34 H       -2.0500     2.4150     3.0040 H     1 <1>   0.1000 
 35 H       -1.2770     0.3080     1.8640 H     1 <1>   0.1000 
 36 H        0.1930     1.1460     1.2810 H     1 <1>   0.1000 
 37 H       -3.0730     3.1860    -2.0830 H     1 <1>   0.1500 
 38 H       -3.2480     6.1400     1.0080 H     1 <1>   0.1500 
 39 H       -5.4670     3.4800    -2.4770 H     1 <1>   0.1500 
 40 H       -5.6160     6.4170     0.6110 H     1 <1>   0.1500 
 41 H        1.7010     6.4200    -0.9920 H     1 <1>   0.3700 
 42 H        2.2380     8.7770    -0.5300 H     1 <1>   0.0800 
 43 H        0.8230     8.8940     0.4780 H     1 <1>   0.0800 
 44 H       -8.8610     5.8690    -0.9770 H     1 <1>   0.0800 
 45 H       -7.5010     6.9610    -0.7350 H     1 <1>   0.0800 
 46 H       -7.8700     5.7130     0.4690 H     1 <1>   0.0800 
 47 H        4.2020     7.4770     0.0950 H     1 <1>   0.0000 
 48 H        3.9180     6.1690     1.3170 H     1 <1>   0.0000 
 49 H        3.0250     9.3430     2.9130 H     1 <1>   0.0000 
 50 H        3.5690     9.7290     1.2280 H     1 <1>   0.0000 
 51 H        1.2890     6.1290     2.1060 H     1 <1>   0.0800 
 52 H        0.8010     7.6540     2.8030 H     1 <1>   0.0800 
 53 H        2.2680     6.8730     3.3440 H     1 <1>   0.0800 
@<TRIPOS>BOND
  1   1   2  2   
  2   2   3  am  
  3   2   4  1   
  4   3   5  1   
  5   3   6  1   
  6   4   7  1   
  7   4  28  1   
  8   4  29  1   
  9   5   8  1   
 10   5   9  1   
 11   5  30  1   
 12   6  10  1   
 13   6  11  1   
 14   6  31  1   
 15   7   9  1   
 16   8  12  ar  
 17   8  13  ar  
 18   9  14  1   
 19   9  32  1   
 20  10  11  1   
 21  10  33  1   
 22  10  34  1   
 23  11  35  1   
 24  11  36  1   
 25  12  15  ar  
 26  12  37  1   
 27  13  16  ar  
 28  13  38  1   
 29  14  17  2   
 30  14  18  am  
 31  15  19  ar  
 32  15  39  1   
 33  16  19  ar  
 34  16  40  1   
 35  18  20  1   
 36  18  41  1   
 37  19  21  1   
 38  20  22  1   
 39  20  42  1   
 40  20  43  1   
 41  21  23  1   
 42  22  24  1   
 43  22  25  1   
 44  22  26  1   
 45  23  44  1   
 46  23  45  1   
 47  23  46  1   
 48  24  27  1   
 49  24  47  1   
 50  24  48  1   
 51  25  27  1   
 52  25  49  1   
 53  25  50  1   
 54  26  51  1   
 55  26  52  1   
 56  26  53  1   
@<TRIPOS>SUBSTRUCTURE
  1 ****   5 GROUP 4 **** **** 0

# MOE 2024.06 (io_trps.svl 2023.06)
