@<TRIPOS>MOLECULE
NONAME
47 50 1 0 0 
SMALL
USER_CHARGES


@<TRIPOS>ATOM
  1 O        0.1280     0.5420     0.1600 O.2   1 <1>  -0.5700 
  2 C       -0.4170     1.6050    -0.1030 C.2   1 <1>   0.5440 
  3 N       -1.8050     1.6310    -0.0210 N.am  1 <1>  -0.6600 
  4 C        0.4120     2.7380    -0.5220 C.ar  1 <1>   0.3960 
  5 C       -2.6560     2.7430    -0.5540 C.3   1 <1>   0.1400 
  6 C       -2.5540     0.5060     0.6130 C.3   1 <1>   0.1400 
  7 N        0.1180     3.9800    -0.1290 N.ar  1 <1>  -0.6200 
  8 C        1.5130     2.4740    -1.3420 C.ar  1 <1>   0.1600 
  9 C       -3.5450     3.3580     0.5510 C.3   1 <1>   0.1440 
 10 C       -4.0280     0.8590     0.8860 C.3   1 <1>  -0.1600 
 11 C        0.9290     4.9110    -0.6340 C.ar  1 <1>   0.1390 
 12 N        2.3530     3.3810    -1.8460 N.ar  1 <1>  -0.6200 
 13 C       -4.5750     4.2240    -0.1590 C.ar  1 <1>   0.1660 
 14 C       -4.1640     2.2740     1.4740 C.3   1 <1>  -0.1600 
 15 C       -2.7840     4.4230     1.3790 C.3   1 <1>  -0.1600 
 16 O        0.6710     6.1000    -0.3460 O.3   1 <1>  -0.8290 
 17 C        2.0250     4.5940    -1.4690 C.ar  1 <1>   0.1600 
 18 N       -5.6730     3.7990    -0.7360 N.ar  1 <1>  -0.6200 
 19 C       -4.2010     5.5350    -0.1470 C.ar  1 <1>  -0.1430 
 20 C       -2.8980     5.7370     0.5910 C.3   1 <1>  -0.0170 
 21 C       -6.4140     4.7480    -1.3130 C.ar  1 <1>   0.7200 
 22 C       -5.0210     6.4370    -0.7750 C.ar  1 <1>   0.1600 
 23 N       -6.1340     6.0550    -1.3600 N.ar  1 <1>  -0.6200 
 24 N       -7.5860     4.3380    -1.9230 N.pl3 1 <1>  -0.8380 
 25 C       -8.3390     5.2170    -2.8590 C.3   1 <1>   0.1290 
 26 C       -8.1730     2.9910    -1.6810 C.3   1 <1>   0.1290 
 27 H       -3.2940     2.3320    -1.3180 H     1 <1>   0.0800 
 28 H       -2.0740     3.5080    -1.0310 H     1 <1>   0.0800 
 29 H       -2.0700     0.2650     1.5450 H     1 <1>   0.0800 
 30 H       -2.4940    -0.3600    -0.0230 H     1 <1>   0.0800 
 31 H        1.7080     1.4500    -1.6010 H     1 <1>   0.1500 
 32 H       -4.4420     0.1380     1.5680 H     1 <1>   0.0800 
 33 H       -4.5880     0.7940    -0.0310 H     1 <1>   0.0800 
 34 H       -5.1990     2.4980     1.6620 H     1 <1>   0.0800 
 35 H       -3.6540     2.2790     2.4210 H     1 <1>   0.0800 
 36 H       -1.7640     4.1510     1.5760 H     1 <1>   0.0800 
 37 H       -3.2810     4.5650     2.3220 H     1 <1>   0.0800 
 38 H        2.6120     5.4260    -1.8040 H     1 <1>   0.1500 
 39 H       -2.0800     5.8320    -0.1060 H     1 <1>   0.0800 
 40 H       -2.9170     6.5920     1.2420 H     1 <1>   0.0800 
 41 H       -4.7570     7.4790    -0.7960 H     1 <1>   0.1500 
 42 H       -7.6710     5.9010    -3.3530 H     1 <1>   0.0800 
 43 H       -9.0730     5.7810    -2.3100 H     1 <1>   0.0800 
 44 H       -8.8320     4.6250    -3.6090 H     1 <1>   0.0800 
 45 H       -7.9130     2.6370    -0.6980 H     1 <1>   0.0800 
 46 H       -7.7950     2.2990    -2.4130 H     1 <1>   0.0800 
 47 H       -9.2450     3.0360    -1.7510 H     1 <1>   0.0800 
@<TRIPOS>BOND
  1   1   2  2   
  2   2   3  am  
  3   2   4  1   
  4   3   5  1   
  5   3   6  1   
  6   4   7  ar  
  7   4   8  ar  
  8   5   9  1   
  9   5  27  1   
 10   5  28  1   
 11   6  10  1   
 12   6  29  1   
 13   6  30  1   
 14   7  11  ar  
 15   8  12  ar  
 16   8  31  1   
 17   9  13  1   
 18   9  14  1   
 19   9  15  1   
 20  10  14  1   
 21  10  32  1   
 22  10  33  1   
 23  11  16  1   
 24  11  17  ar  
 25  12  17  ar  
 26  13  18  ar  
 27  13  19  ar  
 28  14  34  1   
 29  14  35  1   
 30  15  20  1   
 31  15  36  1   
 32  15  37  1   
 33  17  38  1   
 34  18  21  ar  
 35  19  20  1   
 36  19  22  ar  
 37  20  39  1   
 38  20  40  1   
 39  21  23  ar  
 40  21  24  1   
 41  22  23  ar  
 42  22  41  1   
 43  24  25  1   
 44  24  26  1   
 45  25  42  1   
 46  25  43  1   
 47  25  44  1   
 48  26  45  1   
 49  26  46  1   
 50  26  47  1   
@<TRIPOS>SUBSTRUCTURE
  1 ****   5 GROUP 4 **** **** 0

# MOE 2024.06 (io_trps.svl 2023.06)
