@<TRIPOS>MOLECULE
NONAME
48 50 1 0 0 
SMALL
USER_CHARGES


@<TRIPOS>ATOM
  1 S        0.4850     0.2100    -0.2810 S.o2  1 <1>   1.3330 
  2 O        0.4240    -0.1070     1.1290 O.2   1 <1>  -0.6500 
  3 O        0.3170    -0.8430    -1.2560 O.2   1 <1>  -0.6500 
  4 N       -0.6690     1.4150    -0.5920 N.am  1 <1>  -0.8490 
  5 C        2.0370     1.0330    -0.6240 C.3   1 <1>  -0.0550 
  6 C       -1.9670     0.8530    -0.9760 C.3   1 <1>   0.1160 
  7 C       -0.8410     2.3610     0.5150 C.3   1 <1>   0.1160 
  8 C        3.2520     0.0840    -0.5690 C.3   1 <1>  -0.0800 
  9 C        4.5870     0.7250    -0.9180 C.3   1 <1>   0.2200 
 10 C        3.5220    -0.5400     0.8070 C.3   1 <1>   0.1200 
 11 N        4.7220     2.0510    -0.2700 N.am  1 <1>  -0.7300 
 12 C        5.5400    -0.2470    -0.2380 C.3   1 <1>   0.1200 
 13 O        4.9130    -0.5780     0.9630 O.3   1 <1>  -0.5600 
 14 C        4.5340     3.2590    -0.8740 C.2   1 <1>   0.6160 
 15 O        4.1580     3.2610    -2.0300 O.2   1 <1>  -0.5700 
 16 C        4.7630     4.4960    -0.1500 C.2   1 <1>   0.0140 
 17 C        5.0130     5.6630    -0.8010 C.2   1 <1>  -0.1780 
 18 C        4.6870     4.4520     1.2950 C.2   1 <1>  -0.1500 
 19 C        5.2440     6.9760    -0.2530 C.ar  1 <1>   0.0280 
 20 C        5.3440     5.2400     2.1640 C.2   1 <1>  -0.0730 
 21 C        5.8160     7.2170     1.0060 C.ar  1 <1>   0.0820 
 22 C        4.8970     8.0870    -1.0180 C.ar  1 <1>  -0.1500 
 23 O        6.2260     6.2070     1.8220 O.3   1 <1>  -0.1590 
 24 C        6.0250     8.5070     1.4610 C.ar  1 <1>  -0.1500 
 25 C        5.1010     9.3790    -0.5620 C.ar  1 <1>  -0.1500 
 26 C        5.6660     9.5920     0.6800 C.ar  1 <1>  -0.1500 
 27 H        1.9900     1.4670    -1.6050 H     1 <1>   0.0800 
 28 H        2.1690     1.8320     0.0770 H     1 <1>   0.0800 
 29 H       -2.6680     1.6420    -1.1860 H     1 <1>   0.0800 
 30 H       -2.3550     0.2320    -0.1860 H     1 <1>   0.0800 
 31 H       -1.8600     0.2540    -1.8650 H     1 <1>   0.0800 
 32 H       -1.5200     3.1460     0.2280 H     1 <1>   0.0800 
 33 H        0.1030     2.8090     0.7720 H     1 <1>   0.0800 
 34 H       -1.2340     1.8580     1.3840 H     1 <1>   0.0800 
 35 H        3.0790    -0.7220    -1.2620 H     1 <1>   0.0800 
 36 H        4.7550     0.7960    -1.9800 H     1 <1>   0.0800 
 37 H        3.1340    -1.5430     0.8750 H     1 <1>   0.0800 
 38 H        3.1210     0.0580     1.6070 H     1 <1>   0.0800 
 39 H        5.0830     2.0100     0.6860 H     1 <1>   0.3700 
 40 H        6.5070     0.1820    -0.0400 H     1 <1>   0.0800 
 41 H        5.6480    -1.1480    -0.8170 H     1 <1>   0.0800 
 42 H        5.0310     5.6420    -1.8770 H     1 <1>   0.1500 
 43 H        4.0230     3.7000     1.6850 H     1 <1>   0.1500 
 44 H        5.2390     5.1560     3.2320 H     1 <1>   0.1500 
 45 H        4.4570     7.9420    -1.9890 H     1 <1>   0.1500 
 46 H        6.4730     8.6630     2.4260 H     1 <1>   0.1500 
 47 H        4.8190    10.2160    -1.1760 H     1 <1>   0.1500 
 48 H        5.8280    10.5940     1.0390 H     1 <1>   0.1500 
@<TRIPOS>BOND
  1   1   2  2   
  2   1   3  2   
  3   1   4  am  
  4   1   5  1   
  5   4   6  1   
  6   4   7  1   
  7   5   8  1   
  8   5  27  1   
  9   5  28  1   
 10   6  29  1   
 11   6  30  1   
 12   6  31  1   
 13   7  32  1   
 14   7  33  1   
 15   7  34  1   
 16   8   9  1   
 17   8  10  1   
 18   8  35  1   
 19   9  11  1   
 20   9  12  1   
 21   9  36  1   
 22  10  13  1   
 23  10  37  1   
 24  10  38  1   
 25  11  14  am  
 26  11  39  1   
 27  12  13  1   
 28  12  40  1   
 29  12  41  1   
 30  14  15  2   
 31  14  16  1   
 32  16  17  2   
 33  16  18  1   
 34  17  19  1   
 35  17  42  1   
 36  18  20  2   
 37  18  43  1   
 38  19  21  ar  
 39  19  22  ar  
 40  20  23  1   
 41  20  44  1   
 42  21  23  1   
 43  21  24  ar  
 44  22  25  ar  
 45  22  45  1   
 46  24  26  ar  
 47  24  46  1   
 48  25  26  ar  
 49  25  47  1   
 50  26  48  1   
@<TRIPOS>SUBSTRUCTURE
  1 ****  14 GROUP 4 **** **** 0

# MOE 2024.06 (io_trps.svl 2023.06)
