@<TRIPOS>MOLECULE
NONAME
33 34 1 0 0 
SMALL
USER_CHARGES


@<TRIPOS>ATOM
  1 F       -0.6770     0.1030    -0.0740 F     1 <1>  -0.3400 
  2 C       -1.7960     0.0200    -0.7940 C.3   1 <1>   0.2600 
  3 C       -2.6790     1.2010    -0.4150 C.3   1 <1>   0.2000 
  4 C       -2.5900    -1.1990    -0.3110 C.3   1 <1>   0.1100 
  5 O       -3.6700     1.3680    -1.3810 O.3   1 <1>  -0.6800 
  6 C       -3.3380     0.7250     0.8840 C.3   1 <1>   0.1100 
  7 N       -3.4870    -0.7420     0.7820 N.3   1 <1>  -0.8100 
  8 C       -4.8870    -1.1830     0.6400 C.3   1 <1>   0.2530 
  9 C       -4.9860    -2.6910     0.4460 C.ar  1 <1>  -0.1430 
 10 C       -4.4210    -3.5590     1.3670 C.ar  1 <1>  -0.1500 
 11 C       -5.6490    -3.2150    -0.6540 C.ar  1 <1>  -0.1500 
 12 C       -4.5170    -4.9300     1.1910 C.ar  1 <1>  -0.1500 
 13 C       -5.7410    -4.5850    -0.8290 C.ar  1 <1>  -0.1500 
 14 C       -5.1750    -5.4530     0.0900 C.ar  1 <1>  -0.1430 
 15 C       -5.2620    -6.9680    -0.1190 C.3   1 <1>  -0.1230 
 16 C       -6.6480    -7.5110    -0.4180 C.2   1 <1>   0.9060 
 17 O       -7.1040    -7.3910    -1.5620 O.co2 1 <1>  -0.9000 
 18 O       -7.2560    -8.1150     0.4740 O.co2 1 <1>  -0.9000 
 19 H       -1.5010    -0.0080    -1.8270 H     1 <1>   0.0800 
 20 H       -2.1360     2.1240    -0.3160 H     1 <1>   0.0800 
 21 H       -1.9390    -1.9830     0.0340 H     1 <1>   0.0800 
 22 H       -3.1740    -1.5750    -1.1340 H     1 <1>   0.0800 
 23 H       -4.2470     0.5800    -1.3800 H     1 <1>   0.4000 
 24 H       -4.2700     1.2290     1.0730 H     1 <1>   0.0800 
 25 H       -2.6670     0.9310     1.7010 H     1 <1>   0.0800 
 26 H       -5.4300    -0.9170     1.5310 H     1 <1>   0.0800 
 27 H       -5.3480    -0.6810    -0.1920 H     1 <1>   0.0800 
 28 H       -3.9030    -3.1630     2.2220 H     1 <1>   0.1500 
 29 H       -6.1040    -2.5700    -1.3820 H     1 <1>   0.1500 
 30 H       -4.0760    -5.5910     1.9160 H     1 <1>   0.1500 
 31 H       -6.2610    -4.9870    -1.6830 H     1 <1>   0.1500 
 32 H       -4.9020    -7.4810     0.7500 H     1 <1>   0.0800 
 33 H       -4.6330    -7.2390    -0.9440 H     1 <1>   0.0800 
@<TRIPOS>BOND
  1   1   2  1   
  2   2   3  1   
  3   2   4  1   
  4   2  19  1   
  5   3   5  1   
  6   3   6  1   
  7   3  20  1   
  8   4   7  1   
  9   4  21  1   
 10   4  22  1   
 11   5  23  1   
 12   6   7  1   
 13   6  24  1   
 14   6  25  1   
 15   7   8  1   
 16   8   9  1   
 17   8  26  1   
 18   8  27  1   
 19   9  10  ar  
 20   9  11  ar  
 21  10  12  ar  
 22  10  28  1   
 23  11  13  ar  
 24  11  29  1   
 25  12  14  ar  
 26  12  30  1   
 27  13  14  ar  
 28  13  31  1   
 29  14  15  1   
 30  15  16  1   
 31  15  32  1   
 32  15  33  1   
 33  16  17  ar  
 34  16  18  ar  
@<TRIPOS>SUBSTRUCTURE
  1 ****   9 GROUP 4 **** **** 0

# MOE 2024.06 (io_trps.svl 2023.06)
