@<TRIPOS>MOLECULE
NONAME
46 48 1 0 0 
SMALL
USER_CHARGES


@<TRIPOS>ATOM
  1 O        2.9950    -1.5980    -1.0410 O.2   1 <1>  -0.5700 
  2 C        2.8630    -1.5080     0.1660 C.2   1 <1>   0.7030 
  3 N        3.9540    -1.0390     0.8750 N.am  1 <1>  -0.6600 
  4 C        1.6010    -1.8830     0.8030 C.2   1 <1>   0.2770 
  5 C        5.3360    -1.3650     0.3930 C.3   1 <1>   0.1400 
  6 C        3.8380    -0.0340     1.9670 C.3   1 <1>   0.1400 
  7 N        0.3370    -1.9900     0.2080 N.pl3 1 <1>  -0.7640 
  8 C        1.4120    -2.2280     2.1040 C.2   1 <1>   0.2000 
  9 C        5.7700    -0.4670    -0.7840 C.3   1 <1>   0.3430 
 10 C        4.7090     1.2050     1.7170 C.3   1 <1>  -0.1600 
 11 C       -0.5300    -2.3730     1.1360 C.cat 1 <1>   0.6500 
 12 C        0.0460    -1.7620    -1.2390 C.3   1 <1>   0.2740 
 13 N        0.0900    -2.5170     2.2960 N.pl3 1 <1>  -0.7000 
 14 N        5.9540     0.9780    -0.4220 N.4   1 <1>  -0.9590 
 15 C        4.7960     1.6380     0.2510 C.3   1 <1>   0.3430 
 16 C        6.3830     1.7650    -1.6100 C.3   1 <1>   0.5230 
 17 C        7.0150     3.0440    -1.1000 C.2   1 <1>  -0.0400 
 18 O        7.9070     2.9470    -0.1310 O.3   1 <1>  -0.2800 
 19 C        6.8260     4.3360    -1.4440 C.2   1 <1>  -0.1500 
 20 C        8.3100     4.1660     0.1620 C.2   1 <1>  -0.0400 
 21 C        7.6790     5.0720    -0.6140 C.2   1 <1>  -0.1500 
 22 C        9.3510     4.3550     1.2440 C.3   1 <1>  -0.0600 
 23 H        5.3460    -2.3870     0.0520 H     1 <1>   0.0800 
 24 H        6.0440    -1.2910     1.2010 H     1 <1>   0.0800 
 25 H        4.1190    -0.4850     2.9060 H     1 <1>   0.0800 
 26 H        2.8120     0.2860     2.0490 H     1 <1>   0.0800 
 27 H        2.1470    -2.2890     2.8920 H     1 <1>   0.1500 
 28 H        5.0350    -0.5550    -1.5670 H     1 <1>   0.0800 
 29 H        6.7000    -0.8500    -1.1720 H     1 <1>   0.0800 
 30 H        5.6940     1.0590     2.1240 H     1 <1>   0.0800 
 31 H        4.2740     2.0150     2.2760 H     1 <1>   0.0800 
 32 H       -1.5860    -2.5480     0.9700 H     1 <1>   0.1500 
 33 H        0.3510    -0.7700    -1.5260 H     1 <1>   0.0800 
 34 H       -1.0070    -1.8700    -1.4360 H     1 <1>   0.0800 
 35 H        0.5850    -2.4770    -1.8390 H     1 <1>   0.0800 
 36 H       -0.3470    -2.8140     3.1760 H     1 <1>   0.4500 
 37 H        6.7590     1.0790     0.2160 H     1 <1>   0.4500 
 38 H        4.9400     2.7070     0.2300 H     1 <1>   0.0800 
 39 H        3.8770     1.4140    -0.2670 H     1 <1>   0.0800 
 40 H        5.5480     1.9830    -2.2550 H     1 <1>   0.0800 
 41 H        7.1240     1.2170    -2.1690 H     1 <1>   0.0800 
 42 H        6.1770     4.7660    -2.1880 H     1 <1>   0.1500 
 43 H        7.7880     6.1440    -0.6210 H     1 <1>   0.1500 
 44 H       10.2520     3.8320     0.9790 H     1 <1>   0.0800 
 45 H        8.9860     3.9710     2.1790 H     1 <1>   0.0800 
 46 H        9.5790     5.3990     1.3630 H     1 <1>   0.0800 
@<TRIPOS>BOND
  1   1   2  2   
  2   2   3  am  
  3   2   4  1   
  4   3   5  1   
  5   3   6  1   
  6   4   7  1   
  7   4   8  2   
  8   5   9  1   
  9   5  23  1   
 10   5  24  1   
 11   6  10  1   
 12   6  25  1   
 13   6  26  1   
 14   7  11  ar  
 15   7  12  1   
 16   8  13  1   
 17   8  27  1   
 18   9  14  1   
 19   9  28  1   
 20   9  29  1   
 21  10  15  1   
 22  10  30  1   
 23  10  31  1   
 24  11  13  ar  
 25  11  32  1   
 26  12  33  1   
 27  12  34  1   
 28  12  35  1   
 29  13  36  1   
 30  14  15  1   
 31  14  16  1   
 32  14  37  1   
 33  15  38  1   
 34  15  39  1   
 35  16  17  1   
 36  16  40  1   
 37  16  41  1   
 38  17  18  1   
 39  17  19  2   
 40  18  20  1   
 41  19  21  1   
 42  19  42  1   
 43  20  21  2   
 44  20  22  1   
 45  21  43  1   
 46  22  44  1   
 47  22  45  1   
 48  22  46  1   
@<TRIPOS>SUBSTRUCTURE
  1 ****  15 GROUP 4 **** **** 0

# MOE 2024.06 (io_trps.svl 2023.06)
