@<TRIPOS>MOLECULE
NONAME
42 44 1 0 0 
SMALL
USER_CHARGES


@<TRIPOS>ATOM
  1 CL      -0.9340     0.1730     0.9120 Cl    1 <1>  -0.1770 
  2 C       -1.8440    -0.9670    -0.0470 C.ar  1 <1>   0.1770 
  3 C       -2.4980    -0.5420    -1.1910 C.ar  1 <1>   0.1600 
  4 C       -1.9080    -2.2840     0.3410 C.ar  1 <1>  -0.1500 
  5 N       -3.2070    -1.3410    -1.9770 N.ar  1 <1>  -0.6200 
  6 C       -2.6500    -3.1470    -0.4540 C.ar  1 <1>   0.0860 
  7 C       -3.2550    -2.6110    -1.5920 C.ar  1 <1>   0.1600 
  8 C       -2.7830    -4.5490    -0.1250 C.2   1 <1>   0.5440 
  9 O       -1.7920    -5.1840     0.1820 O.2   1 <1>  -0.5700 
 10 N       -4.0010    -5.1860    -0.1350 N.am  1 <1>  -0.6600 
 11 C       -5.3240    -4.5180    -0.1030 C.3   1 <1>   0.1400 
 12 C       -4.1410    -6.6290     0.1600 C.3   1 <1>   0.1400 
 13 C       -6.2490    -5.4960     0.6330 C.3   1 <1>  -0.0800 
 14 C       -5.6400    -6.8820     0.3470 C.3   1 <1>  -0.0800 
 15 C       -7.7730    -5.3680     0.3220 C.3   1 <1>   0.2800 
 16 C       -6.2880    -7.5220    -0.8910 C.3   1 <1>  -0.1600 
 17 O       -7.9610    -4.8410    -0.9420 O.3   1 <1>  -0.6800 
 18 C       -8.4330    -6.7590     0.3180 C.3   1 <1>  -0.1600 
 19 C       -8.5090    -4.4380     1.3120 C.3   1 <1>  -0.1600 
 20 C       -7.7990    -7.7410    -0.6920 C.3   1 <1>  -0.1600 
 21 C       -8.0070    -2.9830     1.3590 C.3   1 <1>  -0.2400 
 22 H       -2.4300     0.4960    -1.4670 H     1 <1>   0.1500 
 23 H       -1.4030    -2.6370     1.2230 H     1 <1>   0.1500 
 24 H       -3.8120    -3.2830    -2.2240 H     1 <1>   0.1500 
 25 H       -5.2720    -3.5700     0.4030 H     1 <1>   0.0800 
 26 H       -5.6420    -4.3650    -1.1180 H     1 <1>   0.0800 
 27 H       -3.7290    -7.2160    -0.6430 H     1 <1>   0.0800 
 28 H       -3.6080    -6.8550     1.0680 H     1 <1>   0.0800 
 29 H       -6.1110    -5.3260     1.6860 H     1 <1>   0.0800 
 30 H       -5.7850    -7.5410     1.1850 H     1 <1>   0.0800 
 31 H       -6.1380    -6.8700    -1.7350 H     1 <1>   0.0800 
 32 H       -5.8140    -8.4620    -1.1190 H     1 <1>   0.0800 
 33 H       -8.9120    -4.8420    -1.1510 H     1 <1>   0.4000 
 34 H       -8.3270    -7.1770     1.3040 H     1 <1>   0.0800 
 35 H       -9.4880    -6.6770     0.1280 H     1 <1>   0.0800 
 36 H       -9.5570    -4.4290     1.0670 H     1 <1>   0.0800 
 37 H       -8.4270    -4.8530     2.3010 H     1 <1>   0.0800 
 38 H       -7.9750    -8.7460    -0.3500 H     1 <1>   0.0800 
 39 H       -8.2840    -7.6360    -1.6470 H     1 <1>   0.0800 
 40 H       -8.0190    -2.5420     0.3770 H     1 <1>   0.0800 
 41 H       -7.0080    -2.9340     1.7510 H     1 <1>   0.0800 
 42 H       -8.6440    -2.3990     1.9990 H     1 <1>   0.0800 
@<TRIPOS>BOND
  1   1   2  1   
  2   2   3  ar  
  3   2   4  ar  
  4   3   5  ar  
  5   3  22  1   
  6   4   6  ar  
  7   4  23  1   
  8   5   7  ar  
  9   6   7  ar  
 10   6   8  1   
 11   7  24  1   
 12   8   9  2   
 13   8  10  am  
 14  10  11  1   
 15  10  12  1   
 16  11  13  1   
 17  11  25  1   
 18  11  26  1   
 19  12  14  1   
 20  12  27  1   
 21  12  28  1   
 22  13  14  1   
 23  13  15  1   
 24  13  29  1   
 25  14  16  1   
 26  14  30  1   
 27  15  17  1   
 28  15  18  1   
 29  15  19  1   
 30  16  20  1   
 31  16  31  1   
 32  16  32  1   
 33  17  33  1   
 34  18  20  1   
 35  18  34  1   
 36  18  35  1   
 37  19  21  1   
 38  19  36  1   
 39  19  37  1   
 40  20  38  1   
 41  20  39  1   
 42  21  40  1   
 43  21  41  1   
 44  21  42  1   
@<TRIPOS>SUBSTRUCTURE
  1 ****  11 GROUP 4 **** **** 0

# MOE 2024.06 (io_trps.svl 2023.06)
