@<TRIPOS>MOLECULE
NONAME
43 44 1 0 0 
SMALL
USER_CHARGES


@<TRIPOS>ATOM
  1 CL      -0.8520    -5.0890    -3.6150 Cl    1 <1>  -0.1230 
  2 C       -1.6390    -5.3980    -2.0790 C.2   1 <1>   0.1230 
  3 C       -1.8030    -6.6400    -1.4900 C.2   1 <1>   0.1390 
  4 C       -2.1940    -4.5020    -1.2450 C.2   1 <1>  -0.3020 
  5 N       -2.4410    -6.5440    -0.3550 N.2   1 <1>  -0.7070 
  6 N       -2.6690    -5.2110    -0.1990 N.pl3 1 <1>   0.3140 
  7 C       -3.3160    -4.6350     0.9980 C.3   1 <1>   0.0960 
  8 C       -4.8010    -4.3010     0.7770 C.3   1 <1>   0.1100 
  9 N       -5.6450    -5.5150     0.7140 N.3   1 <1>  -0.8100 
 10 C       -5.7900    -6.0480    -0.6640 C.3   1 <1>   0.1100 
 11 C       -6.9670    -5.2580     1.3110 C.3   1 <1>   0.0300 
 12 C       -5.8950    -7.5960    -0.7270 C.3   1 <1>   0.4230 
 13 N       -4.7490    -8.2410    -0.0050 N.4   1 <1>  -0.9590 
 14 C       -5.9500    -8.0240    -2.1970 C.3   1 <1>  -0.2400 
 15 C       -4.2340    -9.5490    -0.5340 C.3   1 <1>   0.3430 
 16 C       -5.0130    -8.3580     1.4690 C.3   1 <1>   0.3430 
 17 C       -3.0540   -10.0730     0.3060 C.3   1 <1>   0.1200 
 18 C       -3.7960    -8.9340     2.2150 C.3   1 <1>   0.1200 
 19 O       -3.4160   -10.1560     1.6530 O.3   1 <1>  -0.5600 
 20 H       -1.4440    -7.5590    -1.9210 H     1 <1>   0.1500 
 21 H       -2.2640    -3.4340    -1.3380 H     1 <1>   0.1500 
 22 H       -2.7880    -3.7360     1.2540 H     1 <1>   0.0800 
 23 H       -3.2160    -5.3230     1.8160 H     1 <1>   0.0800 
 24 H       -4.9310    -3.6940    -0.1050 H     1 <1>   0.0800 
 25 H       -5.1100    -3.7040     1.6200 H     1 <1>   0.0800 
 26 H       -4.9490    -5.7550    -1.2650 H     1 <1>   0.0800 
 27 H       -6.6590    -5.6140    -1.1300 H     1 <1>   0.0800 
 28 H       -6.8570    -4.9650     2.3420 H     1 <1>   0.0800 
 29 H       -7.5730    -6.1470     1.2800 H     1 <1>   0.0800 
 30 H       -7.4760    -4.4700     0.7800 H     1 <1>   0.0800 
 31 H       -6.8190    -7.8930    -0.2590 H     1 <1>   0.0800 
 32 H       -3.9620    -7.5620    -0.0810 H     1 <1>   0.4500 
 33 H       -5.0270    -7.7980    -2.7000 H     1 <1>   0.0800 
 34 H       -6.7390    -7.4900    -2.6970 H     1 <1>   0.0800 
 35 H       -6.1750    -9.0710    -2.2880 H     1 <1>   0.0800 
 36 H       -3.9070    -9.4300    -1.5530 H     1 <1>   0.0800 
 37 H       -5.0210   -10.2840    -0.5180 H     1 <1>   0.0800 
 38 H       -5.8580    -9.0040     1.6380 H     1 <1>   0.0800 
 39 H       -5.2450    -7.3960     1.8890 H     1 <1>   0.0800 
 40 H       -2.1990    -9.4250     0.2160 H     1 <1>   0.0800 
 41 H       -2.7740   -11.0600    -0.0190 H     1 <1>   0.0800 
 42 H       -4.0420    -9.1100     3.2480 H     1 <1>   0.0800 
 43 H       -2.9610    -8.2550     2.1700 H     1 <1>   0.0800 
@<TRIPOS>BOND
  1   1   2  1   
  2   2   3  1   
  3   2   4  2   
  4   3   5  2   
  5   3  20  1   
  6   4   6  1   
  7   4  21  1   
  8   5   6  1   
  9   6   7  1   
 10   7   8  1   
 11   7  22  1   
 12   7  23  1   
 13   8   9  1   
 14   8  24  1   
 15   8  25  1   
 16   9  10  1   
 17   9  11  1   
 18  10  12  1   
 19  10  26  1   
 20  10  27  1   
 21  11  28  1   
 22  11  29  1   
 23  11  30  1   
 24  12  13  1   
 25  12  14  1   
 26  12  31  1   
 27  13  15  1   
 28  13  16  1   
 29  13  32  1   
 30  14  33  1   
 31  14  34  1   
 32  14  35  1   
 33  15  17  1   
 34  15  36  1   
 35  15  37  1   
 36  16  18  1   
 37  16  38  1   
 38  16  39  1   
 39  17  19  1   
 40  17  40  1   
 41  17  41  1   
 42  18  19  1   
 43  18  42  1   
 44  18  43  1   
@<TRIPOS>SUBSTRUCTURE
  1 ****   5 GROUP 4 **** **** 0

# MOE 2024.06 (io_trps.svl 2023.06)
