@<TRIPOS>MOLECULE
NONAME
43 44 1 0 0 
SMALL
USER_CHARGES


@<TRIPOS>ATOM
  1 O        0.9200     0.3270     2.0340 O.2   1 <1>  -0.5700 
  2 C        0.7680    -0.4530     1.1240 C.2   1 <1>   0.5690 
  3 N        1.1140    -0.1500    -0.1520 N.am  1 <1>  -0.7300 
  4 C        0.1850    -1.8430     1.4070 C.3   1 <1>   0.1710 
  5 C        1.6820     1.1390    -0.6280 C.3   1 <1>   0.1400 
  6 N       -0.4000    -2.5320     0.2120 N.3   1 <1>  -0.8100 
  7 C        3.1090     1.3620    -0.1080 C.3   1 <1>   0.2000 
  8 C       -0.5760    -3.9700     0.4950 C.3   1 <1>   0.1100 
  9 C       -1.6810    -1.9010    -0.1570 C.3   1 <1>   0.0300 
 10 O        3.6670     2.4600    -0.7520 O.3   1 <1>  -0.5600 
 11 C        4.0880     0.2310    -0.4000 C.3   1 <1>  -0.1600 
 12 C       -0.8000    -4.7750    -0.7890 C.3   1 <1>  -0.0170 
 13 C        5.0520     2.4220    -0.6310 C.3   1 <1>   0.1200 
 14 C        5.4260     0.9460    -0.5020 C.3   1 <1>  -0.1600 
 15 C       -0.7770    -6.2630    -0.4870 C.ar  1 <1>   0.1670 
 16 N       -1.7810    -6.7290     0.2390 N.ar  1 <1>  -0.6200 
 17 C        0.2620    -7.0480    -0.9680 C.ar  1 <1>  -0.1500 
 18 C       -1.7510    -8.0270     0.4950 C.ar  1 <1>   0.1600 
 19 C        0.2800    -8.3990    -0.6930 C.ar  1 <1>  -0.1500 
 20 C       -0.7610    -8.8920     0.0610 C.ar  1 <1>  -0.1500 
 21 H        0.9040    -0.8720    -0.8510 H     1 <1>   0.3700 
 22 H       -0.5590    -1.7540     2.1790 H     1 <1>   0.0800 
 23 H        0.9920    -2.4350     1.7990 H     1 <1>   0.0800 
 24 H        1.0570     1.9450    -0.2850 H     1 <1>   0.0800 
 25 H        1.6920     1.1400    -1.7040 H     1 <1>   0.0800 
 26 H        3.0880     1.5820     0.9470 H     1 <1>   0.0800 
 27 H       -1.3990    -4.1240     1.1740 H     1 <1>   0.0800 
 28 H        0.3140    -4.3520     0.9660 H     1 <1>   0.0800 
 29 H       -1.5490    -0.8430    -0.3090 H     1 <1>   0.0800 
 30 H       -2.4120    -2.0500     0.6200 H     1 <1>   0.0800 
 31 H       -2.0550    -2.3210    -1.0740 H     1 <1>   0.0800 
 32 H        3.8400    -0.2320    -1.3390 H     1 <1>   0.0800 
 33 H        4.0700    -0.5120     0.3780 H     1 <1>   0.0800 
 34 H       -0.0320    -4.5300    -1.4990 H     1 <1>   0.0800 
 35 H       -1.7550    -4.5350    -1.2170 H     1 <1>   0.0800 
 36 H        5.3250     2.9720     0.2530 H     1 <1>   0.0800 
 37 H        5.4860     2.8800    -1.5030 H     1 <1>   0.0800 
 38 H        5.9850     0.6140    -1.3590 H     1 <1>   0.0800 
 39 H        6.0180     0.7970     0.3840 H     1 <1>   0.0800 
 40 H        1.0500    -6.6110    -1.5530 H     1 <1>   0.1500 
 41 H       -2.5610    -8.4250     1.0820 H     1 <1>   0.1500 
 42 H        1.0700    -9.0370    -1.0500 H     1 <1>   0.1500 
 43 H       -0.8090    -9.9360     0.3120 H     1 <1>   0.1500 
@<TRIPOS>BOND
  1   1   2  2   
  2   2   3  am  
  3   2   4  1   
  4   3   5  1   
  5   3  21  1   
  6   4   6  1   
  7   4  22  1   
  8   4  23  1   
  9   5   7  1   
 10   5  24  1   
 11   5  25  1   
 12   6   8  1   
 13   6   9  1   
 14   7  10  1   
 15   7  11  1   
 16   7  26  1   
 17   8  12  1   
 18   8  27  1   
 19   8  28  1   
 20   9  29  1   
 21   9  30  1   
 22   9  31  1   
 23  10  13  1   
 24  11  14  1   
 25  11  32  1   
 26  11  33  1   
 27  12  15  1   
 28  12  34  1   
 29  12  35  1   
 30  13  14  1   
 31  13  36  1   
 32  13  37  1   
 33  14  38  1   
 34  14  39  1   
 35  15  16  ar  
 36  15  17  ar  
 37  16  18  ar  
 38  17  19  ar  
 39  17  40  1   
 40  18  20  ar  
 41  18  41  1   
 42  19  20  ar  
 43  19  42  1   
 44  20  43  1   
@<TRIPOS>SUBSTRUCTURE
  1 ****   6 GROUP 4 **** **** 0

# MOE 2024.06 (io_trps.svl 2023.06)
