@<TRIPOS>MOLECULE
NONAME
45 47 1 0 0 
SMALL
USER_CHARGES


@<TRIPOS>ATOM
  1 O        1.9380     1.6900     0.9740 O.3   1 <1>  -0.0190 
  2 N        2.6520     0.6090     0.8890 N.2   1 <1>  -0.4100 
  3 C        0.8780     1.6410     0.2100 C.2   1 <1>  -0.0400 
  4 C        2.0290    -0.1640     0.0730 C.2   1 <1>   0.1080 
  5 C        0.8710     0.4480    -0.4020 C.2   1 <1>  -0.1500 
  6 C       -0.0680     2.8280     0.1480 C.3   1 <1>   0.0200 
  7 C        2.4970    -1.5490    -0.3150 C.3   1 <1>  -0.0590 
  8 C        0.5920     4.0260    -0.5640 C.3   1 <1>  -0.0800 
  9 C       -0.2520     5.2990    -0.6240 C.3   1 <1>   0.2000 
 10 C        1.8930     4.4830     0.0950 C.3   1 <1>   0.2090 
 11 O       -0.8240     5.5060     0.6360 O.3   1 <1>  -0.5600 
 12 C        0.7880     6.3950    -0.8980 C.3   1 <1>   0.2090 
 13 N        2.0620     5.9180    -0.2700 N.pl3 1 <1>  -0.8380 
 14 C       -1.9700     6.3010     0.6470 C.3   1 <1>   0.0400 
 15 C        3.0880     6.7310     0.1070 C.ar  1 <1>   0.4610 
 16 N        4.0710     6.2310     0.8700 N.ar  1 <1>  -0.1790 
 17 C        3.2120     8.0600    -0.2360 C.ar  1 <1>  -0.1500 
 18 C        5.1100     6.9790     1.2830 C.ar  1 <1>   0.7710 
 19 C        4.3010     8.7740     0.2180 C.ar  1 <1>   0.3930 
 20 N        5.2570     8.2440     0.9790 N.ar  1 <1>  -0.6200 
 21 N        6.0600     6.4350     2.0460 N.pl3 1 <1>  -0.9000 
 22 O        4.3870    10.0550    -0.1310 O.3   1 <1>  -0.3630 
 23 C        5.4500    10.8990     0.2690 C.3   1 <1>   0.0400 
 24 H        0.1670     0.0300    -1.0980 H     1 <1>   0.1500 
 25 H       -0.9600     2.5450    -0.3820 H     1 <1>   0.0800 
 26 H       -0.3520     3.0890     1.1530 H     1 <1>   0.0800 
 27 H        2.6130    -1.6120    -1.3810 H     1 <1>   0.0800 
 28 H        1.7790    -2.2790     0.0080 H     1 <1>   0.0800 
 29 H        3.4430    -1.7610     0.1510 H     1 <1>   0.0800 
 30 H        0.8270     3.7310    -1.5720 H     1 <1>   0.0800 
 31 H       -1.0240     5.2470    -1.3730 H     1 <1>   0.0800 
 32 H        2.7220     3.8890    -0.2540 H     1 <1>   0.0800 
 33 H        1.7990     4.3970     1.1660 H     1 <1>   0.0800 
 34 H        0.4700     7.3400    -0.4930 H     1 <1>   0.0800 
 35 H        0.9370     6.4910    -1.9600 H     1 <1>   0.0800 
 36 H       -2.2990     6.3990     1.6670 H     1 <1>   0.0800 
 37 H       -2.7400     5.8230     0.0660 H     1 <1>   0.0800 
 38 H       -1.7420     7.2730     0.2470 H     1 <1>   0.0800 
 39 H        4.0190     5.2650     1.1510 H     1 <1>   0.4570 
 40 H        2.4820     8.5500    -0.8500 H     1 <1>   0.1500 
 41 H        6.1270     5.4740     2.3860 H     1 <1>   0.4000 
 42 H        6.8350     7.0370     2.3410 H     1 <1>   0.4000 
 43 H        5.2800    11.8770    -0.1440 H     1 <1>   0.0800 
 44 H        6.3760    10.4980    -0.1050 H     1 <1>   0.0800 
 45 H        5.4700    10.9520     1.3430 H     1 <1>   0.0800 
@<TRIPOS>BOND
  1   1   2  1   
  2   1   3  1   
  3   2   4  2   
  4   3   5  2   
  5   3   6  1   
  6   4   5  1   
  7   4   7  1   
  8   5  24  1   
  9   6   8  1   
 10   6  25  1   
 11   6  26  1   
 12   7  27  1   
 13   7  28  1   
 14   7  29  1   
 15   8   9  1   
 16   8  10  1   
 17   8  30  1   
 18   9  11  1   
 19   9  12  1   
 20   9  31  1   
 21  10  13  1   
 22  10  32  1   
 23  10  33  1   
 24  11  14  1   
 25  12  13  1   
 26  12  34  1   
 27  12  35  1   
 28  13  15  1   
 29  14  36  1   
 30  14  37  1   
 31  14  38  1   
 32  15  16  ar  
 33  15  17  ar  
 34  16  18  ar  
 35  16  39  1   
 36  17  19  ar  
 37  17  40  1   
 38  18  20  ar  
 39  18  21  1   
 40  19  20  ar  
 41  19  22  1   
 42  21  41  1   
 43  21  42  1   
 44  22  23  1   
 45  23  43  1   
 46  23  44  1   
 47  23  45  1   
@<TRIPOS>SUBSTRUCTURE
  1 ****  10 GROUP 4 **** **** 0

# MOE 2024.06 (io_trps.svl 2023.06)
