@<TRIPOS>MOLECULE
NONAME
59 62 1 0 0 
SMALL
USER_CHARGES


@<TRIPOS>ATOM
  1 O       -1.6490     0.7500     1.3120 O.3   1 <1>  -0.3630 
  2 C       -2.4960     0.0440     0.5190 C.ar  1 <1>   0.0820 
  3 C       -0.2920     0.8080     0.9300 C.3   1 <1>   0.1200 
  4 C       -2.4010     0.0070    -0.8790 C.ar  1 <1>   0.0820 
  5 C       -3.4800    -0.6880     1.1600 C.ar  1 <1>  -0.1500 
  6 C       -0.0780     1.9430    -0.0740 C.3   1 <1>  -0.1600 
  7 O       -1.5160     0.7470    -1.6010 O.3   1 <1>  -0.3630 
  8 C       -3.2620    -0.8000    -1.6010 C.ar  1 <1>  -0.1500 
  9 C       -4.3560    -1.4820     0.4280 C.ar  1 <1>   0.0820 
 10 C       -1.1870     2.0350    -1.1240 C.3   1 <1>   0.1200 
 11 C       -4.2400    -1.5420    -0.9570 C.ar  1 <1>  -0.1430 
 12 O       -5.3490    -2.2170     1.0010 O.3   1 <1>  -0.3630 
 13 C       -5.1940    -2.4050    -1.7570 C.3   1 <1>   0.4860 
 14 C       -5.5260    -2.2380     2.4030 C.3   1 <1>   0.0400 
 15 N       -6.5580    -1.8550    -1.5890 N.4   1 <1>  -0.9590 
 16 C       -7.6500    -2.7700    -1.9820 C.3   1 <1>   0.3430 
 17 C       -6.7220    -0.4690    -2.1100 C.3   1 <1>   0.3430 
 18 C       -8.9780    -2.2770    -1.3910 C.3   1 <1>  -0.1600 
 19 C       -8.1710     0.0130    -1.9510 C.3   1 <1>  -0.1600 
 20 C       -8.9660    -0.8070    -0.9180 C.3   1 <1>   0.2800 
 21 O       -8.2560    -0.7990     0.3010 O.3   1 <1>  -0.5600 
 22 C      -10.4050    -0.2690    -0.7120 C.3   1 <1>  -0.1600 
 23 C       -8.4100     0.3210     1.1290 C.3   1 <1>   0.1200 
 24 C      -10.8570    -0.3290     0.7500 C.3   1 <1>   0.2800 
 25 C       -9.8610     0.4370     1.6260 C.3   1 <1>  -0.1600 
 26 O      -10.8170    -1.6390     1.1480 O.3   1 <1>  -0.6800 
 27 C      -12.2930     0.1470     0.9430 C.3   1 <1>  -0.2400 
 28 H       -0.0170    -0.1430     0.5050 H     1 <1>   0.0800 
 29 H        0.2950     0.9730     1.8160 H     1 <1>   0.0800 
 30 H       -3.5280    -0.6230     2.2300 H     1 <1>   0.1500 
 31 H        0.8670     1.7990    -0.5670 H     1 <1>   0.0800 
 32 H       -0.0210     2.8770     0.4540 H     1 <1>   0.0800 
 33 H       -3.1520    -0.8270    -2.6710 H     1 <1>   0.1500 
 34 H       -0.8620     2.6240    -1.9630 H     1 <1>   0.0800 
 35 H       -2.0760     2.4810    -0.7100 H     1 <1>   0.0800 
 36 H       -5.1540    -3.4130    -1.3750 H     1 <1>   0.0800 
 37 H       -4.9150    -2.4140    -2.7980 H     1 <1>   0.0800 
 38 H       -6.3590    -2.8790     2.6290 H     1 <1>   0.0800 
 39 H       -5.7330    -1.2390     2.7470 H     1 <1>   0.0800 
 40 H       -4.6340    -2.6250     2.8640 H     1 <1>   0.0800 
 41 H       -6.6650    -1.7460    -0.5570 H     1 <1>   0.4500 
 42 H       -7.4500    -3.7670    -1.6230 H     1 <1>   0.0800 
 43 H       -7.7210    -2.8030    -3.0570 H     1 <1>   0.0800 
 44 H       -6.4360    -0.4210    -3.1480 H     1 <1>   0.0800 
 45 H       -6.0730     0.1890    -1.5520 H     1 <1>   0.0800 
 46 H       -9.2610    -2.9180    -0.5760 H     1 <1>   0.0800 
 47 H       -9.7270    -2.4070    -2.1510 H     1 <1>   0.0800 
 48 H       -8.6620    -0.0640    -2.9040 H     1 <1>   0.0800 
 49 H       -8.1700     1.0570    -1.6950 H     1 <1>   0.0800 
 50 H      -11.1090    -0.7940    -1.3320 H     1 <1>   0.0800 
 51 H      -10.4470     0.7590    -1.0240 H     1 <1>   0.0800 
 52 H       -8.1270     1.2000     0.5760 H     1 <1>   0.0800 
 53 H       -7.7380     0.2140     1.9630 H     1 <1>   0.0800 
 54 H      -10.1180     1.4810     1.6300 H     1 <1>   0.0800 
 55 H       -9.9340     0.1010     2.6460 H     1 <1>   0.0800 
 56 H       -9.8740    -1.8910     1.2060 H     1 <1>   0.4000 
 57 H      -12.3930     1.1730     0.6380 H     1 <1>   0.0800 
 58 H      -12.5730     0.0720     1.9790 H     1 <1>   0.0800 
 59 H      -12.9670    -0.4500     0.3560 H     1 <1>   0.0800 
@<TRIPOS>BOND
  1   1   2  1   
  2   1   3  1   
  3   2   4  ar  
  4   2   5  ar  
  5   3   6  1   
  6   3  28  1   
  7   3  29  1   
  8   4   7  1   
  9   4   8  ar  
 10   5   9  ar  
 11   5  30  1   
 12   6  10  1   
 13   6  31  1   
 14   6  32  1   
 15   7  10  1   
 16   8  11  ar  
 17   8  33  1   
 18   9  11  ar  
 19   9  12  1   
 20  10  34  1   
 21  10  35  1   
 22  11  13  1   
 23  12  14  1   
 24  13  15  1   
 25  13  36  1   
 26  13  37  1   
 27  14  38  1   
 28  14  39  1   
 29  14  40  1   
 30  15  16  1   
 31  15  17  1   
 32  15  41  1   
 33  16  18  1   
 34  16  42  1   
 35  16  43  1   
 36  17  19  1   
 37  17  44  1   
 38  17  45  1   
 39  18  20  1   
 40  18  46  1   
 41  18  47  1   
 42  19  20  1   
 43  19  48  1   
 44  19  49  1   
 45  20  21  1   
 46  20  22  1   
 47  21  23  1   
 48  22  24  1   
 49  22  50  1   
 50  22  51  1   
 51  23  25  1   
 52  23  52  1   
 53  23  53  1   
 54  24  25  1   
 55  24  26  1   
 56  24  27  1   
 57  25  54  1   
 58  25  55  1   
 59  26  56  1   
 60  27  57  1   
 61  27  58  1   
 62  27  59  1   
@<TRIPOS>SUBSTRUCTURE
  1 ****   9 GROUP 4 **** **** 0

# MOE 2024.06 (io_trps.svl 2023.06)
