@<TRIPOS>MOLECULE
NONAME
44 46 1 0 0 
SMALL
USER_CHARGES


@<TRIPOS>ATOM
  1 O       -1.9700     0.4060    -2.1940 O.2   1 <1>  -0.5700 
  2 C       -1.8490     0.5180    -0.9910 C.2   1 <1>   0.5440 
  3 N       -1.8270    -0.6210    -0.2380 N.am  1 <1>  -0.7300 
  4 C       -1.7420     1.8240    -0.3750 C.ar  1 <1>   0.0860 
  5 C       -1.9790    -1.9990    -0.7640 C.3   1 <1>   0.2200 
  6 C       -2.1790     2.0540     0.9260 C.ar  1 <1>   0.1600 
  7 C       -1.2070     2.9110    -1.0510 C.ar  1 <1>  -0.1500 
  8 C       -3.3680    -2.5480    -0.4690 C.3   1 <1>  -0.0800 
  9 C       -1.1260    -2.9380     0.0770 C.3   1 <1>   0.1200 
 10 N       -2.1190     3.2030     1.5740 N.ar  1 <1>  -0.6200 
 11 C       -1.1300     4.1280    -0.4030 C.ar  1 <1>  -0.1430 
 12 C       -3.2340    -3.0730     0.9660 C.3   1 <1>   0.1200 
 13 C       -4.5390    -1.5690    -0.6810 C.3   1 <1>  -0.0170 
 14 O       -1.8640    -3.1460     1.2430 O.3   1 <1>  -0.5600 
 15 C       -1.6000     4.2200     0.9050 C.ar  1 <1>   0.1670 
 16 C       -0.5330     5.3190    -1.1430 C.3   1 <1>  -0.0970 
 17 C       -5.8720    -2.2450    -0.4020 C.ar  1 <1>  -0.1430 
 18 C       -1.5460     5.5280     1.6730 C.3   1 <1>  -0.0970 
 19 C       -6.5470    -2.0650     0.7890 C.ar  1 <1>  -0.1500 
 20 C       -6.4750    -3.0730    -1.3260 C.ar  1 <1>  -0.1500 
 21 C       -7.7560    -2.7100     0.9930 C.ar  1 <1>   0.1600 
 22 C       -7.6870    -3.6700    -1.0220 C.ar  1 <1>   0.1600 
 23 N       -8.3400    -3.5100     0.1170 N.ar  1 <1>  -0.6200 
 24 H       -1.6410    -0.5920     0.7670 H     1 <1>   0.3700 
 25 H       -1.7250    -2.0420    -1.8110 H     1 <1>   0.0800 
 26 H       -2.6150     1.2340     1.4670 H     1 <1>   0.1500 
 27 H       -0.8630     2.7890    -2.0640 H     1 <1>   0.1500 
 28 H       -3.5260    -3.4000    -1.1070 H     1 <1>   0.0800 
 29 H       -0.1640    -2.5250     0.3220 H     1 <1>   0.0800 
 30 H       -1.0060    -3.8890    -0.4130 H     1 <1>   0.0800 
 31 H       -3.6670    -4.0520     1.0740 H     1 <1>   0.0800 
 32 H       -3.6740    -2.3990     1.6800 H     1 <1>   0.0800 
 33 H       -4.5240    -1.2120    -1.6970 H     1 <1>   0.0800 
 34 H       -4.4370    -0.7130    -0.0390 H     1 <1>   0.0800 
 35 H       -0.0950     5.0120    -2.0760 H     1 <1>   0.0800 
 36 H        0.2360     5.7790    -0.5490 H     1 <1>   0.0800 
 37 H       -1.2990     6.0440    -1.3510 H     1 <1>   0.0800 
 38 H       -1.8280     6.3530     1.0460 H     1 <1>   0.0800 
 39 H       -0.5510     5.6860     2.0460 H     1 <1>   0.0800 
 40 H       -2.2230     5.4970     2.5080 H     1 <1>   0.0800 
 41 H       -6.1490    -1.4310     1.5590 H     1 <1>   0.1500 
 42 H       -6.0140    -3.2580    -2.2790 H     1 <1>   0.1500 
 43 H       -8.2690    -2.5580     1.9280 H     1 <1>   0.1500 
 44 H       -8.1430    -4.3140    -1.7550 H     1 <1>   0.1500 
@<TRIPOS>BOND
  1   1   2  2   
  2   2   3  am  
  3   2   4  1   
  4   3   5  1   
  5   3  24  1   
  6   4   6  ar  
  7   4   7  ar  
  8   5   8  1   
  9   5   9  1   
 10   5  25  1   
 11   6  10  ar  
 12   6  26  1   
 13   7  11  ar  
 14   7  27  1   
 15   8  12  1   
 16   8  13  1   
 17   8  28  1   
 18   9  14  1   
 19   9  29  1   
 20   9  30  1   
 21  10  15  ar  
 22  11  15  ar  
 23  11  16  1   
 24  12  14  1   
 25  12  31  1   
 26  12  32  1   
 27  13  17  1   
 28  13  33  1   
 29  13  34  1   
 30  15  18  1   
 31  16  35  1   
 32  16  36  1   
 33  16  37  1   
 34  17  19  ar  
 35  17  20  ar  
 36  18  38  1   
 37  18  39  1   
 38  18  40  1   
 39  19  21  ar  
 40  19  41  1   
 41  20  22  ar  
 42  20  42  1   
 43  21  23  ar  
 44  21  43  1   
 45  22  23  ar  
 46  22  44  1   
@<TRIPOS>SUBSTRUCTURE
  1 ****   3 GROUP 4 **** **** 0

# MOE 2024.06 (io_trps.svl 2023.06)
