@<TRIPOS>MOLECULE
NONAME
60 62 1 0 0 
SMALL
USER_CHARGES


@<TRIPOS>ATOM
  1 O        0.2270     1.6560     1.3890 O.2   1 <1>  -0.5700 
  2 C        0.0150     2.7590     0.9410 C.2   1 <1>   0.5690 
  3 N       -1.1010     3.5000     1.2470 N.am  1 <1>  -0.5090 
  4 C        1.0680     3.3370    -0.0040 C.3   1 <1>   0.1810 
  5 C       -1.2350     4.9150     0.7640 C.3   1 <1>   0.3640 
  6 C       -1.9590     3.1410     2.4100 C.3   1 <1>   0.0490 
  7 O        1.1060     4.7440     0.0240 O.3   1 <1>  -0.5600 
  8 C       -2.5900     5.1540     0.0990 C.ar  1 <1>  -0.1440 
  9 C       -0.1450     5.3360    -0.2550 C.3   1 <1>   0.2610 
 10 C       -2.5710     1.7750     2.4770 C.3   1 <1>  -0.2000 
 11 C       -3.4410     2.9700     2.2620 C.3   1 <1>  -0.2000 
 12 C       -3.3570     6.2490     0.4720 C.ar  1 <1>  -0.1500 
 13 C       -3.0620     4.3070    -0.8970 C.ar  1 <1>  -0.1500 
 14 C        0.0090     6.8640    -0.3270 C.2   1 <1>   0.5690 
 15 C       -4.5710     6.4940    -0.1430 C.ar  1 <1>  -0.1500 
 16 C       -4.2770     4.5510    -1.5130 C.ar  1 <1>  -0.1500 
 17 O       -0.2470     7.5340     0.6520 O.2   1 <1>  -0.5700 
 18 N        0.4990     7.4830    -1.4580 N.am  1 <1>  -0.6600 
 19 C       -5.0400     5.6530    -1.1380 C.ar  1 <1>   0.0830 
 20 C        0.5110     8.9790    -1.5640 C.3   1 <1>   0.1400 
 21 C        0.9420     6.7550    -2.6850 C.3   1 <1>   0.0600 
 22 O       -6.2370     5.9670    -1.6900 O.3   1 <1>  -0.3630 
 23 C        1.7720     9.6230    -0.9460 C.3   1 <1>   0.3430 
 24 C       -6.8280     5.1510    -2.6770 C.3   1 <1>   0.0400 
 25 N        2.0710     9.0970     0.4250 N.4   1 <1>  -0.9590 
 26 C        3.0910     8.0140     0.3800 C.3   1 <1>   0.3430 
 27 C        2.4110    10.1890     1.3860 C.3   1 <1>   0.2630 
 28 C        3.0990     7.2450     1.6960 C.3   1 <1>  -0.2400 
 29 H        0.8690     3.0130    -1.0090 H     1 <1>   0.0800 
 30 H        2.0380     2.9780     0.2900 H     1 <1>   0.0800 
 31 H       -1.1610     5.5440     1.6340 H     1 <1>   0.0800 
 32 H       -1.5860     3.5580     3.3310 H     1 <1>   0.1000 
 33 H       -0.4480     4.9910    -1.2260 H     1 <1>   0.0800 
 34 H       -2.4090     1.0960     1.6580 H     1 <1>   0.1000 
 35 H       -2.6060     1.2750     3.4280 H     1 <1>   0.1000 
 36 H       -4.0790     3.2840     3.0690 H     1 <1>   0.1000 
 37 H       -3.9210     3.0580     1.3060 H     1 <1>   0.1000 
 38 H       -3.0160     6.9210     1.2420 H     1 <1>   0.1500 
 39 H       -2.4910     3.4440    -1.1920 H     1 <1>   0.1500 
 40 H       -5.1670     7.3410     0.1460 H     1 <1>   0.1500 
 41 H       -4.6140     3.8760    -2.2760 H     1 <1>   0.1500 
 42 H        0.4320     9.2700    -2.5980 H     1 <1>   0.0800 
 43 H       -0.3580     9.3730    -1.0640 H     1 <1>   0.0800 
 44 H        1.7290     7.2990    -3.1790 H     1 <1>   0.0800 
 45 H        0.1130     6.6500    -3.3650 H     1 <1>   0.0800 
 46 H        1.3200     5.7770    -2.4380 H     1 <1>   0.0800 
 47 H        1.6130    10.6880    -0.8990 H     1 <1>   0.0800 
 48 H        2.6150     9.4510    -1.5950 H     1 <1>   0.0800 
 49 H       -7.7730     5.5850    -2.9460 H     1 <1>   0.0800 
 50 H       -6.9800     4.1670    -2.2700 H     1 <1>   0.0800 
 51 H       -6.1820     5.1190    -3.5360 H     1 <1>   0.0800 
 52 H        1.1880     8.6350     0.7410 H     1 <1>   0.4500 
 53 H        2.8490     7.3270    -0.4160 H     1 <1>   0.0800 
 54 H        4.0680     8.4280     0.1860 H     1 <1>   0.0800 
 55 H        3.3360    10.6630     1.1030 H     1 <1>   0.0800 
 56 H        2.5160     9.7910     2.3820 H     1 <1>   0.0800 
 57 H        1.6280    10.9300     1.3990 H     1 <1>   0.0800 
 58 H        2.1200     6.8580     1.9180 H     1 <1>   0.0800 
 59 H        3.4420     7.8560     2.5100 H     1 <1>   0.0800 
 60 H        3.7690     6.4080     1.6080 H     1 <1>   0.0800 
@<TRIPOS>BOND
  1   1   2  2   
  2   2   3  am  
  3   2   4  1   
  4   3   5  1   
  5   3   6  1   
  6   4   7  1   
  7   4  29  1   
  8   4  30  1   
  9   5   8  1   
 10   5   9  1   
 11   5  31  1   
 12   6  10  1   
 13   6  11  1   
 14   6  32  1   
 15   7   9  1   
 16   8  12  ar  
 17   8  13  ar  
 18   9  14  1   
 19   9  33  1   
 20  10  11  1   
 21  10  34  1   
 22  10  35  1   
 23  11  36  1   
 24  11  37  1   
 25  12  15  ar  
 26  12  38  1   
 27  13  16  ar  
 28  13  39  1   
 29  14  17  2   
 30  14  18  am  
 31  15  19  ar  
 32  15  40  1   
 33  16  19  ar  
 34  16  41  1   
 35  18  20  1   
 36  18  21  1   
 37  19  22  1   
 38  20  23  1   
 39  20  42  1   
 40  20  43  1   
 41  21  44  1   
 42  21  45  1   
 43  21  46  1   
 44  22  24  1   
 45  23  25  1   
 46  23  47  1   
 47  23  48  1   
 48  24  49  1   
 49  24  50  1   
 50  24  51  1   
 51  25  26  1   
 52  25  27  1   
 53  25  52  1   
 54  26  28  1   
 55  26  53  1   
 56  26  54  1   
 57  27  55  1   
 58  27  56  1   
 59  27  57  1   
 60  28  58  1   
 61  28  59  1   
 62  28  60  1   
@<TRIPOS>SUBSTRUCTURE
  1 ****   9 GROUP 4 **** **** 0

# MOE 2024.06 (io_trps.svl 2023.06)
