@<TRIPOS>MOLECULE
NONAME
32 33 1 0 0 
SMALL
USER_CHARGES


@<TRIPOS>ATOM
  1 F       -2.2960     0.7370    -1.5740 F     1 <1>  -0.3400 
  2 C       -1.7260     0.8990    -0.3860 C.3   1 <1>   0.2600 
  3 C       -2.8220     1.3760     0.5550 C.3   1 <1>   0.3430 
  4 C       -0.8180     2.1100    -0.4940 C.3   1 <1>  -0.1600 
  5 N       -3.0620     2.7880     0.1370 N.4   1 <1>  -0.9590 
  6 C       -1.7390     3.3360    -0.3480 C.3   1 <1>   0.4230 
  7 C       -3.8910     3.5820     1.0860 C.3   1 <1>   0.4860 
  8 C       -1.1090     4.4460     0.5320 C.3   1 <1>   0.1200 
  9 C       -4.3750     4.8460     0.4010 C.ar  1 <1>  -0.1440 
 10 O        0.1920     4.6990     0.1170 O.3   1 <1>  -0.6800 
 11 C       -4.1290     6.0820     0.9830 C.ar  1 <1>  -0.1500 
 12 C       -5.0750     4.7890    -0.7990 C.ar  1 <1>  -0.1500 
 13 C       -4.5530     7.2450     0.3640 C.ar  1 <1>  -0.1500 
 14 C       -5.4970     5.9530    -1.4160 C.ar  1 <1>  -0.1500 
 15 C       -5.2340     7.1800    -0.8370 C.ar  1 <1>  -0.1500 
 16 H       -1.2480    -0.0270    -0.1180 H     1 <1>   0.0800 
 17 H       -2.4580     1.3470     1.5690 H     1 <1>   0.0800 
 18 H       -3.7050     0.7640     0.4680 H     1 <1>   0.0800 
 19 H       -0.1080     2.0840     0.3150 H     1 <1>   0.0800 
 20 H       -0.2670     2.1310    -1.4170 H     1 <1>   0.0800 
 21 H       -3.6200     2.7200    -0.7260 H     1 <1>   0.4500 
 22 H       -1.8950     3.7610    -1.3270 H     1 <1>   0.0800 
 23 H       -4.7500     3.0070     1.3930 H     1 <1>   0.0800 
 24 H       -3.3200     3.8310     1.9660 H     1 <1>   0.0800 
 25 H       -1.0670     4.1450     1.5650 H     1 <1>   0.0800 
 26 H       -1.6590     5.3640     0.4300 H     1 <1>   0.0800 
 27 H        0.5840     5.4660     0.5860 H     1 <1>   0.4000 
 28 H       -3.6090     6.1620     1.9230 H     1 <1>   0.1500 
 29 H       -5.3100     3.8500    -1.2690 H     1 <1>   0.1500 
 30 H       -4.3590     8.2030     0.8160 H     1 <1>   0.1500 
 31 H       -6.0370     5.9080    -2.3480 H     1 <1>   0.1500 
 32 H       -5.5650     8.0850    -1.3190 H     1 <1>   0.1500 
@<TRIPOS>BOND
  1   1   2  1   
  2   2   3  1   
  3   2   4  1   
  4   2  16  1   
  5   3   5  1   
  6   3  17  1   
  7   3  18  1   
  8   4   6  1   
  9   4  19  1   
 10   4  20  1   
 11   5   6  1   
 12   5   7  1   
 13   5  21  1   
 14   6   8  1   
 15   6  22  1   
 16   7   9  1   
 17   7  23  1   
 18   7  24  1   
 19   8  10  1   
 20   8  25  1   
 21   8  26  1   
 22   9  11  ar  
 23   9  12  ar  
 24  10  27  1   
 25  11  13  ar  
 26  11  28  1   
 27  12  14  ar  
 28  12  29  1   
 29  13  15  ar  
 30  13  30  1   
 31  14  15  ar  
 32  14  31  1   
 33  15  32  1   
@<TRIPOS>SUBSTRUCTURE
  1 ****   5 GROUP 4 **** **** 0

# MOE 2024.06 (io_trps.svl 2023.06)
