@<TRIPOS>MOLECULE
NONAME
45 47 1 0 0 
SMALL
USER_CHARGES


@<TRIPOS>ATOM
  1 O       -0.5710     0.2040     1.0510 O.2   1 <1>  -0.5700 
  2 C       -1.5750     0.8130     0.7400 C.2   1 <1>   0.5440 
  3 N       -2.7050     0.1050     0.4080 N.am  1 <1>  -0.6600 
  4 C       -1.5760     2.2590     0.7130 C.ar  1 <1>   0.0860 
  5 C       -3.9140     0.6770    -0.2350 C.3   1 <1>   0.1400 
  6 C       -2.7490    -1.3770     0.3940 C.3   1 <1>   0.1400 
  7 C       -0.8390     2.9880    -0.2250 C.ar  1 <1>   0.1660 
  8 C       -2.3350     2.9780     1.6260 C.ar  1 <1>  -0.1500 
  9 C       -4.6040    -0.5190    -0.8880 C.3   1 <1>   0.2000 
 10 C       -4.1610    -1.7320    -0.0750 C.3   1 <1>  -0.0800 
 11 N       -0.8260     4.3080    -0.3140 N.ar  1 <1>  -0.6200 
 12 C        0.0260     2.2670    -1.2460 C.3   1 <1>  -0.0970 
 13 C       -2.3210     4.3530     1.5450 C.ar  1 <1>  -0.1500 
 14 O       -5.9830    -0.3940    -0.8550 O.3   1 <1>  -0.6800 
 15 C       -4.2350    -3.0510    -0.8590 C.3   1 <1>   0.0210 
 16 C       -1.5590     4.9670     0.5650 C.ar  1 <1>   0.1670 
 17 C       -3.6720    -4.1990    -0.0440 C.2   1 <1>   0.1080 
 18 C       -1.5280     6.4760     0.4540 C.3   1 <1>  -0.0970 
 19 N       -4.1460    -4.5370     1.1150 N.2   1 <1>  -0.7070 
 20 C       -2.5990    -4.9960    -0.4260 C.2   1 <1>  -0.1500 
 21 N       -3.3800    -5.5730     1.5060 N.pl3 1 <1>   0.3000 
 22 C       -2.4340    -5.8690     0.5900 C.2   1 <1>  -0.3320 
 23 C       -1.4160    -6.9830     0.7450 C.3   1 <1>  -0.0600 
 24 H       -4.5420     1.1140     0.5210 H     1 <1>   0.0800 
 25 H       -3.6450     1.4140    -0.9720 H     1 <1>   0.0800 
 26 H       -2.0060    -1.7430    -0.2950 H     1 <1>   0.0800 
 27 H       -2.5480    -1.7760     1.3740 H     1 <1>   0.0800 
 28 H       -2.9120     2.4660     2.3760 H     1 <1>   0.1500 
 29 H       -4.2940    -0.5980    -1.9170 H     1 <1>   0.0800 
 30 H       -4.7700    -1.8160     0.8090 H     1 <1>   0.0800 
 31 H       -0.5390     1.5010    -1.7440 H     1 <1>   0.0800 
 32 H        0.8670     1.8160    -0.7510 H     1 <1>   0.0800 
 33 H        0.3930     2.9560    -1.9850 H     1 <1>   0.0800 
 34 H       -2.8950     4.9410     2.2370 H     1 <1>   0.1500 
 35 H       -6.3110    -0.5050     0.0590 H     1 <1>   0.4000 
 36 H       -3.6860    -2.9650    -1.7790 H     1 <1>   0.0800 
 37 H       -5.2600    -3.2680    -1.0980 H     1 <1>   0.0800 
 38 H       -2.1490     6.9350     1.1990 H     1 <1>   0.0800 
 39 H       -1.8740     6.7700    -0.5200 H     1 <1>   0.0800 
 40 H       -0.5180     6.8220     0.5790 H     1 <1>   0.0800 
 41 H       -2.0380    -4.9130    -1.3400 H     1 <1>   0.1500 
 42 H       -3.5280    -6.0540     2.4010 H     1 <1>   0.2700 
 43 H       -0.7730    -7.0180    -0.1170 H     1 <1>   0.0800 
 44 H       -1.9130    -7.9320     0.8400 H     1 <1>   0.0800 
 45 H       -0.8100    -6.8140     1.6170 H     1 <1>   0.0800 
@<TRIPOS>BOND
  1   1   2  2   
  2   2   3  am  
  3   2   4  1   
  4   3   5  1   
  5   3   6  1   
  6   4   7  ar  
  7   4   8  ar  
  8   5   9  1   
  9   5  24  1   
 10   5  25  1   
 11   6  10  1   
 12   6  26  1   
 13   6  27  1   
 14   7  11  ar  
 15   7  12  1   
 16   8  13  ar  
 17   8  28  1   
 18   9  10  1   
 19   9  14  1   
 20   9  29  1   
 21  10  15  1   
 22  10  30  1   
 23  11  16  ar  
 24  12  31  1   
 25  12  32  1   
 26  12  33  1   
 27  13  16  ar  
 28  13  34  1   
 29  14  35  1   
 30  15  17  1   
 31  15  36  1   
 32  15  37  1   
 33  16  18  1   
 34  17  19  2   
 35  17  20  1   
 36  18  38  1   
 37  18  39  1   
 38  18  40  1   
 39  19  21  1   
 40  20  22  2   
 41  20  41  1   
 42  21  22  1   
 43  21  42  1   
 44  22  23  1   
 45  23  43  1   
 46  23  44  1   
 47  23  45  1   
@<TRIPOS>SUBSTRUCTURE
  1 ****   3 GROUP 4 **** **** 0

# MOE 2024.06 (io_trps.svl 2023.06)
