@<TRIPOS>MOLECULE
NONAME
54 57 1 0 0 
SMALL
USER_CHARGES


@<TRIPOS>ATOM
  1 O       -2.4500     0.1700     2.1050 O.2   1 <1>  -0.5700 
  2 C       -1.8580     0.6940     1.1910 C.2   1 <1>   0.5690 
  3 N       -1.7380     0.0340     0.0000 N.am  1 <1>  -0.6600 
  4 C       -1.3960     2.1300     1.3350 C.3   1 <1>  -0.0990 
  5 C       -2.4470     0.6070    -1.1820 C.3   1 <1>   0.1400 
  6 C       -1.7840    -1.4650     0.0000 C.3   1 <1>   0.1400 
  7 C       -0.0060     2.3820     0.7340 C.3   1 <1>  -0.0160 
  8 C       -3.9550     0.2290    -1.1270 C.3   1 <1>   0.4230 
  9 C       -3.2250    -1.9870    -0.2180 C.3   1 <1>   0.3430 
 10 C        0.2500     3.8790     0.6410 C.ar  1 <1>  -0.1440 
 11 N       -4.2310    -0.8700    -0.1140 N.4   1 <1>  -0.9590 
 12 C       -4.4850    -0.1580    -2.5250 C.3   1 <1>   0.1200 
 13 C       -0.2620     4.6320    -0.4150 C.ar  1 <1>   0.0830 
 14 C        1.0010     4.5000     1.6270 C.ar  1 <1>  -0.1500 
 15 C       -5.6670    -1.2870    -0.1480 C.3   1 <1>   0.5180 
 16 O       -5.8310    -0.5320    -2.4550 O.3   1 <1>  -0.5600 
 17 O       -0.9990     3.9900    -1.3660 O.3   1 <1>  -0.3620 
 18 C       -0.0100     6.0020    -0.4630 C.ar  1 <1>  -0.1500 
 19 C        1.2490     5.8590     1.5700 C.ar  1 <1>  -0.1500 
 20 C       -5.8970    -2.4290     0.8620 C.3   1 <1>  -0.1950 
 21 C       -6.1100    -1.6070    -1.5970 C.3   1 <1>   0.1200 
 22 C       -1.3370     4.6350    -2.5760 C.3   1 <1>   0.0400 
 23 C        0.7430     6.6100     0.5250 C.ar  1 <1>  -0.1500 
 24 C       -5.7310    -3.8910     0.5580 C.3   1 <1>  -0.2000 
 25 C       -7.0980    -3.3250     0.8190 C.3   1 <1>  -0.2000 
 26 H       -2.1180     2.7680     0.8610 H     1 <1>   0.0800 
 27 H       -1.3760     2.3890     2.3780 H     1 <1>   0.0800 
 28 H       -2.3440     1.6780    -1.2080 H     1 <1>   0.0800 
 29 H       -1.9930     0.2250    -2.0800 H     1 <1>   0.0800 
 30 H       -1.1350    -1.8480    -0.7690 H     1 <1>   0.0800 
 31 H       -1.4140    -1.8360     0.9420 H     1 <1>   0.0800 
 32 H        0.0730     1.9580    -0.2500 H     1 <1>   0.0800 
 33 H        0.7430     1.9100     1.3450 H     1 <1>   0.0800 
 34 H       -4.4930     1.1120    -0.8230 H     1 <1>   0.0800 
 35 H       -3.4270    -2.7420     0.5230 H     1 <1>   0.0800 
 36 H       -3.2940    -2.4530    -1.1870 H     1 <1>   0.0800 
 37 H       -4.0320    -0.4550     0.8160 H     1 <1>   0.4500 
 38 H       -3.9240    -0.9750    -2.9460 H     1 <1>   0.0800 
 39 H       -4.4180     0.6820    -3.1930 H     1 <1>   0.0800 
 40 H        1.4000     3.9290     2.4470 H     1 <1>   0.1500 
 41 H       -6.2680    -0.4530     0.1780 H     1 <1>   0.0800 
 42 H       -0.3910     6.6150    -1.2570 H     1 <1>   0.1500 
 43 H        1.8340     6.3330     2.3400 H     1 <1>   0.1500 
 44 H       -5.6260    -2.1060     1.8530 H     1 <1>   0.1000 
 45 H       -7.1730    -1.7720    -1.6290 H     1 <1>   0.0800 
 46 H       -5.6170    -2.4850    -1.9740 H     1 <1>   0.0800 
 47 H       -1.8170     3.9200    -3.2180 H     1 <1>   0.0800 
 48 H       -0.4370     4.9960    -3.0420 H     1 <1>   0.0800 
 49 H       -2.0120     5.4460    -2.3640 H     1 <1>   0.0800 
 50 H        0.9350     7.6680     0.4830 H     1 <1>   0.1500 
 51 H       -5.5320    -4.2460    -0.4390 H     1 <1>   0.1000 
 52 H       -5.3080    -4.5390     1.3080 H     1 <1>   0.1000 
 53 H       -7.5870    -3.5820     1.7450 H     1 <1>   0.1000 
 54 H       -7.7940    -3.2960    -0.0030 H     1 <1>   0.1000 
@<TRIPOS>BOND
  1   1   2  2   
  2   2   3  am  
  3   2   4  1   
  4   3   5  1   
  5   3   6  1   
  6   4   7  1   
  7   4  26  1   
  8   4  27  1   
  9   5   8  1   
 10   5  28  1   
 11   5  29  1   
 12   6   9  1   
 13   6  30  1   
 14   6  31  1   
 15   7  10  1   
 16   7  32  1   
 17   7  33  1   
 18   8  11  1   
 19   8  12  1   
 20   8  34  1   
 21   9  11  1   
 22   9  35  1   
 23   9  36  1   
 24  10  13  ar  
 25  10  14  ar  
 26  11  15  1   
 27  11  37  1   
 28  12  16  1   
 29  12  38  1   
 30  12  39  1   
 31  13  17  1   
 32  13  18  ar  
 33  14  19  ar  
 34  14  40  1   
 35  15  20  1   
 36  15  21  1   
 37  15  41  1   
 38  16  21  1   
 39  17  22  1   
 40  18  23  ar  
 41  18  42  1   
 42  19  23  ar  
 43  19  43  1   
 44  20  24  1   
 45  20  25  1   
 46  20  44  1   
 47  21  45  1   
 48  21  46  1   
 49  22  47  1   
 50  22  48  1   
 51  22  49  1   
 52  23  50  1   
 53  24  25  1   
 54  24  51  1   
 55  24  52  1   
 56  25  53  1   
 57  25  54  1   
@<TRIPOS>SUBSTRUCTURE
  1 ****   5 GROUP 4 **** **** 0

# MOE 2024.06 (io_trps.svl 2023.06)
