@<TRIPOS>MOLECULE
NONAME
51 54 1 0 0 
SMALL
USER_CHARGES


@<TRIPOS>ATOM
  1 CL      -2.5720    -0.1430     1.5140 Cl    1 <1>  -0.1770 
  2 C       -1.6970     1.3300     1.1760 C.ar  1 <1>   0.1770 
  3 C       -2.3610     2.5500     1.2330 C.ar  1 <1>  -0.1440 
  4 C       -0.3540     1.2390     0.8460 C.ar  1 <1>  -0.1500 
  5 C       -1.6490     3.7090     0.9530 C.ar  1 <1>  -0.1500 
  6 C       -3.8310     2.6160     1.5990 C.3   1 <1>   0.4870 
  7 C        0.3550     2.3950     0.5610 C.ar  1 <1>  -0.1500 
  8 C       -0.3100     3.6070     0.6200 C.ar  1 <1>   0.1900 
  9 N       -4.6300     2.8080     0.3580 N.4   1 <1>  -0.9590 
 10 F        0.3490     4.7000     0.3510 F     1 <1>  -0.1900 
 11 C       -6.0290     3.2400     0.6930 C.3   1 <1>   0.3430 
 12 C       -4.6370     1.5710    -0.4820 C.3   1 <1>   0.3430 
 13 C       -6.8640     3.5320    -0.5660 C.3   1 <1>   0.1440 
 14 C       -5.4070     1.8240    -1.7810 C.3   1 <1>  -0.1600 
 15 C       -8.2760     3.8270    -0.1270 C.ar  1 <1>   0.1670 
 16 C       -6.8410     2.3170    -1.5170 C.3   1 <1>  -0.1600 
 17 C       -6.4560     4.8460    -1.2860 C.3   1 <1>  -0.1600 
 18 N       -8.9410     3.1110     0.7410 N.ar  1 <1>  -0.6200 
 19 C       -8.7710     4.9450    -0.7240 C.ar  1 <1>  -0.1430 
 20 C       -7.7680     5.5660    -1.6620 C.3   1 <1>  -0.0170 
 21 C      -10.1750     3.5540     1.0050 C.ar  1 <1>   0.7200 
 22 C      -10.0470     5.3250    -0.3910 C.ar  1 <1>   0.1600 
 23 N      -10.7530     4.6370     0.4750 N.ar  1 <1>  -0.6200 
 24 N      -10.9120     2.8300     1.9170 N.pl3 1 <1>  -0.8380 
 25 C      -12.1420     3.3910     2.5450 C.3   1 <1>   0.1290 
 26 C      -10.6870     1.3780     2.1530 C.3   1 <1>   0.1290 
 27 H        0.1300     0.2780     0.8120 H     1 <1>   0.1500 
 28 H       -2.0990     4.6860     0.9910 H     1 <1>   0.1500 
 29 H       -3.9850     3.4480     2.2680 H     1 <1>   0.0800 
 30 H       -4.1380     1.7170     2.1080 H     1 <1>   0.0800 
 31 H        1.3990     2.3630     0.3000 H     1 <1>   0.1500 
 32 H       -4.1770     3.5500    -0.1880 H     1 <1>   0.4500 
 33 H       -6.0130     4.1230     1.3110 H     1 <1>   0.0800 
 34 H       -6.5240     2.4600     1.2500 H     1 <1>   0.0800 
 35 H       -5.1050     0.7640     0.0600 H     1 <1>   0.0800 
 36 H       -3.6270     1.2750    -0.7190 H     1 <1>   0.0800 
 37 H       -5.4510     0.9050    -2.3410 H     1 <1>   0.0800 
 38 H       -4.8680     2.5340    -2.3840 H     1 <1>   0.0800 
 39 H       -7.3270     2.5640    -2.4460 H     1 <1>   0.0800 
 40 H       -7.4050     1.5150    -1.0690 H     1 <1>   0.0800 
 41 H       -5.8460     4.6810    -2.1560 H     1 <1>   0.0800 
 42 H       -5.9170     5.4810    -0.6050 H     1 <1>   0.0800 
 43 H       -8.0460     5.3520    -2.6800 H     1 <1>   0.0800 
 44 H       -7.6950     6.6310    -1.5220 H     1 <1>   0.0800 
 45 H      -10.4930     6.2000    -0.8330 H     1 <1>   0.1500 
 46 H      -12.0490     4.4570     2.6660 H     1 <1>   0.0800 
 47 H      -12.2950     2.9520     3.5150 H     1 <1>   0.0800 
 48 H      -12.9930     3.1840     1.9200 H     1 <1>   0.0800 
 49 H      -10.0720     0.9540     1.3780 H     1 <1>   0.0800 
 50 H      -11.6280     0.8570     2.1580 H     1 <1>   0.0800 
 51 H      -10.2010     1.2390     3.1030 H     1 <1>   0.0800 
@<TRIPOS>BOND
  1   1   2  1   
  2   2   3  ar  
  3   2   4  ar  
  4   3   5  ar  
  5   3   6  1   
  6   4   7  ar  
  7   4  27  1   
  8   5   8  ar  
  9   5  28  1   
 10   6   9  1   
 11   6  29  1   
 12   6  30  1   
 13   7   8  ar  
 14   7  31  1   
 15   8  10  1   
 16   9  11  1   
 17   9  12  1   
 18   9  32  1   
 19  11  13  1   
 20  11  33  1   
 21  11  34  1   
 22  12  14  1   
 23  12  35  1   
 24  12  36  1   
 25  13  15  1   
 26  13  16  1   
 27  13  17  1   
 28  14  16  1   
 29  14  37  1   
 30  14  38  1   
 31  15  18  ar  
 32  15  19  ar  
 33  16  39  1   
 34  16  40  1   
 35  17  20  1   
 36  17  41  1   
 37  17  42  1   
 38  18  21  ar  
 39  19  20  1   
 40  19  22  ar  
 41  20  43  1   
 42  20  44  1   
 43  21  23  ar  
 44  21  24  1   
 45  22  23  ar  
 46  22  45  1   
 47  24  25  1   
 48  24  26  1   
 49  25  46  1   
 50  25  47  1   
 51  25  48  1   
 52  26  49  1   
 53  26  50  1   
 54  26  51  1   
@<TRIPOS>SUBSTRUCTURE
  1 ****  11 GROUP 4 **** **** 0

# MOE 2024.06 (io_trps.svl 2023.06)
