@<TRIPOS>MOLECULE
NONAME
52 55 1 0 0 
SMALL
USER_CHARGES


@<TRIPOS>ATOM
  1 S       -3.1770     0.6150    -1.5140 S.3   1 <1>  -0.0800 
  2 C       -2.3600    -0.8180    -0.8800 C.2   1 <1>  -0.0450 
  3 C       -2.2200     1.6920    -0.5210 C.2   1 <1>  -0.1100 
  4 C       -2.7620    -2.1160    -1.3650 C.2   1 <1>   0.7150 
  5 C       -1.4260    -0.4170     0.0220 C.2   1 <1>  -0.1500 
  6 C       -1.3490     0.9910     0.2260 C.2   1 <1>  -0.1500 
  7 O       -3.2820    -2.2490    -2.4580 O.2   1 <1>  -0.5700 
  8 N       -2.6060    -3.2510    -0.5930 N.am  1 <1>  -0.6600 
  9 C       -2.9550    -3.2630     0.8460 C.3   1 <1>   0.1400 
 10 C       -2.5460    -4.5890    -1.2270 C.3   1 <1>   0.1400 
 11 C       -4.3520    -3.8740     0.9830 C.3   1 <1>  -0.1600 
 12 C       -3.9320    -5.2280    -1.1370 C.3   1 <1>  -0.1600 
 13 C       -4.4360    -5.2500     0.3120 C.3   1 <1>   0.4230 
 14 N       -5.8500    -5.6760     0.3340 N.4   1 <1>  -0.9060 
 15 C       -6.1100    -7.1030    -0.0010 C.3   1 <1>   0.4230 
 16 C       -7.6220    -7.3140    -0.0450 C.3   1 <1>  -0.0800 
 17 C       -5.7450    -7.9580     1.2080 C.3   1 <1>   0.1200 
 18 C       -7.9730    -7.6080     1.4270 C.3   1 <1>   0.1200 
 19 C       -8.0090    -8.4800    -0.9770 C.3   1 <1>  -0.0160 
 20 O       -6.7540    -7.6520     2.1090 O.3   1 <1>  -0.5600 
 21 C       -9.5170    -8.6720    -1.0110 C.ar  1 <1>  -0.1430 
 22 C      -10.3420    -7.8350    -1.7360 C.ar  1 <1>  -0.1500 
 23 C      -10.1410    -9.6960    -0.3240 C.ar  1 <1>  -0.1500 
 24 C      -11.7110    -8.0470    -1.7280 C.ar  1 <1>   0.1600 
 25 C      -11.5190    -9.8200    -0.3820 C.ar  1 <1>   0.1600 
 26 N      -12.3180    -9.0160    -1.0640 N.ar  1 <1>  -0.6200 
 27 H       -2.4120     2.7480    -0.6030 H     1 <1>   0.1500 
 28 H       -0.7690    -1.0810     0.5550 H     1 <1>   0.1500 
 29 H       -0.6440     1.4170     0.9200 H     1 <1>   0.1500 
 30 H       -2.2260    -3.8420     1.3880 H     1 <1>   0.0800 
 31 H       -2.9580    -2.2640     1.2490 H     1 <1>   0.0800 
 32 H       -2.2470    -4.4970    -2.2600 H     1 <1>   0.0800 
 33 H       -1.8100    -5.1910    -0.7220 H     1 <1>   0.0800 
 34 H       -5.0550    -3.1940     0.5320 H     1 <1>   0.0800 
 35 H       -4.5860    -3.9600     2.0290 H     1 <1>   0.0800 
 36 H       -3.8660    -6.2250    -1.5310 H     1 <1>   0.0800 
 37 H       -4.5990    -4.6570    -1.7600 H     1 <1>   0.0800 
 38 H       -3.8320    -5.9390     0.8810 H     1 <1>   0.0800 
 39 H       -6.3930    -5.0570    -0.2770 H     1 <1>   0.4500 
 40 H       -6.2170    -5.5610     1.2920 H     1 <1>   0.4500 
 41 H       -5.6140    -7.4040    -0.9090 H     1 <1>   0.0800 
 42 H       -8.1380    -6.4320    -0.3830 H     1 <1>   0.0800 
 43 H       -4.7880    -7.7240     1.6390 H     1 <1>   0.0800 
 44 H       -5.7960    -9.0110     0.9840 H     1 <1>   0.0800 
 45 H       -8.4630    -8.5590     1.5550 H     1 <1>   0.0800 
 46 H       -8.5820    -6.8350     1.8640 H     1 <1>   0.0800 
 47 H       -7.5410    -9.3960    -0.6580 H     1 <1>   0.0800 
 48 H       -7.6700    -8.2760    -1.9790 H     1 <1>   0.0800 
 49 H       -9.9430    -7.0200    -2.3110 H     1 <1>   0.1500 
 50 H       -9.5770   -10.4030     0.2560 H     1 <1>   0.1500 
 51 H      -12.3420    -7.3850    -2.2980 H     1 <1>   0.1500 
 52 H      -11.9900   -10.6220     0.1600 H     1 <1>   0.1500 
@<TRIPOS>BOND
  1   1   2  1   
  2   1   3  1   
  3   2   4  1   
  4   2   5  2   
  5   3   6  2   
  6   3  27  1   
  7   4   7  2   
  8   4   8  am  
  9   5   6  1   
 10   5  28  1   
 11   6  29  1   
 12   8   9  1   
 13   8  10  1   
 14   9  11  1   
 15   9  30  1   
 16   9  31  1   
 17  10  12  1   
 18  10  32  1   
 19  10  33  1   
 20  11  13  1   
 21  11  34  1   
 22  11  35  1   
 23  12  13  1   
 24  12  36  1   
 25  12  37  1   
 26  13  14  1   
 27  13  38  1   
 28  14  15  1   
 29  14  39  1   
 30  14  40  1   
 31  15  16  1   
 32  15  17  1   
 33  15  41  1   
 34  16  18  1   
 35  16  19  1   
 36  16  42  1   
 37  17  20  1   
 38  17  43  1   
 39  17  44  1   
 40  18  20  1   
 41  18  45  1   
 42  18  46  1   
 43  19  21  1   
 44  19  47  1   
 45  19  48  1   
 46  21  22  ar  
 47  21  23  ar  
 48  22  24  ar  
 49  22  49  1   
 50  23  25  ar  
 51  23  50  1   
 52  24  26  ar  
 53  24  51  1   
 54  25  26  ar  
 55  25  52  1   
@<TRIPOS>SUBSTRUCTURE
  1 ****  14 GROUP 4 **** **** 0

# MOE 2024.06 (io_trps.svl 2023.06)
