@<TRIPOS>MOLECULE
NONAME
39 41 1 0 0 
SMALL
USER_CHARGES


@<TRIPOS>ATOM
  1 O        0.2080    -0.7990     1.6090 O.2   1 <1>  -0.5700 
  2 C        0.1990    -1.6790     0.7870 C.2   1 <1>   0.4230 
  3 C       -0.5990    -2.8620     0.7700 C.ar  1 <1>   0.0860 
  4 C        1.0700    -1.6430    -0.4530 C.3   1 <1>  -0.0190 
  5 C       -0.3600    -3.5950    -0.3760 C.ar  1 <1>  -0.1440 
  6 C       -1.5250    -3.3240     1.6980 C.ar  1 <1>  -0.1500 
  7 C        0.6850    -2.9130    -1.2450 C.3   1 <1>   0.0640 
  8 C        2.5510    -1.7640    -0.0940 C.3   1 <1>   0.1400 
  9 C       -1.0290    -4.7790    -0.6230 C.ar  1 <1>  -0.1500 
 10 C       -2.1990    -4.5110     1.4620 C.ar  1 <1>  -0.1500 
 11 C        1.9590    -3.7500    -1.3800 C.3   1 <1>   0.1400 
 12 N        2.9370    -3.1410    -0.4590 N.am  1 <1>  -0.6600 
 13 C       -1.9520    -5.2360     0.3050 C.ar  1 <1>  -0.1500 
 14 C        3.9810    -3.8070     0.1180 C.2   1 <1>   0.7800 
 15 O        4.7220    -3.2670     0.9160 O.2   1 <1>  -0.5700 
 16 O        4.1520    -5.0810    -0.2430 O.3   1 <1>  -0.4300 
 17 C        5.1400    -5.9740     0.2210 C.3   1 <1>   0.2800 
 18 C        4.9910    -6.1930     1.7310 C.3   1 <1>  -0.2400 
 19 C        4.8620    -7.2890    -0.5090 C.3   1 <1>  -0.2400 
 20 C        6.5360    -5.4680    -0.1640 C.3   1 <1>  -0.2400 
 21 H        0.8760    -0.7420    -1.0050 H     1 <1>   0.0800 
 22 H       -1.7060    -2.7510     2.5910 H     1 <1>   0.1500 
 23 H        0.2710    -2.6770    -2.2090 H     1 <1>   0.0800 
 24 H        2.7260    -1.5840     0.9550 H     1 <1>   0.0800 
 25 H        3.1380    -1.0710    -0.6720 H     1 <1>   0.0800 
 26 H       -0.8410    -5.3440    -1.5200 H     1 <1>   0.1500 
 27 H       -2.9160    -4.8720     2.1790 H     1 <1>   0.1500 
 28 H        2.3430    -3.6900    -2.3840 H     1 <1>   0.0800 
 29 H        1.7840    -4.7810    -1.1250 H     1 <1>   0.0800 
 30 H       -2.4810    -6.1570     0.1280 H     1 <1>   0.1500 
 31 H        5.6510    -6.9770     2.0550 H     1 <1>   0.0800 
 32 H        3.9820    -6.4760     1.9700 H     1 <1>   0.0800 
 33 H        5.2490    -5.3060     2.2790 H     1 <1>   0.0800 
 34 H        5.5750    -8.0380    -0.2150 H     1 <1>   0.0800 
 35 H        4.9360    -7.1480    -1.5720 H     1 <1>   0.0800 
 36 H        3.8770    -7.6470    -0.2690 H     1 <1>   0.0800 
 37 H        7.2730    -6.2150     0.0660 H     1 <1>   0.0800 
 38 H        6.7910    -4.5810     0.3860 H     1 <1>   0.0800 
 39 H        6.5800    -5.2570    -1.2170 H     1 <1>   0.0800 
@<TRIPOS>BOND
  1   1   2  2   
  2   2   3  1   
  3   2   4  1   
  4   3   5  ar  
  5   3   6  ar  
  6   4   7  1   
  7   4   8  1   
  8   4  21  1   
  9   5   7  1   
 10   5   9  ar  
 11   6  10  ar  
 12   6  22  1   
 13   7  11  1   
 14   7  23  1   
 15   8  12  1   
 16   8  24  1   
 17   8  25  1   
 18   9  13  ar  
 19   9  26  1   
 20  10  13  ar  
 21  10  27  1   
 22  11  12  1   
 23  11  28  1   
 24  11  29  1   
 25  12  14  am  
 26  13  30  1   
 27  14  15  2   
 28  14  16  1   
 29  16  17  1   
 30  17  18  1   
 31  17  19  1   
 32  17  20  1   
 33  18  31  1   
 34  18  32  1   
 35  18  33  1   
 36  19  34  1   
 37  19  35  1   
 38  19  36  1   
 39  20  37  1   
 40  20  38  1   
 41  20  39  1   
@<TRIPOS>SUBSTRUCTURE
  1 ****  12 GROUP 4 **** **** 0

# MOE 2024.06 (io_trps.svl 2023.06)
