@<TRIPOS>MOLECULE
NONAME
47 49 1 0 0 
SMALL
USER_CHARGES


@<TRIPOS>ATOM
  1 O        3.3190    -0.5430    -1.8210 O.2   1 <1>  -0.5700 
  2 C        2.3070    -0.9980    -1.3480 C.2   1 <1>   0.5690 
  3 N        1.7210    -0.5310    -0.2070 N.am  1 <1>  -0.4940 
  4 C        1.6360    -2.1520    -2.0750 C.3   1 <1>   0.0820 
  5 C        2.0320     0.5170     0.6650 C.2   1 <1>   0.2040 
  6 C        0.3840    -2.6460    -1.3560 C.2   1 <1>  -0.1810 
  7 O        1.0590     0.9830     1.4120 O.3   1 <1>  -0.0190 
  8 C        3.1450     1.2200     0.9750 C.2   1 <1>  -0.1810 
  9 C        0.3650    -3.4970    -0.2150 C.ar  1 <1>   0.0000 
 10 C       -0.8970    -2.3200    -1.6610 C.2   1 <1>  -0.3320 
 11 N        1.4510     1.9570     2.1870 N.2   1 <1>  -0.4100 
 12 C        2.7000     2.1200     1.9440 C.2   1 <1>   0.1080 
 13 C        4.5740     1.1070     0.4660 C.3   1 <1>   0.0210 
 14 C        1.3290    -4.1470     0.5820 C.ar  1 <1>  -0.1430 
 15 C       -0.9820    -3.6440     0.1160 C.ar  1 <1>  -0.1520 
 16 N       -1.7340    -2.9320    -0.7770 N.pl3 1 <1>   0.0330 
 17 C       -1.4600    -1.4260    -2.7550 C.3   1 <1>  -0.0600 
 18 C        3.5440     3.1610     2.6470 C.3   1 <1>  -0.0590 
 19 C        4.8480     2.1380    -0.6310 C.3   1 <1>  -0.2400 
 20 C        0.9090    -4.9000     1.6560 C.ar  1 <1>  -0.1500 
 21 C        2.8200    -4.0490     0.2980 C.3   1 <1>  -0.0970 
 22 C       -1.4040    -4.4100     1.2070 C.ar  1 <1>  -0.1430 
 23 C       -0.4460    -5.0330     1.9690 C.ar  1 <1>  -0.1500 
 24 C       -2.8820    -4.5420     1.5330 C.3   1 <1>  -0.0970 
 25 H        0.8450    -1.0130     0.0200 H     1 <1>   0.3700 
 26 H        2.3360    -2.9540    -2.1950 H     1 <1>   0.0800 
 27 H        1.3840    -1.8160    -3.0610 H     1 <1>   0.0800 
 28 H        4.7490     0.1170     0.0870 H     1 <1>   0.0800 
 29 H        5.2600     1.2560     1.2810 H     1 <1>   0.0800 
 30 H       -2.7560    -2.8730    -0.7600 H     1 <1>   0.2700 
 31 H       -0.6770    -0.9560    -3.3210 H     1 <1>   0.0800 
 32 H       -2.0680    -0.6530    -2.3210 H     1 <1>   0.0800 
 33 H       -2.0640    -2.0070    -3.4290 H     1 <1>   0.0800 
 34 H        3.9100     3.8770     1.9360 H     1 <1>   0.0800 
 35 H        4.3740     2.6900     3.1400 H     1 <1>   0.0800 
 36 H        2.9530     3.6760     3.3830 H     1 <1>   0.0800 
 37 H        4.1690     1.9870    -1.4520 H     1 <1>   0.0800 
 38 H        5.8530     2.0310    -0.9960 H     1 <1>   0.0800 
 39 H        4.7170     3.1360    -0.2570 H     1 <1>   0.0800 
 40 H        1.6220    -5.4060     2.2820 H     1 <1>   0.1500 
 41 H        3.1420    -3.0250     0.3270 H     1 <1>   0.0800 
 42 H        3.0410    -4.4730    -0.6630 H     1 <1>   0.0800 
 43 H        3.3860    -4.5910     1.0350 H     1 <1>   0.0800 
 44 H       -0.7230    -5.6310     2.8190 H     1 <1>   0.1500 
 45 H       -3.4020    -4.9820     0.7020 H     1 <1>   0.0800 
 46 H       -3.2990    -3.5730     1.7400 H     1 <1>   0.0800 
 47 H       -3.0270    -5.1670     2.3950 H     1 <1>   0.0800 
@<TRIPOS>BOND
  1   1   2  2   
  2   2   3  am  
  3   2   4  1   
  4   3   5  1   
  5   3  25  1   
  6   4   6  1   
  7   4  26  1   
  8   4  27  1   
  9   5   7  1   
 10   5   8  2   
 11   6   9  1   
 12   6  10  2   
 13   7  11  1   
 14   8  12  1   
 15   8  13  1   
 16   9  14  ar  
 17   9  15  ar  
 18  10  16  1   
 19  10  17  1   
 20  11  12  2   
 21  12  18  1   
 22  13  19  1   
 23  13  28  1   
 24  13  29  1   
 25  14  20  ar  
 26  14  21  1   
 27  15  16  1   
 28  15  22  ar  
 29  16  30  1   
 30  17  31  1   
 31  17  32  1   
 32  17  33  1   
 33  18  34  1   
 34  18  35  1   
 35  18  36  1   
 36  19  37  1   
 37  19  38  1   
 38  19  39  1   
 39  20  23  ar  
 40  20  40  1   
 41  21  41  1   
 42  21  42  1   
 43  21  43  1   
 44  22  23  ar  
 45  22  24  1   
 46  23  44  1   
 47  24  45  1   
 48  24  46  1   
 49  24  47  1   
@<TRIPOS>SUBSTRUCTURE
  1 ****   3 GROUP 4 **** **** 0

# MOE 2024.06 (io_trps.svl 2023.06)
