@<TRIPOS>MOLECULE
NONAME
56 58 1 0 0 
SMALL
USER_CHARGES


@<TRIPOS>ATOM
  1 O       -1.5050    -2.7930    -2.0580 O.2   1 <1>  -0.5700 
  2 C       -0.5270    -2.9870    -1.3780 C.2   1 <1>   0.5690 
  3 N       -0.5370    -3.7530    -0.2440 N.am  1 <1>  -0.6600 
  4 C        0.7870    -2.3490    -1.7800 C.3   1 <1>  -0.0990 
  5 C        0.7030    -3.9360     0.5500 C.3   1 <1>   0.1400 
  6 C       -1.7690    -4.4050     0.2740 C.3   1 <1>   0.0600 
  7 C        1.9420    -3.3620    -1.6690 C.3   1 <1>  -0.0800 
  8 C        1.8930    -4.2240    -0.3850 C.3   1 <1>  -0.0800 
  9 C        3.3290    -2.7070    -1.7060 C.3   1 <1>  -0.1600 
 10 C        3.2500    -4.0380     0.3080 C.3   1 <1>  -0.1600 
 11 C        4.1900    -3.5930    -0.8070 C.3   1 <1>   0.2200 
 12 N        5.4320    -2.9420    -0.2820 N.am  1 <1>  -0.6600 
 13 C        6.6330    -3.6370    -0.3310 C.2   1 <1>   0.5690 
 14 C        5.2930    -1.5590     0.2730 C.3   1 <1>   0.0600 
 15 O        6.6230    -4.8180    -0.6150 O.2   1 <1>  -0.5700 
 16 C        8.0290    -3.0040    -0.0010 C.3   1 <1>   0.3410 
 17 O        8.0430    -1.6260    -0.3960 O.3   1 <1>  -0.3630 
 18 C        9.1610    -3.7170    -0.7720 C.3   1 <1>  -0.2400 
 19 C        8.3070    -3.1240     1.5100 C.3   1 <1>  -0.2400 
 20 C        9.1070    -0.8150    -0.1900 C.ar  1 <1>   0.0820 
 21 C       10.0430    -0.6400    -1.1970 C.ar  1 <1>  -0.1500 
 22 C        9.2350    -0.1160     1.0010 C.ar  1 <1>  -0.1500 
 23 C       11.1220     0.2030    -1.0000 C.ar  1 <1>  -0.1500 
 24 C       10.3150     0.7270     1.1950 C.ar  1 <1>  -0.1500 
 25 C       11.2660     0.8870     0.1980 C.ar  1 <1>  -0.1440 
 26 C       12.4510     1.8120     0.4130 C.3   1 <1>  -0.0970 
 27 H        0.7150    -1.9810    -2.7880 H     1 <1>   0.0800 
 28 H        0.9530    -1.5130    -1.1270 H     1 <1>   0.0800 
 29 H        0.8800    -3.0340     1.1110 H     1 <1>   0.0800 
 30 H        0.5850    -4.7500     1.2450 H     1 <1>   0.0800 
 31 H       -1.9830    -4.0450     1.2640 H     1 <1>   0.0800 
 32 H       -1.6320    -5.4710     0.3020 H     1 <1>   0.0800 
 33 H       -2.6100    -4.1830    -0.3620 H     1 <1>   0.0800 
 34 H        1.8650    -4.0380    -2.5060 H     1 <1>   0.0800 
 35 H        1.8190    -5.2550    -0.6910 H     1 <1>   0.0800 
 36 H        3.2610    -1.7080    -1.3190 H     1 <1>   0.0800 
 37 H        3.7220    -2.6740    -2.7070 H     1 <1>   0.0800 
 38 H        3.5950    -4.9530     0.7570 H     1 <1>   0.0800 
 39 H        3.1800    -3.2740     1.0590 H     1 <1>   0.0800 
 40 H        4.4470    -4.4650    -1.3850 H     1 <1>   0.0800 
 41 H        4.3150    -1.4100     0.6920 H     1 <1>   0.0800 
 42 H        5.4510    -0.8400    -0.5130 H     1 <1>   0.0800 
 43 H        6.0130    -1.3840     1.0500 H     1 <1>   0.0800 
 44 H        9.1720    -4.7640    -0.5280 H     1 <1>   0.0800 
 45 H       10.1240    -3.3150    -0.5170 H     1 <1>   0.0800 
 46 H        8.9970    -3.6240    -1.8300 H     1 <1>   0.0800 
 47 H        8.2380    -4.1570     1.8010 H     1 <1>   0.0800 
 48 H        7.5820    -2.5720     2.0780 H     1 <1>   0.0800 
 49 H        9.2950    -2.7800     1.7520 H     1 <1>   0.0800 
 50 H        9.9220    -1.1620    -2.1280 H     1 <1>   0.1500 
 51 H        8.4930    -0.2290     1.7690 H     1 <1>   0.1500 
 52 H       11.8470     0.3290    -1.7840 H     1 <1>   0.1500 
 53 H       10.4120     1.2610     2.1240 H     1 <1>   0.1500 
 54 H       13.3040     1.4650    -0.1410 H     1 <1>   0.0800 
 55 H       12.7160     1.8500     1.4540 H     1 <1>   0.0800 
 56 H       12.2010     2.8040     0.0810 H     1 <1>   0.0800 
@<TRIPOS>BOND
  1   1   2  2   
  2   2   3  am  
  3   2   4  1   
  4   3   5  1   
  5   3   6  1   
  6   4   7  1   
  7   4  27  1   
  8   4  28  1   
  9   5   8  1   
 10   5  29  1   
 11   5  30  1   
 12   6  31  1   
 13   6  32  1   
 14   6  33  1   
 15   7   8  1   
 16   7   9  1   
 17   7  34  1   
 18   8  10  1   
 19   8  35  1   
 20   9  11  1   
 21   9  36  1   
 22   9  37  1   
 23  10  11  1   
 24  10  38  1   
 25  10  39  1   
 26  11  12  1   
 27  11  40  1   
 28  12  13  am  
 29  12  14  1   
 30  13  15  2   
 31  13  16  1   
 32  14  41  1   
 33  14  42  1   
 34  14  43  1   
 35  16  17  1   
 36  16  18  1   
 37  16  19  1   
 38  17  20  1   
 39  18  44  1   
 40  18  45  1   
 41  18  46  1   
 42  19  47  1   
 43  19  48  1   
 44  19  49  1   
 45  20  21  ar  
 46  20  22  ar  
 47  21  23  ar  
 48  21  50  1   
 49  22  24  ar  
 50  22  51  1   
 51  23  25  ar  
 52  23  52  1   
 53  24  25  ar  
 54  24  53  1   
 55  25  26  1   
 56  26  54  1   
 57  26  55  1   
 58  26  56  1   
@<TRIPOS>SUBSTRUCTURE
  1 ****  12 GROUP 4 **** **** 0

# MOE 2024.06 (io_trps.svl 2023.06)
