@<TRIPOS>MOLECULE
NONAME
56 58 1 0 0 
SMALL
USER_CHARGES


@<TRIPOS>ATOM
  1 O       -3.6280     2.3950    -1.3750 O.2   1 <1>  -0.5700 
  2 C       -3.2230     1.4890    -0.6720 C.2   1 <1>   0.5440 
  3 N       -3.7440     0.2220    -0.8590 N.am  1 <1>  -0.6600 
  4 C       -2.2240     1.7810     0.3400 C.ar  1 <1>   0.0860 
  5 C       -3.1770    -0.9980    -0.1720 C.3   1 <1>   0.3640 
  6 C       -4.9830     0.0570    -1.6800 C.3   1 <1>   0.1400 
  7 C       -0.9420     2.1930    -0.0150 C.ar  1 <1>  -0.1500 
  8 C       -2.5100     1.6460     1.6980 C.ar  1 <1>  -0.1500 
  9 C       -1.6700    -1.0620    -0.4420 C.ar  1 <1>  -0.1430 
 10 C       -3.8130    -2.3680    -0.5720 C.3   1 <1>   0.2000 
 11 C       -5.1530    -1.3660    -2.2080 C.3   1 <1>   0.1200 
 12 C        0.0330     2.4360     0.9360 C.ar  1 <1>   0.0830 
 13 C       -1.5460     1.8820     2.6600 C.ar  1 <1>  -0.1500 
 14 C       -0.7770    -1.1740     0.6150 C.ar  1 <1>  -0.1500 
 15 C       -1.1750    -0.9860    -1.7380 C.ar  1 <1>  -0.1500 
 16 O       -5.0880    -2.2550    -1.1420 O.3   1 <1>  -0.5600 
 17 C       -3.9670    -3.3200     0.6250 C.3   1 <1>   0.1200 
 18 O        1.2500     2.8310     0.4830 O.3   1 <1>  -0.3630 
 19 C       -0.2730     2.2710     2.2850 C.ar  1 <1>  -0.1500 
 20 C        0.5890    -1.1970     0.3930 C.ar  1 <1>   0.0830 
 21 C        0.1880    -0.9980    -1.9710 C.ar  1 <1>  -0.1500 
 22 O       -2.7670    -3.4860     1.3110 O.3   1 <1>  -0.6800 
 23 C        2.2820     3.1750     1.3780 C.3   1 <1>   0.1200 
 24 O        1.3950    -1.3240     1.4780 O.3   1 <1>  -0.3630 
 25 C        1.0760    -1.0810    -0.9130 C.ar  1 <1>   0.0830 
 26 C        3.4640     3.6940     0.5650 C.3   1 <1>  -0.2400 
 27 C        2.2190    -2.4670     1.5260 C.3   1 <1>   0.0400 
 28 O        2.3970    -1.0190    -1.1970 O.3   1 <1>  -0.3630 
 29 C        3.0320     0.1810    -0.8170 C.3   1 <1>   0.0400 
 30 H       -3.3300    -0.8690     0.8850 H     1 <1>   0.0800 
 31 H       -5.8360     0.3130    -1.0760 H     1 <1>   0.0800 
 32 H       -4.9590     0.7330    -2.5170 H     1 <1>   0.0800 
 33 H       -0.7000     2.3160    -1.0550 H     1 <1>   0.1500 
 34 H       -3.5000     1.3510     1.9950 H     1 <1>   0.1500 
 35 H       -3.1910    -2.8480    -1.3070 H     1 <1>   0.0800 
 36 H       -4.3910    -1.6100    -2.9280 H     1 <1>   0.0800 
 37 H       -6.1180    -1.4750    -2.6710 H     1 <1>   0.0800 
 38 H       -1.7840     1.7620     3.7030 H     1 <1>   0.1500 
 39 H       -1.1310    -1.2390     1.6290 H     1 <1>   0.1500 
 40 H       -1.8520    -0.8960    -2.5700 H     1 <1>   0.1500 
 41 H       -4.2980    -4.2880     0.2910 H     1 <1>   0.0800 
 42 H       -4.6830    -2.9200     1.3220 H     1 <1>   0.0800 
 43 H        0.4600     2.4380     3.0500 H     1 <1>   0.1500 
 44 H        0.5710    -0.9260    -2.9730 H     1 <1>   0.1500 
 45 H       -2.0830    -3.8850     0.7360 H     1 <1>   0.4000 
 46 H        1.9180     3.9410     2.0410 H     1 <1>   0.0800 
 47 H        2.5540     2.2950     1.9360 H     1 <1>   0.0800 
 48 H        3.1690     4.5600     0.0000 H     1 <1>   0.0800 
 49 H        3.8210     2.9340    -0.1050 H     1 <1>   0.0800 
 50 H        4.2650     3.9730     1.2260 H     1 <1>   0.0800 
 51 H        2.6600    -2.5210     2.5050 H     1 <1>   0.0800 
 52 H        2.9910    -2.3820     0.7830 H     1 <1>   0.0800 
 53 H        1.6160    -3.3380     1.3440 H     1 <1>   0.0800 
 54 H        4.0520     0.1460    -1.1540 H     1 <1>   0.0800 
 55 H        2.9980     0.2760     0.2530 H     1 <1>   0.0800 
 56 H        2.5170     1.0060    -1.2780 H     1 <1>   0.0800 
@<TRIPOS>BOND
  1   1   2  2   
  2   2   3  am  
  3   2   4  1   
  4   3   5  1   
  5   3   6  1   
  6   4   7  ar  
  7   4   8  ar  
  8   5   9  1   
  9   5  10  1   
 10   5  30  1   
 11   6  11  1   
 12   6  31  1   
 13   6  32  1   
 14   7  12  ar  
 15   7  33  1   
 16   8  13  ar  
 17   8  34  1   
 18   9  14  ar  
 19   9  15  ar  
 20  10  16  1   
 21  10  17  1   
 22  10  35  1   
 23  11  16  1   
 24  11  36  1   
 25  11  37  1   
 26  12  18  1   
 27  12  19  ar  
 28  13  19  ar  
 29  13  38  1   
 30  14  20  ar  
 31  14  39  1   
 32  15  21  ar  
 33  15  40  1   
 34  17  22  1   
 35  17  41  1   
 36  17  42  1   
 37  18  23  1   
 38  19  43  1   
 39  20  24  1   
 40  20  25  ar  
 41  21  25  ar  
 42  21  44  1   
 43  22  45  1   
 44  23  26  1   
 45  23  46  1   
 46  23  47  1   
 47  24  27  1   
 48  25  28  1   
 49  26  48  1   
 50  26  49  1   
 51  26  50  1   
 52  27  51  1   
 53  27  52  1   
 54  27  53  1   
 55  28  29  1   
 56  29  54  1   
 57  29  55  1   
 58  29  56  1   
@<TRIPOS>SUBSTRUCTURE
  1 ****   9 GROUP 4 **** **** 0

# MOE 2024.06 (io_trps.svl 2023.06)
