@<TRIPOS>MOLECULE
NONAME
42 45 1 0 0 
SMALL
USER_CHARGES


@<TRIPOS>ATOM
  1 S       -1.0140    -0.9450    -2.4430 S.3   1 <1>  -0.4600 
  2 C       -1.9200     0.2670    -1.4290 C.3   1 <1>   0.2510 
  3 C       -1.6890    -2.4730    -1.7270 C.3   1 <1>   0.2510 
  4 C       -2.7790    -0.6030    -0.5420 C.2   1 <1>   0.1080 
  5 C       -2.6660    -1.9690    -0.6910 C.2   1 <1>  -0.1810 
  6 N       -3.6370    -0.2610     0.3640 N.2   1 <1>  -0.7070 
  7 C       -3.5250    -2.5060     0.2060 C.2   1 <1>  -0.0880 
  8 N       -4.1040    -1.4410     0.8450 N.pl3 1 <1>   0.3140 
  9 N       -3.7670    -3.8890     0.3910 N.am  1 <1>  -0.4940 
 10 C       -5.1630    -1.4310     1.8640 C.3   1 <1>   0.0160 
 11 C       -4.1720    -4.6160     1.4850 C.2   1 <1>   0.5440 
 12 O       -4.2780    -4.0870     2.5730 O.2   1 <1>  -0.5700 
 13 C       -4.4110    -6.0280     1.3380 C.ar  1 <1>   0.0860 
 14 C       -5.2610    -6.5650     0.3540 C.ar  1 <1>   0.0000 
 15 C       -3.7910    -6.9570     2.1480 C.ar  1 <1>  -0.1500 
 16 C       -5.3420    -7.9380     0.2350 C.ar  1 <1>   0.1050 
 17 C       -6.1500    -6.0910    -0.6350 C.2   1 <1>   0.1080 
 18 C       -3.9660    -8.3290     1.9500 C.ar  1 <1>   0.1660 
 19 N       -4.7110    -8.8410     1.0050 N.ar  1 <1>  -0.5670 
 20 N       -6.1950    -8.1820    -0.7980 N.pl3 1 <1>   0.3140 
 21 N       -6.6850    -7.0400    -1.3260 N.2   1 <1>  -0.7070 
 22 C       -6.5190    -4.6460    -0.9010 C.3   1 <1>  -0.0590 
 23 C       -3.2600    -9.3140     2.8590 C.3   1 <1>  -0.0970 
 24 C       -6.5970    -9.5060    -1.2870 C.3   1 <1>   0.0160 
 25 H       -2.5080     0.8880    -2.0790 H     1 <1>   0.0800 
 26 H       -1.2090     0.8410    -0.8630 H     1 <1>   0.0800 
 27 H       -0.8760    -3.0240    -1.2880 H     1 <1>   0.0800 
 28 H       -2.1690    -3.0270    -2.5130 H     1 <1>   0.0800 
 29 H       -3.5360    -4.4660    -0.4180 H     1 <1>   0.3700 
 30 H       -5.6660    -0.4830     1.8410 H     1 <1>   0.0800 
 31 H       -4.7170    -1.5780     2.8290 H     1 <1>   0.0800 
 32 H       -5.8630    -2.2170     1.6610 H     1 <1>   0.0800 
 33 H       -3.1540    -6.6140     2.9440 H     1 <1>   0.1500 
 34 H       -6.6070    -4.1040     0.0220 H     1 <1>   0.0800 
 35 H       -7.4650    -4.6040    -1.4090 H     1 <1>   0.0800 
 36 H       -5.7780    -4.1820    -1.5250 H     1 <1>   0.0800 
 37 H       -2.6770    -8.8090     3.6060 H     1 <1>   0.0800 
 38 H       -2.6110    -9.9410     2.2760 H     1 <1>   0.0800 
 39 H       -3.9890    -9.9340     3.3490 H     1 <1>   0.0800 
 40 H       -5.7190   -10.0700    -1.5390 H     1 <1>   0.0800 
 41 H       -7.2190    -9.3910    -2.1550 H     1 <1>   0.0800 
 42 H       -7.1430   -10.0130    -0.5130 H     1 <1>   0.0800 
@<TRIPOS>BOND
  1   1   2  1   
  2   1   3  1   
  3   2   4  1   
  4   2  25  1   
  5   2  26  1   
  6   3   5  1   
  7   3  27  1   
  8   3  28  1   
  9   4   5  1   
 10   4   6  2   
 11   5   7  2   
 12   6   8  1   
 13   7   8  1   
 14   7   9  1   
 15   8  10  1   
 16   9  11  am  
 17   9  29  1   
 18  10  30  1   
 19  10  31  1   
 20  10  32  1   
 21  11  12  2   
 22  11  13  1   
 23  13  14  ar  
 24  13  15  ar  
 25  14  16  ar  
 26  14  17  1   
 27  15  18  ar  
 28  15  33  1   
 29  16  19  ar  
 30  16  20  1   
 31  17  21  2   
 32  17  22  1   
 33  18  19  ar  
 34  18  23  1   
 35  20  21  1   
 36  20  24  1   
 37  22  34  1   
 38  22  35  1   
 39  22  36  1   
 40  23  37  1   
 41  23  38  1   
 42  23  39  1   
 43  24  40  1   
 44  24  41  1   
 45  24  42  1   
@<TRIPOS>SUBSTRUCTURE
  1 ****   9 GROUP 4 **** **** 0

# MOE 2024.06 (io_trps.svl 2023.06)
