@<TRIPOS>MOLECULE
NONAME
23 24 1 0 0 
SMALL
USER_CHARGES


@<TRIPOS>ATOM
  1 BR       0.0320    -0.6840    -2.4710 Br    1 <1>  -0.1110 
  2 C       -0.3450    -2.0410    -1.1620 C.ar  1 <1>   0.1110 
  3 C       -1.6340    -2.1640    -0.6860 C.ar  1 <1>  -0.1500 
  4 C        0.6890    -2.8540    -0.7320 C.ar  1 <1>  -0.1500 
  5 C       -1.8680    -3.1410     0.2590 C.ar  1 <1>   0.1770 
  6 C        0.4400    -3.8500     0.2090 C.ar  1 <1>  -0.1080 
  7 CL      -3.4760    -3.3350     0.9050 Cl    1 <1>  -0.1770 
  8 C       -0.8550    -3.9720     0.7100 C.ar  1 <1>  -0.1500 
  9 C        1.5720    -4.7680     0.7100 C.3   1 <1>   0.2890 
 10 C        2.2690    -4.2000     1.9050 C.1   1 <1>   0.3760 
 11 C        2.5640    -5.2690    -0.3890 C.3   1 <1>   0.0000 
 12 C        1.1840    -6.2710     0.8910 C.3   1 <1>   0.0000 
 13 N        2.8050    -3.7760     2.8150 N.1   1 <1>  -0.5570 
 14 C        1.6350    -6.4940    -0.5740 C.3   1 <1>   0.0000 
 15 H       -2.4230    -1.5230    -1.0330 H     1 <1>   0.1500 
 16 H        1.6710    -2.6870    -1.1360 H     1 <1>   0.1500 
 17 H       -1.1020    -4.7010     1.4610 H     1 <1>   0.1500 
 18 H        3.5260    -5.5540     0.0060 H     1 <1>   0.0000 
 19 H        2.6440    -4.6650    -1.2730 H     1 <1>   0.0000 
 20 H        0.1430    -6.4810     1.0460 H     1 <1>   0.0000 
 21 H        1.8200    -6.7920     1.5880 H     1 <1>   0.0000 
 22 H        2.1590    -7.4200    -0.7330 H     1 <1>   0.0000 
 23 H        0.8460    -6.3170    -1.2850 H     1 <1>   0.0000 
@<TRIPOS>BOND
  1   1   2  1   
  2   2   3  ar  
  3   2   4  ar  
  4   3   5  ar  
  5   3  15  1   
  6   4   6  ar  
  7   4  16  1   
  8   5   7  1   
  9   5   8  ar  
 10   6   8  ar  
 11   6   9  1   
 12   8  17  1   
 13   9  10  1   
 14   9  11  1   
 15   9  12  1   
 16  10  13  3   
 17  11  14  1   
 18  11  18  1   
 19  11  19  1   
 20  12  14  1   
 21  12  20  1   
 22  12  21  1   
 23  14  22  1   
 24  14  23  1   
@<TRIPOS>SUBSTRUCTURE
  1 ****   6 GROUP 4 **** **** 0

# MOE 2024.06 (io_trps.svl 2023.06)
