@<TRIPOS>MOLECULE
NONAME
55 58 1 0 0 
SMALL
USER_CHARGES


@<TRIPOS>ATOM
  1 O       -2.0900     0.5640     2.4020 O.2   1 <1>  -0.5700 
  2 C       -2.1420     1.0510     1.2980 C.2   1 <1>   0.5690 
  3 N       -2.2220     0.2760     0.1700 N.am  1 <1>  -0.6600 
  4 C       -2.1080     2.5730     1.2110 C.3   1 <1>   0.0440 
  5 C       -2.0780    -1.2170     0.2710 C.3   1 <1>   0.3640 
  6 C       -2.4140     0.8300    -1.2100 C.3   1 <1>   0.1400 
  7 C       -0.8980     3.1020     0.4450 C.ar  1 <1>  -0.1440 
  8 C       -0.6190    -1.6650     0.0760 C.ar  1 <1>  -0.1440 
  9 C       -3.0330    -1.9730    -0.7080 C.3   1 <1>   0.2000 
 10 C       -2.5290    -0.2690    -2.2760 C.3   1 <1>   0.1200 
 11 C        0.3640     2.5660     0.6890 C.ar  1 <1>  -0.1500 
 12 C       -1.0540     4.1080    -0.5090 C.ar  1 <1>  -0.1500 
 13 C       -0.2870    -2.9640     0.4420 C.ar  1 <1>  -0.1500 
 14 C        0.3860    -0.8470    -0.4320 C.ar  1 <1>  -0.1500 
 15 O       -3.4330    -1.2340    -1.8420 O.3   1 <1>  -0.5600 
 16 C       -4.3190    -2.4160    -0.0020 C.3   1 <1>   0.1200 
 17 C        1.4290     3.0380    -0.0500 C.ar  1 <1>   0.0820 
 18 C        0.0330     4.5750    -1.2390 C.ar  1 <1>  -0.1500 
 19 C        1.0010    -3.4490     0.2920 C.ar  1 <1>   0.0820 
 20 C        1.6830    -1.3120    -0.5660 C.ar  1 <1>  -0.1500 
 21 O       -4.0460    -3.4430     0.8970 O.3   1 <1>  -0.6800 
 22 O        2.7100     2.6560     0.0030 O.3   1 <1>  -0.3620 
 23 C        1.2690     4.0140    -0.9890 C.ar  1 <1>   0.0820 
 24 O        1.2200    -4.7440     0.6320 O.3   1 <1>  -0.3620 
 25 C        2.0040    -2.6050    -0.1950 C.ar  1 <1>   0.0820 
 26 C        3.4110     3.4470    -0.9530 C.3   1 <1>   0.4000 
 27 O        2.4410     4.2920    -1.5680 O.3   1 <1>  -0.3620 
 28 C        1.6780    -5.6040    -0.3890 C.3   1 <1>   0.0400 
 29 O        3.2990    -2.9870    -0.3080 O.3   1 <1>  -0.3630 
 30 C        3.9870    -3.1820     0.9070 C.3   1 <1>   0.0400 
 31 H       -3.0210     2.9070     0.7560 H     1 <1>   0.0800 
 32 H       -2.0810     2.9730     2.2090 H     1 <1>   0.0800 
 33 H       -2.3420    -1.5190     1.2710 H     1 <1>   0.0800 
 34 H       -3.3120     1.4210    -1.2300 H     1 <1>   0.0800 
 35 H       -1.5880     1.4680    -1.4680 H     1 <1>   0.0800 
 36 H       -2.5370    -2.8510    -1.0820 H     1 <1>   0.0800 
 37 H       -1.5780    -0.7380    -2.4650 H     1 <1>   0.0800 
 38 H       -2.8990     0.1430    -3.1980 H     1 <1>   0.0800 
 39 H        0.5250     1.7960     1.4250 H     1 <1>   0.1500 
 40 H       -2.0250     4.5340    -0.6930 H     1 <1>   0.1500 
 41 H       -1.0320    -3.6220     0.8530 H     1 <1>   0.1500 
 42 H        0.1860     0.1670    -0.7210 H     1 <1>   0.1500 
 43 H       -5.0390    -2.7790    -0.7140 H     1 <1>   0.0800 
 44 H       -4.7400    -1.5930     0.5510 H     1 <1>   0.0800 
 45 H       -0.0710     5.3490    -1.9780 H     1 <1>   0.1500 
 46 H        2.4530    -0.6670    -0.9490 H     1 <1>   0.1500 
 47 H       -3.9430    -4.2960     0.4310 H     1 <1>   0.4000 
 48 H        4.1480     4.0500    -0.4510 H     1 <1>   0.0800 
 49 H        3.8560     2.8080    -1.6950 H     1 <1>   0.0800 
 50 H        1.6070    -6.6150    -0.0330 H     1 <1>   0.0800 
 51 H        2.7000    -5.3700    -0.6210 H     1 <1>   0.0800 
 52 H        1.0570    -5.4740    -1.2580 H     1 <1>   0.0800 
 53 H        5.0100    -3.4220     0.6810 H     1 <1>   0.0800 
 54 H        3.5290    -3.9910     1.4490 H     1 <1>   0.0800 
 55 H        3.9380    -2.2740     1.4820 H     1 <1>   0.0800 
@<TRIPOS>BOND
  1   1   2  2   
  2   2   3  am  
  3   2   4  1   
  4   3   5  1   
  5   3   6  1   
  6   4   7  1   
  7   4  31  1   
  8   4  32  1   
  9   5   8  1   
 10   5   9  1   
 11   5  33  1   
 12   6  10  1   
 13   6  34  1   
 14   6  35  1   
 15   7  11  ar  
 16   7  12  ar  
 17   8  13  ar  
 18   8  14  ar  
 19   9  15  1   
 20   9  16  1   
 21   9  36  1   
 22  10  15  1   
 23  10  37  1   
 24  10  38  1   
 25  11  17  ar  
 26  11  39  1   
 27  12  18  ar  
 28  12  40  1   
 29  13  19  ar  
 30  13  41  1   
 31  14  20  ar  
 32  14  42  1   
 33  16  21  1   
 34  16  43  1   
 35  16  44  1   
 36  17  22  1   
 37  17  23  ar  
 38  18  23  ar  
 39  18  45  1   
 40  19  24  1   
 41  19  25  ar  
 42  20  25  ar  
 43  20  46  1   
 44  21  47  1   
 45  22  26  1   
 46  23  27  1   
 47  24  28  1   
 48  25  29  1   
 49  26  27  1   
 50  26  48  1   
 51  26  49  1   
 52  28  50  1   
 53  28  51  1   
 54  28  52  1   
 55  29  30  1   
 56  30  53  1   
 57  30  54  1   
 58  30  55  1   
@<TRIPOS>SUBSTRUCTURE
  1 ****  14 GROUP 4 **** **** 0

# MOE 2024.06 (io_trps.svl 2023.06)
