@<TRIPOS>MOLECULE
NONAME
51 53 1 0 0 
SMALL
USER_CHARGES


@<TRIPOS>ATOM
  1 O        0.2030     4.0060     0.8610 O.2   1 <1>  -0.5700 
  2 C       -0.5350     3.0840     0.6160 C.2   1 <1>   0.5690 
  3 N       -1.2870     2.9250    -0.5060 N.am  1 <1>  -0.6600 
  4 C       -0.7380     1.9430     1.5730 C.3   1 <1>  -0.0990 
  5 C       -2.0310     1.6490    -0.4850 C.3   1 <1>   0.1400 
  6 C       -1.2150     3.6760    -1.7890 C.3   1 <1>   0.1400 
  7 C       -1.9120     1.1630     0.9640 C.3   1 <1>  -0.1600 
  8 C       -0.9840     5.1940    -1.6580 C.3   1 <1>  -0.1600 
  9 C       -2.1560     6.0570    -1.1390 C.3   1 <1>   0.4230 
 10 N       -1.6820     7.4420    -0.8340 N.4   1 <1>  -0.9590 
 11 C       -2.8520     5.4980     0.1150 C.3   1 <1>  -0.1600 
 12 C       -2.7580     8.3670    -0.3770 C.3   1 <1>   0.3430 
 13 C       -0.8430     8.1190    -1.8700 C.3   1 <1>   0.5240 
 14 C       -3.9700     6.4060     0.6380 C.3   1 <1>  -0.1600 
 15 C       -3.4280     7.8160     0.8770 C.3   1 <1>  -0.1600 
 16 C       -0.0160     9.2090    -1.1940 C.2   1 <1>   0.1080 
 17 N        0.2720     9.1860     0.0760 N.2   1 <1>  -0.7070 
 18 C        0.5150    10.3260    -1.8290 C.2   1 <1>  -0.1500 
 19 N        1.0160    10.2910     0.2860 N.pl3 1 <1>   0.3140 
 20 C        1.1670    10.9930    -0.8540 C.2   1 <1>  -0.3020 
 21 C        1.5750    10.6300     1.6120 C.3   1 <1>   0.0960 
 22 C        3.0330    10.1680     1.7310 C.3   1 <1>  -0.2400 
 23 H       -0.9630     2.3070     2.5590 H     1 <1>   0.0800 
 24 H        0.1550     1.3460     1.5960 H     1 <1>   0.0800 
 25 H       -1.5640     0.9510    -1.1590 H     1 <1>   0.0800 
 26 H       -3.0600     1.7970    -0.7640 H     1 <1>   0.0800 
 27 H       -2.1220     3.5060    -2.3440 H     1 <1>   0.0800 
 28 H       -0.4050     3.2560    -2.3620 H     1 <1>   0.0800 
 29 H       -2.8190     1.4080     1.4890 H     1 <1>   0.0800 
 30 H       -1.7610     0.0990     1.0140 H     1 <1>   0.0800 
 31 H       -0.7650     5.5230    -2.6560 H     1 <1>   0.0800 
 32 H       -0.1010     5.3720    -1.0750 H     1 <1>   0.0800 
 33 H       -2.8980     6.1100    -1.9200 H     1 <1>   0.0800 
 34 H       -1.0260     7.3800    -0.0340 H     1 <1>   0.4500 
 35 H       -2.1220     5.3520     0.8910 H     1 <1>   0.0800 
 36 H       -3.2870     4.5420    -0.1100 H     1 <1>   0.0800 
 37 H       -3.4930     8.4870    -1.1560 H     1 <1>   0.0800 
 38 H       -2.3380     9.3350    -0.1510 H     1 <1>   0.0800 
 39 H       -1.4620     8.5430    -2.6420 H     1 <1>   0.0800 
 40 H       -0.1560     7.4230    -2.3150 H     1 <1>   0.0800 
 41 H       -4.3630     6.0060     1.5580 H     1 <1>   0.0800 
 42 H       -4.7750     6.4420    -0.0770 H     1 <1>   0.0800 
 43 H       -4.2340     8.4680     1.1640 H     1 <1>   0.0800 
 44 H       -2.7150     7.8070     1.6840 H     1 <1>   0.0800 
 45 H        0.4270    10.5910    -2.8690 H     1 <1>   0.1500 
 46 H        1.7250    11.9110    -0.9070 H     1 <1>   0.1500 
 47 H        0.9770    10.1490     2.3640 H     1 <1>   0.0800 
 48 H        1.5100    11.6940     1.7500 H     1 <1>   0.0800 
 49 H        3.0950     9.1020     1.6000 H     1 <1>   0.0800 
 50 H        3.4150    10.4140     2.7060 H     1 <1>   0.0800 
 51 H        3.6440    10.6540     0.9910 H     1 <1>   0.0800 
@<TRIPOS>BOND
  1   1   2  2   
  2   2   3  am  
  3   2   4  1   
  4   3   5  1   
  5   3   6  1   
  6   4   7  1   
  7   4  23  1   
  8   4  24  1   
  9   5   7  1   
 10   5  25  1   
 11   5  26  1   
 12   6   8  1   
 13   6  27  1   
 14   6  28  1   
 15   7  29  1   
 16   7  30  1   
 17   8   9  1   
 18   8  31  1   
 19   8  32  1   
 20   9  10  1   
 21   9  11  1   
 22   9  33  1   
 23  10  12  1   
 24  10  13  1   
 25  10  34  1   
 26  11  14  1   
 27  11  35  1   
 28  11  36  1   
 29  12  15  1   
 30  12  37  1   
 31  12  38  1   
 32  13  16  1   
 33  13  39  1   
 34  13  40  1   
 35  14  15  1   
 36  14  41  1   
 37  14  42  1   
 38  15  43  1   
 39  15  44  1   
 40  16  17  2   
 41  16  18  1   
 42  17  19  1   
 43  18  20  2   
 44  18  45  1   
 45  19  20  1   
 46  19  21  1   
 47  20  46  1   
 48  21  22  1   
 49  21  47  1   
 50  21  48  1   
 51  22  49  1   
 52  22  50  1   
 53  22  51  1   
@<TRIPOS>SUBSTRUCTURE
  1 ****  10 GROUP 4 **** **** 0

# MOE 2024.06 (io_trps.svl 2023.06)
