@<TRIPOS>MOLECULE
NONAME
50 52 1 0 0 
SMALL
USER_CHARGES


@<TRIPOS>ATOM
  1 O        1.3350     0.6550    -0.8090 O.co2 1 <1>  -0.9000 
  2 C        0.2870     0.7210    -1.4580 C.2   1 <1>   0.9060 
  3 O        0.2880     0.9920    -2.6640 O.co2 1 <1>  -0.9000 
  4 C       -1.0900     0.6620    -0.7390 C.3   1 <1>   0.3170 
  5 N       -1.6890     2.0270    -0.4250 N.4   1 <1>  -0.9590 
  6 C       -1.0350    -0.1600     0.5630 C.3   1 <1>  -0.1600 
  7 C       -3.0240     1.9810     0.2160 C.3   1 <1>   0.3430 
  8 C       -1.6580     2.9120    -1.6210 C.3   1 <1>   0.4860 
  9 C       -2.3940    -0.2350     1.2700 C.3   1 <1>  -0.1600 
 10 C       -2.9460     1.1750     1.5120 C.3   1 <1>  -0.1600 
 11 C       -1.8280     4.3520    -1.1720 C.ar  1 <1>  -0.1430 
 12 C       -0.9880     4.9060    -0.2090 C.ar  1 <1>   0.0830 
 13 C       -2.8290     5.1360    -1.7270 C.ar  1 <1>  -0.1500 
 14 O       -0.0180     4.1740     0.3810 O.3   1 <1>  -0.3630 
 15 C       -1.1590     6.2180     0.2010 C.ar  1 <1>  -0.1500 
 16 C       -2.9940     6.4500    -1.3210 C.ar  1 <1>  -0.1500 
 17 C        1.2060     4.0400    -0.3130 C.3   1 <1>   0.1200 
 18 C       -2.1610     6.9910    -0.3560 C.ar  1 <1>  -0.1500 
 19 C        2.2080     3.3640     0.6220 C.3   1 <1>  -0.1600 
 20 C        3.4680     2.9440    -0.1430 C.3   1 <1>   0.0960 
 21 N        4.4150     2.2720     0.7670 N.pl3 1 <1>   0.0480 
 22 C        5.4600     2.8060     1.4400 C.2   1 <1>   0.0360 
 23 C        4.4130     0.9750     1.1150 C.2   1 <1>  -0.3020 
 24 N        6.1060     1.9570     2.1730 N.2   1 <1>  -0.5650 
 25 C        5.4450     0.8000     1.9680 C.2   1 <1>   0.0770 
 26 H       -1.7470     0.1560    -1.4210 H     1 <1>   0.0800 
 27 H       -1.0280     2.4810     0.2280 H     1 <1>   0.4500 
 28 H       -0.3020     0.2750     1.2220 H     1 <1>   0.0800 
 29 H       -0.6940    -1.1540     0.3300 H     1 <1>   0.0800 
 30 H       -3.7300     1.5200    -0.4540 H     1 <1>   0.0800 
 31 H       -3.3600     2.9830     0.4330 H     1 <1>   0.0800 
 32 H       -2.4310     2.6310    -2.3150 H     1 <1>   0.0800 
 33 H       -0.7120     2.8370    -2.1280 H     1 <1>   0.0800 
 34 H       -2.2850    -0.7500     2.2100 H     1 <1>   0.0800 
 35 H       -3.0850    -0.7960     0.6630 H     1 <1>   0.0800 
 36 H       -3.9300     1.1060     1.9420 H     1 <1>   0.0800 
 37 H       -2.3210     1.6990     2.2150 H     1 <1>   0.0800 
 38 H       -3.4860     4.7370    -2.4810 H     1 <1>   0.1500 
 39 H       -0.5110     6.6270     0.9550 H     1 <1>   0.1500 
 40 H       -3.7710     7.0550    -1.7560 H     1 <1>   0.1500 
 41 H        1.5490     5.0180    -0.6050 H     1 <1>   0.0800 
 42 H        1.0440     3.4370    -1.1900 H     1 <1>   0.0800 
 43 H       -2.2930     8.0120    -0.0410 H     1 <1>   0.1500 
 44 H        1.7560     2.4810     1.0410 H     1 <1>   0.0800 
 45 H        2.4700     4.0400     1.4160 H     1 <1>   0.0800 
 46 H        3.9510     3.8010    -0.5760 H     1 <1>   0.0800 
 47 H        3.2140     2.2590    -0.9330 H     1 <1>   0.0800 
 48 H        5.7140     3.8470     1.3590 H     1 <1>   0.1500 
 49 H        3.6870     0.2750     0.7360 H     1 <1>   0.1500 
 50 H        5.7500    -0.1120     2.4520 H     1 <1>   0.1500 
@<TRIPOS>BOND
  1   1   2  ar  
  2   2   3  ar  
  3   2   4  1   
  4   4   5  1   
  5   4   6  1   
  6   4  26  1   
  7   5   7  1   
  8   5   8  1   
  9   5  27  1   
 10   6   9  1   
 11   6  28  1   
 12   6  29  1   
 13   7  10  1   
 14   7  30  1   
 15   7  31  1   
 16   8  11  1   
 17   8  32  1   
 18   8  33  1   
 19   9  10  1   
 20   9  34  1   
 21   9  35  1   
 22  10  36  1   
 23  10  37  1   
 24  11  12  ar  
 25  11  13  ar  
 26  12  14  1   
 27  12  15  ar  
 28  13  16  ar  
 29  13  38  1   
 30  14  17  1   
 31  15  18  ar  
 32  15  39  1   
 33  16  18  ar  
 34  16  40  1   
 35  17  19  1   
 36  17  41  1   
 37  17  42  1   
 38  18  43  1   
 39  19  20  1   
 40  19  44  1   
 41  19  45  1   
 42  20  21  1   
 43  20  46  1   
 44  20  47  1   
 45  21  22  1   
 46  21  23  1   
 47  22  24  2   
 48  22  48  1   
 49  23  25  2   
 50  23  49  1   
 51  24  25  1   
 52  25  50  1   
@<TRIPOS>SUBSTRUCTURE
  1 ****  14 GROUP 4 **** **** 0

# MOE 2024.06 (io_trps.svl 2023.06)
