@<TRIPOS>MOLECULE
NONAME
37 38 1 0 0 
SMALL
USER_CHARGES


@<TRIPOS>ATOM
  1 O       -1.8270     4.8690    -2.6700 O.co2 1 <1>  -0.9000 
  2 C       -1.4110     5.7400    -1.8800 C.2   1 <1>   1.0330 
  3 O       -2.0680     6.7930    -1.7650 O.co2 1 <1>  -0.9000 
  4 C       -0.1670     5.5030    -1.1480 C.2   1 <1>  -0.0060 
  5 N        0.4440     6.3170    -0.2200 N.2   1 <1>  -0.5650 
  6 C        0.6160     4.4130    -1.2850 C.2   1 <1>  -0.0100 
  7 C        1.5100     5.6790     0.0970 C.2   1 <1>   0.2980 
  8 O        1.6570     4.5250    -0.5100 O.3   1 <1>  -0.2800 
  9 C        2.5730     6.1570     1.0750 C.3   1 <1>   0.2900 
 10 N        3.5930     6.9790     0.3840 N.3   1 <1>  -0.8100 
 11 C        4.1340     8.0800     1.1930 C.3   1 <1>   0.2900 
 12 C        4.6370     6.1750    -0.2650 C.3   1 <1>   0.0300 
 13 C        4.6310     9.1970     0.2890 C.2   1 <1>   0.0060 
 14 N        5.7940     9.7440     0.4000 N.2   1 <1>  -0.3380 
 15 N        3.9220     9.7430    -0.7110 N.pl3 1 <1>   0.0480 
 16 N        5.8780    10.6810    -0.5450 N.2   1 <1>  -0.3380 
 17 C        4.7630    10.6630    -1.1870 C.2   1 <1>   0.0370 
 18 C        2.5550     9.4610    -1.2110 C.3   1 <1>   0.0960 
 19 C        1.5040     9.9110    -0.1940 C.3   1 <1>   0.1200 
 20 O        0.3690    10.3630    -0.8630 O.3   1 <1>  -0.5600 
 21 C       -0.5190     9.3470    -1.2400 C.3   1 <1>   0.0400 
 22 H        0.4820     3.5490    -1.9120 H     1 <1>   0.1500 
 23 H        3.0280     5.3160     1.5660 H     1 <1>   0.0800 
 24 H        2.0680     6.7490     1.8170 H     1 <1>   0.0800 
 25 H        4.9360     7.7270     1.8180 H     1 <1>   0.0800 
 26 H        3.3660     8.4880     1.8260 H     1 <1>   0.0800 
 27 H        4.1880     5.4630    -0.9380 H     1 <1>   0.0800 
 28 H        5.2200     5.6470     0.4700 H     1 <1>   0.0800 
 29 H        5.2920     6.8110    -0.8370 H     1 <1>   0.0800 
 30 H        4.5200    11.3070    -2.0120 H     1 <1>   0.1500 
 31 H        2.4510     8.4100    -1.4090 H     1 <1>   0.0800 
 32 H        2.4130    10.0000    -2.1290 H     1 <1>   0.0800 
 33 H        1.8730    10.7450     0.3780 H     1 <1>   0.0800 
 34 H        1.2340     9.1100     0.4740 H     1 <1>   0.0800 
 35 H       -1.3540     9.7890    -1.7540 H     1 <1>   0.0800 
 36 H       -0.8770     8.8310    -0.3660 H     1 <1>   0.0800 
 37 H       -0.0280     8.6500    -1.8960 H     1 <1>   0.0800 
@<TRIPOS>BOND
  1   1   2  ar  
  2   2   3  ar  
  3   2   4  1   
  4   4   5  1   
  5   4   6  2   
  6   5   7  2   
  7   6   8  1   
  8   6  22  1   
  9   7   8  1   
 10   7   9  1   
 11   9  10  1   
 12   9  23  1   
 13   9  24  1   
 14  10  11  1   
 15  10  12  1   
 16  11  13  1   
 17  11  25  1   
 18  11  26  1   
 19  12  27  1   
 20  12  28  1   
 21  12  29  1   
 22  13  14  2   
 23  13  15  1   
 24  14  16  1   
 25  15  17  1   
 26  15  18  1   
 27  16  17  2   
 28  17  30  1   
 29  18  19  1   
 30  18  31  1   
 31  18  32  1   
 32  19  20  1   
 33  19  33  1   
 34  19  34  1   
 35  20  21  1   
 36  21  35  1   
 37  21  36  1   
 38  21  37  1   
@<TRIPOS>SUBSTRUCTURE
  1 ****  10 GROUP 4 **** **** 0

# MOE 2024.06 (io_trps.svl 2023.06)
