@<TRIPOS>MOLECULE
NONAME
41 43 1 0 0 
SMALL
USER_CHARGES


@<TRIPOS>ATOM
  1 O        1.9600    -1.7990    -1.0890 O.2   1 <1>  -0.5700 
  2 C        1.6100    -2.3790    -0.0880 C.2   1 <1>   0.6900 
  3 N        0.3210    -2.6880     0.2330 N.am  1 <1>  -0.4200 
  4 N        2.4640    -2.8240     0.8560 N.am  1 <1>  -0.7300 
  5 C        0.2960    -3.3990     1.3960 C.2   1 <1>   0.5690 
  6 C       -0.8530    -2.3980    -0.6380 C.3   1 <1>   0.2010 
  7 C        1.7210    -3.5620     1.9070 C.3   1 <1>   0.2010 
  8 O       -0.6890    -3.8570     1.9260 O.2   1 <1>  -0.5700 
  9 C       -1.3900    -3.6470    -1.3330 C.2   1 <1>   0.5690 
 10 O       -1.5200    -3.6500    -2.5330 O.2   1 <1>  -0.5700 
 11 N       -1.7070    -4.7340    -0.5860 N.am  1 <1>  -0.7300 
 12 C       -2.0340    -6.0730    -1.1190 C.3   1 <1>   0.2200 
 13 C       -3.0180    -6.7550    -0.1860 C.3   1 <1>  -0.0800 
 14 C       -0.8080    -6.9780    -1.0070 C.3   1 <1>   0.1200 
 15 C       -2.0820    -7.3180     0.8870 C.3   1 <1>   0.1200 
 16 C       -3.8050    -7.8620    -0.9130 C.3   1 <1>  -0.0170 
 17 O       -0.8600    -7.5730     0.2590 O.3   1 <1>  -0.5600 
 18 C       -4.8040    -8.5410     0.0110 C.ar  1 <1>  -0.1430 
 19 C       -4.5720    -9.7920     0.5470 C.ar  1 <1>  -0.1500 
 20 C       -5.9980    -7.9420     0.3580 C.ar  1 <1>  -0.1500 
 21 C       -5.5170   -10.3650     1.3820 C.ar  1 <1>   0.1600 
 22 C       -6.8760    -8.6020     1.2010 C.ar  1 <1>   0.1600 
 23 N       -6.6650    -9.8000     1.7230 N.ar  1 <1>  -0.6200 
 24 H        3.4760    -2.8380     0.7230 H     1 <1>   0.3700 
 25 H       -1.6370    -1.9730    -0.0410 H     1 <1>   0.0800 
 26 H       -0.5740    -1.6790    -1.3880 H     1 <1>   0.0800 
 27 H        2.0040    -4.5990     1.9300 H     1 <1>   0.0800 
 28 H        1.8430    -3.0980     2.8690 H     1 <1>   0.0800 
 29 H       -1.5260    -4.7050     0.4280 H     1 <1>   0.3700 
 30 H       -2.3880    -5.9930    -2.1340 H     1 <1>   0.0800 
 31 H       -3.7140    -6.0510     0.2360 H     1 <1>   0.0800 
 32 H        0.1140    -6.4350    -1.1140 H     1 <1>   0.0800 
 33 H       -0.8520    -7.7660    -1.7370 H     1 <1>   0.0800 
 34 H       -2.4440    -8.2240     1.3390 H     1 <1>   0.0800 
 35 H       -1.9020    -6.5850     1.6560 H     1 <1>   0.0800 
 36 H       -3.1290    -8.5980    -1.3120 H     1 <1>   0.0800 
 37 H       -4.3410    -7.4330    -1.7410 H     1 <1>   0.0800 
 38 H       -3.6660   -10.3260     0.3260 H     1 <1>   0.1500 
 39 H       -6.2550    -6.9700    -0.0200 H     1 <1>   0.1500 
 40 H       -5.3180   -11.3400     1.7920 H     1 <1>   0.1500 
 41 H       -7.8020    -8.1190     1.4610 H     1 <1>   0.1500 
@<TRIPOS>BOND
  1   1   2  2   
  2   2   3  am  
  3   2   4  am  
  4   3   5  am  
  5   3   6  1   
  6   4   7  1   
  7   4  24  1   
  8   5   7  1   
  9   5   8  2   
 10   6   9  1   
 11   6  25  1   
 12   6  26  1   
 13   7  27  1   
 14   7  28  1   
 15   9  10  2   
 16   9  11  am  
 17  11  12  1   
 18  11  29  1   
 19  12  13  1   
 20  12  14  1   
 21  12  30  1   
 22  13  15  1   
 23  13  16  1   
 24  13  31  1   
 25  14  17  1   
 26  14  32  1   
 27  14  33  1   
 28  15  17  1   
 29  15  34  1   
 30  15  35  1   
 31  16  18  1   
 32  16  36  1   
 33  16  37  1   
 34  18  19  ar  
 35  18  20  ar  
 36  19  21  ar  
 37  19  38  1   
 38  20  22  ar  
 39  20  39  1   
 40  21  23  ar  
 41  21  40  1   
 42  22  23  ar  
 43  22  41  1   
@<TRIPOS>SUBSTRUCTURE
  1 ****  11 GROUP 4 **** **** 0

# MOE 2024.06 (io_trps.svl 2023.06)
