@<TRIPOS>MOLECULE
NONAME
57 60 1 0 0 
SMALL
USER_CHARGES


@<TRIPOS>ATOM
  1 O       -0.8010     1.8440    -0.4240 O.2   1 <1>  -0.5700 
  2 C        0.3260     2.2260    -0.2490 C.2   1 <1>   0.5690 
  3 N        0.7020     3.1310     0.6620 N.am  1 <1>  -0.7300 
  4 C        1.5090     1.7800    -1.0600 C.3   1 <1>  -0.0990 
  5 C        2.1270     3.5160     0.5780 C.3   1 <1>   0.2810 
  6 C        2.5740     2.8480    -0.7400 C.3   1 <1>  -0.1600 
  7 C        2.3940     5.0410     0.6290 C.2   1 <1>   0.5690 
  8 O        1.4970     5.7900     0.3180 O.2   1 <1>  -0.5700 
  9 N        3.6160     5.5580     1.0100 N.am  1 <1>  -0.6600 
 10 C        4.8960     4.7950     1.1500 C.3   1 <1>   0.1400 
 11 C        3.7090     6.9930     1.4000 C.3   1 <1>   0.1400 
 12 C        5.9190     5.1210     0.0340 C.3   1 <1>   0.3430 
 13 C        4.0260     7.8650     0.1830 C.3   1 <1>  -0.1600 
 14 N        6.1300     6.5880    -0.2190 N.4   1 <1>  -0.9590 
 15 C        4.9370     7.2200    -0.8600 C.3   1 <1>   0.3430 
 16 C        7.3440     6.8190    -1.0430 C.3   1 <1>   0.4810 
 17 C        7.6770     8.2920    -0.9810 C.2   1 <1>  -0.2540 
 18 C        7.5810     9.1680    -1.9910 C.2   1 <1>  -0.2880 
 19 C        8.1810     8.8160     0.3690 C.3   1 <1>   0.1160 
 20 C        7.9940    10.6260    -1.7630 C.3   1 <1>  -0.0220 
 21 C        9.4650     9.7120     0.2240 C.3   1 <1>   0.0000 
 22 C        7.4240    10.1500     0.6740 C.3   1 <1>   0.0000 
 23 C        8.4610    10.8100    -0.2930 C.3   1 <1>   0.0000 
 24 C       10.5410     9.2280    -0.7730 C.3   1 <1>  -0.2400 
 25 C       10.1750    10.0600     1.5540 C.3   1 <1>  -0.2400 
 26 H        0.0160     3.7540     1.0970 H     1 <1>   0.3700 
 27 H        1.8110     0.8050    -0.7250 H     1 <1>   0.0800 
 28 H        1.2630     1.7520    -2.1060 H     1 <1>   0.0800 
 29 H        2.6250     3.0510     1.4100 H     1 <1>   0.0800 
 30 H        2.5730     3.5860    -1.5240 H     1 <1>   0.0800 
 31 H        3.5570     2.4210    -0.6620 H     1 <1>   0.0800 
 32 H        5.3350     5.0170     2.1080 H     1 <1>   0.0800 
 33 H        4.7060     3.7370     1.1370 H     1 <1>   0.0800 
 34 H        2.7770     7.3160     1.8380 H     1 <1>   0.0800 
 35 H        4.4700     7.1160     2.1520 H     1 <1>   0.0800 
 36 H        5.5900     4.6500    -0.8770 H     1 <1>   0.0800 
 37 H        6.8580     4.6680     0.3060 H     1 <1>   0.0800 
 38 H        4.4480     8.7960     0.5140 H     1 <1>   0.0800 
 39 H        3.0960     8.1080    -0.3010 H     1 <1>   0.0800 
 40 H        6.2930     7.0800     0.6660 H     1 <1>   0.4500 
 41 H        5.2440     7.9810    -1.5600 H     1 <1>   0.0800 
 42 H        4.3790     6.4750    -1.4050 H     1 <1>   0.0800 
 43 H        8.1770     6.2510    -0.6620 H     1 <1>   0.0800 
 44 H        7.1630     6.5250    -2.0640 H     1 <1>   0.0800 
 45 H        7.2460     8.9520    -2.9930 H     1 <1>   0.1500 
 46 H        8.1920     8.1110     1.1820 H     1 <1>   0.0000 
 47 H        7.1600    11.2770    -1.9580 H     1 <1>   0.0800 
 48 H        8.7920    10.8950    -2.4330 H     1 <1>   0.0800 
 49 H        6.4100    10.1780     0.3150 H     1 <1>   0.0000 
 50 H        7.4870    10.4780     1.6960 H     1 <1>   0.0000 
 51 H        8.7240    11.8200    -0.0320 H     1 <1>   0.0000 
 52 H       11.2600    10.0110    -0.9380 H     1 <1>   0.0800 
 53 H       10.1480     8.9440    -1.7300 H     1 <1>   0.0800 
 54 H       11.0600     8.3780    -0.3680 H     1 <1>   0.0800 
 55 H       10.9120    10.8250     1.3810 H     1 <1>   0.0800 
 56 H       10.6800     9.1920     1.9390 H     1 <1>   0.0800 
 57 H        9.5150    10.4200     2.3200 H     1 <1>   0.0800 
@<TRIPOS>BOND
  1   1   2  2   
  2   2   3  am  
  3   2   4  1   
  4   3   5  1   
  5   3  26  1   
  6   4   6  1   
  7   4  27  1   
  8   4  28  1   
  9   5   6  1   
 10   5   7  1   
 11   5  29  1   
 12   6  30  1   
 13   6  31  1   
 14   7   8  2   
 15   7   9  am  
 16   9  10  1   
 17   9  11  1   
 18  10  12  1   
 19  10  32  1   
 20  10  33  1   
 21  11  13  1   
 22  11  34  1   
 23  11  35  1   
 24  12  14  1   
 25  12  36  1   
 26  12  37  1   
 27  13  15  1   
 28  13  38  1   
 29  13  39  1   
 30  14  15  1   
 31  14  16  1   
 32  14  40  1   
 33  15  41  1   
 34  15  42  1   
 35  16  17  1   
 36  16  43  1   
 37  16  44  1   
 38  17  18  2   
 39  17  19  1   
 40  18  20  1   
 41  18  45  1   
 42  19  21  1   
 43  19  22  1   
 44  19  46  1   
 45  20  23  1   
 46  20  47  1   
 47  20  48  1   
 48  21  23  1   
 49  21  24  1   
 50  21  25  1   
 51  22  23  1   
 52  22  49  1   
 53  22  50  1   
 54  23  51  1   
 55  24  52  1   
 56  24  53  1   
 57  24  54  1   
 58  25  55  1   
 59  25  56  1   
 60  25  57  1   
@<TRIPOS>SUBSTRUCTURE
  1 ****  14 GROUP 4 **** **** 0

# MOE 2024.06 (io_trps.svl 2023.06)
