@<TRIPOS>MOLECULE
NONAME
48 50 1 0 0 
SMALL
USER_CHARGES


@<TRIPOS>ATOM
  1 O        0.9750     1.4500     0.9040 O.3   1 <1>  -0.0190 
  2 N        1.8800     0.5300     1.0480 N.2   1 <1>  -0.4100 
  3 C        0.9960     1.9690    -0.2940 C.2   1 <1>  -0.0400 
  4 C        2.4800     0.4360    -0.0840 C.2   1 <1>   0.1080 
  5 C        1.9550     1.3470    -0.9960 C.2   1 <1>  -0.1500 
  6 C        0.0410     3.0940    -0.6450 C.3   1 <1>   0.0200 
  7 C        3.6010    -0.5390    -0.3720 C.3   1 <1>  -0.0590 
  8 C       -0.0270     4.1420     0.4850 C.3   1 <1>  -0.0800 
  9 C       -0.7120     5.4310     0.0280 C.3   1 <1>   0.2000 
 10 C        1.3750     4.5790     0.9470 C.3   1 <1>   0.3430 
 11 O       -1.3120     6.0130     1.1370 O.3   1 <1>  -0.6800 
 12 C        0.4590     6.3230    -0.3820 C.3   1 <1>   0.3430 
 13 N        1.4880     6.0380     0.6570 N.4   1 <1>  -0.9590 
 14 C        2.8700     6.4970     0.3590 C.3   1 <1>   0.3430 
 15 C        2.9120     8.0210     0.2920 C.3   1 <1>  -0.1600 
 16 C        4.3430     8.5180     0.0930 C.3   1 <1>   0.1200 
 17 O        4.2850     9.9190     0.0120 O.3   1 <1>  -0.3630 
 18 C        5.4040    10.6640    -0.1680 C.ar  1 <1>   0.0820 
 19 C        5.2320    12.0380    -0.2380 C.ar  1 <1>  -0.1500 
 20 C        6.6840    10.1280    -0.2840 C.ar  1 <1>  -0.1500 
 21 C        6.3200    12.8730    -0.4210 C.ar  1 <1>  -0.1500 
 22 C        7.7710    10.9650    -0.4670 C.ar  1 <1>  -0.1500 
 23 C        7.5910    12.3360    -0.5360 C.ar  1 <1>  -0.1500 
 24 H        2.2760     1.4810    -2.0130 H     1 <1>   0.1500 
 25 H        0.3640     3.5420    -1.5690 H     1 <1>   0.0800 
 26 H       -0.9380     2.6760    -0.8040 H     1 <1>   0.0800 
 27 H        4.4640    -0.0130    -0.7360 H     1 <1>   0.0800 
 28 H        3.2820    -1.2520    -1.1100 H     1 <1>   0.0800 
 29 H        3.8690    -1.0670     0.5260 H     1 <1>   0.0800 
 30 H       -0.5530     3.6980     1.3130 H     1 <1>   0.0800 
 31 H       -1.4480     5.3060    -0.7490 H     1 <1>   0.0800 
 32 H        2.1320     4.0300     0.4090 H     1 <1>   0.0800 
 33 H        1.5000     4.3920     2.0020 H     1 <1>   0.0800 
 34 H       -2.1470     5.5560     1.3760 H     1 <1>   0.4000 
 35 H        0.1720     7.3620    -0.3960 H     1 <1>   0.0800 
 36 H        0.8220     6.0310    -1.3540 H     1 <1>   0.0800 
 37 H        1.1380     6.5220     1.5010 H     1 <1>   0.4500 
 38 H        3.5350     6.1600     1.1390 H     1 <1>   0.0800 
 39 H        3.2060     6.0780    -0.5760 H     1 <1>   0.0800 
 40 H        2.5340     8.4350     1.2110 H     1 <1>   0.0800 
 41 H        2.3170     8.3720    -0.5310 H     1 <1>   0.0800 
 42 H        4.7630     8.1460    -0.8270 H     1 <1>   0.0800 
 43 H        4.9700     8.2550     0.9280 H     1 <1>   0.0800 
 44 H        4.2430    12.4490    -0.1480 H     1 <1>   0.1500 
 45 H        6.8590     9.0710    -0.2350 H     1 <1>   0.1500 
 46 H        6.1780    13.9380    -0.4740 H     1 <1>   0.1500 
 47 H        8.7610    10.5520    -0.5570 H     1 <1>   0.1500 
 48 H        8.4380    12.9850    -0.6780 H     1 <1>   0.1500 
@<TRIPOS>BOND
  1   1   2  1   
  2   1   3  1   
  3   2   4  2   
  4   3   5  2   
  5   3   6  1   
  6   4   5  1   
  7   4   7  1   
  8   5  24  1   
  9   6   8  1   
 10   6  25  1   
 11   6  26  1   
 12   7  27  1   
 13   7  28  1   
 14   7  29  1   
 15   8   9  1   
 16   8  10  1   
 17   8  30  1   
 18   9  11  1   
 19   9  12  1   
 20   9  31  1   
 21  10  13  1   
 22  10  32  1   
 23  10  33  1   
 24  11  34  1   
 25  12  13  1   
 26  12  35  1   
 27  12  36  1   
 28  13  14  1   
 29  13  37  1   
 30  14  15  1   
 31  14  38  1   
 32  14  39  1   
 33  15  16  1   
 34  15  40  1   
 35  15  41  1   
 36  16  17  1   
 37  16  42  1   
 38  16  43  1   
 39  17  18  1   
 40  18  19  ar  
 41  18  20  ar  
 42  19  21  ar  
 43  19  44  1   
 44  20  22  ar  
 45  20  45  1   
 46  21  23  ar  
 47  21  46  1   
 48  22  23  ar  
 49  22  47  1   
 50  23  48  1   
@<TRIPOS>SUBSTRUCTURE
  1 ****  14 GROUP 4 **** **** 0

# MOE 2024.06 (io_trps.svl 2023.06)
