@<TRIPOS>MOLECULE
NONAME
35 36 1 0 0 
SMALL
USER_CHARGES


@<TRIPOS>ATOM
  1 F       -1.9700    -1.6170    -1.3540 F     1 <1>  -0.1900 
  2 C       -2.0200    -0.5440    -0.6120 C.ar  1 <1>   0.1900 
  3 C       -3.2090     0.1730    -0.5200 C.ar  1 <1>   0.0860 
  4 C       -0.8610    -0.1720     0.0410 C.ar  1 <1>  -0.1500 
  5 C       -3.1880     1.3420     0.2540 C.ar  1 <1>  -0.1440 
  6 C       -4.4000    -0.2890    -1.1970 C.2   1 <1>   0.5440 
  7 C       -0.8680     0.9750     0.8120 C.ar  1 <1>  -0.1500 
  8 C       -2.0280     1.7280     0.9110 C.ar  1 <1>  -0.1500 
  9 C       -4.4390     2.2030     0.3760 C.3   1 <1>  -0.0960 
 10 O       -4.6270     0.1030    -2.3290 O.2   1 <1>  -0.5700 
 11 N       -5.3100    -1.1170    -0.5740 N.am  1 <1>  -0.6600 
 12 C       -5.2660    -1.4420     0.8930 C.3   1 <1>   0.1400 
 13 C       -6.3160    -1.8930    -1.3530 C.3   1 <1>   0.1400 
 14 C       -5.1310    -2.9490     1.1700 C.3   1 <1>   0.2000 
 15 C       -6.1210    -3.3970    -1.1260 C.3   1 <1>  -0.1600 
 16 O       -3.8590    -3.3660     0.8200 O.3   1 <1>  -0.6800 
 17 C       -6.1670    -3.7550     0.3750 C.3   1 <1>  -0.1860 
 18 C       -6.0160    -5.2420     0.6330 C.2   1 <1>   0.9060 
 19 O       -7.0160    -5.8810     0.9690 O.co2 1 <1>  -0.9000 
 20 O       -4.8970    -5.7610     0.5210 O.co2 1 <1>  -0.9000 
 21 H        0.0250    -0.7730    -0.0590 H     1 <1>   0.1500 
 22 H        0.0240     1.2840     1.3290 H     1 <1>   0.1500 
 23 H       -2.0160     2.6240     1.5080 H     1 <1>   0.1500 
 24 H       -4.2410     3.1020     0.9300 H     1 <1>   0.0800 
 25 H       -5.2170     1.6560     0.8760 H     1 <1>   0.0800 
 26 H       -4.7880     2.4800    -0.6040 H     1 <1>   0.0800 
 27 H       -4.4610    -0.9290     1.3850 H     1 <1>   0.0800 
 28 H       -6.1850    -1.1010     1.3340 H     1 <1>   0.0800 
 29 H       -7.3020    -1.6010    -1.0390 H     1 <1>   0.0800 
 30 H       -6.2240    -1.6820    -2.4050 H     1 <1>   0.0800 
 31 H       -5.2480    -3.1470     2.2210 H     1 <1>   0.0800 
 32 H       -6.8900    -3.9410    -1.6440 H     1 <1>   0.0800 
 33 H       -5.1740    -3.6970    -1.5420 H     1 <1>   0.0800 
 34 H       -3.9350    -4.3530     0.6530 H     1 <1>   0.4000 
 35 H       -7.1380    -3.4860     0.7450 H     1 <1>   0.0800 
@<TRIPOS>BOND
  1   1   2  1   
  2   2   3  ar  
  3   2   4  ar  
  4   3   5  ar  
  5   3   6  1   
  6   4   7  ar  
  7   4  21  1   
  8   5   8  ar  
  9   5   9  1   
 10   6  10  2   
 11   6  11  am  
 12   7   8  ar  
 13   7  22  1   
 14   8  23  1   
 15   9  24  1   
 16   9  25  1   
 17   9  26  1   
 18  11  12  1   
 19  11  13  1   
 20  12  14  1   
 21  12  27  1   
 22  12  28  1   
 23  13  15  1   
 24  13  29  1   
 25  13  30  1   
 26  14  16  1   
 27  14  17  1   
 28  14  31  1   
 29  15  17  1   
 30  15  32  1   
 31  15  33  1   
 32  16  34  1   
 33  17  18  1   
 34  17  35  1   
 35  18  19  ar  
 36  18  20  ar  
@<TRIPOS>SUBSTRUCTURE
  1 ****  11 GROUP 4 **** **** 0

# MOE 2024.06 (io_trps.svl 2023.06)
