@<TRIPOS>MOLECULE
NONAME
23 23 1 0 0 
SMALL
USER_CHARGES


@<TRIPOS>ATOM
  1 O        5.6620     0.9870    -0.1340 O.3   1 <1>  -0.5600 
  2 C        5.6870    -0.3530    -0.5440 C.3   1 <1>   0.2000 
  3 C        6.8360     1.7070    -0.3680 C.3   1 <1>   0.2000 
  4 C        6.8070    -1.1100     0.2030 C.3   1 <1>   0.3430 
  5 C        4.3150    -0.9690    -0.2550 C.3   1 <1>   0.1200 
  6 C        8.0150     1.0510     0.3910 C.3   1 <1>   0.3430 
  7 C        6.5770     3.1350     0.1040 C.3   1 <1>  -0.2400 
  8 N        8.1350    -0.4150     0.0830 N.4   1 <1>  -0.9060 
  9 O        4.4050    -2.3480    -0.4040 O.3   1 <1>  -0.6800 
 10 H        5.8570    -0.3780    -1.6070 H     1 <1>   0.0800 
 11 H        7.0260     1.7120    -1.4280 H     1 <1>   0.0800 
 12 H        6.8720    -2.1130    -0.1880 H     1 <1>   0.0800 
 13 H        6.5250    -1.1840     1.2400 H     1 <1>   0.0800 
 14 H        3.5800    -0.5960    -0.9480 H     1 <1>   0.0800 
 15 H        4.0060    -0.7610     0.7560 H     1 <1>   0.0800 
 16 H        7.8470     1.1850     1.4470 H     1 <1>   0.0800 
 17 H        8.9300     1.5600     0.1370 H     1 <1>   0.0800 
 18 H        6.3440     3.1540     1.1540 H     1 <1>   0.0800 
 19 H        5.7520     3.5560    -0.4440 H     1 <1>   0.0800 
 20 H        7.4420     3.7520    -0.0700 H     1 <1>   0.0800 
 21 H        8.8160    -0.8580     0.7120 H     1 <1>   0.4500 
 22 H        8.4840    -0.5350    -0.8760 H     1 <1>   0.4500 
 23 H        3.5190    -2.7640    -0.3200 H     1 <1>   0.4000 
@<TRIPOS>BOND
  1   1   2  1   
  2   1   3  1   
  3   2   4  1   
  4   2   5  1   
  5   2  10  1   
  6   3   6  1   
  7   3   7  1   
  8   3  11  1   
  9   4   8  1   
 10   4  12  1   
 11   4  13  1   
 12   5   9  1   
 13   5  14  1   
 14   5  15  1   
 15   6   8  1   
 16   6  16  1   
 17   6  17  1   
 18   7  18  1   
 19   7  19  1   
 20   7  20  1   
 21   8  21  1   
 22   8  22  1   
 23   9  23  1   
@<TRIPOS>SUBSTRUCTURE
  1 ****   2 GROUP 4 **** **** 0

# MOE 2024.06 (io_trps.svl 2023.06)
