@<TRIPOS>MOLECULE
NONAME
16 16 1 0 0 
SMALL
USER_CHARGES


@<TRIPOS>ATOM
  1 CL       0.0420    -0.0400    -0.8310 Cl    1 <1>  -0.1230 
  2 C        1.5660    -0.5950    -0.1690 C.2   1 <1>   0.1230 
  3 C        1.8130    -1.8670     0.1880 C.2   1 <1>  -0.1400 
  4 C        2.6500     0.3220     0.0220 C.2   1 <1>  -0.1810 
  5 S        3.4560    -1.9920     0.8040 S.3   1 <1>  -0.0800 
  6 C        0.9600    -3.1170     0.1540 C.3   1 <1>   0.3000 
  7 C        3.7410    -0.2750     0.5390 C.2   1 <1>  -0.1100 
  8 C        2.5300     1.7930    -0.3340 C.3   1 <1>  -0.0590 
  9 O        1.5190    -4.0000    -0.7470 O.3   1 <1>  -0.6800 
 10 H       -0.0390    -2.8880    -0.1750 H     1 <1>   0.0800 
 11 H        0.9230    -3.5920     1.1190 H     1 <1>   0.0800 
 12 H        4.7110     0.1080     0.8040 H     1 <1>   0.1500 
 13 H        1.7370     2.2460     0.2350 H     1 <1>   0.0800 
 14 H        2.3130     1.9020    -1.3820 H     1 <1>   0.0800 
 15 H        3.4480     2.3090    -0.1160 H     1 <1>   0.0800 
 16 H        1.8900    -3.4960    -1.4960 H     1 <1>   0.4000 
@<TRIPOS>BOND
  1   1   2  1   
  2   2   3  2   
  3   2   4  1   
  4   3   5  1   
  5   3   6  1   
  6   4   7  2   
  7   4   8  1   
  8   5   7  1   
  9   6   9  1   
 10   6  10  1   
 11   6  11  1   
 12   7  12  1   
 13   8  13  1   
 14   8  14  1   
 15   8  15  1   
 16   9  16  1   
@<TRIPOS>SUBSTRUCTURE
  1 ****   2 GROUP 4 **** **** 0

# MOE 2024.06 (io_trps.svl 2023.06)
