@<TRIPOS>MOLECULE
NONAME
60 62 1 0 0 
SMALL
USER_CHARGES


@<TRIPOS>ATOM
  1 O        1.9980    -0.5150     0.9430 O.2   1 <1>  -0.5700 
  2 C        1.8770    -0.8500    -0.2200 C.2   1 <1>   0.5440 
  3 N        2.0730     0.0970    -1.2060 N.am  1 <1>  -0.6600 
  4 C        1.5430    -2.2300    -0.5230 C.ar  1 <1>   0.0860 
  5 C        2.1450     1.5460    -0.8570 C.3   1 <1>   0.1400 
  6 C        2.3360    -0.2230    -2.6370 C.3   1 <1>   0.0600 
  7 C        2.2580    -3.2780     0.0530 C.ar  1 <1>  -0.1500 
  8 C        0.4920    -2.5640    -1.3770 C.ar  1 <1>  -0.1500 
  9 C        3.5490     1.9120    -0.3820 C.3   1 <1>   0.0960 
 10 C        1.9440    -4.5990    -0.2080 C.ar  1 <1>  -0.1500 
 11 C        0.1700    -3.8820    -1.6440 C.ar  1 <1>  -0.1500 
 12 N        3.5550     3.3130     0.0610 N.pl3 1 <1>   0.3140 
 13 C        0.8890    -4.9110    -1.0540 C.ar  1 <1>  -0.1440 
 14 N        3.7910     4.3150    -0.8050 N.2   1 <1>  -0.7070 
 15 C        3.3030     3.7840     1.3040 C.2   1 <1>  -0.3320 
 16 C        0.5200    -6.3600    -1.3170 C.3   1 <1>   0.4860 
 17 C        3.6950     5.3950    -0.0970 C.2   1 <1>   0.1080 
 18 C        3.3900     5.1290     1.2320 C.2   1 <1>  -0.1500 
 19 C        2.9830     2.9170     2.5110 C.3   1 <1>  -0.0600 
 20 N       -0.1120    -6.9240    -0.0930 N.4   1 <1>  -0.9590 
 21 C        3.8970     6.7700    -0.6880 C.3   1 <1>  -0.0590 
 22 C       -0.2080    -8.4060    -0.1870 C.3   1 <1>   0.3430 
 23 C       -1.4050    -6.2380     0.2020 C.3   1 <1>   0.3430 
 24 C       -0.1390    -9.0200     1.2110 C.3   1 <1>  -0.1600 
 25 C       -1.9650    -6.6170     1.5740 C.3   1 <1>  -0.1600 
 26 C       -1.4860    -9.1250     1.9460 C.3   1 <1>  -0.1600 
 27 C       -2.5280    -8.0440     1.6270 C.3   1 <1>  -0.1600 
 28 H        1.4380     1.7530    -0.0720 H     1 <1>   0.0800 
 29 H        1.8830     2.1450    -1.7130 H     1 <1>   0.0800 
 30 H        2.5510    -1.2700    -2.7640 H     1 <1>   0.0800 
 31 H        3.1850     0.3390    -2.9870 H     1 <1>   0.0800 
 32 H        1.4770     0.0370    -3.2310 H     1 <1>   0.0800 
 33 H        3.0700    -3.0380     0.7200 H     1 <1>   0.1500 
 34 H       -0.0780    -1.7700    -1.8280 H     1 <1>   0.1500 
 35 H        4.2540     1.8070    -1.1830 H     1 <1>   0.0800 
 36 H        3.8430     1.2880     0.4400 H     1 <1>   0.0800 
 37 H        2.5330    -5.3720     0.2580 H     1 <1>   0.1500 
 38 H       -0.6490    -4.0920    -2.3130 H     1 <1>   0.1500 
 39 H        1.4140    -6.9100    -1.5600 H     1 <1>   0.0800 
 40 H       -0.1590    -6.4240    -2.1520 H     1 <1>   0.0800 
 41 H        3.2570     5.8560     2.0110 H     1 <1>   0.1500 
 42 H        2.1140     2.3120     2.3190 H     1 <1>   0.0800 
 43 H        2.7890     3.5330     3.3700 H     1 <1>   0.0800 
 44 H        3.8130     2.2690     2.7350 H     1 <1>   0.0800 
 45 H        0.5180    -6.6970     0.6860 H     1 <1>   0.4500 
 46 H        3.1780     6.9310    -1.4710 H     1 <1>   0.0800 
 47 H        4.8850     6.8390    -1.1020 H     1 <1>   0.0800 
 48 H        3.7750     7.5250     0.0660 H     1 <1>   0.0800 
 49 H        0.6280    -8.7810    -0.7560 H     1 <1>   0.0800 
 50 H       -1.1160    -8.7050    -0.6880 H     1 <1>   0.0800 
 51 H       -2.1300    -6.4740    -0.5590 H     1 <1>   0.0800 
 52 H       -1.2510    -5.1710     0.1910 H     1 <1>   0.0800 
 53 H        0.5650    -8.4730     1.8140 H     1 <1>   0.0800 
 54 H        0.2530   -10.0180     1.1170 H     1 <1>   0.0800 
 55 H       -2.7810    -5.9420     1.7720 H     1 <1>   0.0800 
 56 H       -1.2360    -6.4540     2.3490 H     1 <1>   0.0800 
 57 H       -1.2910    -9.1210     3.0060 H     1 <1>   0.0800 
 58 H       -1.9300   -10.0820     1.7230 H     1 <1>   0.0800 
 59 H       -3.0250    -8.2750     0.7000 H     1 <1>   0.0800 
 60 H       -3.2820    -8.0870     2.3960 H     1 <1>   0.0800 
@<TRIPOS>BOND
  1   1   2  2   
  2   2   3  am  
  3   2   4  1   
  4   3   5  1   
  5   3   6  1   
  6   4   7  ar  
  7   4   8  ar  
  8   5   9  1   
  9   5  28  1   
 10   5  29  1   
 11   6  30  1   
 12   6  31  1   
 13   6  32  1   
 14   7  10  ar  
 15   7  33  1   
 16   8  11  ar  
 17   8  34  1   
 18   9  12  1   
 19   9  35  1   
 20   9  36  1   
 21  10  13  ar  
 22  10  37  1   
 23  11  13  ar  
 24  11  38  1   
 25  12  14  1   
 26  12  15  1   
 27  13  16  1   
 28  14  17  2   
 29  15  18  2   
 30  15  19  1   
 31  16  20  1   
 32  16  39  1   
 33  16  40  1   
 34  17  18  1   
 35  17  21  1   
 36  18  41  1   
 37  19  42  1   
 38  19  43  1   
 39  19  44  1   
 40  20  22  1   
 41  20  23  1   
 42  20  45  1   
 43  21  46  1   
 44  21  47  1   
 45  21  48  1   
 46  22  24  1   
 47  22  49  1   
 48  22  50  1   
 49  23  25  1   
 50  23  51  1   
 51  23  52  1   
 52  24  26  1   
 53  24  53  1   
 54  24  54  1   
 55  25  27  1   
 56  25  55  1   
 57  25  56  1   
 58  26  27  1   
 59  26  57  1   
 60  26  58  1   
 61  27  59  1   
 62  27  60  1   
@<TRIPOS>SUBSTRUCTURE
  1 ****   4 GROUP 4 **** **** 0

# MOE 2024.06 (io_trps.svl 2023.06)
