@<TRIPOS>MOLECULE
NONAME
49 51 1 0 0 
SMALL
USER_CHARGES


@<TRIPOS>ATOM
  1 O        3.0440     0.3530     0.9490 O.3   1 <1>  -0.0190 
  2 N        2.8900     1.5200     1.4990 N.2   1 <1>  -0.4100 
  3 C        2.1710     0.3430    -0.0290 C.2   1 <1>   0.2980 
  4 C        1.9710     2.1160     0.8540 C.2   1 <1>   0.3350 
  5 N        1.4800     1.4070    -0.1530 N.2   1 <1>  -0.5650 
  6 C        2.0640    -0.8950    -0.9030 C.3   1 <1>   0.0200 
  7 C        1.4780     3.5280     1.1680 C.3   1 <1>   0.5240 
  8 C        1.5130    -2.0980    -0.1280 C.3   1 <1>  -0.2400 
  9 N        2.2320     4.5770     0.3940 N.4   1 <1>  -0.9590 
 10 C        1.9550     5.9600     0.8990 C.3   1 <1>   0.3430 
 11 C        2.0050     4.4550    -1.0750 C.3   1 <1>   0.3430 
 12 C        2.4170     7.0540    -0.0830 C.3   1 <1>  -0.0800 
 13 C        3.0430     5.3050    -1.8170 C.3   1 <1>  -0.1600 
 14 C        3.5180     6.5450    -1.0360 C.3   1 <1>  -0.1600 
 15 C        2.8660     8.2990     0.6970 C.3   1 <1>   0.1200 
 16 O        3.1670     9.3160    -0.2260 O.3   1 <1>  -0.3630 
 17 C        3.6490    10.5250     0.1690 C.ar  1 <1>   0.0820 
 18 C        3.9860    11.4390    -0.8250 C.ar  1 <1>  -0.1440 
 19 C        3.8140    10.8720     1.5090 C.ar  1 <1>  -0.1500 
 20 C        4.4840    12.6840    -0.4720 C.ar  1 <1>  -0.1500 
 21 C        3.8140    11.0880    -2.2960 C.3   1 <1>  -0.0970 
 22 C        4.3120    12.1170     1.8490 C.ar  1 <1>  -0.1500 
 23 C        4.6480    13.0220     0.8600 C.ar  1 <1>  -0.1500 
 24 H        3.0380    -1.1310    -1.2940 H     1 <1>   0.0800 
 25 H        1.4160    -0.6820    -1.7350 H     1 <1>   0.0800 
 26 H        1.6090     3.6940     2.2230 H     1 <1>   0.0800 
 27 H        0.4270     3.5850     0.9440 H     1 <1>   0.0800 
 28 H        2.1640    -2.3470     0.6930 H     1 <1>   0.0800 
 29 H        1.4360    -2.9520    -0.7760 H     1 <1>   0.0800 
 30 H        0.5360    -1.8730     0.2630 H     1 <1>   0.0800 
 31 H        3.2330     4.3810     0.5360 H     1 <1>   0.4500 
 32 H        2.4630     6.0930     1.8410 H     1 <1>   0.0800 
 33 H        0.8980     6.0850     1.0750 H     1 <1>   0.0800 
 34 H        1.0140     4.8040    -1.3160 H     1 <1>   0.0800 
 35 H        2.0890     3.4290    -1.3980 H     1 <1>   0.0800 
 36 H        1.5630     7.3430    -0.6710 H     1 <1>   0.0800 
 37 H        2.6050     5.6180    -2.7490 H     1 <1>   0.0800 
 38 H        3.8940     4.6950    -2.0660 H     1 <1>   0.0800 
 39 H        4.3960     6.2960    -0.4640 H     1 <1>   0.0800 
 40 H        3.8010     7.3170    -1.7330 H     1 <1>   0.0800 
 41 H        3.7530     8.0970     1.2720 H     1 <1>   0.0800 
 42 H        2.0800     8.6590     1.3380 H     1 <1>   0.0800 
 43 H        3.5630    10.1960     2.3020 H     1 <1>   0.1500 
 44 H        4.7480    13.3980    -1.2320 H     1 <1>   0.1500 
 45 H        4.4170    10.2310    -2.5390 H     1 <1>   0.0800 
 46 H        4.1110    11.9050    -2.9280 H     1 <1>   0.0800 
 47 H        2.7840    10.8560    -2.4970 H     1 <1>   0.0800 
 48 H        4.4400    12.3830     2.8840 H     1 <1>   0.1500 
 49 H        5.0350    13.9910     1.1240 H     1 <1>   0.1500 
@<TRIPOS>BOND
  1   1   2  1   
  2   1   3  1   
  3   2   4  2   
  4   3   5  2   
  5   3   6  1   
  6   4   5  1   
  7   4   7  1   
  8   6   8  1   
  9   6  24  1   
 10   6  25  1   
 11   7   9  1   
 12   7  26  1   
 13   7  27  1   
 14   8  28  1   
 15   8  29  1   
 16   8  30  1   
 17   9  10  1   
 18   9  11  1   
 19   9  31  1   
 20  10  12  1   
 21  10  32  1   
 22  10  33  1   
 23  11  13  1   
 24  11  34  1   
 25  11  35  1   
 26  12  14  1   
 27  12  15  1   
 28  12  36  1   
 29  13  14  1   
 30  13  37  1   
 31  13  38  1   
 32  14  39  1   
 33  14  40  1   
 34  15  16  1   
 35  15  41  1   
 36  15  42  1   
 37  16  17  1   
 38  17  18  ar  
 39  17  19  ar  
 40  18  20  ar  
 41  18  21  1   
 42  19  22  ar  
 43  19  43  1   
 44  20  23  ar  
 45  20  44  1   
 46  21  45  1   
 47  21  46  1   
 48  21  47  1   
 49  22  23  ar  
 50  22  48  1   
 51  23  49  1   
@<TRIPOS>SUBSTRUCTURE
  1 ****  12 GROUP 4 **** **** 0

# MOE 2024.06 (io_trps.svl 2023.06)
