@<TRIPOS>MOLECULE
NONAME
53 55 1 0 0 
SMALL
USER_CHARGES


@<TRIPOS>ATOM
  1 S       -0.1320    -0.1370    -0.2470 S.o2  1 <1>   1.3330 
  2 O       -0.1160    -0.6710     1.0960 O.2   1 <1>  -0.6500 
  3 O       -0.8990     1.0550    -0.5300 O.2   1 <1>  -0.6500 
  4 N       -0.6610    -1.3690    -1.2870 N.am  1 <1>  -0.8490 
  5 C        1.5470     0.1510    -0.8080 C.3   1 <1>  -0.0550 
  6 C       -0.2790    -2.7130    -0.8390 C.3   1 <1>   0.1160 
  7 C       -2.1060    -1.3150    -1.5240 C.3   1 <1>   0.1160 
  8 C        2.2530     1.3090    -0.0730 C.3   1 <1>  -0.0800 
  9 C        3.5710     1.6580    -0.7430 C.3   1 <1>   0.2200 
 10 C        2.7100     0.9050     1.3330 C.3   1 <1>   0.1200 
 11 N        3.9350     3.0500    -0.3940 N.am  1 <1>  -0.7300 
 12 C        4.5360     0.6910    -0.0670 C.3   1 <1>   0.1200 
 13 O        4.0310     0.4630     1.2170 O.3   1 <1>  -0.5600 
 14 C        4.1520     4.0600    -1.2900 C.2   1 <1>   0.5440 
 15 O        4.0580     3.8020    -2.4750 O.2   1 <1>  -0.5700 
 16 C        4.5000     5.3920    -0.8370 C.ar  1 <1>   0.0860 
 17 C        4.1380     5.8690     0.4260 C.ar  1 <1>  -0.1500 
 18 C        5.2240     6.2650    -1.6500 C.ar  1 <1>  -0.1500 
 19 C        4.4870     7.1360     0.8510 C.ar  1 <1>  -0.1500 
 20 C        5.5730     7.5320    -1.2260 C.ar  1 <1>  -0.1500 
 21 C        5.2100     8.0040     0.0330 C.ar  1 <1>   0.1000 
 22 N        5.5730     9.2870     0.4450 N.pl3 1 <1>  -0.8380 
 23 C        5.7330    10.4050    -0.5180 C.3   1 <1>   0.2090 
 24 C        5.3200     9.8170     1.8070 C.3   1 <1>   0.2090 
 25 C        5.4070    11.6660     0.2720 C.3   1 <1>  -0.1600 
 26 C        5.6860    11.2930     1.7240 C.3   1 <1>  -0.1600 
 27 H        2.1210    -0.7490    -0.6980 H     1 <1>   0.0800 
 28 H        1.5060     0.3870    -1.8540 H     1 <1>   0.0800 
 29 H       -0.5570    -3.4430    -1.5810 H     1 <1>   0.0800 
 30 H       -0.7690    -2.9540     0.0900 H     1 <1>   0.0800 
 31 H        0.7860    -2.7680    -0.6920 H     1 <1>   0.0800 
 32 H       -2.4040    -2.1000    -2.1980 H     1 <1>   0.0800 
 33 H       -2.3720    -0.3710    -1.9710 H     1 <1>   0.0800 
 34 H       -2.6420    -1.4210    -0.5950 H     1 <1>   0.0800 
 35 H        1.5930     2.1600    -0.0470 H     1 <1>   0.0800 
 36 H        3.5520     1.5270    -1.8120 H     1 <1>   0.0800 
 37 H        2.1210     0.1210     1.7740 H     1 <1>   0.0800 
 38 H        2.7120     1.7580     1.9900 H     1 <1>   0.0800 
 39 H        4.1710     3.1920     0.5890 H     1 <1>   0.3700 
 40 H        5.5350     1.0840     0.0000 H     1 <1>   0.0800 
 41 H        4.5500    -0.2520    -0.5820 H     1 <1>   0.0800 
 42 H        3.5670     5.2420     1.0850 H     1 <1>   0.1500 
 43 H        5.5170     5.9350    -2.6320 H     1 <1>   0.1500 
 44 H        4.1890     7.4540     1.8300 H     1 <1>   0.1500 
 45 H        6.1450     8.1620    -1.8800 H     1 <1>   0.1500 
 46 H        6.7550    10.4280    -0.8560 H     1 <1>   0.0800 
 47 H        5.0720    10.2900    -1.3600 H     1 <1>   0.0800 
 48 H        4.2750     9.7120     2.0440 H     1 <1>   0.0800 
 49 H        5.9190     9.3000     2.5360 H     1 <1>   0.0800 
 50 H        5.9920    12.5060    -0.0570 H     1 <1>   0.0800 
 51 H        4.3620    11.8930     0.1470 H     1 <1>   0.0800 
 52 H        5.1200    11.8860     2.4190 H     1 <1>   0.0800 
 53 H        6.7350    11.4030     1.9360 H     1 <1>   0.0800 
@<TRIPOS>BOND
  1   1   2  2   
  2   1   3  2   
  3   1   4  am  
  4   1   5  1   
  5   4   6  1   
  6   4   7  1   
  7   5   8  1   
  8   5  27  1   
  9   5  28  1   
 10   6  29  1   
 11   6  30  1   
 12   6  31  1   
 13   7  32  1   
 14   7  33  1   
 15   7  34  1   
 16   8   9  1   
 17   8  10  1   
 18   8  35  1   
 19   9  11  1   
 20   9  12  1   
 21   9  36  1   
 22  10  13  1   
 23  10  37  1   
 24  10  38  1   
 25  11  14  am  
 26  11  39  1   
 27  12  13  1   
 28  12  40  1   
 29  12  41  1   
 30  14  15  2   
 31  14  16  1   
 32  16  17  ar  
 33  16  18  ar  
 34  17  19  ar  
 35  17  42  1   
 36  18  20  ar  
 37  18  43  1   
 38  19  21  ar  
 39  19  44  1   
 40  20  21  ar  
 41  20  45  1   
 42  21  22  1   
 43  22  23  1   
 44  22  24  1   
 45  23  25  1   
 46  23  46  1   
 47  23  47  1   
 48  24  26  1   
 49  24  48  1   
 50  24  49  1   
 51  25  26  1   
 52  25  50  1   
 53  25  51  1   
 54  26  52  1   
 55  26  53  1   
@<TRIPOS>SUBSTRUCTURE
  1 ****  11 GROUP 4 **** **** 0

# MOE 2024.06 (io_trps.svl 2023.06)
