@<TRIPOS>MOLECULE
NONAME
45 46 1 0 0 
SMALL
USER_CHARGES


@<TRIPOS>ATOM
  1 S        0.1970     0.9410     0.1150 S.o2  1 <1>   1.3330 
  2 O       -0.6480     1.9600    -0.4660 O.2   1 <1>  -0.6500 
  3 O       -0.1650     0.3520     1.3850 O.2   1 <1>  -0.6500 
  4 N        0.3400    -0.3150    -1.0200 N.am  1 <1>  -0.8490 
  5 C        1.8710     1.5680     0.2490 C.3   1 <1>  -0.0550 
  6 C       -0.7230    -1.3130    -0.8690 C.3   1 <1>   0.1160 
  7 C        0.3770     0.1610    -2.4080 C.3   1 <1>   0.1160 
  8 C        2.8990     0.5160     0.7190 C.3   1 <1>  -0.0800 
  9 C        4.3550     0.9510     0.6200 C.3   1 <1>   0.2200 
 10 C        2.7590     0.1030     2.1910 C.3   1 <1>   0.1200 
 11 N        4.5150     2.3640     1.0320 N.am  1 <1>  -0.7300 
 12 C        4.9880     0.0570     1.6760 C.3   1 <1>   0.1200 
 13 O        4.0550     0.0140     2.7100 O.3   1 <1>  -0.5600 
 14 C        4.6690     3.4280     0.2040 C.2   1 <1>   0.7150 
 15 O        4.5780     3.2420    -0.9940 O.2   1 <1>  -0.5700 
 16 C        4.9100     4.7340     0.7580 C.2   1 <1>  -0.2370 
 17 N        5.0650     5.9010     0.0250 N.pl3 1 <1>   0.0480 
 18 C        5.0320     5.0560     2.0870 C.2   1 <1>  -0.1500 
 19 C        5.2820     6.9140     0.9230 C.2   1 <1>  -0.3320 
 20 C        5.0130     6.0330    -1.4780 C.3   1 <1>   0.8560 
 21 C        5.2650     6.4200     2.1870 C.2   1 <1>  -0.1500 
 22 C        5.5100     8.3700     0.5450 C.3   1 <1>  -0.0600 
 23 F        6.1700     6.5100    -1.9310 F     1 <1>  -0.3400 
 24 F        4.1060     6.9440    -1.8260 F     1 <1>  -0.3400 
 25 H        2.1760     1.9390    -0.7090 H     1 <1>   0.0800 
 26 H        1.8750     2.3970     0.9290 H     1 <1>   0.0800 
 27 H       -0.6000    -2.1020    -1.5920 H     1 <1>   0.0800 
 28 H       -1.6890    -0.8550    -1.0040 H     1 <1>   0.0800 
 29 H       -0.6820    -1.7500     0.1150 H     1 <1>   0.0800 
 30 H        0.5470    -0.6650    -3.0770 H     1 <1>   0.0800 
 31 H        1.1750     0.8720    -2.5380 H     1 <1>   0.0800 
 32 H       -0.5550     0.6360    -2.6690 H     1 <1>   0.0800 
 33 H        2.7830    -0.3720     0.1210 H     1 <1>   0.0800 
 34 H        4.7750     0.7870    -0.3580 H     1 <1>   0.0800 
 35 H        2.2750    -0.8540     2.2920 H     1 <1>   0.0800 
 36 H        2.2240     0.8380     2.7680 H     1 <1>   0.0800 
 37 H        4.5310     2.5120     2.0420 H     1 <1>   0.3700 
 38 H        5.9240     0.4380     2.0440 H     1 <1>   0.0800 
 39 H        5.1180    -0.9450     1.3050 H     1 <1>   0.0800 
 40 H        4.9680     4.3980     2.9360 H     1 <1>   0.1500 
 41 H        4.7940     5.1300    -2.0090 H     1 <1>   0.0800 
 42 H        5.4050     6.9630     3.1070 H     1 <1>   0.1500 
 43 H        5.6770     8.9610     1.4280 H     1 <1>   0.0800 
 44 H        4.6520     8.7640     0.0310 H     1 <1>   0.0800 
 45 H        6.3730     8.4630    -0.0910 H     1 <1>   0.0800 
@<TRIPOS>BOND
  1   1   2  2   
  2   1   3  2   
  3   1   4  am  
  4   1   5  1   
  5   4   6  1   
  6   4   7  1   
  7   5   8  1   
  8   5  25  1   
  9   5  26  1   
 10   6  27  1   
 11   6  28  1   
 12   6  29  1   
 13   7  30  1   
 14   7  31  1   
 15   7  32  1   
 16   8   9  1   
 17   8  10  1   
 18   8  33  1   
 19   9  11  1   
 20   9  12  1   
 21   9  34  1   
 22  10  13  1   
 23  10  35  1   
 24  10  36  1   
 25  11  14  am  
 26  11  37  1   
 27  12  13  1   
 28  12  38  1   
 29  12  39  1   
 30  14  15  2   
 31  14  16  1   
 32  16  17  1   
 33  16  18  2   
 34  17  19  1   
 35  17  20  1   
 36  18  21  1   
 37  18  40  1   
 38  19  21  2   
 39  19  22  1   
 40  20  23  1   
 41  20  24  1   
 42  20  41  1   
 43  21  42  1   
 44  22  43  1   
 45  22  44  1   
 46  22  45  1   
@<TRIPOS>SUBSTRUCTURE
  1 ****  14 GROUP 4 **** **** 0

# MOE 2024.06 (io_trps.svl 2023.06)
