@<TRIPOS>MOLECULE
NONAME
53 55 1 0 0 
SMALL
USER_CHARGES


@<TRIPOS>ATOM
  1 CL       0.8930     1.2120    -1.9880 Cl    1 <1>  -0.1770 
  2 C        1.8840     1.5290    -0.5770 C.ar  1 <1>   0.1770 
  3 C        2.3030     0.5410     0.3260 C.ar  1 <1>   0.0830 
  4 C        2.2540     2.8480    -0.4020 C.ar  1 <1>  -0.1500 
  5 O        2.0290    -0.7870     0.2970 O.3   1 <1>  -0.3630 
  6 C        3.0940     0.9390     1.3930 C.ar  1 <1>  -0.1500 
  7 C        3.0570     3.2520     0.6640 C.ar  1 <1>   0.0860 
  8 C        1.1200    -1.4020    -0.5840 C.3   1 <1>   0.1200 
  9 C        3.4600     2.2610     1.5620 C.ar  1 <1>  -0.1500 
 10 C        3.4530     4.6410     0.8240 C.2   1 <1>   0.5440 
 11 C        0.9870    -2.8710    -0.1810 C.3   1 <1>  -0.1600 
 12 O        2.8360     5.5360     0.2770 O.2   1 <1>  -0.5700 
 13 N        4.5730     4.9970     1.5390 N.am  1 <1>  -0.6600 
 14 C        0.0080    -3.6130    -1.0980 C.3   1 <1>  -0.2400 
 15 C        5.9090     4.5330     1.1050 C.3   1 <1>   0.1400 
 16 C        4.7380     6.3620     2.1020 C.3   1 <1>   0.1400 
 17 C        6.5770     5.8060     0.5820 C.3   1 <1>   0.2000 
 18 C        5.9510     6.9770     1.3780 C.3   1 <1>   0.4230 
 19 O        7.9550     5.7900     0.7720 O.3   1 <1>  -0.6800 
 20 N        5.6260     8.1860     0.5290 N.4   1 <1>  -0.9590 
 21 C        4.5450     7.9390    -0.4810 C.3   1 <1>   0.3430 
 22 C        6.8730     8.7230    -0.0980 C.3   1 <1>   0.3430 
 23 C        4.2160     9.2350    -1.2230 C.3   1 <1>  -0.1600 
 24 C        6.5700    10.0360    -0.8220 C.3   1 <1>  -0.1600 
 25 C        5.4600     9.8630    -1.8650 C.3   1 <1>  -0.1600 
 26 H        1.9100     3.5810    -1.1110 H     1 <1>   0.1500 
 27 H        3.4200     0.1940     2.0990 H     1 <1>   0.1500 
 28 H        0.1710    -0.9010    -0.5010 H     1 <1>   0.0800 
 29 H        1.5080    -1.3210    -1.5840 H     1 <1>   0.0800 
 30 H        4.0650     2.5280     2.4110 H     1 <1>   0.1500 
 31 H        1.9520    -3.3430    -0.2380 H     1 <1>   0.0800 
 32 H        0.6340    -2.9280     0.8340 H     1 <1>   0.0800 
 33 H        0.3500    -3.5810    -2.1180 H     1 <1>   0.0800 
 34 H       -0.9700    -3.1680    -1.0450 H     1 <1>   0.0800 
 35 H       -0.0690    -4.6430    -0.7960 H     1 <1>   0.0800 
 36 H        6.4390     4.1370     1.9550 H     1 <1>   0.0800 
 37 H        5.8310     3.7850     0.3330 H     1 <1>   0.0800 
 38 H        3.8460     6.9530     1.9920 H     1 <1>   0.0800 
 39 H        4.9580     6.2690     3.1510 H     1 <1>   0.0800 
 40 H        6.3810     5.8990    -0.4710 H     1 <1>   0.0800 
 41 H        6.6570     7.2720     2.1370 H     1 <1>   0.0800 
 42 H        8.3750     5.0280     0.3170 H     1 <1>   0.4000 
 43 H        5.2730     8.9220     1.1520 H     1 <1>   0.4500 
 44 H        4.8590     7.1890    -1.1880 H     1 <1>   0.0800 
 45 H        3.6510     7.5860     0.0060 H     1 <1>   0.0800 
 46 H        7.6240     8.8930     0.6580 H     1 <1>   0.0800 
 47 H        7.2650     8.0080    -0.8030 H     1 <1>   0.0800 
 48 H        3.4890     9.0240    -1.9870 H     1 <1>   0.0800 
 49 H        3.7650     9.9320    -0.5380 H     1 <1>   0.0800 
 50 H        6.2880    10.7850    -0.1030 H     1 <1>   0.0800 
 51 H        7.4660    10.3810    -1.3100 H     1 <1>   0.0800 
 52 H        5.2070    10.8190    -2.2930 H     1 <1>   0.0800 
 53 H        5.8110     9.2290    -2.6630 H     1 <1>   0.0800 
@<TRIPOS>BOND
  1   1   2  1   
  2   2   3  ar  
  3   2   4  ar  
  4   3   5  1   
  5   3   6  ar  
  6   4   7  ar  
  7   4  26  1   
  8   5   8  1   
  9   6   9  ar  
 10   6  27  1   
 11   7   9  ar  
 12   7  10  1   
 13   8  11  1   
 14   8  28  1   
 15   8  29  1   
 16   9  30  1   
 17  10  12  2   
 18  10  13  am  
 19  11  14  1   
 20  11  31  1   
 21  11  32  1   
 22  13  15  1   
 23  13  16  1   
 24  14  33  1   
 25  14  34  1   
 26  14  35  1   
 27  15  17  1   
 28  15  36  1   
 29  15  37  1   
 30  16  18  1   
 31  16  38  1   
 32  16  39  1   
 33  17  18  1   
 34  17  19  1   
 35  17  40  1   
 36  18  20  1   
 37  18  41  1   
 38  19  42  1   
 39  20  21  1   
 40  20  22  1   
 41  20  43  1   
 42  21  23  1   
 43  21  44  1   
 44  21  45  1   
 45  22  24  1   
 46  22  46  1   
 47  22  47  1   
 48  23  25  1   
 49  23  48  1   
 50  23  49  1   
 51  24  25  1   
 52  24  50  1   
 53  24  51  1   
 54  25  52  1   
 55  25  53  1   
@<TRIPOS>SUBSTRUCTURE
  1 ****  10 GROUP 4 **** **** 0

# MOE 2024.06 (io_trps.svl 2023.06)
