@<TRIPOS>MOLECULE
NONAME
50 53 1 0 0 
SMALL
USER_CHARGES


@<TRIPOS>ATOM
  1 O       -0.6770     0.0780     0.5140 O.2   1 <1>  -0.5700 
  2 C       -1.7070     0.7240     0.5600 C.2   1 <1>   0.5440 
  3 N       -1.6220     2.0970     0.6750 N.am  1 <1>  -0.6600 
  4 C       -2.9740     0.0350     0.4780 C.ar  1 <1>   0.0860 
  5 C       -0.3480     2.7800     1.0570 C.3   1 <1>   0.1400 
  6 C       -2.6530     3.0400     0.1470 C.3   1 <1>   0.1400 
  7 C       -3.1440    -1.0230    -0.4110 C.ar  1 <1>   0.1600 
  8 C       -4.0680     0.3640     1.2720 C.ar  1 <1>  -0.1500 
  9 C        0.1250     3.7130    -0.0680 C.3   1 <1>   0.1200 
 10 C       -2.0450     3.9700    -0.9180 C.3   1 <1>   0.1200 
 11 N       -4.2530    -1.7180    -0.5900 N.ar  1 <1>  -0.6200 
 12 C       -5.2280    -0.3530     1.1040 C.ar  1 <1>  -0.1500 
 13 O       -0.8960     4.6020    -0.4300 O.3   1 <1>  -0.5600 
 14 C       -5.2960    -1.3780     0.1620 C.ar  1 <1>   0.4100 
 15 N       -6.4620    -2.0920    -0.0170 N.pl3 1 <1>  -0.8380 
 16 C       -6.4300    -3.4840    -0.5610 C.3   1 <1>   0.2090 
 17 C       -7.7660    -1.4090    -0.2170 C.3   1 <1>   0.2090 
 18 C       -7.5030    -4.3330     0.1300 C.3   1 <1>   0.1000 
 19 C       -8.8700    -2.2200     0.4700 C.3   1 <1>  -0.1600 
 20 C       -7.4690    -5.7530    -0.4200 C.2   1 <1>   0.0070 
 21 C       -8.8920    -3.6800    -0.0190 C.3   1 <1>  -0.1600 
 22 N       -6.6990    -6.7120     0.0930 N.pl3 1 <1>   0.0330 
 23 N       -8.1460    -6.1920    -1.4260 N.2   1 <1>  -0.3380 
 24 C       -6.9600    -7.7670    -0.6770 C.2   1 <1>   0.0060 
 25 N       -7.8210    -7.4770    -1.5880 N.2   1 <1>  -0.3380 
 26 C       -6.3200    -9.1270    -0.4950 C.3   1 <1>  -0.0600 
 27 H        0.4230     2.0600     1.2710 H     1 <1>   0.0800 
 28 H       -0.5110     3.3580     1.9500 H     1 <1>   0.0800 
 29 H       -3.0380     3.6350     0.9570 H     1 <1>   0.0800 
 30 H       -3.4730     2.5020    -0.2940 H     1 <1>   0.0800 
 31 H       -2.2960    -1.3040    -1.0120 H     1 <1>   0.1500 
 32 H       -3.9950     1.1530     2.0000 H     1 <1>   0.1500 
 33 H        0.4140     3.1430    -0.9340 H     1 <1>   0.0800 
 34 H        0.9670     4.2950     0.2610 H     1 <1>   0.0800 
 35 H       -2.7490     4.7360    -1.1890 H     1 <1>   0.0800 
 36 H       -1.7820     3.4130    -1.8010 H     1 <1>   0.0800 
 37 H       -6.0910    -0.1420     1.7050 H     1 <1>   0.1500 
 38 H       -5.4630    -3.9260    -0.3940 H     1 <1>   0.0800 
 39 H       -6.6080    -3.4580    -1.6230 H     1 <1>   0.0800 
 40 H       -7.9670    -1.3430    -1.2740 H     1 <1>   0.0800 
 41 H       -7.7390    -0.4090     0.1800 H     1 <1>   0.0800 
 42 H       -7.2620    -4.3730     1.1770 H     1 <1>   0.0800 
 43 H       -9.8220    -1.7620     0.2740 H     1 <1>   0.0800 
 44 H       -8.7050    -2.1950     1.5330 H     1 <1>   0.0800 
 45 H       -9.6190    -4.2450     0.5370 H     1 <1>   0.0800 
 46 H       -9.1830    -3.6980    -1.0560 H     1 <1>   0.0800 
 47 H       -6.0570    -6.6530     0.8850 H     1 <1>   0.2700 
 48 H       -6.5560    -9.5200     0.4770 H     1 <1>   0.0800 
 49 H       -5.2530    -9.0510    -0.6020 H     1 <1>   0.0800 
 50 H       -6.6930    -9.8060    -1.2410 H     1 <1>   0.0800 
@<TRIPOS>BOND
  1   1   2  2   
  2   2   3  am  
  3   2   4  1   
  4   3   5  1   
  5   3   6  1   
  6   4   7  ar  
  7   4   8  ar  
  8   5   9  1   
  9   5  27  1   
 10   5  28  1   
 11   6  10  1   
 12   6  29  1   
 13   6  30  1   
 14   7  11  ar  
 15   7  31  1   
 16   8  12  ar  
 17   8  32  1   
 18   9  13  1   
 19   9  33  1   
 20   9  34  1   
 21  10  13  1   
 22  10  35  1   
 23  10  36  1   
 24  11  14  ar  
 25  12  14  ar  
 26  12  37  1   
 27  14  15  1   
 28  15  16  1   
 29  15  17  1   
 30  16  18  1   
 31  16  38  1   
 32  16  39  1   
 33  17  19  1   
 34  17  40  1   
 35  17  41  1   
 36  18  20  1   
 37  18  21  1   
 38  18  42  1   
 39  19  21  1   
 40  19  43  1   
 41  19  44  1   
 42  20  22  1   
 43  20  23  2   
 44  21  45  1   
 45  21  46  1   
 46  22  24  1   
 47  22  47  1   
 48  23  25  1   
 49  24  25  2   
 50  24  26  1   
 51  26  48  1   
 52  26  49  1   
 53  26  50  1   
@<TRIPOS>SUBSTRUCTURE
  1 ****  14 GROUP 4 **** **** 0

# MOE 2024.06 (io_trps.svl 2023.06)
