@<TRIPOS>MOLECULE
NONAME
53 55 1 0 0 
SMALL
USER_CHARGES


@<TRIPOS>ATOM
  1 O       -1.1750     0.4940    -2.0870 O.2   1 <1>  -0.5700 
  2 C       -1.6370     1.3070    -1.3170 C.2   1 <1>   0.5690 
  3 N       -2.1800     0.8970    -0.1380 N.am  1 <1>  -0.7300 
  4 C       -1.6590     2.8170    -1.7040 C.3   1 <1>   0.3410 
  5 C       -2.2010    -0.4920     0.3680 C.3   1 <1>   0.2200 
  6 O       -1.4280     3.6900    -0.5960 O.3   1 <1>  -0.3630 
  7 C       -3.0640     3.1900    -2.1970 C.3   1 <1>  -0.2400 
  8 C       -0.6500     3.1670    -2.8130 C.3   1 <1>  -0.2400 
  9 C       -3.6410    -0.9250     0.5750 C.3   1 <1>  -0.0800 
 10 C       -1.6370    -0.5420     1.7880 C.3   1 <1>   0.1200 
 11 C       -0.5160     3.4160     0.3760 C.ar  1 <1>   0.0820 
 12 C       -3.9280    -0.3640     1.9680 C.3   1 <1>   0.1200 
 13 C       -3.7820    -2.4580     0.5230 C.3   1 <1>  -0.0160 
 14 O       -2.7190    -0.4040     2.6670 O.3   1 <1>  -0.5600 
 15 C       -0.9590     3.0860     1.6600 C.ar  1 <1>   0.0820 
 16 C        0.8430     3.5120     0.1150 C.ar  1 <1>  -0.1500 
 17 C       -5.2230    -2.8960     0.7370 C.ar  1 <1>  -0.1440 
 18 O       -2.3050     3.0240     1.8790 O.3   1 <1>  -0.3630 
 19 C       -0.0230     2.8200     2.6560 C.ar  1 <1>  -0.1500 
 20 C        1.7640     3.2440     1.1120 C.ar  1 <1>  -0.1500 
 21 C       -6.1740    -2.7760    -0.2560 C.ar  1 <1>  -0.1500 
 22 C       -5.6550    -3.4350     1.9320 C.ar  1 <1>  -0.1500 
 23 C       -2.8240     2.9410     3.1890 C.3   1 <1>   0.0400 
 24 C        1.3320     2.8960     2.3790 C.ar  1 <1>  -0.1500 
 25 C       -7.4750    -3.1850    -0.0110 C.ar  1 <1>   0.1600 
 26 C       -6.9790    -3.8130     2.0740 C.ar  1 <1>   0.1600 
 27 N       -7.9010    -3.6990     1.1310 N.ar  1 <1>  -0.6200 
 28 H       -2.4200     1.6230     0.5530 H     1 <1>   0.3700 
 29 H       -1.6580    -1.1400    -0.3010 H     1 <1>   0.0800 
 30 H       -3.3280     2.5870    -3.0480 H     1 <1>   0.0800 
 31 H       -3.1000     4.2260    -2.4830 H     1 <1>   0.0800 
 32 H       -3.7850     3.0120    -1.4200 H     1 <1>   0.0800 
 33 H       -0.9570     2.7160    -3.7400 H     1 <1>   0.0800 
 34 H        0.3190     2.7700    -2.5800 H     1 <1>   0.0800 
 35 H       -0.5900     4.2320    -2.9510 H     1 <1>   0.0800 
 36 H       -4.2920    -0.4880    -0.1620 H     1 <1>   0.0800 
 37 H       -0.9190     0.2370     1.9710 H     1 <1>   0.0800 
 38 H       -1.1870    -1.5000     1.9800 H     1 <1>   0.0800 
 39 H       -4.6720    -0.9200     2.5100 H     1 <1>   0.0800 
 40 H       -4.2300     0.6660     1.9000 H     1 <1>   0.0800 
 41 H       -3.1530    -2.9160     1.2670 H     1 <1>   0.0800 
 42 H       -3.4540    -2.8130    -0.4390 H     1 <1>   0.0800 
 43 H        1.1900     3.8090    -0.8560 H     1 <1>   0.1500 
 44 H       -0.3260     2.5490     3.6490 H     1 <1>   0.1500 
 45 H        2.8180     3.3120     0.9020 H     1 <1>   0.1500 
 46 H       -5.9160    -2.3690    -1.2170 H     1 <1>   0.1500 
 47 H       -4.9750    -3.5630     2.7550 H     1 <1>   0.1500 
 48 H       -3.8960     2.9980     3.1290 H     1 <1>   0.0800 
 49 H       -2.4470     3.7670     3.7670 H     1 <1>   0.0800 
 50 H       -2.5350     2.0020     3.6250 H     1 <1>   0.0800 
 51 H        2.0510     2.6870     3.1520 H     1 <1>   0.1500 
 52 H       -8.2030    -3.0850    -0.7980 H     1 <1>   0.1500 
 53 H       -7.2980    -4.2300     3.0140 H     1 <1>   0.1500 
@<TRIPOS>BOND
  1   1   2  2   
  2   2   3  am  
  3   2   4  1   
  4   3   5  1   
  5   3  28  1   
  6   4   6  1   
  7   4   7  1   
  8   4   8  1   
  9   5   9  1   
 10   5  10  1   
 11   5  29  1   
 12   6  11  1   
 13   7  30  1   
 14   7  31  1   
 15   7  32  1   
 16   8  33  1   
 17   8  34  1   
 18   8  35  1   
 19   9  12  1   
 20   9  13  1   
 21   9  36  1   
 22  10  14  1   
 23  10  37  1   
 24  10  38  1   
 25  11  15  ar  
 26  11  16  ar  
 27  12  14  1   
 28  12  39  1   
 29  12  40  1   
 30  13  17  1   
 31  13  41  1   
 32  13  42  1   
 33  15  18  1   
 34  15  19  ar  
 35  16  20  ar  
 36  16  43  1   
 37  17  21  ar  
 38  17  22  ar  
 39  18  23  1   
 40  19  24  ar  
 41  19  44  1   
 42  20  24  ar  
 43  20  45  1   
 44  21  25  ar  
 45  21  46  1   
 46  22  26  ar  
 47  22  47  1   
 48  23  48  1   
 49  23  49  1   
 50  23  50  1   
 51  24  51  1   
 52  25  27  ar  
 53  25  52  1   
 54  26  27  ar  
 55  26  53  1   
@<TRIPOS>SUBSTRUCTURE
  1 ****   3 GROUP 4 **** **** 0

# MOE 2024.06 (io_trps.svl 2023.06)
