@<TRIPOS>MOLECULE
NONAME
47 49 1 0 0 
SMALL
USER_CHARGES


@<TRIPOS>ATOM
  1 S       -0.3970     0.3430     0.3440 S.o2  1 <1>   1.0900 
  2 O        0.9460    -0.0520    -0.0100 O.2   1 <1>  -0.6500 
  3 O       -0.6620     1.4840     1.1870 O.2   1 <1>  -0.6500 
  4 C       -1.2270    -1.0950     0.9560 C.3   1 <1>  -0.0550 
  5 C       -1.3590     0.4330    -1.1590 C.3   1 <1>  -0.0550 
  6 C       -1.5500    -1.9000    -0.3000 C.3   1 <1>   0.1760 
  7 C       -2.0900    -0.9080    -1.3510 C.3   1 <1>  -0.1600 
  8 N       -2.5240    -2.9850    -0.0220 N.pl3 1 <1>   0.3140 
  9 N       -3.6490    -2.7440     0.6750 N.2   1 <1>  -0.7070 
 10 C       -2.4660    -4.2760    -0.4400 C.2   1 <1>  -0.3320 
 11 C       -4.2880    -3.8720     0.6850 C.2   1 <1>   0.1080 
 12 C       -3.5960    -4.8740    -0.0020 C.2   1 <1>   0.0630 
 13 C       -1.3250    -4.8650    -1.2600 C.3   1 <1>  -0.0600 
 14 C       -5.6190    -4.0160     1.3880 C.3   1 <1>  -0.0590 
 15 N       -3.9450    -6.2330    -0.2050 N.am  1 <1>  -0.4930 
 16 C       -5.1460    -6.7580    -0.5710 C.2   1 <1>   0.5690 
 17 O       -6.1340    -6.0950    -0.7740 O.2   1 <1>  -0.5700 
 18 C       -5.2530    -8.2590    -0.7280 C.3   1 <1>  -0.0990 
 19 C       -6.0420    -8.8690     0.4350 C.3   1 <1>   0.0200 
 20 C       -6.1420   -10.3760     0.2820 C.2   1 <1>  -0.1400 
 21 S       -4.7080   -11.3110     0.6120 S.3   1 <1>  -0.0800 
 22 C       -7.1310   -11.2180    -0.0640 C.2   1 <1>   0.0460 
 23 C       -5.6060   -12.7650     0.2450 C.2   1 <1>   0.2280 
 24 N       -6.8190   -12.5670    -0.0830 N.2   1 <1>  -0.5650 
 25 C       -8.5540   -10.8630    -0.4410 C.3   1 <1>  -0.0590 
 26 H       -2.1360    -0.8020     1.4490 H     1 <1>   0.0800 
 27 H       -0.6080    -1.6490     1.6340 H     1 <1>   0.0800 
 28 H       -0.7130     0.6330    -1.9940 H     1 <1>   0.0800 
 29 H       -2.0790     1.2260    -1.0900 H     1 <1>   0.0800 
 30 H       -0.6370    -2.3350    -0.6650 H     1 <1>   0.0800 
 31 H       -1.9460    -1.2900    -2.3470 H     1 <1>   0.0800 
 32 H       -3.1440    -0.7510    -1.1890 H     1 <1>   0.0800 
 33 H       -1.2050    -4.3150    -2.1760 H     1 <1>   0.0800 
 34 H       -1.5270    -5.8900    -1.5110 H     1 <1>   0.0800 
 35 H       -0.4060    -4.8260    -0.7030 H     1 <1>   0.0800 
 36 H       -5.6890    -3.3030     2.1880 H     1 <1>   0.0800 
 37 H       -5.7230    -5.0050     1.7910 H     1 <1>   0.0800 
 38 H       -6.4140    -3.8350     0.6880 H     1 <1>   0.0800 
 39 H       -3.1610    -6.8770    -0.1370 H     1 <1>   0.3700 
 40 H       -4.2730    -8.6950    -0.7790 H     1 <1>   0.0800 
 41 H       -5.7600    -8.4700    -1.6520 H     1 <1>   0.0800 
 42 H       -7.0290    -8.4400     0.4560 H     1 <1>   0.0800 
 43 H       -5.5650    -8.6370     1.3710 H     1 <1>   0.0800 
 44 H       -5.0800   -13.7000     0.3210 H     1 <1>   0.1500 
 45 H       -8.7060    -9.8000    -0.4280 H     1 <1>   0.0800 
 46 H       -9.2350   -11.3220     0.2520 H     1 <1>   0.0800 
 47 H       -8.7660   -11.2310    -1.4280 H     1 <1>   0.0800 
@<TRIPOS>BOND
  1   1   2  2   
  2   1   3  2   
  3   1   4  1   
  4   1   5  1   
  5   4   6  1   
  6   4  26  1   
  7   4  27  1   
  8   5   7  1   
  9   5  28  1   
 10   5  29  1   
 11   6   7  1   
 12   6   8  1   
 13   6  30  1   
 14   7  31  1   
 15   7  32  1   
 16   8   9  1   
 17   8  10  1   
 18   9  11  2   
 19  10  12  2   
 20  10  13  1   
 21  11  12  1   
 22  11  14  1   
 23  12  15  1   
 24  13  33  1   
 25  13  34  1   
 26  13  35  1   
 27  14  36  1   
 28  14  37  1   
 29  14  38  1   
 30  15  16  am  
 31  15  39  1   
 32  16  17  2   
 33  16  18  1   
 34  18  19  1   
 35  18  40  1   
 36  18  41  1   
 37  19  20  1   
 38  19  42  1   
 39  19  43  1   
 40  20  21  1   
 41  20  22  2   
 42  21  23  1   
 43  22  24  1   
 44  22  25  1   
 45  23  24  2   
 46  23  44  1   
 47  25  45  1   
 48  25  46  1   
 49  25  47  1   
@<TRIPOS>SUBSTRUCTURE
  1 ****  12 GROUP 4 **** **** 0

# MOE 2024.06 (io_trps.svl 2023.06)
