@<TRIPOS>MOLECULE
NONAME
42 44 1 0 0 
SMALL
USER_CHARGES


@<TRIPOS>ATOM
  1 O       -3.7570     1.9950    -1.3270 O.2   1 <1>  -0.5700 
  2 C       -2.9500     1.6180    -0.5130 C.2   1 <1>   0.5690 
  3 N       -2.4670     0.3480    -0.5380 N.am  1 <1>  -0.7300 
  4 C       -2.4980     2.6030     0.5510 C.3   1 <1>   0.1570 
  5 C       -2.7920    -0.6740    -1.5600 C.3   1 <1>   0.2200 
  6 N       -1.2190     2.1910     1.1630 N.pl3 1 <1>   0.0480 
  7 C       -3.7380    -1.7320    -1.0090 C.3   1 <1>  -0.0800 
  8 C       -1.5520    -1.5170    -1.8280 C.3   1 <1>   0.1200 
  9 C        0.0260     2.2360     0.6260 C.2   1 <1>   0.0060 
 10 C       -1.0530     1.6130     2.3670 C.2   1 <1>  -0.3020 
 11 C       -2.7910    -2.7140    -0.3120 C.3   1 <1>   0.1200 
 12 C       -4.8810    -1.2150    -0.1170 C.3   1 <1>  -0.0160 
 13 O       -1.5040    -2.4410    -0.7850 O.3   1 <1>  -0.5600 
 14 N        0.9370     1.7390     1.3940 N.2   1 <1>  -0.5650 
 15 C        0.3320     2.8030    -0.7470 C.3   1 <1>  -0.0600 
 16 C        0.2650     1.3480     2.4900 C.2   1 <1>   0.0770 
 17 C       -5.8140    -2.3480     0.2820 C.ar  1 <1>  -0.1430 
 18 C       -6.8200    -2.7860    -0.5540 C.ar  1 <1>  -0.1500 
 19 C       -5.7040    -2.9980     1.4950 C.ar  1 <1>  -0.1500 
 20 C       -7.6420    -3.8250    -0.1520 C.ar  1 <1>   0.1600 
 21 C       -6.5780    -4.0280     1.8010 C.ar  1 <1>   0.1600 
 22 N       -7.5440    -4.4580     1.0060 N.ar  1 <1>  -0.6200 
 23 H       -1.7490     0.0500     0.1360 H     1 <1>   0.3700 
 24 H       -3.2500     2.6640     1.3140 H     1 <1>   0.0800 
 25 H       -2.3780     3.5720     0.1080 H     1 <1>   0.0800 
 26 H       -3.1690    -0.2080    -2.4560 H     1 <1>   0.0800 
 27 H       -4.1740    -2.2490    -1.8460 H     1 <1>   0.0800 
 28 H       -0.6460    -0.9380    -1.8430 H     1 <1>   0.0800 
 29 H       -1.6540    -2.0650    -2.7490 H     1 <1>   0.0800 
 30 H       -1.8550     1.4250     3.0570 H     1 <1>   0.1500 
 31 H       -3.0390    -3.7380    -0.5370 H     1 <1>   0.0800 
 32 H       -2.7800    -2.5690     0.7540 H     1 <1>   0.0800 
 33 H       -5.4400    -0.4660    -0.6520 H     1 <1>   0.0800 
 34 H       -4.4870    -0.7520     0.7700 H     1 <1>   0.0800 
 35 H        1.3880     2.7380    -0.9370 H     1 <1>   0.0800 
 36 H        0.0380     3.8350    -0.7960 H     1 <1>   0.0800 
 37 H       -0.1870     2.2450    -1.5050 H     1 <1>   0.0800 
 38 H        0.7740     0.8890     3.3220 H     1 <1>   0.1500 
 39 H       -6.9740    -2.3280    -1.5150 H     1 <1>   0.1500 
 40 H       -4.9500    -2.7150     2.2060 H     1 <1>   0.1500 
 41 H       -8.4220    -4.1530    -0.8170 H     1 <1>   0.1500 
 42 H       -6.4780    -4.5240     2.7520 H     1 <1>   0.1500 
@<TRIPOS>BOND
  1   1   2  2   
  2   2   3  am  
  3   2   4  1   
  4   3   5  1   
  5   3  23  1   
  6   4   6  1   
  7   4  24  1   
  8   4  25  1   
  9   5   7  1   
 10   5   8  1   
 11   5  26  1   
 12   6   9  1   
 13   6  10  1   
 14   7  11  1   
 15   7  12  1   
 16   7  27  1   
 17   8  13  1   
 18   8  28  1   
 19   8  29  1   
 20   9  14  2   
 21   9  15  1   
 22  10  16  2   
 23  10  30  1   
 24  11  13  1   
 25  11  31  1   
 26  11  32  1   
 27  12  17  1   
 28  12  33  1   
 29  12  34  1   
 30  14  16  1   
 31  15  35  1   
 32  15  36  1   
 33  15  37  1   
 34  16  38  1   
 35  17  18  ar  
 36  17  19  ar  
 37  18  20  ar  
 38  18  39  1   
 39  19  21  ar  
 40  19  40  1   
 41  20  22  ar  
 42  20  41  1   
 43  21  22  ar  
 44  21  42  1   
@<TRIPOS>SUBSTRUCTURE
  1 ****   3 GROUP 4 **** **** 0

# MOE 2024.06 (io_trps.svl 2023.06)
