@<TRIPOS>MOLECULE
NONAME
42 45 1 0 0 
SMALL
USER_CHARGES


@<TRIPOS>ATOM
  1 S       -0.2420     0.2740    -1.3700 S.o2  1 <1>   1.4470 
  2 O        0.1010    -0.9550    -2.0540 O.2   1 <1>  -0.6500 
  3 O       -0.6340     1.4200    -2.1600 O.2   1 <1>  -0.6500 
  4 N       -1.5150    -0.1090    -0.3140 N.am  1 <1>  -0.8490 
  5 C        1.1180     0.7370    -0.2720 C.ar  1 <1>  -0.0090 
  6 C       -1.2410    -1.2860     0.5260 C.3   1 <1>   0.1960 
  7 C       -2.8420    -0.0910    -0.9610 C.3   1 <1>   0.1960 
  8 C        1.0050     1.8180     0.5920 C.ar  1 <1>   0.1900 
  9 C        2.3180     0.0250    -0.2530 C.ar  1 <1>  -0.1500 
 10 C       -2.4990    -1.7120     1.2790 C.3   1 <1>  -0.1600 
 11 C       -3.4300    -1.4950    -1.0850 C.3   1 <1>  -0.1600 
 12 F       -0.0980     2.5150     0.6130 F     1 <1>  -0.1900 
 13 C        2.0120     2.2080     1.4560 C.ar  1 <1>  -0.1500 
 14 C        3.3510     0.3860     0.6000 C.ar  1 <1>  -0.1500 
 15 C       -3.6250    -2.1130     0.3100 C.3   1 <1>   0.4600 
 16 C        3.1770     1.4710     1.4390 C.ar  1 <1>   0.1900 
 17 O       -4.8110    -1.5860     0.8720 O.3   1 <1>  -0.5600 
 18 C       -3.7570    -3.6310     0.2300 C.2   1 <1>  -0.1400 
 19 F        4.1480     1.8080     2.2430 F     1 <1>  -0.1900 
 20 C       -6.0430    -2.1760     0.5230 C.3   1 <1>   0.1200 
 21 S       -2.4320    -4.6740    -0.2630 S.3   1 <1>  -0.0800 
 22 C       -4.8470    -4.3540     0.5200 C.2   1 <1>  -0.1810 
 23 C       -6.1100    -3.6520     0.9610 C.3   1 <1>   0.0210 
 24 C       -3.4320    -6.1040    -0.0390 C.2   1 <1>  -0.1100 
 25 C       -4.6690    -5.7660     0.3740 C.2   1 <1>  -0.1500 
 26 H       -0.4640    -1.0480     1.2330 H     1 <1>   0.0800 
 27 H       -0.8990    -2.1080    -0.0830 H     1 <1>   0.0800 
 28 H       -2.7940     0.3640    -1.9370 H     1 <1>   0.0800 
 29 H       -3.5040     0.5120    -0.3610 H     1 <1>   0.0800 
 30 H        2.4450    -0.8190    -0.9120 H     1 <1>   0.1500 
 31 H       -2.8130    -0.8890     1.8960 H     1 <1>   0.0800 
 32 H       -2.2650    -2.5370     1.9270 H     1 <1>   0.0800 
 33 H       -2.7540    -2.0940    -1.6680 H     1 <1>   0.0800 
 34 H       -4.3600    -1.4610    -1.6180 H     1 <1>   0.0800 
 35 H        1.8910     3.0500     2.1120 H     1 <1>   0.1500 
 36 H        4.2780    -0.1620     0.6160 H     1 <1>   0.1500 
 37 H       -6.1710    -2.0990    -0.5420 H     1 <1>   0.0800 
 38 H       -6.8230    -1.6120     1.0030 H     1 <1>   0.0800 
 39 H       -6.9690    -4.1180     0.5120 H     1 <1>   0.0800 
 40 H       -6.2070    -3.7130     2.0300 H     1 <1>   0.0800 
 41 H       -2.9810    -7.0580    -0.2440 H     1 <1>   0.1500 
 42 H       -5.4690    -6.4550     0.5840 H     1 <1>   0.1500 
@<TRIPOS>BOND
  1   1   2  2   
  2   1   3  2   
  3   1   4  am  
  4   1   5  1   
  5   4   6  1   
  6   4   7  1   
  7   5   8  ar  
  8   5   9  ar  
  9   6  10  1   
 10   6  26  1   
 11   6  27  1   
 12   7  11  1   
 13   7  28  1   
 14   7  29  1   
 15   8  12  1   
 16   8  13  ar  
 17   9  14  ar  
 18   9  30  1   
 19  10  15  1   
 20  10  31  1   
 21  10  32  1   
 22  11  15  1   
 23  11  33  1   
 24  11  34  1   
 25  13  16  ar  
 26  13  35  1   
 27  14  16  ar  
 28  14  36  1   
 29  15  17  1   
 30  15  18  1   
 31  16  19  1   
 32  17  20  1   
 33  18  21  1   
 34  18  22  2   
 35  20  23  1   
 36  20  37  1   
 37  20  38  1   
 38  21  24  1   
 39  22  23  1   
 40  22  25  1   
 41  23  39  1   
 42  23  40  1   
 43  24  25  2   
 44  24  41  1   
 45  25  42  1   
@<TRIPOS>SUBSTRUCTURE
  1 ****   6 GROUP 4 **** **** 0

# MOE 2024.06 (io_trps.svl 2023.06)
