@<TRIPOS>MOLECULE
NONAME
46 48 1 0 0 
SMALL
USER_CHARGES


@<TRIPOS>ATOM
  1 O       -0.4760     0.2760     0.4670 O.2   1 <1>  -0.5700 
  2 C       -1.3960     1.0290     0.1740 C.2   1 <1>   0.6160 
  3 N       -2.7130     0.7100     0.4490 N.am  1 <1>  -0.4690 
  4 C       -1.1180     2.2820    -0.4220 C.2   1 <1>  -0.1360 
  5 C       -3.7180     1.6100     0.1480 C.2   1 <1>  -0.0410 
  6 C       -3.0610    -0.6070     1.0420 C.3   1 <1>   0.1400 
  7 C       -2.0920     3.2030    -0.6830 C.2   1 <1>   0.0140 
  8 C       -3.4340     2.8210    -0.3990 C.2   1 <1>  -0.1500 
  9 C       -3.3710    -1.6060    -0.0710 C.3   1 <1>  -0.2400 
 10 C       -1.8010     4.5160    -1.2190 C.2   1 <1>   0.6160 
 11 O       -2.3280     4.8690    -2.2520 O.2   1 <1>  -0.5700 
 12 N       -0.9120     5.3770    -0.6020 N.am  1 <1>  -0.6600 
 13 C       -0.4850     5.1980     0.8400 C.3   1 <1>   0.2200 
 14 C       -0.5250     6.6360    -1.3220 C.3   1 <1>   0.1400 
 15 C       -0.7940     6.4280     1.7100 C.3   1 <1>   0.1200 
 16 C        1.0130     4.8170     0.9350 C.3   1 <1>   0.3430 
 17 C        0.6600     7.4140    -0.7170 C.3   1 <1>  -0.0800 
 18 O        0.2540     7.3480     1.6560 O.3   1 <1>  -0.5600 
 19 N        1.7710     5.1430    -0.3240 N.4   1 <1>  -0.9590 
 20 C        0.2600     8.1850     0.5500 C.3   1 <1>   0.1200 
 21 C        1.9660     6.6160    -0.5220 C.3   1 <1>   0.3430 
 22 C        3.0690     4.4080    -0.3840 C.3   1 <1>   0.2630 
 23 H       -0.0900     2.4630    -0.6560 H     1 <1>   0.1500 
 24 H       -4.7330     1.3110     0.3590 H     1 <1>   0.1500 
 25 H       -2.2430    -0.9680     1.6420 H     1 <1>   0.0800 
 26 H       -3.9180    -0.4950     1.6840 H     1 <1>   0.0800 
 27 H       -4.2180     3.5210    -0.6410 H     1 <1>   0.1500 
 28 H       -2.5070    -1.7420    -0.6970 H     1 <1>   0.0800 
 29 H       -4.1960    -1.2620    -0.6690 H     1 <1>   0.0800 
 30 H       -3.6310    -2.5570     0.3580 H     1 <1>   0.0800 
 31 H       -1.0540     4.3980     1.2780 H     1 <1>   0.0800 
 32 H       -0.2840     6.3810    -2.3410 H     1 <1>   0.0800 
 33 H       -1.3890     7.2800    -1.3640 H     1 <1>   0.0800 
 34 H       -0.8740     6.1210     2.7380 H     1 <1>   0.0800 
 35 H       -1.7210     6.8980     1.4280 H     1 <1>   0.0800 
 36 H        1.0720     3.7570     1.1190 H     1 <1>   0.0800 
 37 H        1.4600     5.3140     1.7810 H     1 <1>   0.0800 
 38 H        0.8900     8.1840    -1.4330 H     1 <1>   0.0800 
 39 H        1.1520     4.8360    -1.0930 H     1 <1>   0.4500 
 40 H       -0.7070     8.6510     0.4500 H     1 <1>   0.0800 
 41 H        0.9820     8.9580     0.7500 H     1 <1>   0.0800 
 42 H        2.5060     7.0260     0.3160 H     1 <1>   0.0800 
 43 H        2.5740     6.7610    -1.4010 H     1 <1>   0.0800 
 44 H        3.7140     4.7220     0.4200 H     1 <1>   0.0800 
 45 H        3.5660     4.6010    -1.3210 H     1 <1>   0.0800 
 46 H        2.9030     3.3460    -0.2980 H     1 <1>   0.0800 
@<TRIPOS>BOND
  1   1   2  2   
  2   2   3  am  
  3   2   4  1   
  4   3   5  1   
  5   3   6  1   
  6   4   7  2   
  7   4  23  1   
  8   5   8  2   
  9   5  24  1   
 10   6   9  1   
 11   6  25  1   
 12   6  26  1   
 13   7   8  1   
 14   7  10  1   
 15   8  27  1   
 16   9  28  1   
 17   9  29  1   
 18   9  30  1   
 19  10  11  2   
 20  10  12  am  
 21  12  13  1   
 22  12  14  1   
 23  13  15  1   
 24  13  16  1   
 25  13  31  1   
 26  14  17  1   
 27  14  32  1   
 28  14  33  1   
 29  15  18  1   
 30  15  34  1   
 31  15  35  1   
 32  16  19  1   
 33  16  36  1   
 34  16  37  1   
 35  17  20  1   
 36  17  21  1   
 37  17  38  1   
 38  18  20  1   
 39  19  21  1   
 40  19  22  1   
 41  19  39  1   
 42  20  40  1   
 43  20  41  1   
 44  21  42  1   
 45  21  43  1   
 46  22  44  1   
 47  22  45  1   
 48  22  46  1   
@<TRIPOS>SUBSTRUCTURE
  1 ****  12 GROUP 4 **** **** 0

# MOE 2024.06 (io_trps.svl 2023.06)
