@<TRIPOS>MOLECULE
NONAME
38 40 1 0 0 
SMALL
USER_CHARGES


@<TRIPOS>ATOM
  1 O       -0.5370     0.4560     0.3510 O.2   1 <1>  -0.5700 
  2 C       -1.5810     1.0770     0.4720 C.2   1 <1>   0.5440 
  3 N       -2.7740     0.3740     0.3190 N.am  1 <1>  -0.6600 
  4 C       -1.4900     2.5170     0.7190 C.ar  1 <1>   0.3960 
  5 C       -4.0900     1.0750     0.1720 C.3   1 <1>   0.2200 
  6 C       -2.7680    -1.1240     0.2990 C.3   1 <1>   0.0600 
  7 N       -2.2960     3.1430     1.5980 N.ar  1 <1>  -0.6200 
  8 C       -0.5190     3.2310     0.0040 C.ar  1 <1>   0.1600 
  9 C       -5.3320     0.1850     0.0680 C.3   1 <1>  -0.1600 
 10 C       -4.1520     1.8940    -1.1160 C.3   1 <1>  -0.1600 
 11 C       -2.0670     4.4400     1.6890 C.ar  1 <1>   0.1600 
 12 N       -0.2970     4.5340     0.0850 N.ar  1 <1>  -0.6200 
 13 C       -6.4040     1.0910    -0.5490 C.3   1 <1>  -0.0800 
 14 C       -5.6440     2.1800    -1.3250 C.3   1 <1>  -0.0800 
 15 C       -1.1010     5.1160     0.9550 C.ar  1 <1>   0.1600 
 16 C       -7.2640     1.8190     0.4940 C.3   1 <1>  -0.1600 
 17 C       -6.0880     3.5260    -0.7330 C.3   1 <1>  -0.1600 
 18 C       -7.4140     3.2310    -0.0500 C.3   1 <1>   0.2000 
 19 O       -7.6220     4.1170     0.9830 O.3   1 <1>  -0.6800 
 20 H       -4.2400     1.7270     1.0150 H     1 <1>   0.0800 
 21 H       -3.4780    -1.5050     1.0110 H     1 <1>   0.0800 
 22 H       -1.8010    -1.5150     0.5600 H     1 <1>   0.0800 
 23 H       -3.0190    -1.4750    -0.6860 H     1 <1>   0.0800 
 24 H        0.1050     2.6750    -0.6750 H     1 <1>   0.1500 
 25 H       -5.1600    -0.6220    -0.6210 H     1 <1>   0.0800 
 26 H       -5.6280    -0.2100     1.0230 H     1 <1>   0.0800 
 27 H       -3.5760     2.8000    -1.0610 H     1 <1>   0.0800 
 28 H       -3.7920     1.2930    -1.9320 H     1 <1>   0.0800 
 29 H       -2.6730     5.0010     2.3790 H     1 <1>   0.1500 
 30 H       -7.0390     0.5320    -1.2160 H     1 <1>   0.0800 
 31 H       -5.8970     2.1400    -2.3720 H     1 <1>   0.0800 
 32 H       -0.9900     6.1770     1.0960 H     1 <1>   0.1500 
 33 H       -6.7550     1.8460     1.4420 H     1 <1>   0.0800 
 34 H       -8.2220     1.3450     0.6130 H     1 <1>   0.0800 
 35 H       -6.2040     4.2720    -1.4990 H     1 <1>   0.0800 
 36 H       -5.3730     3.8660    -0.0040 H     1 <1>   0.0800 
 37 H       -8.2340     3.2970    -0.7450 H     1 <1>   0.0800 
 38 H       -6.9030     4.0360     1.6360 H     1 <1>   0.4000 
@<TRIPOS>BOND
  1   1   2  2   
  2   2   3  am  
  3   2   4  1   
  4   3   5  1   
  5   3   6  1   
  6   4   7  ar  
  7   4   8  ar  
  8   5   9  1   
  9   5  10  1   
 10   5  20  1   
 11   6  21  1   
 12   6  22  1   
 13   6  23  1   
 14   7  11  ar  
 15   8  12  ar  
 16   8  24  1   
 17   9  13  1   
 18   9  25  1   
 19   9  26  1   
 20  10  14  1   
 21  10  27  1   
 22  10  28  1   
 23  11  15  ar  
 24  11  29  1   
 25  12  15  ar  
 26  13  14  1   
 27  13  16  1   
 28  13  30  1   
 29  14  17  1   
 30  14  31  1   
 31  15  32  1   
 32  16  18  1   
 33  16  33  1   
 34  16  34  1   
 35  17  18  1   
 36  17  35  1   
 37  17  36  1   
 38  18  19  1   
 39  18  37  1   
 40  19  38  1   
@<TRIPOS>SUBSTRUCTURE
  1 ****   5 GROUP 4 **** **** 0

# MOE 2024.06 (io_trps.svl 2023.06)
