@<TRIPOS>MOLECULE
NONAME
45 47 1 0 0 
SMALL
USER_CHARGES


@<TRIPOS>ATOM
  1 O        0.3890     0.3240    -1.3090 O.3   1 <1>  -0.5600 
  2 C        1.5850    -0.4120    -1.3580 C.3   1 <1>   0.2000 
  3 C        0.5540     1.7090    -1.3350 C.3   1 <1>   0.1200 
  4 C        2.5950     0.0370    -0.2530 C.3   1 <1>   0.3340 
  5 C        1.1540    -1.8900    -1.2650 C.3   1 <1>   0.1200 
  6 C        1.3720     2.1510    -0.1180 C.3   1 <1>   0.1100 
  7 N        2.7010     1.5150    -0.1270 N.3   1 <1>  -0.8100 
  8 C        4.0000    -0.4980    -0.5570 C.ar  1 <1>  -0.1440 
  9 O        2.2160    -2.7680    -1.0700 O.3   1 <1>  -0.6800 
 10 C        3.4460     1.8850     1.1010 C.3   1 <1>   0.2900 
 11 C        4.6090    -1.3980     0.3060 C.ar  1 <1>  -0.1500 
 12 C        4.6850    -0.0870    -1.6920 C.ar  1 <1>  -0.1500 
 13 C        3.7230     3.3810     1.1790 C.2   1 <1>   0.0070 
 14 C        5.8780    -1.8810     0.0370 C.ar  1 <1>  -0.1500 
 15 C        5.9540    -0.5690    -1.9640 C.ar  1 <1>  -0.1500 
 16 N        3.2170     4.1540     2.0900 N.2   1 <1>  -0.5650 
 17 N        4.5300     4.0290     0.3020 N.pl3 1 <1>   0.0480 
 18 C        6.5510    -1.4670    -1.0980 C.ar  1 <1>  -0.1500 
 19 C        3.7190     5.3670     1.7970 C.2   1 <1>   0.0770 
 20 C        4.5200     5.3100     0.7120 C.2   1 <1>  -0.3020 
 21 C        5.2570     3.4920    -0.8690 C.3   1 <1>   0.0960 
 22 C        6.5970     2.8780    -0.4520 C.3   1 <1>  -0.2400 
 23 H        2.0180    -0.2400    -2.3260 H     1 <1>   0.0800 
 24 H        1.0460     1.9890    -2.2500 H     1 <1>   0.0800 
 25 H       -0.4230     2.1570    -1.3080 H     1 <1>   0.0800 
 26 H        2.2500    -0.3700     0.6820 H     1 <1>   0.0800 
 27 H        0.6540    -2.1760    -2.1730 H     1 <1>   0.0800 
 28 H        0.4800    -2.0220    -0.4370 H     1 <1>   0.0800 
 29 H        0.8370     1.8950     0.7810 H     1 <1>   0.0800 
 30 H        1.4830     3.2220    -0.1470 H     1 <1>   0.0800 
 31 H        3.0090    -2.4900    -1.5760 H     1 <1>   0.4000 
 32 H        2.8830     1.5910     1.9710 H     1 <1>   0.0800 
 33 H        4.3900     1.3720     1.1340 H     1 <1>   0.0800 
 34 H        4.0950    -1.7340     1.1900 H     1 <1>   0.1500 
 35 H        4.2300     0.6180    -2.3660 H     1 <1>   0.1500 
 36 H        6.3410    -2.5810     0.7120 H     1 <1>   0.1500 
 37 H        6.4760    -0.2450    -2.8470 H     1 <1>   0.1500 
 38 H        7.5380    -1.8430    -1.3070 H     1 <1>   0.1500 
 39 H        3.4740     6.2300     2.3920 H     1 <1>   0.1500 
 40 H        5.0690     6.0940     0.2250 H     1 <1>   0.1500 
 41 H        4.6430     2.7540    -1.3510 H     1 <1>   0.0800 
 42 H        5.4230     4.2950    -1.5650 H     1 <1>   0.0800 
 43 H        6.4390     2.0420     0.2060 H     1 <1>   0.0800 
 44 H        7.2080     3.6130     0.0420 H     1 <1>   0.0800 
 45 H        7.1200     2.5260    -1.3220 H     1 <1>   0.0800 
@<TRIPOS>BOND
  1   1   2  1   
  2   1   3  1   
  3   2   4  1   
  4   2   5  1   
  5   2  23  1   
  6   3   6  1   
  7   3  24  1   
  8   3  25  1   
  9   4   7  1   
 10   4   8  1   
 11   4  26  1   
 12   5   9  1   
 13   5  27  1   
 14   5  28  1   
 15   6   7  1   
 16   6  29  1   
 17   6  30  1   
 18   7  10  1   
 19   8  11  ar  
 20   8  12  ar  
 21   9  31  1   
 22  10  13  1   
 23  10  32  1   
 24  10  33  1   
 25  11  14  ar  
 26  11  34  1   
 27  12  15  ar  
 28  12  35  1   
 29  13  16  2   
 30  13  17  1   
 31  14  18  ar  
 32  14  36  1   
 33  15  18  ar  
 34  15  37  1   
 35  16  19  1   
 36  17  20  1   
 37  17  21  1   
 38  18  38  1   
 39  19  20  2   
 40  19  39  1   
 41  20  40  1   
 42  21  22  1   
 43  21  41  1   
 44  21  42  1   
 45  22  43  1   
 46  22  44  1   
 47  22  45  1   
@<TRIPOS>SUBSTRUCTURE
  1 ****   7 GROUP 4 **** **** 0

# MOE 2024.06 (io_trps.svl 2023.06)
