@<TRIPOS>MOLECULE
NONAME
47 49 1 0 0 
SMALL
USER_CHARGES


@<TRIPOS>ATOM
  1 S       -0.7430    -0.3020     0.7200 S.3   1 <1>  -0.0800 
  2 C        0.6500    -1.2910     0.3330 C.2   1 <1>   0.1980 
  3 C        0.2200     1.1180     0.4350 C.2   1 <1>  -0.1100 
  4 N        1.6940    -0.6310     0.0280 N.2   1 <1>  -0.5650 
  5 C        0.4830    -2.7930     0.3890 C.3   1 <1>   0.0200 
  6 C        1.4570     0.7340     0.0850 C.2   1 <1>   0.0770 
  7 C       -0.2070    -3.2910    -0.8810 C.3   1 <1>   0.1400 
  8 N       -0.2880    -4.7740    -0.8790 N.am  1 <1>  -0.7300 
  9 C       -1.3270    -5.5000    -0.3670 C.2   1 <1>   0.7150 
 10 O       -2.2350    -4.9050     0.1840 O.2   1 <1>  -0.5700 
 11 C       -1.3430    -6.9440    -0.4780 C.2   1 <1>   0.0550 
 12 O       -2.2790    -7.6530     0.1430 O.3   1 <1>  -0.2800 
 13 C       -0.5380    -7.8150    -1.1500 C.2   1 <1>  -0.1500 
 14 C       -2.1110    -8.9290    -0.1110 C.2   1 <1>  -0.0400 
 15 C       -1.0370    -9.0980    -0.9130 C.2   1 <1>  -0.1500 
 16 C       -3.0840    -9.9310     0.4880 C.3   1 <1>   0.5230 
 17 N       -4.4740    -9.5860     0.0710 N.4   1 <1>  -0.9590 
 18 C       -5.0430    -8.4880     0.9120 C.3   1 <1>   0.3430 
 19 C       -5.3590   -10.7820     0.0380 C.3   1 <1>   0.3430 
 20 C       -6.4020    -8.0670     0.3550 C.3   1 <1>  -0.1600 
 21 C       -6.7230   -10.3980    -0.5360 C.3   1 <1>  -0.1600 
 22 C       -7.3710    -9.2550     0.2570 C.3   1 <1>  -0.0800 
 23 C       -8.6890    -8.8230    -0.3950 C.3   1 <1>  -0.2400 
 24 H       -0.2410     2.0800     0.5590 H     1 <1>   0.1500 
 25 H       -0.1000    -3.0560     1.2530 H     1 <1>   0.0800 
 26 H        1.4560    -3.2420     0.4730 H     1 <1>   0.0800 
 27 H        2.2750     1.3930    -0.1520 H     1 <1>   0.1500 
 28 H        0.3450    -2.9650    -1.7470 H     1 <1>   0.0800 
 29 H       -1.1990    -2.8730    -0.9390 H     1 <1>   0.0800 
 30 H        0.5080    -5.2650    -1.2860 H     1 <1>   0.3700 
 31 H        0.3210    -7.5910    -1.7600 H     1 <1>   0.1500 
 32 H       -0.6170   -10.0070    -1.3120 H     1 <1>   0.1500 
 33 H       -3.0030    -9.9220     1.5630 H     1 <1>   0.0800 
 34 H       -2.8240   -10.9150     0.1330 H     1 <1>   0.0800 
 35 H       -4.3990    -9.2070    -0.8820 H     1 <1>   0.4500 
 36 H       -4.3860    -7.6330     0.9160 H     1 <1>   0.0800 
 37 H       -5.1600    -8.8270     1.9290 H     1 <1>   0.0800 
 38 H       -5.4880   -11.1690     1.0370 H     1 <1>   0.0800 
 39 H       -4.9190   -11.5540    -0.5730 H     1 <1>   0.0800 
 40 H       -6.2620    -7.6160    -0.6120 H     1 <1>   0.0800 
 41 H       -6.8210    -7.3140     1.0000 H     1 <1>   0.0800 
 42 H       -7.3670   -11.2610    -0.5090 H     1 <1>   0.0800 
 43 H       -6.6060   -10.1160    -1.5680 H     1 <1>   0.0800 
 44 H       -7.5890    -9.6050     1.2540 H     1 <1>   0.0800 
 45 H       -8.5250    -8.4610    -1.3950 H     1 <1>   0.0800 
 46 H       -9.1520    -8.0390     0.1790 H     1 <1>   0.0800 
 47 H       -9.3740    -9.6520    -0.4410 H     1 <1>   0.0800 
@<TRIPOS>BOND
  1   1   2  1   
  2   1   3  1   
  3   2   4  2   
  4   2   5  1   
  5   3   6  2   
  6   3  24  1   
  7   4   6  1   
  8   5   7  1   
  9   5  25  1   
 10   5  26  1   
 11   6  27  1   
 12   7   8  1   
 13   7  28  1   
 14   7  29  1   
 15   8   9  am  
 16   8  30  1   
 17   9  10  2   
 18   9  11  1   
 19  11  12  1   
 20  11  13  2   
 21  12  14  1   
 22  13  15  1   
 23  13  31  1   
 24  14  15  2   
 25  14  16  1   
 26  15  32  1   
 27  16  17  1   
 28  16  33  1   
 29  16  34  1   
 30  17  18  1   
 31  17  19  1   
 32  17  35  1   
 33  18  20  1   
 34  18  36  1   
 35  18  37  1   
 36  19  21  1   
 37  19  38  1   
 38  19  39  1   
 39  20  22  1   
 40  20  40  1   
 41  20  41  1   
 42  21  22  1   
 43  21  42  1   
 44  21  43  1   
 45  22  23  1   
 46  22  44  1   
 47  23  45  1   
 48  23  46  1   
 49  23  47  1   
@<TRIPOS>SUBSTRUCTURE
  1 ****  10 GROUP 4 **** **** 0

# MOE 2024.06 (io_trps.svl 2023.06)
