@<TRIPOS>MOLECULE
Untitled Document
58 61 1 0 0 
SMALL
USER_CHARGES


@<TRIPOS>ATOM
  1 O        0.0990    -1.3210    -2.2380 O.3   1 <1>  -0.5600 
  2 C        0.6600    -1.3620    -0.9450 C.3   1 <1>   0.3440 
  3 C       -0.8670    -0.3310    -2.4630 C.3   1 <1>   0.2000 
  4 C        1.7490    -2.4360    -0.9110 C.ar  1 <1>  -0.1440 
  5 C       -0.4500    -1.6320     0.0990 C.3   1 <1>   0.2000 
  6 C       -2.0790    -0.6330    -1.5570 C.3   1 <1>   0.2000 
  7 C       -1.2060    -0.3440    -3.9610 C.3   1 <1>   0.1200 
  8 C        2.7600    -2.3430     0.0320 C.ar  1 <1>  -0.1500 
  9 C        1.7600    -3.5100    -1.7880 C.ar  1 <1>  -0.1500 
 10 O        0.0270    -1.4790     1.4020 O.3   1 <1>  -0.6800 
 11 C       -1.6230    -0.6600    -0.0940 C.3   1 <1>   0.2000 
 12 O       -3.0830     0.3240    -1.6990 O.3   1 <1>  -0.6800 
 13 O       -2.0690     0.7020    -4.2590 O.3   1 <1>  -0.6800 
 14 C        3.7730    -3.2890     0.1110 C.ar  1 <1>  -0.1430 
 15 C        2.7640    -4.4580    -1.7210 C.ar  1 <1>  -0.1500 
 16 O       -2.6900    -0.9840     0.7540 O.3   1 <1>  -0.6800 
 17 C        3.7780    -4.3590    -0.7810 C.ar  1 <1>  -0.1430 
 18 C        4.8430    -3.1060     1.1870 C.3   1 <1>   0.1270 
 19 C        4.8540    -5.4410    -0.7780 C.3   1 <1>  -0.0170 
 20 C        6.1690    -2.5850     0.6370 C.ar  1 <1>  -0.1430 
 21 C        4.4340    -6.6220     0.1020 C.3   1 <1>  -0.2400 
 22 C        7.3590    -2.9920     1.2250 C.ar  1 <1>  -0.1500 
 23 C        6.2110    -1.7040    -0.4370 C.ar  1 <1>  -0.1500 
 24 C        8.5720    -2.5300     0.7470 C.ar  1 <1>   0.0820 
 25 C        7.4230    -1.2420    -0.9250 C.ar  1 <1>  -0.1500 
 26 O        9.7160    -2.9380     1.3560 O.3   1 <1>  -0.3620 
 27 C        8.6060    -1.6560    -0.3410 C.ar  1 <1>   0.0820 
 28 C       10.8920    -2.2100     1.0580 C.3   1 <1>   0.1200 
 29 O        9.7830    -1.2050    -0.8450 O.3   1 <1>  -0.3620 
 30 C       10.9540    -1.8900    -0.4420 C.3   1 <1>   0.1200 
 31 H        1.1050    -0.4000    -0.7590 H     1 <1>   0.0800 
 32 H       -0.4260     0.6180    -2.2090 H     1 <1>   0.0800 
 33 H       -0.7810    -2.6490    -0.0120 H     1 <1>   0.0800 
 34 H       -2.4950    -1.5860    -1.8350 H     1 <1>   0.0800 
 35 H       -1.6930    -1.2640    -4.2310 H     1 <1>   0.0800 
 36 H       -0.3180    -0.2140    -4.5530 H     1 <1>   0.0800 
 37 H        2.7520    -1.5170     0.7220 H     1 <1>   0.1500 
 38 H        0.9900    -3.6150    -2.5320 H     1 <1>   0.1500 
 39 H       -0.7330    -1.4600     2.0210 H     1 <1>   0.4000 
 40 H       -1.2880     0.3290     0.1710 H     1 <1>   0.0800 
 41 H       -3.6540     0.2980    -0.8990 H     1 <1>   0.4000 
 42 H       -2.7380     0.7780    -3.5350 H     1 <1>   0.4000 
 43 H        2.7540    -5.2800    -2.4140 H     1 <1>   0.1500 
 44 H       -3.0170    -1.8900     0.5810 H     1 <1>   0.4000 
 45 H        4.4950    -2.4150     1.9340 H     1 <1>   0.0800 
 46 H        5.0000    -4.0440     1.6860 H     1 <1>   0.0800 
 47 H        5.0130    -5.7890    -1.7840 H     1 <1>   0.0800 
 48 H        5.7940    -5.0470    -0.4370 H     1 <1>   0.0800 
 49 H        3.5190    -7.0500    -0.2670 H     1 <1>   0.0800 
 50 H        4.2760    -6.2970     1.1140 H     1 <1>   0.0800 
 51 H        5.1990    -7.3780     0.0950 H     1 <1>   0.0800 
 52 H        7.3590    -3.6680     2.0610 H     1 <1>   0.1500 
 53 H        5.3000    -1.3760    -0.9070 H     1 <1>   0.1500 
 54 H        7.4540    -0.5650    -1.7590 H     1 <1>   0.1500 
 55 H       10.8780    -1.3020     1.6340 H     1 <1>   0.0800 
 56 H       11.7350    -2.8060     1.3570 H     1 <1>   0.0800 
 57 H       11.0240    -2.7970    -1.0150 H     1 <1>   0.0800 
 58 H       11.7970    -1.2630    -0.6650 H     1 <1>   0.0800 
@<TRIPOS>BOND
  1   1   2  1   
  2   1   3  1   
  3   2   4  1   
  4   2   5  1   
  5   2  31  1   
  6   3   6  1   
  7   3   7  1   
  8   3  32  1   
  9   4   8  ar  
 10   4   9  ar  
 11   5  10  1   
 12   5  11  1   
 13   5  33  1   
 14   6  11  1   
 15   6  12  1   
 16   6  34  1   
 17   7  13  1   
 18   7  35  1   
 19   7  36  1   
 20   8  14  ar  
 21   8  37  1   
 22   9  15  ar  
 23   9  38  1   
 24  10  39  1   
 25  11  16  1   
 26  11  40  1   
 27  12  41  1   
 28  13  42  1   
 29  14  17  ar  
 30  14  18  1   
 31  15  17  ar  
 32  15  43  1   
 33  16  44  1   
 34  17  19  1   
 35  18  20  1   
 36  18  45  1   
 37  18  46  1   
 38  19  21  1   
 39  19  47  1   
 40  19  48  1   
 41  20  22  ar  
 42  20  23  ar  
 43  21  49  1   
 44  21  50  1   
 45  21  51  1   
 46  22  24  ar  
 47  22  52  1   
 48  23  25  ar  
 49  23  53  1   
 50  24  26  1   
 51  24  27  ar  
 52  25  27  ar  
 53  25  54  1   
 54  26  28  1   
 55  27  29  1   
 56  28  30  1   
 57  28  55  1   
 58  28  56  1   
 59  29  30  1   
 60  30  57  1   
 61  30  58  1   
@<TRIPOS>SUBSTRUCTURE
  1 ****   8 GROUP 4 **** **** 0

# MOE 2024.06 (io_trps.svl 2023.06)
