@<TRIPOS>MOLECULE
NONAME
54 56 1 0 0 
SMALL
USER_CHARGES


@<TRIPOS>ATOM
  1 O        0.1550     0.8430    -1.0020 O.2   1 <1>  -0.5700 
  2 C        0.1960     2.0490    -0.9470 C.2   1 <1>   0.5690 
  3 N       -0.6740     2.7770    -0.1780 N.am  1 <1>  -0.6600 
  4 C        1.2460     2.7690    -1.7970 C.3   1 <1>   0.1810 
  5 C       -0.5980     4.2750    -0.1200 C.3   1 <1>   0.3640 
  6 C       -1.6520     2.1290     0.7450 C.3   1 <1>   0.0600 
  7 O        1.5080     4.0840    -1.3700 O.3   1 <1>  -0.5600 
  8 C       -2.0040     4.8700    -0.2930 C.ar  1 <1>  -0.1430 
  9 C        0.3490     4.8730    -1.1900 C.3   1 <1>   0.2610 
 10 C       -2.5750     5.7440     0.6330 C.ar  1 <1>  -0.1430 
 11 C       -2.7340     4.5210    -1.4260 C.ar  1 <1>  -0.1500 
 12 C        0.7270     6.3140    -0.8310 C.2   1 <1>   0.5690 
 13 C       -3.8410     6.2600     0.3960 C.ar  1 <1>  -0.1500 
 14 C       -1.8690     6.1640     1.9160 C.3   1 <1>  -0.0960 
 15 C       -3.9950     5.0380    -1.6520 C.ar  1 <1>  -0.1500 
 16 O        1.0840     6.5840     0.2950 O.2   1 <1>  -0.5700 
 17 N        0.6660     7.2810    -1.7920 N.am  1 <1>  -0.7300 
 18 C       -4.5490     5.9140    -0.7400 C.ar  1 <1>  -0.1500 
 19 C        0.9870     8.7060    -1.5490 C.3   1 <1>   0.1400 
 20 C        2.4870     8.9270    -1.7170 C.3   1 <1>  -0.0990 
 21 C        2.8760    10.2520    -1.1010 C.2   1 <1>   0.5690 
 22 O        2.9370    11.2130    -1.8300 O.2   1 <1>  -0.5700 
 23 N        3.1260    10.3430     0.2400 N.am  1 <1>  -0.6600 
 24 C        3.0190     9.2470     1.2350 C.3   1 <1>   0.1400 
 25 C        3.4780    11.6200     0.8940 C.3   1 <1>   0.1400 
 26 C        3.5290     9.8540     2.5380 C.3   1 <1>  -0.1600 
 27 C        3.3000    11.3550     2.3840 C.3   1 <1>  -0.1600 
 28 H        0.9160     2.8030    -2.8190 H     1 <1>   0.0800 
 29 H        2.1700     2.2240    -1.7510 H     1 <1>   0.0800 
 30 H       -0.2020     4.5290     0.8450 H     1 <1>   0.0800 
 31 H       -1.5410     2.5310     1.7360 H     1 <1>   0.0800 
 32 H       -1.4910     1.0660     0.7850 H     1 <1>   0.0800 
 33 H       -2.6560     2.3110     0.4020 H     1 <1>   0.0800 
 34 H       -0.1620     4.8950    -2.1340 H     1 <1>   0.0800 
 35 H       -2.3250     3.8300    -2.1420 H     1 <1>   0.1500 
 36 H       -4.2900     6.9400     1.0980 H     1 <1>   0.1500 
 37 H       -2.5360     6.7060     2.5630 H     1 <1>   0.0800 
 38 H       -1.0360     6.8040     1.6920 H     1 <1>   0.0800 
 39 H       -1.5210     5.3030     2.4560 H     1 <1>   0.0800 
 40 H       -4.5460     4.7580    -2.5330 H     1 <1>   0.1500 
 41 H        0.4440     7.0370    -2.7580 H     1 <1>   0.3700 
 42 H       -5.5300     6.3220    -0.9090 H     1 <1>   0.1500 
 43 H        0.4380     9.3320    -2.2320 H     1 <1>   0.0800 
 44 H        0.6880     8.9650    -0.5470 H     1 <1>   0.0800 
 45 H        2.7380     8.9390    -2.7610 H     1 <1>   0.0800 
 46 H        3.0420     8.1390    -1.2450 H     1 <1>   0.0800 
 47 H        1.9880     8.9560     1.3390 H     1 <1>   0.0800 
 48 H        3.6080     8.3940     0.9470 H     1 <1>   0.0800 
 49 H        4.5050    11.8550     0.6690 H     1 <1>   0.0800 
 50 H        2.8420    12.4180     0.5490 H     1 <1>   0.0800 
 51 H        3.0200     9.4450     3.3930 H     1 <1>   0.0800 
 52 H        4.5820     9.6520     2.6270 H     1 <1>   0.0800 
 53 H        3.9800    11.9390     2.9780 H     1 <1>   0.0800 
 54 H        2.2900    11.6020     2.6630 H     1 <1>   0.0800 
@<TRIPOS>BOND
  1   1   2  2   
  2   2   3  am  
  3   2   4  1   
  4   3   5  1   
  5   3   6  1   
  6   4   7  1   
  7   4  28  1   
  8   4  29  1   
  9   5   8  1   
 10   5   9  1   
 11   5  30  1   
 12   6  31  1   
 13   6  32  1   
 14   6  33  1   
 15   7   9  1   
 16   8  10  ar  
 17   8  11  ar  
 18   9  12  1   
 19   9  34  1   
 20  10  13  ar  
 21  10  14  1   
 22  11  15  ar  
 23  11  35  1   
 24  12  16  2   
 25  12  17  am  
 26  13  18  ar  
 27  13  36  1   
 28  14  37  1   
 29  14  38  1   
 30  14  39  1   
 31  15  18  ar  
 32  15  40  1   
 33  17  19  1   
 34  17  41  1   
 35  18  42  1   
 36  19  20  1   
 37  19  43  1   
 38  19  44  1   
 39  20  21  1   
 40  20  45  1   
 41  20  46  1   
 42  21  22  2   
 43  21  23  am  
 44  23  24  1   
 45  23  25  1   
 46  24  26  1   
 47  24  47  1   
 48  24  48  1   
 49  25  27  1   
 50  25  49  1   
 51  25  50  1   
 52  26  27  1   
 53  26  51  1   
 54  26  52  1   
 55  27  53  1   
 56  27  54  1   
@<TRIPOS>SUBSTRUCTURE
  1 ****  12 GROUP 4 **** **** 0

# MOE 2024.06 (io_trps.svl 2023.06)
