@<TRIPOS>MOLECULE
NONAME
46 49 1 0 0 
SMALL
USER_CHARGES


@<TRIPOS>ATOM
  1 O        0.4110    -0.0710     0.6760 O.3   1 <1>  -0.0190 
  2 N        1.1320     0.9950     0.7230 N.2   1 <1>  -0.4100 
  3 C        1.1500    -1.0990     0.3590 C.2   1 <1>   0.4250 
  4 C        2.3080     0.5740     0.4290 C.2   1 <1>   0.5990 
  5 N        2.3710    -0.7410     0.1850 N.2   1 <1>  -0.5650 
  6 C        0.5760    -2.4230     0.2410 C.ar  1 <1>   0.0530 
  7 N        3.4510     1.3790     0.3560 N.pl3 1 <1>  -0.8210 
  8 C       -0.7890    -2.6550     0.4330 C.ar  1 <1>  -0.1500 
  9 C        1.3720    -3.5250    -0.0730 C.ar  1 <1>  -0.1500 
 10 C        3.2230     2.8460     0.2360 C.3   1 <1>   0.2090 
 11 C        4.6030     0.8600    -0.4340 C.3   1 <1>   0.2090 
 12 C       -1.3290    -3.9230     0.3160 C.ar  1 <1>  -0.1500 
 13 C        0.8380    -4.7950    -0.1910 C.ar  1 <1>  -0.1500 
 14 C        4.4930     3.6060     0.6160 C.3   1 <1>  -0.1600 
 15 C        5.8780     1.6170    -0.0580 C.3   1 <1>  -0.1600 
 16 C       -0.5160    -4.9970     0.0040 C.ar  1 <1>  -0.1500 
 17 C        5.6950     3.1330    -0.2140 C.3   1 <1>   0.1000 
 18 C        6.9620     3.8860     0.1670 C.2   1 <1>   0.2980 
 19 O        7.4190     3.7950     1.3920 O.3   1 <1>  -0.0190 
 20 N        7.6440     4.6200    -0.6180 N.2   1 <1>  -0.5650 
 21 N        8.4840     4.5360     1.3850 N.2   1 <1>  -0.4100 
 22 C        8.6060     5.0120     0.2080 C.2   1 <1>   0.3350 
 23 C        9.7160     5.9480    -0.2740 C.3   1 <1>   0.1010 
 24 C       11.0290     5.7510     0.5000 C.3   1 <1>  -0.2400 
 25 C        9.2660     7.4130    -0.1810 C.3   1 <1>  -0.2400 
 26 H       -1.4410    -1.8340     0.6760 H     1 <1>   0.1500 
 27 H        2.4280    -3.3830    -0.2260 H     1 <1>   0.1500 
 28 H        2.4270     3.1540     0.8920 H     1 <1>   0.0800 
 29 H        2.9370     3.0790    -0.7760 H     1 <1>   0.0800 
 30 H        4.3950     0.9760    -1.4840 H     1 <1>   0.0800 
 31 H        4.7550    -0.1870    -0.2320 H     1 <1>   0.0800 
 32 H       -2.3840    -4.0760     0.4690 H     1 <1>   0.1500 
 33 H        1.4760    -5.6280    -0.4330 H     1 <1>   0.1500 
 34 H        4.6850     3.4520     1.6640 H     1 <1>   0.0800 
 35 H        4.3380     4.6580     0.4600 H     1 <1>   0.0800 
 36 H        6.6860     1.2840    -0.6840 H     1 <1>   0.0800 
 37 H        6.1300     1.3780     0.9610 H     1 <1>   0.0800 
 38 H       -0.9340    -5.9840    -0.0870 H     1 <1>   0.1500 
 39 H        5.4930     3.3430    -1.2500 H     1 <1>   0.0800 
 40 H        9.9040     5.7170    -1.3080 H     1 <1>   0.0800 
 41 H       10.8930     5.9950     1.5390 H     1 <1>   0.0800 
 42 H       11.8030     6.3780     0.0950 H     1 <1>   0.0800 
 43 H       11.3450     4.7250     0.4290 H     1 <1>   0.0800 
 44 H        9.0570     7.6730     0.8420 H     1 <1>   0.0800 
 45 H        8.3700     7.5570    -0.7600 H     1 <1>   0.0800 
 46 H       10.0290     8.0680    -0.5600 H     1 <1>   0.0800 
@<TRIPOS>BOND
  1   1   2  1   
  2   1   3  1   
  3   2   4  2   
  4   3   5  2   
  5   3   6  1   
  6   4   5  1   
  7   4   7  1   
  8   6   8  ar  
  9   6   9  ar  
 10   7  10  1   
 11   7  11  1   
 12   8  12  ar  
 13   8  26  1   
 14   9  13  ar  
 15   9  27  1   
 16  10  14  1   
 17  10  28  1   
 18  10  29  1   
 19  11  15  1   
 20  11  30  1   
 21  11  31  1   
 22  12  16  ar  
 23  12  32  1   
 24  13  16  ar  
 25  13  33  1   
 26  14  17  1   
 27  14  34  1   
 28  14  35  1   
 29  15  17  1   
 30  15  36  1   
 31  15  37  1   
 32  16  38  1   
 33  17  18  1   
 34  17  39  1   
 35  18  19  1   
 36  18  20  2   
 37  19  21  1   
 38  20  22  1   
 39  21  22  2   
 40  22  23  1   
 41  23  24  1   
 42  23  25  1   
 43  23  40  1   
 44  24  41  1   
 45  24  42  1   
 46  24  43  1   
 47  25  44  1   
 48  25  45  1   
 49  25  46  1   
@<TRIPOS>SUBSTRUCTURE
  1 ****   7 GROUP 4 **** **** 0

# MOE 2024.06 (io_trps.svl 2023.06)
