@<TRIPOS>MOLECULE
NONAME
55 57 1 0 0 
SMALL
USER_CHARGES


@<TRIPOS>ATOM
  1 O        0.4360    -0.2480     0.1920 O.2   1 <1>  -0.5700 
  2 C        1.4130    -0.1830    -0.5090 C.2   1 <1>   0.5690 
  3 N        2.1010    -1.2710    -0.9390 N.am  1 <1>  -0.6600 
  4 C        1.9860     1.1660    -0.8760 C.3   1 <1>  -0.0190 
  5 C        3.3840    -1.0810    -1.6660 C.3   1 <1>   0.2200 
  6 C        1.7280    -2.6710    -0.5340 C.3   1 <1>   0.2010 
  7 C        3.1240     1.4170     0.1260 C.3   1 <1>   0.3430 
  8 C        2.3850     1.2000    -2.3700 C.3   1 <1>  -0.1600 
  9 C        4.4890    -0.6360    -0.6680 C.3   1 <1>   0.3430 
 10 C        3.1480    -0.0730    -2.8100 C.3   1 <1>  -0.1600 
 11 C        2.6370    -3.2210     0.5740 C.2   1 <1>   0.5690 
 12 N        4.4790     0.8090    -0.1970 N.4   1 <1>  -0.9590 
 13 O        3.7920    -3.4310     0.2700 O.2   1 <1>  -0.5700 
 14 N        2.1810    -3.4330     1.8540 N.am  1 <1>  -0.6600 
 15 C        5.3390     1.6710    -1.0670 C.3   1 <1>   0.4860 
 16 C        3.0140    -4.1320     2.8740 C.3   1 <1>   0.0600 
 17 C        0.8260    -3.0440     2.3420 C.3   1 <1>   0.0600 
 18 C        5.5040     3.0320    -0.4370 C.ar  1 <1>  -0.1430 
 19 C        4.8280     4.1290    -0.9180 C.ar  1 <1>   0.1600 
 20 C        6.3250     3.2360     0.6470 C.ar  1 <1>   0.1600 
 21 N        4.9240     5.3040    -0.3580 N.ar  1 <1>  -0.6200 
 22 N        6.4390     4.4030     1.2210 N.ar  1 <1>  -0.6200 
 23 C        5.7300     5.4040     0.6980 C.ar  1 <1>   0.7200 
 24 N        5.8360     6.6380     1.3020 N.pl3 1 <1>  -0.8380 
 25 C        6.9180     6.9580     2.2770 C.3   1 <1>   0.1290 
 26 C        4.9370     7.7750     0.9570 C.3   1 <1>   0.1290 
 27 H        1.2220     1.9030    -0.6990 H     1 <1>   0.0800 
 28 H        3.6820    -2.0260    -2.0910 H     1 <1>   0.0800 
 29 H        0.6990    -2.7010    -0.2270 H     1 <1>   0.0800 
 30 H        1.8150    -3.3170    -1.3890 H     1 <1>   0.0800 
 31 H        2.7950     1.0360     1.0800 H     1 <1>   0.0800 
 32 H        3.2330     2.4820     0.2490 H     1 <1>   0.0800 
 33 H        1.4750     1.2510    -2.9480 H     1 <1>   0.0800 
 34 H        2.9390     2.0910    -2.6000 H     1 <1>   0.0800 
 35 H        5.4430    -0.8450    -1.1220 H     1 <1>   0.0800 
 36 H        4.4170    -1.2780     0.1930 H     1 <1>   0.0800 
 37 H        4.0820     0.1850    -3.2740 H     1 <1>   0.0800 
 38 H        2.5650    -0.5730    -3.5660 H     1 <1>   0.0800 
 39 H        4.9660     0.7920     0.7100 H     1 <1>   0.4500 
 40 H        6.3110     1.2190    -1.1850 H     1 <1>   0.0800 
 41 H        4.9020     1.7750    -2.0440 H     1 <1>   0.0800 
 42 H        2.4720    -4.9710     3.2750 H     1 <1>   0.0800 
 43 H        3.2570    -3.4540     3.6740 H     1 <1>   0.0800 
 44 H        3.9300    -4.4970     2.4420 H     1 <1>   0.0800 
 45 H        0.8460    -2.8860     3.4060 H     1 <1>   0.0800 
 46 H        0.1200    -3.8260     2.1210 H     1 <1>   0.0800 
 47 H        0.5000    -2.1300     1.8780 H     1 <1>   0.0800 
 48 H        4.1840     4.0520    -1.7780 H     1 <1>   0.1500 
 49 H        6.9060     2.4310     1.0650 H     1 <1>   0.1500 
 50 H        7.2280     7.9820     2.1620 H     1 <1>   0.0800 
 51 H        7.7760     6.3290     2.1180 H     1 <1>   0.0800 
 52 H        6.5550     6.8090     3.2790 H     1 <1>   0.0800 
 53 H        4.7930     8.4060     1.8170 H     1 <1>   0.0800 
 54 H        3.9730     7.4160     0.6390 H     1 <1>   0.0800 
 55 H        5.3750     8.3530     0.1620 H     1 <1>   0.0800 
@<TRIPOS>BOND
  1   1   2  2   
  2   2   3  am  
  3   2   4  1   
  4   3   5  1   
  5   3   6  1   
  6   4   7  1   
  7   4   8  1   
  8   4  27  1   
  9   5   9  1   
 10   5  10  1   
 11   5  28  1   
 12   6  11  1   
 13   6  29  1   
 14   6  30  1   
 15   7  12  1   
 16   7  31  1   
 17   7  32  1   
 18   8  10  1   
 19   8  33  1   
 20   8  34  1   
 21   9  12  1   
 22   9  35  1   
 23   9  36  1   
 24  10  37  1   
 25  10  38  1   
 26  11  13  2   
 27  11  14  am  
 28  12  15  1   
 29  12  39  1   
 30  14  16  1   
 31  14  17  1   
 32  15  18  1   
 33  15  40  1   
 34  15  41  1   
 35  16  42  1   
 36  16  43  1   
 37  16  44  1   
 38  17  45  1   
 39  17  46  1   
 40  17  47  1   
 41  18  19  ar  
 42  18  20  ar  
 43  19  21  ar  
 44  19  48  1   
 45  20  22  ar  
 46  20  49  1   
 47  21  23  ar  
 48  22  23  ar  
 49  23  24  1   
 50  24  25  1   
 51  24  26  1   
 52  25  50  1   
 53  25  51  1   
 54  25  52  1   
 55  26  53  1   
 56  26  54  1   
 57  26  55  1   
@<TRIPOS>SUBSTRUCTURE
  1 ****   7 GROUP 4 **** **** 0

# MOE 2024.06 (io_trps.svl 2023.06)
