@<TRIPOS>MOLECULE
NONAME
57 59 1 0 0 
SMALL
USER_CHARGES


@<TRIPOS>ATOM
  1 O        1.2760     0.2300    -0.3800 O.2   1 <1>  -0.5700 
  2 C        2.0440    -0.4640     0.2430 C.2   1 <1>   0.5690 
  3 N        3.1480     0.0630     0.8610 N.am  1 <1>  -0.6600 
  4 C        1.7620    -1.9530     0.3220 C.3   1 <1>  -0.0990 
  5 C        4.1540    -0.7100     1.6600 C.3   1 <1>   0.1400 
  6 C        3.4570     1.5140     0.7520 C.3   1 <1>   0.1400 
  7 C        0.6790    -2.3970    -0.6710 C.3   1 <1>   0.0960 
  8 C        5.4440    -0.9750     0.8680 C.3   1 <1>   0.1400 
  9 C        4.2450     1.8190    -0.5290 C.3   1 <1>  -0.1600 
 10 N        0.4320    -3.8460    -0.5570 N.pl3 1 <1>   0.3140 
 11 N        6.0380     0.2840     0.3130 N.am  1 <1>  -0.6600 
 12 C        5.3350     0.8010    -0.8950 C.3   1 <1>   0.1400 
 13 N        1.3960    -4.7570    -0.7910 N.2   1 <1>  -0.7070 
 14 C       -0.7270    -4.4410    -0.2110 C.2   1 <1>  -0.3020 
 15 C        7.0970     0.8910     0.9340 C.2   1 <1>   0.5690 
 16 C        0.8250    -5.9060    -0.5930 C.2   1 <1>   0.1390 
 17 C       -0.5080    -5.7730    -0.2250 C.2   1 <1>  -0.1500 
 18 O        7.5320     0.4770     1.9830 O.2   1 <1>  -0.5700 
 19 C        7.7480     2.1190     0.3120 C.3   1 <1>  -0.0990 
 20 C        8.9670     2.6360     1.0970 C.3   1 <1>  -0.0220 
 21 C        9.5810     3.8620     0.4130 C.2   1 <1>  -0.1240 
 22 C        9.1480     5.1260     0.6850 C.2   1 <1>  -0.0290 
 23 C       10.6390     3.7060    -0.5400 C.2   1 <1>   0.3750 
 24 N        9.7710     6.1480     0.0320 N.am  1 <1>  -0.5390 
 25 C        8.0400     5.5490     1.6370 C.3   1 <1>  -0.1020 
 26 N       11.2010     4.6880    -1.1480 N.2   1 <1>  -0.6610 
 27 C       11.1740     2.3290    -0.8940 C.3   1 <1>  -0.1790 
 28 C       10.7730     5.9510    -0.8640 C.2   1 <1>   0.8410 
 29 O       11.2720     6.9190    -1.4020 O.2   1 <1>  -0.5700 
 30 H        1.4470    -2.1880     1.3210 H     1 <1>   0.0800 
 31 H        2.6670    -2.4880     0.1000 H     1 <1>   0.0800 
 32 H        3.7410    -1.6490     1.9820 H     1 <1>   0.0800 
 33 H        4.4030    -0.1590     2.5500 H     1 <1>   0.0800 
 34 H        4.0330     1.8210     1.6090 H     1 <1>   0.0800 
 35 H        2.5420     2.0820     0.7580 H     1 <1>   0.0800 
 36 H        0.9930    -2.1860    -1.6770 H     1 <1>   0.0800 
 37 H       -0.2390    -1.8710    -0.4810 H     1 <1>   0.0800 
 38 H        5.2370    -1.6590     0.0650 H     1 <1>   0.0800 
 39 H        6.1540    -1.4580     1.5180 H     1 <1>   0.0800 
 40 H        4.6850     2.7940    -0.4330 H     1 <1>   0.0800 
 41 H        3.5500     1.8760    -1.3480 H     1 <1>   0.0800 
 42 H        6.0360     1.2440    -1.5800 H     1 <1>   0.0800 
 43 H        4.8730    -0.0260    -1.4090 H     1 <1>   0.0800 
 44 H       -1.6230    -3.8960     0.0200 H     1 <1>   0.1500 
 45 H        1.3350    -6.8480    -0.7030 H     1 <1>   0.1500 
 46 H       -1.1900    -6.5750    -0.0080 H     1 <1>   0.1500 
 47 H        7.0160     2.9010     0.2540 H     1 <1>   0.0800 
 48 H        8.0550     1.8710    -0.6860 H     1 <1>   0.0800 
 49 H        9.6910     1.8480     1.2020 H     1 <1>   0.0800 
 50 H        8.6680     2.8830     2.1000 H     1 <1>   0.0800 
 51 H        9.5360     7.1290     0.1710 H     1 <1>   0.3700 
 52 H        7.3610     6.2140     1.1330 H     1 <1>   0.0800 
 53 H        8.4640     6.0660     2.4790 H     1 <1>   0.0800 
 54 H        7.4690     4.7170     2.0020 H     1 <1>   0.0800 
 55 H       10.3800     1.6860    -1.2210 H     1 <1>   0.0800 
 56 H       11.6640     1.8960    -0.0420 H     1 <1>   0.0800 
 57 H       11.8930     2.4030    -1.6910 H     1 <1>   0.0800 
@<TRIPOS>BOND
  1   1   2  2   
  2   2   3  am  
  3   2   4  1   
  4   3   5  1   
  5   3   6  1   
  6   4   7  1   
  7   4  30  1   
  8   4  31  1   
  9   5   8  1   
 10   5  32  1   
 11   5  33  1   
 12   6   9  1   
 13   6  34  1   
 14   6  35  1   
 15   7  10  1   
 16   7  36  1   
 17   7  37  1   
 18   8  11  1   
 19   8  38  1   
 20   8  39  1   
 21   9  12  1   
 22   9  40  1   
 23   9  41  1   
 24  10  13  1   
 25  10  14  1   
 26  11  12  1   
 27  11  15  am  
 28  12  42  1   
 29  12  43  1   
 30  13  16  2   
 31  14  17  2   
 32  14  44  1   
 33  15  18  2   
 34  15  19  1   
 35  16  17  1   
 36  16  45  1   
 37  17  46  1   
 38  19  20  1   
 39  19  47  1   
 40  19  48  1   
 41  20  21  1   
 42  20  49  1   
 43  20  50  1   
 44  21  22  2   
 45  21  23  1   
 46  22  24  1   
 47  22  25  1   
 48  23  26  2   
 49  23  27  1   
 50  24  28  am  
 51  24  51  1   
 52  25  52  1   
 53  25  53  1   
 54  25  54  1   
 55  26  28  1   
 56  27  55  1   
 57  27  56  1   
 58  27  57  1   
 59  28  29  2   
@<TRIPOS>SUBSTRUCTURE
  1 ****  11 GROUP 4 **** **** 0

# MOE 2024.06 (io_trps.svl 2023.06)
