@<TRIPOS>MOLECULE
NONAME
53 55 1 0 0 
SMALL
USER_CHARGES


@<TRIPOS>ATOM
  1 O       -0.9090     1.3670     1.3090 O.2   1 <1>  -0.5700 
  2 C       -1.8370     1.6520     0.5810 C.2   1 <1>   0.5690 
  3 N       -2.6020     0.6720     0.0090 N.am  1 <1>  -0.6600 
  4 C       -2.0960     3.1410     0.2850 C.3   1 <1>   0.1710 
  5 C       -3.8010     0.8600    -0.8490 C.3   1 <1>   0.1400 
  6 C       -2.3720    -0.7730     0.2640 C.3   1 <1>   0.1400 
  7 N       -0.9070     3.9420    -0.1400 N.3   1 <1>  -0.8100 
  8 C       -4.2860    -0.5520    -1.1810 C.3   1 <1>   0.2000 
  9 C       -3.6810    -1.4660    -0.1170 C.3   1 <1>  -0.0800 
 10 C        0.0410     4.3620     0.9160 C.3   1 <1>   0.1100 
 11 C       -0.4540     3.8540    -1.5330 C.3   1 <1>   0.1100 
 12 O       -5.6680    -0.6340    -1.1480 O.3   1 <1>  -0.6800 
 13 C       -3.5000    -2.9110    -0.6120 C.3   1 <1>  -0.0170 
 14 C        1.4740     3.8110     0.7790 C.3   1 <1>   0.3430 
 15 C        0.2440     2.5250    -1.8510 C.3   1 <1>  -0.1600 
 16 C       -2.8810    -3.8020     0.4530 C.ar  1 <1>   0.1670 
 17 N        1.4820     2.3950     0.3120 N.4   1 <1>  -0.9590 
 18 C        1.5920     2.2980    -1.1630 C.3   1 <1>   0.3430 
 19 N       -1.5630    -3.7450     0.5760 N.ar  1 <1>  -0.6200 
 20 C       -3.6990    -4.6110     1.2280 C.ar  1 <1>  -0.1500 
 21 C        2.5000     1.5690     1.0160 C.3   1 <1>   0.2630 
 22 C       -1.0410    -4.5300     1.5070 C.ar  1 <1>   0.1600 
 23 C       -3.1410    -5.4190     2.1950 C.ar  1 <1>  -0.1500 
 24 C       -1.7710    -5.3700     2.3300 C.ar  1 <1>  -0.1500 
 25 H       -2.5040     3.5800     1.1780 H     1 <1>   0.0800 
 26 H       -2.8480     3.2340    -0.4740 H     1 <1>   0.0800 
 27 H       -4.5520     1.4020    -0.3010 H     1 <1>   0.0800 
 28 H       -3.5410     1.3870    -1.7500 H     1 <1>   0.0800 
 29 H       -1.5640    -1.1160    -0.3610 H     1 <1>   0.0800 
 30 H       -2.1200    -0.9540     1.2960 H     1 <1>   0.0800 
 31 H       -3.9550    -0.8270    -2.1690 H     1 <1>   0.0800 
 32 H       -4.3050    -1.4650     0.7590 H     1 <1>   0.0800 
 33 H        0.0910     5.4370     0.9220 H     1 <1>   0.0800 
 34 H       -0.3450     4.0640     1.8770 H     1 <1>   0.0800 
 35 H       -1.3110     3.9600    -2.1770 H     1 <1>   0.0800 
 36 H        0.2060     4.6780    -1.7470 H     1 <1>   0.0800 
 37 H       -6.0020    -0.4770    -0.2430 H     1 <1>   0.4000 
 38 H       -2.8710    -2.9280    -1.4840 H     1 <1>   0.0800 
 39 H       -4.4580    -3.3080    -0.8990 H     1 <1>   0.0800 
 40 H        1.9560     3.8860     1.7390 H     1 <1>   0.0800 
 41 H        2.0250     4.4260     0.0870 H     1 <1>   0.0800 
 42 H        0.4270     2.5060    -2.9100 H     1 <1>   0.0800 
 43 H       -0.4100     1.6980    -1.6510 H     1 <1>   0.0800 
 44 H        0.5410     2.0230     0.5730 H     1 <1>   0.4500 
 45 H        2.3110     3.0170    -1.5210 H     1 <1>   0.0800 
 46 H        1.9440     1.3150    -1.4300 H     1 <1>   0.0800 
 47 H       -4.7640    -4.6120     1.0800 H     1 <1>   0.1500 
 48 H        3.4930     1.9270     0.7980 H     1 <1>   0.0800 
 49 H        2.4210     0.5410     0.7030 H     1 <1>   0.0800 
 50 H        2.3380     1.6120     2.0810 H     1 <1>   0.0800 
 51 H        0.0290    -4.5020     1.6210 H     1 <1>   0.1500 
 52 H       -3.7460    -6.0590     2.8140 H     1 <1>   0.1500 
 53 H       -1.2710    -5.9760     3.0630 H     1 <1>   0.1500 
@<TRIPOS>BOND
  1   1   2  2   
  2   2   3  am  
  3   2   4  1   
  4   3   5  1   
  5   3   6  1   
  6   4   7  1   
  7   4  25  1   
  8   4  26  1   
  9   5   8  1   
 10   5  27  1   
 11   5  28  1   
 12   6   9  1   
 13   6  29  1   
 14   6  30  1   
 15   7  10  1   
 16   7  11  1   
 17   8   9  1   
 18   8  12  1   
 19   8  31  1   
 20   9  13  1   
 21   9  32  1   
 22  10  14  1   
 23  10  33  1   
 24  10  34  1   
 25  11  15  1   
 26  11  35  1   
 27  11  36  1   
 28  12  37  1   
 29  13  16  1   
 30  13  38  1   
 31  13  39  1   
 32  14  17  1   
 33  14  40  1   
 34  14  41  1   
 35  15  18  1   
 36  15  42  1   
 37  15  43  1   
 38  16  19  ar  
 39  16  20  ar  
 40  17  18  1   
 41  17  21  1   
 42  17  44  1   
 43  18  45  1   
 44  18  46  1   
 45  19  22  ar  
 46  20  23  ar  
 47  20  47  1   
 48  21  48  1   
 49  21  49  1   
 50  21  50  1   
 51  22  24  ar  
 52  22  51  1   
 53  23  24  ar  
 54  23  52  1   
 55  24  53  1   
@<TRIPOS>SUBSTRUCTURE
  1 ****   6 GROUP 4 **** **** 0

# MOE 2024.06 (io_trps.svl 2023.06)
