@<TRIPOS>MOLECULE
NONAME
40 42 1 0 0 
SMALL
USER_CHARGES


@<TRIPOS>ATOM
  1 CL      -0.1900     2.7600     1.1950 Cl    1 <1>  -0.1770 
  2 C        1.2660     2.2220     0.4020 C.ar  1 <1>   0.1770 
  3 C        1.4310     0.8790     0.1310 C.ar  1 <1>  -0.1500 
  4 C        2.2280     3.1550     0.0610 C.ar  1 <1>  -0.1500 
  5 C        2.6000     0.5040    -0.4970 C.ar  1 <1>   0.1900 
  6 C        3.4160     2.7710    -0.5710 C.ar  1 <1>   0.0860 
  7 F        2.7870    -0.7580    -0.7680 F     1 <1>  -0.1900 
  8 C        3.5800     1.4120    -0.8500 C.ar  1 <1>  -0.1500 
  9 C        4.4420     3.7380    -0.9270 C.2   1 <1>   0.5440 
 10 O        5.4120     3.4290    -1.5940 O.2   1 <1>  -0.5700 
 11 N        4.3990     5.0370    -0.4950 N.am  1 <1>  -0.6600 
 12 C        5.0370     5.3440     0.8340 C.3   1 <1>   0.2200 
 13 C        4.3240     6.1130    -1.5330 C.3   1 <1>   0.1400 
 14 C        4.5190     6.6490     1.4600 C.3   1 <1>   0.1200 
 15 C        6.5860     5.3610     0.7340 C.3   1 <1>   0.3430 
 16 C        5.3320     7.2650    -1.3590 C.3   1 <1>  -0.0800 
 17 O        5.2660     7.7390     1.0100 O.3   1 <1>  -0.5600 
 18 N        7.0820     5.5130    -0.6770 N.4   1 <1>  -0.9590 
 19 C        4.9220     8.2350    -0.2390 C.3   1 <1>   0.1200 
 20 C        6.8190     6.8590    -1.2740 C.3   1 <1>   0.3430 
 21 C        8.5140     5.1220    -0.8030 C.3   1 <1>   0.2630 
 22 H        0.6810     0.1570     0.3970 H     1 <1>   0.1500 
 23 H        2.0420     4.1880     0.2900 H     1 <1>   0.1500 
 24 H        4.4700     1.0590    -1.3420 H     1 <1>   0.1500 
 25 H        4.7630     4.5550     1.5150 H     1 <1>   0.0800 
 26 H        4.4770     5.6700    -2.5040 H     1 <1>   0.0800 
 27 H        3.3250     6.5150    -1.5310 H     1 <1>   0.0800 
 28 H        4.6560     6.6080     2.5270 H     1 <1>   0.0800 
 29 H        3.4720     6.8050     1.2610 H     1 <1>   0.0800 
 30 H        6.9480     4.4270     1.1310 H     1 <1>   0.0800 
 31 H        6.9800     6.1490     1.3540 H     1 <1>   0.0800 
 32 H        5.2450     7.8520    -2.2560 H     1 <1>   0.0800 
 33 H        6.5100     4.8240    -1.2180 H     1 <1>   0.4500 
 34 H        3.8640     8.4450    -0.2560 H     1 <1>   0.0800 
 35 H        5.4460     9.1690    -0.3560 H     1 <1>   0.0800 
 36 H        7.3520     7.6110    -0.7150 H     1 <1>   0.0800 
 37 H        7.2160     6.8620    -2.2760 H     1 <1>   0.0800 
 38 H        9.1370     5.7930    -0.2340 H     1 <1>   0.0800 
 39 H        8.8190     5.1550    -1.8360 H     1 <1>   0.0800 
 40 H        8.6580     4.1180    -0.4380 H     1 <1>   0.0800 
@<TRIPOS>BOND
  1   1   2  1   
  2   2   3  ar  
  3   2   4  ar  
  4   3   5  ar  
  5   3  22  1   
  6   4   6  ar  
  7   4  23  1   
  8   5   7  1   
  9   5   8  ar  
 10   6   8  ar  
 11   6   9  1   
 12   8  24  1   
 13   9  10  2   
 14   9  11  am  
 15  11  12  1   
 16  11  13  1   
 17  12  14  1   
 18  12  15  1   
 19  12  25  1   
 20  13  16  1   
 21  13  26  1   
 22  13  27  1   
 23  14  17  1   
 24  14  28  1   
 25  14  29  1   
 26  15  18  1   
 27  15  30  1   
 28  15  31  1   
 29  16  19  1   
 30  16  20  1   
 31  16  32  1   
 32  17  19  1   
 33  18  20  1   
 34  18  21  1   
 35  18  33  1   
 36  19  34  1   
 37  19  35  1   
 38  20  36  1   
 39  20  37  1   
 40  21  38  1   
 41  21  39  1   
 42  21  40  1   
@<TRIPOS>SUBSTRUCTURE
  1 ****  11 GROUP 4 **** **** 0

# MOE 2024.06 (io_trps.svl 2023.06)
