@<TRIPOS>MOLECULE
NONAME
47 49 1 0 0 
SMALL
USER_CHARGES


@<TRIPOS>ATOM
  1 O       -1.8620     2.8580     2.2500 O.2   1 <1>  -0.5700 
  2 C       -1.7590     3.2960     1.1220 C.2   1 <1>   0.7800 
  3 O       -1.5940     4.6010     0.8910 O.3   1 <1>  -0.4300 
  4 N       -1.7810     2.4810     0.0310 N.am  1 <1>  -0.6600 
  5 C       -1.5000     5.6320     1.8490 C.3   1 <1>   0.2800 
  6 C       -1.8890     1.0280     0.0590 C.3   1 <1>   0.2200 
  7 C       -1.6160     2.8720    -1.3630 C.3   1 <1>   0.2200 
  8 C       -1.3150     6.9140     1.0360 C.3   1 <1>  -0.2400 
  9 C       -0.2690     5.4160     2.7380 C.3   1 <1>  -0.2400 
 10 C       -2.7990     5.7280     2.6570 C.3   1 <1>  -0.2400 
 11 C       -0.4570     0.5030    -0.1400 C.3   1 <1>  -0.1600 
 12 C       -2.8180     0.7590    -1.1300 C.3   1 <1>  -0.1600 
 13 C       -0.1540     2.5460    -1.7120 C.3   1 <1>  -0.1600 
 14 C       -2.6370     1.9710    -2.0660 C.3   1 <1>  -0.1600 
 15 C        0.2700     1.0940    -1.3740 C.3   1 <1>   0.4240 
 16 O       -0.1210     0.3220    -2.4530 O.3   1 <1>  -0.6800 
 17 C        1.8010     0.9970    -1.2120 C.ar  1 <1>  -0.1440 
 18 C        2.6070     0.2460    -2.0650 C.ar  1 <1>  -0.1500 
 19 C        2.4220     1.6860    -0.1740 C.ar  1 <1>  -0.1500 
 20 C        3.9780     0.1850    -1.8860 C.ar  1 <1>  -0.1500 
 21 C        3.7930     1.6280     0.0090 C.ar  1 <1>  -0.1500 
 22 C        4.5740     0.8770    -0.8480 C.ar  1 <1>  -0.1500 
 23 H       -2.3110     0.6780     0.9880 H     1 <1>   0.0800 
 24 H       -1.8330     3.9170    -1.5160 H     1 <1>   0.0800 
 25 H       -0.4210     6.8540     0.4420 H     1 <1>   0.0800 
 26 H       -1.2320     7.7630     1.6900 H     1 <1>   0.0800 
 27 H       -2.1590     7.0680     0.3870 H     1 <1>   0.0800 
 28 H        0.6100     5.2830     2.1340 H     1 <1>   0.0800 
 29 H       -0.3960     4.5590     3.3730 H     1 <1>   0.0800 
 30 H       -0.1210     6.2710     3.3720 H     1 <1>   0.0800 
 31 H       -3.6450     5.8040     1.9980 H     1 <1>   0.0800 
 32 H       -2.7760     6.6000     3.2850 H     1 <1>   0.0800 
 33 H       -2.9240     4.8730     3.2950 H     1 <1>   0.0800 
 34 H       -0.4530    -0.5700    -0.1920 H     1 <1>   0.0800 
 35 H        0.0850     0.7630     0.7490 H     1 <1>   0.0800 
 36 H       -3.8330     0.7300    -0.7730 H     1 <1>   0.0800 
 37 H       -2.6070    -0.1840    -1.6020 H     1 <1>   0.0800 
 38 H        0.4530     3.2300    -1.1500 H     1 <1>   0.0800 
 39 H        0.0420     2.7520    -2.7490 H     1 <1>   0.0800 
 40 H       -2.3230     1.7020    -3.0590 H     1 <1>   0.0800 
 41 H       -3.5690     2.5030    -2.1470 H     1 <1>   0.0800 
 42 H       -1.0880     0.3850    -2.5300 H     1 <1>   0.4000 
 43 H        2.1760    -0.3050    -2.8830 H     1 <1>   0.1500 
 44 H        1.8380     2.2790     0.5090 H     1 <1>   0.1500 
 45 H        4.5800    -0.4020    -2.5570 H     1 <1>   0.1500 
 46 H        4.2500     2.1680     0.8190 H     1 <1>   0.1500 
 47 H        5.6390     0.8300    -0.7080 H     1 <1>   0.1500 
@<TRIPOS>BOND
  1   1   2  2   
  2   2   3  1   
  3   2   4  am  
  4   3   5  1   
  5   4   6  1   
  6   4   7  1   
  7   5   8  1   
  8   5   9  1   
  9   5  10  1   
 10   6  11  1   
 11   6  12  1   
 12   6  23  1   
 13   7  13  1   
 14   7  14  1   
 15   7  24  1   
 16   8  25  1   
 17   8  26  1   
 18   8  27  1   
 19   9  28  1   
 20   9  29  1   
 21   9  30  1   
 22  10  31  1   
 23  10  32  1   
 24  10  33  1   
 25  11  15  1   
 26  11  34  1   
 27  11  35  1   
 28  12  14  1   
 29  12  36  1   
 30  12  37  1   
 31  13  15  1   
 32  13  38  1   
 33  13  39  1   
 34  14  40  1   
 35  14  41  1   
 36  15  16  1   
 37  15  17  1   
 38  16  42  1   
 39  17  18  ar  
 40  17  19  ar  
 41  18  20  ar  
 42  18  43  1   
 43  19  21  ar  
 44  19  44  1   
 45  20  22  ar  
 46  20  45  1   
 47  21  22  ar  
 48  21  46  1   
 49  22  47  1   
@<TRIPOS>SUBSTRUCTURE
  1 ****  13 GROUP 4 **** **** 0

# MOE 2024.06 (io_trps.svl 2023.06)
