@<TRIPOS>MOLECULE
NONAME
53 55 1 0 0 
SMALL
USER_CHARGES


@<TRIPOS>ATOM
  1 O       -0.4610     0.2880    -0.4660 O.2   1 <1>  -0.5700 
  2 C       -1.4450     0.8090     0.0230 C.2   1 <1>   0.5690 
  3 N       -2.6230     0.0870     0.0510 N.am  1 <1>  -0.6600 
  4 C       -1.2810     2.2770     0.5680 C.3   1 <1>   0.4300 
  5 C       -3.9380     0.4510     0.6400 C.3   1 <1>   0.1400 
  6 C       -2.6990    -1.2650    -0.5600 C.3   1 <1>   0.1400 
  7 N        0.1780     2.6100     0.6560 N.pl3 1 <1>  -0.8690 
  8 C       -1.7960     2.4500     2.0030 C.3   1 <1>  -0.2400 
  9 C       -1.9980     3.2700    -0.3640 C.3   1 <1>  -0.2400 
 10 C       -4.8890    -0.6660     0.2120 C.3   1 <1>   0.2000 
 11 C       -4.0000    -1.8800    -0.0400 C.3   1 <1>  -0.0800 
 12 C        0.7220     3.7730     0.1240 C.ar  1 <1>   0.1000 
 13 O       -5.8200    -0.9480     1.1980 O.3   1 <1>  -0.6800 
 14 C       -4.6350    -2.8900    -1.0080 C.3   1 <1>   0.0200 
 15 C        0.6570     4.9770     0.8110 C.ar  1 <1>  -0.1500 
 16 C        1.3560     3.7420    -1.1110 C.ar  1 <1>  -0.1500 
 17 C       -3.7620    -4.1070    -1.2600 C.2   1 <1>  -0.0400 
 18 C        1.1980     6.1290     0.2700 C.ar  1 <1>  -0.1500 
 19 C        1.8990     4.8920    -1.6540 C.ar  1 <1>  -0.1500 
 20 O       -4.0900    -4.9240    -2.2250 O.3   1 <1>  -0.0190 
 21 C       -2.6470    -4.5850    -0.6840 C.2   1 <1>  -0.1500 
 22 C        1.8230     6.0940    -0.9680 C.ar  1 <1>  -0.1440 
 23 N       -3.2550    -5.9160    -2.3300 N.2   1 <1>  -0.4100 
 24 C       -2.3740    -5.7390    -1.4130 C.2   1 <1>   0.1080 
 25 C        2.4150     7.3580    -1.5640 C.3   1 <1>  -0.0970 
 26 C       -1.2030    -6.6640    -1.1680 C.3   1 <1>  -0.0590 
 27 H       -3.8530     0.4690     1.7120 H     1 <1>   0.0800 
 28 H       -4.2850     1.3970     0.2690 H     1 <1>   0.0800 
 29 H       -2.7230    -1.1610    -1.6320 H     1 <1>   0.0800 
 30 H       -1.8430    -1.8570    -0.2840 H     1 <1>   0.0800 
 31 H        0.6530     1.7720     0.2850 H     1 <1>   0.4000 
 32 H       -2.8660     2.4380     2.0420 H     1 <1>   0.0800 
 33 H       -1.4710     3.3940     2.4000 H     1 <1>   0.0800 
 34 H       -1.4110     1.6630     2.6260 H     1 <1>   0.0800 
 35 H       -3.0400     3.0350    -0.4440 H     1 <1>   0.0800 
 36 H       -1.5710     3.2190    -1.3500 H     1 <1>   0.0800 
 37 H       -1.9150     4.2740     0.0070 H     1 <1>   0.0800 
 38 H       -5.4170    -0.3720    -0.6800 H     1 <1>   0.0800 
 39 H       -3.7800    -2.3640     0.8950 H     1 <1>   0.0800 
 40 H       -5.3860    -1.3010     1.9980 H     1 <1>   0.4000 
 41 H       -4.8320    -2.4090    -1.9510 H     1 <1>   0.0800 
 42 H       -5.5780    -3.2240    -0.6110 H     1 <1>   0.0800 
 43 H        0.1840     5.0010     1.7730 H     1 <1>   0.1500 
 44 H        1.4180     2.8120    -1.6450 H     1 <1>   0.1500 
 45 H        1.1330     7.0530     0.8170 H     1 <1>   0.1500 
 46 H        2.3810     4.8480    -2.6140 H     1 <1>   0.1500 
 47 H       -2.0690    -4.2100     0.1400 H     1 <1>   0.1500 
 48 H        2.7460     8.0210    -0.7860 H     1 <1>   0.0800 
 49 H        1.6740     7.8600    -2.1590 H     1 <1>   0.0800 
 50 H        3.2590     7.1190    -2.1870 H     1 <1>   0.0800 
 51 H       -0.2810    -6.1200    -1.2650 H     1 <1>   0.0800 
 52 H       -1.2120    -7.4640    -1.8870 H     1 <1>   0.0800 
 53 H       -1.2680    -7.0820    -0.1810 H     1 <1>   0.0800 
@<TRIPOS>BOND
  1   1   2  2   
  2   2   3  am  
  3   2   4  1   
  4   3   5  1   
  5   3   6  1   
  6   4   7  1   
  7   4   8  1   
  8   4   9  1   
  9   5  10  1   
 10   5  27  1   
 11   5  28  1   
 12   6  11  1   
 13   6  29  1   
 14   6  30  1   
 15   7  12  1   
 16   7  31  1   
 17   8  32  1   
 18   8  33  1   
 19   8  34  1   
 20   9  35  1   
 21   9  36  1   
 22   9  37  1   
 23  10  11  1   
 24  10  13  1   
 25  10  38  1   
 26  11  14  1   
 27  11  39  1   
 28  12  15  ar  
 29  12  16  ar  
 30  13  40  1   
 31  14  17  1   
 32  14  41  1   
 33  14  42  1   
 34  15  18  ar  
 35  15  43  1   
 36  16  19  ar  
 37  16  44  1   
 38  17  20  1   
 39  17  21  2   
 40  18  22  ar  
 41  18  45  1   
 42  19  22  ar  
 43  19  46  1   
 44  20  23  1   
 45  21  24  1   
 46  21  47  1   
 47  22  25  1   
 48  23  24  2   
 49  24  26  1   
 50  25  48  1   
 51  25  49  1   
 52  25  50  1   
 53  26  51  1   
 54  26  52  1   
 55  26  53  1   
@<TRIPOS>SUBSTRUCTURE
  1 ****   2 GROUP 4 **** **** 0

# MOE 2024.06 (io_trps.svl 2023.06)
