@<TRIPOS>MOLECULE
NONAME
44 46 1 0 0 
SMALL
USER_CHARGES


@<TRIPOS>ATOM
  1 O       -2.8450    -0.0720    -2.8440 O.2   1 <1>  -0.5700 
  2 C       -2.7470    -0.6160    -1.7780 C.2   1 <1>   0.5690 
  3 N       -2.4600     0.0980    -0.6760 N.am  1 <1>  -0.7300 
  4 C       -2.9820    -2.0980    -1.6720 C.3   1 <1>  -0.0190 
  5 C       -2.3130    -0.4500     0.6920 C.3   1 <1>   0.2200 
  6 C       -1.7220    -2.8390    -1.1700 C.3   1 <1>   0.1200 
  7 C       -4.2800    -2.3330    -0.8880 C.3   1 <1>   0.3430 
  8 C       -1.1650    -1.4910     0.7350 C.3   1 <1>   0.1200 
  9 C       -3.6730    -0.9990     1.2090 C.3   1 <1>   0.3430 
 10 O       -1.5370    -2.7440     0.2180 O.3   1 <1>  -0.5600 
 11 N       -4.1100    -2.3080     0.6050 N.4   1 <1>  -0.9590 
 12 C       -5.2880    -2.8910     1.2990 C.3   1 <1>   0.4860 
 13 C       -5.4050    -4.3520     0.9190 C.ar  1 <1>  -0.1430 
 14 C       -6.3470    -4.7430    -0.0250 C.ar  1 <1>   0.0830 
 15 C       -4.5770    -5.2980     1.5020 C.ar  1 <1>  -0.1500 
 16 O       -7.1180    -3.7660    -0.5720 O.3   1 <1>  -0.3630 
 17 C       -6.4530    -6.0850    -0.3760 C.ar  1 <1>  -0.1500 
 18 C       -4.6870    -6.6300     1.1450 C.ar  1 <1>  -0.1500 
 19 C       -8.2230    -4.0820    -1.3950 C.3   1 <1>   0.0400 
 20 C       -5.6230    -7.0290     0.2060 C.ar  1 <1>  -0.1430 
 21 C       -5.7400    -8.4950    -0.1730 C.3   1 <1>  -0.0970 
 22 H       -2.2610     1.0940    -0.8240 H     1 <1>   0.3700 
 23 H       -3.1610    -2.4380    -2.6760 H     1 <1>   0.0800 
 24 H       -2.0290     0.3720     1.3270 H     1 <1>   0.0800 
 25 H       -0.8370    -2.4720    -1.6640 H     1 <1>   0.0800 
 26 H       -1.8150    -3.8880    -1.3970 H     1 <1>   0.0800 
 27 H       -4.6530    -3.3020    -1.1760 H     1 <1>   0.0800 
 28 H       -5.0170    -1.6060    -1.1870 H     1 <1>   0.0800 
 29 H       -0.8770    -1.6560     1.7590 H     1 <1>   0.0800 
 30 H       -0.2990    -1.1330     0.2030 H     1 <1>   0.0800 
 31 H       -4.4310    -0.2510     1.0410 H     1 <1>   0.0800 
 32 H       -3.5830    -1.1330     2.2740 H     1 <1>   0.0800 
 33 H       -3.3140    -2.9560     0.7620 H     1 <1>   0.4500 
 34 H       -5.1640    -2.8180     2.3670 H     1 <1>   0.0800 
 35 H       -6.1850    -2.3620     1.0230 H     1 <1>   0.0800 
 36 H       -3.8430    -5.0190     2.2380 H     1 <1>   0.1500 
 37 H       -7.1740    -6.4140    -1.1000 H     1 <1>   0.1500 
 38 H       -4.0420    -7.3610     1.6040 H     1 <1>   0.1500 
 39 H       -8.7300    -3.1680    -1.6460 H     1 <1>   0.0800 
 40 H       -8.8900    -4.7300    -0.8530 H     1 <1>   0.0800 
 41 H       -7.8690    -4.5610    -2.2910 H     1 <1>   0.0800 
 42 H       -4.7730    -8.9660    -0.1570 H     1 <1>   0.0800 
 43 H       -6.1500    -8.6030    -1.1610 H     1 <1>   0.0800 
 44 H       -6.3810    -9.0020     0.5250 H     1 <1>   0.0800 
@<TRIPOS>BOND
  1   1   2  2   
  2   2   3  am  
  3   2   4  1   
  4   3   5  1   
  5   3  22  1   
  6   4   6  1   
  7   4   7  1   
  8   4  23  1   
  9   5   8  1   
 10   5   9  1   
 11   5  24  1   
 12   6  10  1   
 13   6  25  1   
 14   6  26  1   
 15   7  11  1   
 16   7  27  1   
 17   7  28  1   
 18   8  10  1   
 19   8  29  1   
 20   8  30  1   
 21   9  11  1   
 22   9  31  1   
 23   9  32  1   
 24  11  12  1   
 25  11  33  1   
 26  12  13  1   
 27  12  34  1   
 28  12  35  1   
 29  13  14  ar  
 30  13  15  ar  
 31  14  16  1   
 32  14  17  ar  
 33  15  18  ar  
 34  15  36  1   
 35  16  19  1   
 36  17  20  ar  
 37  17  37  1   
 38  18  20  ar  
 39  18  38  1   
 40  19  39  1   
 41  19  40  1   
 42  19  41  1   
 43  20  21  1   
 44  21  42  1   
 45  21  43  1   
 46  21  44  1   
@<TRIPOS>SUBSTRUCTURE
  1 ****   7 GROUP 4 **** **** 0

# MOE 2024.06 (io_trps.svl 2023.06)
