@<TRIPOS>MOLECULE
NONAME
48 50 1 0 0 
SMALL
USER_CHARGES


@<TRIPOS>ATOM
  1 O       -0.8320     0.7390     1.6130 O.2   1 <1>  -0.5700 
  2 C       -1.5040     1.0570     0.6470 C.2   1 <1>   0.5440 
  3 N       -2.2640     0.0870     0.0310 N.am  1 <1>  -0.6600 
  4 C       -1.5190     2.4250     0.1900 C.ar  1 <1>   0.0860 
  5 C       -3.2080     0.3460    -1.0870 C.3   1 <1>   0.1400 
  6 C       -2.6920    -1.1270     0.7750 C.3   1 <1>   0.1400 
  7 C       -2.5710     3.2530     0.6100 C.ar  1 <1>   0.0830 
  8 C       -0.5660     2.9630    -0.6940 C.ar  1 <1>   0.0830 
  9 C       -4.4870    -0.3680    -0.6610 C.3   1 <1>   0.2000 
 10 C       -3.9880    -1.5990     0.0990 C.3   1 <1>  -0.0800 
 11 O       -3.5080     2.7110     1.4310 O.3   1 <1>  -0.3630 
 12 C       -2.6530     4.5730     0.1760 C.ar  1 <1>  -0.1500 
 13 O        0.4850     2.2800    -1.2110 O.3   1 <1>  -0.3630 
 14 C       -0.6740     4.2740    -1.1250 C.ar  1 <1>  -0.1500 
 15 O       -5.1580     0.4580     0.2290 O.3   1 <1>  -0.6800 
 16 C       -3.7300    -2.7730    -0.8640 C.3   1 <1>   0.0210 
 17 C       -4.6570     3.4140     1.8530 C.3   1 <1>   0.0400 
 18 C       -1.7070     5.0820    -0.6910 C.ar  1 <1>  -0.1500 
 19 C        1.2720     1.4140    -0.4210 C.3   1 <1>   0.0400 
 20 C       -3.2490    -4.0060    -0.1250 C.2   1 <1>   0.1080 
 21 N       -4.0090    -4.6850     0.6760 N.2   1 <1>  -0.7070 
 22 C       -1.9670    -4.5410    -0.2120 C.2   1 <1>  -0.1500 
 23 N       -3.2250    -5.6820     1.1270 N.pl3 1 <1>   0.3000 
 24 C       -1.9820    -5.6160     0.6030 C.2   1 <1>  -0.3320 
 25 C       -0.8700    -6.5970     0.9210 C.3   1 <1>  -0.0600 
 26 H       -3.3850     1.3930    -1.2600 H     1 <1>   0.0800 
 27 H       -2.8140    -0.0980    -1.9830 H     1 <1>   0.0800 
 28 H       -1.9150    -1.8710     0.7530 H     1 <1>   0.0800 
 29 H       -2.8870    -0.8640     1.8010 H     1 <1>   0.0800 
 30 H       -5.1490    -0.5960    -1.4790 H     1 <1>   0.0800 
 31 H       -4.7080    -1.9180     0.8330 H     1 <1>   0.0800 
 32 H       -3.4470     5.2210     0.4970 H     1 <1>   0.1500 
 33 H        0.0640     4.6620    -1.8050 H     1 <1>   0.1500 
 34 H       -4.4970     0.8530     0.8410 H     1 <1>   0.4000 
 35 H       -3.0000    -2.5000    -1.6040 H     1 <1>   0.0800 
 36 H       -4.6430    -3.0270    -1.3710 H     1 <1>   0.0800 
 37 H       -5.2440     2.7560     2.4700 H     1 <1>   0.0800 
 38 H       -5.2280     3.7030     0.9880 H     1 <1>   0.0800 
 39 H       -4.3530     4.2730     2.4230 H     1 <1>   0.0800 
 40 H       -1.7720     6.1020    -1.0300 H     1 <1>   0.1500 
 41 H        2.2480     1.3480    -0.8670 H     1 <1>   0.0800 
 42 H        0.8170     0.4390    -0.4070 H     1 <1>   0.0800 
 43 H        1.3500     1.8120     0.5760 H     1 <1>   0.0800 
 44 H       -1.1590    -4.1570    -0.8080 H     1 <1>   0.1500 
 45 H       -3.5670    -6.3870     1.7900 H     1 <1>   0.2700 
 46 H        0.0230    -6.3310     0.3830 H     1 <1>   0.0800 
 47 H       -1.1580    -7.5930     0.6330 H     1 <1>   0.0800 
 48 H       -0.6510    -6.5840     1.9740 H     1 <1>   0.0800 
@<TRIPOS>BOND
  1   1   2  2   
  2   2   3  am  
  3   2   4  1   
  4   3   5  1   
  5   3   6  1   
  6   4   7  ar  
  7   4   8  ar  
  8   5   9  1   
  9   5  26  1   
 10   5  27  1   
 11   6  10  1   
 12   6  28  1   
 13   6  29  1   
 14   7  11  1   
 15   7  12  ar  
 16   8  13  1   
 17   8  14  ar  
 18   9  10  1   
 19   9  15  1   
 20   9  30  1   
 21  10  16  1   
 22  10  31  1   
 23  11  17  1   
 24  12  18  ar  
 25  12  32  1   
 26  13  19  1   
 27  14  18  ar  
 28  14  33  1   
 29  15  34  1   
 30  16  20  1   
 31  16  35  1   
 32  16  36  1   
 33  17  37  1   
 34  17  38  1   
 35  17  39  1   
 36  18  40  1   
 37  19  41  1   
 38  19  42  1   
 39  19  43  1   
 40  20  21  2   
 41  20  22  1   
 42  21  23  1   
 43  22  24  2   
 44  22  44  1   
 45  23  24  1   
 46  23  45  1   
 47  24  25  1   
 48  25  46  1   
 49  25  47  1   
 50  25  48  1   
@<TRIPOS>SUBSTRUCTURE
  1 ****   3 GROUP 4 **** **** 0

# MOE 2024.06 (io_trps.svl 2023.06)
