@<TRIPOS>MOLECULE
NONAME
46 48 1 0 0 
SMALL
USER_CHARGES


@<TRIPOS>ATOM
  1 CL       2.7000     1.6710     2.4270 Cl    1 <1>  -0.1770 
  2 C        2.5420     0.4060     1.2270 C.ar  1 <1>   0.1770 
  3 C        3.5920     0.1370     0.3540 C.ar  1 <1>   0.0830 
  4 C        1.3540    -0.2960     1.1610 C.ar  1 <1>  -0.1500 
  5 O        4.7340     0.8610     0.4650 O.3   1 <1>  -0.3630 
  6 C        3.4310    -0.8650    -0.5990 C.ar  1 <1>  -0.1500 
  7 C        1.2030    -1.2880     0.2060 C.ar  1 <1>  -0.1500 
  8 C        5.5140     1.1450    -0.6860 C.3   1 <1>   0.1810 
  9 C        2.2400    -1.5690    -0.6700 C.ar  1 <1>  -0.1500 
 10 C        6.5840     2.2040    -0.4070 C.2   1 <1>   0.5690 
 11 O        7.6390     2.0880    -0.9870 O.2   1 <1>  -0.5700 
 12 N        6.3850     3.2830     0.4250 N.am  1 <1>  -0.6600 
 13 C        7.5700     4.0340     0.9300 C.3   1 <1>   0.1400 
 14 C        5.0550     3.7800     0.8660 C.3   1 <1>   0.1400 
 15 C        8.0190     5.0730    -0.1060 C.3   1 <1>   0.3430 
 16 C        4.9270     5.2950     0.6610 C.3   1 <1>  -0.1600 
 17 N        7.0380     6.1970    -0.3110 N.4   1 <1>  -0.9590 
 18 C        5.6270     5.8090    -0.6020 C.3   1 <1>   0.3430 
 19 C        7.5810     7.1690    -1.2950 C.3   1 <1>   0.5230 
 20 C        8.5420     8.0830    -0.5440 C.2   1 <1>   0.0060 
 21 N        8.5860     8.1520     0.7530 N.2   1 <1>  -0.5650 
 22 N        9.4260     8.9070    -1.1560 N.pl3 1 <1>   0.0330 
 23 C        9.5470     9.0640     0.9980 C.2   1 <1>   0.0770 
 24 C       10.0690     9.5320    -0.1550 C.2   1 <1>  -0.3020 
 25 H        0.5590    -0.0680     1.8470 H     1 <1>   0.1500 
 26 H        4.2220    -1.1160    -1.2820 H     1 <1>   0.1500 
 27 H        0.2810    -1.8410     0.1450 H     1 <1>   0.1500 
 28 H        4.8610     1.4900    -1.4660 H     1 <1>   0.0800 
 29 H        5.9970     0.2360    -0.9940 H     1 <1>   0.0800 
 30 H        2.1180    -2.3440    -1.4080 H     1 <1>   0.1500 
 31 H        8.3780     3.3390     1.0920 H     1 <1>   0.0800 
 32 H        7.3550     4.5020     1.8750 H     1 <1>   0.0800 
 33 H        4.9030     3.5280     1.9030 H     1 <1>   0.0800 
 34 H        4.2810     3.2940     0.2960 H     1 <1>   0.0800 
 35 H        8.1920     4.5580    -1.0380 H     1 <1>   0.0800 
 36 H        8.9600     5.4870     0.2190 H     1 <1>   0.0800 
 37 H        5.2790     5.8200     1.5300 H     1 <1>   0.0800 
 38 H        3.8760     5.5130     0.5790 H     1 <1>   0.0800 
 39 H        7.0670     6.7540     0.5640 H     1 <1>   0.4500 
 40 H        5.0900     6.6770    -0.9500 H     1 <1>   0.0800 
 41 H        5.5940     5.0600    -1.3770 H     1 <1>   0.0800 
 42 H        6.7850     7.7670    -1.7060 H     1 <1>   0.0800 
 43 H        8.0860     6.6550    -2.0960 H     1 <1>   0.0800 
 44 H        9.5920     9.0490    -2.1590 H     1 <1>   0.2700 
 45 H        9.8190     9.3430     2.0050 H     1 <1>   0.1500 
 46 H       10.8450    10.2620    -0.3080 H     1 <1>   0.1500 
@<TRIPOS>BOND
  1   1   2  1   
  2   2   3  ar  
  3   2   4  ar  
  4   3   5  1   
  5   3   6  ar  
  6   4   7  ar  
  7   4  25  1   
  8   5   8  1   
  9   6   9  ar  
 10   6  26  1   
 11   7   9  ar  
 12   7  27  1   
 13   8  10  1   
 14   8  28  1   
 15   8  29  1   
 16   9  30  1   
 17  10  11  2   
 18  10  12  am  
 19  12  13  1   
 20  12  14  1   
 21  13  15  1   
 22  13  31  1   
 23  13  32  1   
 24  14  16  1   
 25  14  33  1   
 26  14  34  1   
 27  15  17  1   
 28  15  35  1   
 29  15  36  1   
 30  16  18  1   
 31  16  37  1   
 32  16  38  1   
 33  17  18  1   
 34  17  19  1   
 35  17  39  1   
 36  18  40  1   
 37  18  41  1   
 38  19  20  1   
 39  19  42  1   
 40  19  43  1   
 41  20  21  2   
 42  20  22  1   
 43  21  23  1   
 44  22  24  1   
 45  22  44  1   
 46  23  24  2   
 47  23  45  1   
 48  24  46  1   
@<TRIPOS>SUBSTRUCTURE
  1 ****  12 GROUP 4 **** **** 0

# MOE 2024.06 (io_trps.svl 2023.06)
