@<TRIPOS>MOLECULE
NONAME
49 51 1 0 0 
SMALL
USER_CHARGES


@<TRIPOS>ATOM
  1 CL      -0.9030    -1.4050     1.7080 Cl    1 <1>  -0.1230 
  2 C       -1.4290    -2.6550     0.5960 C.2   1 <1>   0.1230 
  3 C       -0.9040    -3.9340     0.5030 C.2   1 <1>   0.1390 
  4 C       -2.4090    -2.5760    -0.3230 C.2   1 <1>  -0.3020 
  5 N       -1.5180    -4.6250    -0.4150 N.2   1 <1>  -0.7070 
  6 N       -2.4410    -3.7810    -0.9300 N.pl3 1 <1>   0.3140 
  7 C       -3.3520    -4.2000    -2.0090 C.3   1 <1>   0.0960 
  8 C       -3.6300    -5.7140    -1.9640 C.3   1 <1>   0.3430 
  9 N       -4.6260    -6.1680    -0.9240 N.4   1 <1>  -0.9590 
 10 C       -4.9800    -7.6070    -1.2150 C.3   1 <1>   0.3430 
 11 C       -4.1000    -6.0120     0.4690 C.3   1 <1>   0.3430 
 12 C       -5.6570    -8.3950    -0.0660 C.3   1 <1>   0.0000 
 13 C       -5.1910    -6.3380     1.4870 C.3   1 <1>  -0.1600 
 14 C       -6.1850    -7.3970     0.9960 C.3   1 <1>   0.2000 
 15 C       -6.8900    -9.1200    -0.6540 C.3   1 <1>   0.1200 
 16 C       -4.6940    -9.4950     0.4860 C.3   1 <1>  -0.0170 
 17 O       -6.7050    -8.0630     2.0860 O.3   1 <1>  -0.6800 
 18 O       -6.5350    -9.7780    -1.8250 O.3   1 <1>  -0.6800 
 19 C       -3.3430    -9.0150     1.0010 C.ar  1 <1>  -0.1430 
 20 C       -2.2790    -8.8380     0.1260 C.ar  1 <1>  -0.1500 
 21 C       -3.1520    -8.7640     2.3520 C.ar  1 <1>  -0.1500 
 22 C       -1.0640    -8.3590     0.5860 C.ar  1 <1>  -0.1500 
 23 C       -1.9370    -8.2890     2.8130 C.ar  1 <1>  -0.1500 
 24 C       -0.8950    -8.0780     1.9290 C.ar  1 <1>  -0.1500 
 25 H       -0.0950    -4.3060     1.1100 H     1 <1>   0.1500 
 26 H       -3.0510    -1.7500    -0.5650 H     1 <1>   0.1500 
 27 H       -4.2660    -3.6400    -1.9520 H     1 <1>   0.0800 
 28 H       -2.8660    -3.9660    -2.9380 H     1 <1>   0.0800 
 29 H       -2.6950    -6.2350    -1.8230 H     1 <1>   0.0800 
 30 H       -4.0060    -5.9980    -2.9330 H     1 <1>   0.0800 
 31 H       -5.4830    -5.6070    -0.9990 H     1 <1>   0.4500 
 32 H       -5.6330    -7.6270    -2.0730 H     1 <1>   0.0800 
 33 H       -4.0920    -8.1430    -1.5020 H     1 <1>   0.0800 
 34 H       -3.2500    -6.6570     0.6120 H     1 <1>   0.0800 
 35 H       -3.7650    -5.0040     0.6420 H     1 <1>   0.0800 
 36 H       -5.7350    -5.4360     1.7060 H     1 <1>   0.0800 
 37 H       -4.7150    -6.6400     2.4010 H     1 <1>   0.0800 
 38 H       -7.0140    -6.8650     0.5570 H     1 <1>   0.0800 
 39 H       -7.6770    -8.4260    -0.8970 H     1 <1>   0.0800 
 40 H       -7.2770    -9.8450     0.0440 H     1 <1>   0.0800 
 41 H       -5.1860   -10.0480     1.2680 H     1 <1>   0.0800 
 42 H       -4.4980   -10.2140    -0.2920 H     1 <1>   0.0800 
 43 H       -5.9980    -8.4600     2.6310 H     1 <1>   0.4000 
 44 H       -7.2600   -10.3690    -2.1250 H     1 <1>   0.4000 
 45 H       -2.3760    -9.0770    -0.9180 H     1 <1>   0.1500 
 46 H       -3.9420    -8.9370     3.0600 H     1 <1>   0.1500 
 47 H       -0.2450    -8.2110    -0.0970 H     1 <1>   0.1500 
 48 H       -1.7970    -8.0900     3.8630 H     1 <1>   0.1500 
 49 H        0.0510    -7.7080     2.2870 H     1 <1>   0.1500 
@<TRIPOS>BOND
  1   1   2  1   
  2   2   3  1   
  3   2   4  2   
  4   3   5  2   
  5   3  25  1   
  6   4   6  1   
  7   4  26  1   
  8   5   6  1   
  9   6   7  1   
 10   7   8  1   
 11   7  27  1   
 12   7  28  1   
 13   8   9  1   
 14   8  29  1   
 15   8  30  1   
 16   9  10  1   
 17   9  11  1   
 18   9  31  1   
 19  10  12  1   
 20  10  32  1   
 21  10  33  1   
 22  11  13  1   
 23  11  34  1   
 24  11  35  1   
 25  12  14  1   
 26  12  15  1   
 27  12  16  1   
 28  13  14  1   
 29  13  36  1   
 30  13  37  1   
 31  14  17  1   
 32  14  38  1   
 33  15  18  1   
 34  15  39  1   
 35  15  40  1   
 36  16  19  1   
 37  16  41  1   
 38  16  42  1   
 39  17  43  1   
 40  18  44  1   
 41  19  20  ar  
 42  19  21  ar  
 43  20  22  ar  
 44  20  45  1   
 45  21  23  ar  
 46  21  46  1   
 47  22  24  ar  
 48  22  47  1   
 49  23  24  ar  
 50  23  48  1   
 51  24  49  1   
@<TRIPOS>SUBSTRUCTURE
  1 ****  11 GROUP 4 **** **** 0

# MOE 2024.06 (io_trps.svl 2023.06)
