@<TRIPOS>MOLECULE
NONAME
49 50 1 0 0 
SMALL
USER_CHARGES


@<TRIPOS>ATOM
  1 F       -0.3260     0.8410     0.4710 F     1 <1>  -0.1900 
  2 C       -1.6220     1.0140     0.4050 C.ar  1 <1>   0.1900 
  3 C       -2.2030     1.9470    -0.4610 C.ar  1 <1>   0.0830 
  4 C       -2.3900     0.2270     1.2410 C.ar  1 <1>  -0.1500 
  5 O       -1.5560     2.7770    -1.3290 O.3   1 <1>  -0.3630 
  6 C       -3.5840     2.0570    -0.4540 C.ar  1 <1>  -0.1500 
  7 C       -3.7660     0.3640     1.2230 C.ar  1 <1>  -0.1500 
  8 C       -0.1560     2.7690    -1.5020 C.3   1 <1>   0.0400 
  9 C       -4.3930     1.2760     0.3740 C.ar  1 <1>   0.0530 
 10 C       -5.8260     1.4340     0.3510 C.2   1 <1>   0.0870 
 11 O       -6.3330     2.6380     0.2820 O.3   1 <1>  -0.0190 
 12 C       -6.8730     0.5630     0.3920 C.2   1 <1>  -0.0860 
 13 N       -7.6380     2.6460     0.2840 N.2   1 <1>  -0.4100 
 14 C       -7.9890     1.4110     0.3510 C.2   1 <1>   0.3720 
 15 C       -6.9020    -0.8690     0.4410 C.2   1 <1>   0.7160 
 16 N       -9.3350     1.0100     0.3610 N.pl3 1 <1>  -0.8210 
 17 O       -5.8970    -1.5320     0.2670 O.2   1 <1>  -0.5700 
 18 N       -8.0720    -1.5190     0.6820 N.am  1 <1>  -0.7300 
 19 C      -10.0030     1.2380    -0.9500 C.3   1 <1>   0.1290 
 20 C      -10.1160     1.6160     1.4750 C.3   1 <1>   0.1290 
 21 C       -8.3250    -2.9750     0.5750 C.3   1 <1>   0.1400 
 22 C       -9.4560    -3.2900    -0.4310 C.3   1 <1>   0.0000 
 23 C       -9.6450    -4.8130    -0.4990 C.3   1 <1>  -0.2400 
 24 C       -9.0940    -2.7790    -1.8360 C.3   1 <1>  -0.2400 
 25 C      -10.7840    -2.6540     0.0150 C.3   1 <1>  -0.2400 
 26 H       -1.9170    -0.4820     1.8960 H     1 <1>   0.1500 
 27 H       -4.0430     2.7710    -1.1140 H     1 <1>   0.1500 
 28 H       -4.3640    -0.2480     1.8760 H     1 <1>   0.1500 
 29 H        0.0920     3.4940    -2.2560 H     1 <1>   0.0800 
 30 H        0.1510     1.7890    -1.8240 H     1 <1>   0.0800 
 31 H        0.3140     3.0360    -0.5720 H     1 <1>   0.0800 
 32 H       -8.9020    -0.9090     0.6970 H     1 <1>   0.3700 
 33 H       -9.4140     0.8040    -1.7400 H     1 <1>   0.0800 
 34 H      -10.1050     2.2940    -1.1360 H     1 <1>   0.0800 
 35 H      -10.9770     0.7810    -0.9530 H     1 <1>   0.0800 
 36 H       -9.5840     1.4930     2.4030 H     1 <1>   0.0800 
 37 H      -11.0740     1.1330     1.5590 H     1 <1>   0.0800 
 38 H      -10.2620     2.6690     1.2990 H     1 <1>   0.0800 
 39 H       -8.5920    -3.3490     1.5490 H     1 <1>   0.0800 
 40 H       -7.4220    -3.4760     0.2680 H     1 <1>   0.0800 
 41 H       -8.7360    -5.2910    -0.8230 H     1 <1>   0.0800 
 42 H      -10.4250    -5.0680    -1.1940 H     1 <1>   0.0800 
 43 H       -9.9100    -5.2050     0.4660 H     1 <1>   0.0800 
 44 H       -8.1570    -3.2000    -2.1570 H     1 <1>   0.0800 
 45 H       -9.0000    -1.7090    -1.8430 H     1 <1>   0.0800 
 46 H       -9.8530    -3.0540    -2.5470 H     1 <1>   0.0800 
 47 H      -11.0470    -2.9880     1.0030 H     1 <1>   0.0800 
 48 H      -11.5770    -2.9270    -0.6580 H     1 <1>   0.0800 
 49 H      -10.7130    -1.5820     0.0280 H     1 <1>   0.0800 
@<TRIPOS>BOND
  1   1   2  1   
  2   2   3  ar  
  3   2   4  ar  
  4   3   5  1   
  5   3   6  ar  
  6   4   7  ar  
  7   4  26  1   
  8   5   8  1   
  9   6   9  ar  
 10   6  27  1   
 11   7   9  ar  
 12   7  28  1   
 13   8  29  1   
 14   8  30  1   
 15   8  31  1   
 16   9  10  1   
 17  10  11  1   
 18  10  12  2   
 19  11  13  1   
 20  12  14  1   
 21  12  15  1   
 22  13  14  2   
 23  14  16  1   
 24  15  17  2   
 25  15  18  am  
 26  16  19  1   
 27  16  20  1   
 28  18  21  1   
 29  18  32  1   
 30  19  33  1   
 31  19  34  1   
 32  19  35  1   
 33  20  36  1   
 34  20  37  1   
 35  20  38  1   
 36  21  22  1   
 37  21  39  1   
 38  21  40  1   
 39  22  23  1   
 40  22  24  1   
 41  22  25  1   
 42  23  41  1   
 43  23  42  1   
 44  23  43  1   
 45  24  44  1   
 46  24  45  1   
 47  24  46  1   
 48  25  47  1   
 49  25  48  1   
 50  25  49  1   
@<TRIPOS>SUBSTRUCTURE
  1 ****  12 GROUP 4 **** **** 0

# MOE 2024.06 (io_trps.svl 2023.06)
