@<TRIPOS>MOLECULE
NONAME
49 51 1 0 0 
SMALL
USER_CHARGES


@<TRIPOS>ATOM
  1 O        1.1060    -0.4360     0.8750 O.2   1 <1>  -0.5700 
  2 C        1.5520    -0.7030    -0.2190 C.2   1 <1>   0.5690 
  3 N        2.2010     0.2170    -0.9970 N.am  1 <1>  -0.4930 
  4 C        1.3390    -2.1500    -0.7380 C.3   1 <1>   0.4840 
  5 C        2.4620     1.5780    -0.7000 C.2   1 <1>   0.0630 
  6 N        0.1550    -2.8370    -0.0950 N.4   1 <1>  -0.9590 
  7 C        2.6080    -2.9770    -0.4910 C.3   1 <1>  -0.2400 
  8 C        2.1500     2.3240     0.4390 C.2   1 <1>   0.1390 
  9 C        3.1000     2.4500    -1.5080 C.2   1 <1>  -0.3020 
 10 C       -0.0350    -4.2740    -0.4500 C.3   1 <1>   0.4860 
 11 C       -1.1250    -2.0870    -0.3000 C.3   1 <1>   0.3430 
 12 N        2.5580     3.5540     0.3500 N.2   1 <1>  -0.7070 
 13 N        3.1480     3.6350    -0.8590 N.pl3 1 <1>   0.3140 
 14 C       -1.2190    -4.8650     0.2990 C.ar  1 <1>  -0.1430 
 15 C       -2.1680    -2.5500     0.7190 C.3   1 <1>  -0.0170 
 16 C        3.7710     4.8800    -1.3320 C.3   1 <1>   0.1570 
 17 C       -2.2220    -4.0650     0.8370 C.ar  1 <1>  -0.1440 
 18 C       -1.2970    -6.2430     0.4380 C.ar  1 <1>  -0.1500 
 19 C        5.1570     5.0140    -0.7450 C.2   1 <1>   0.5690 
 20 C       -3.2870    -4.6500     1.5030 C.ar  1 <1>  -0.1500 
 21 C       -2.3630    -6.8210     1.1040 C.ar  1 <1>  -0.1500 
 22 O        6.0640     5.3140    -1.4820 O.2   1 <1>  -0.5700 
 23 N        5.3430     4.8030     0.5870 N.am  1 <1>  -0.7300 
 24 C       -3.3580    -6.0240     1.6370 C.ar  1 <1>  -0.1500 
 25 C        6.6310     4.8990     1.3150 C.3   1 <1>   0.0600 
 26 H        2.5890    -0.0740    -1.8950 H     1 <1>   0.3700 
 27 H        1.1710    -2.0920    -1.8000 H     1 <1>   0.0800 
 28 H        0.3250    -2.7990     0.9220 H     1 <1>   0.4500 
 29 H        2.7540    -3.1420     0.5630 H     1 <1>   0.0800 
 30 H        3.4660    -2.4440    -0.8600 H     1 <1>   0.0800 
 31 H        2.5770    -3.9190    -1.0070 H     1 <1>   0.0800 
 32 H        1.6330     1.9380     1.3020 H     1 <1>   0.1500 
 33 H        3.5230     2.3070    -2.4850 H     1 <1>   0.1500 
 34 H        0.8460    -4.8380    -0.1940 H     1 <1>   0.0800 
 35 H       -0.2070    -4.3720    -1.5090 H     1 <1>   0.0800 
 36 H       -1.4970    -2.2650    -1.2960 H     1 <1>   0.0800 
 37 H       -0.9720    -1.0270    -0.1760 H     1 <1>   0.0800 
 38 H       -3.1320    -2.1720     0.4260 H     1 <1>   0.0800 
 39 H       -1.9330    -2.1280     1.6810 H     1 <1>   0.0800 
 40 H        3.1690     5.7110    -1.0210 H     1 <1>   0.0800 
 41 H        3.8290     4.8630    -2.4030 H     1 <1>   0.0800 
 42 H       -0.5360    -6.8870     0.0310 H     1 <1>   0.1500 
 43 H       -4.0690    -4.0420     1.9270 H     1 <1>   0.1500 
 44 H       -2.4200    -7.8920     1.2100 H     1 <1>   0.1500 
 45 H        4.5330     4.4640     1.1300 H     1 <1>   0.3700 
 46 H       -4.1880    -6.4740     2.1560 H     1 <1>   0.1500 
 47 H        7.4110     5.2330     0.6510 H     1 <1>   0.0800 
 48 H        6.8990     3.9350     1.7090 H     1 <1>   0.0800 
 49 H        6.5390     5.6020     2.1250 H     1 <1>   0.0800 
@<TRIPOS>BOND
  1   1   2  2   
  2   2   3  am  
  3   2   4  1   
  4   3   5  1   
  5   3  26  1   
  6   4   6  1   
  7   4   7  1   
  8   4  27  1   
  9   5   8  1   
 10   5   9  2   
 11   6  10  1   
 12   6  11  1   
 13   6  28  1   
 14   7  29  1   
 15   7  30  1   
 16   7  31  1   
 17   8  12  2   
 18   8  32  1   
 19   9  13  1   
 20   9  33  1   
 21  10  14  1   
 22  10  34  1   
 23  10  35  1   
 24  11  15  1   
 25  11  36  1   
 26  11  37  1   
 27  12  13  1   
 28  13  16  1   
 29  14  17  ar  
 30  14  18  ar  
 31  15  17  1   
 32  15  38  1   
 33  15  39  1   
 34  16  19  1   
 35  16  40  1   
 36  16  41  1   
 37  17  20  ar  
 38  18  21  ar  
 39  18  42  1   
 40  19  22  2   
 41  19  23  am  
 42  20  24  ar  
 43  20  43  1   
 44  21  24  ar  
 45  21  44  1   
 46  23  25  1   
 47  23  45  1   
 48  24  46  1   
 49  25  47  1   
 50  25  48  1   
 51  25  49  1   
@<TRIPOS>SUBSTRUCTURE
  1 ****   2 GROUP 4 **** **** 0

# MOE 2024.06 (io_trps.svl 2023.06)
