@<TRIPOS>MOLECULE
NONAME
33 34 1 0 0 
SMALL
USER_CHARGES


@<TRIPOS>ATOM
  1 O        2.2720    -0.9170    -2.0430 O.2   1 <1>  -0.5700 
  2 C        2.1210    -1.0770    -0.8530 C.2   1 <1>   0.5690 
  3 N        2.2940    -0.0640     0.0490 N.am  1 <1>  -0.4930 
  4 C        1.7320    -2.4640    -0.3410 C.3   1 <1>   0.2370 
  5 C        2.6670     1.2830    -0.1850 C.2   1 <1>   0.0630 
  6 N        0.6510    -2.2970     0.6500 N.pl3 1 <1>   0.3140 
  7 C        1.3340    -3.4770    -1.4380 C.3   1 <1>  -0.2400 
  8 C        3.0370     1.9140    -1.3730 C.2   1 <1>   0.1390 
  9 C        2.7370     2.2530     0.7490 C.2   1 <1>  -0.3020 
 10 N        0.9000    -2.0850     1.9260 N.2   1 <1>  -0.4180 
 11 C       -0.6580    -2.2390     0.4900 C.2   1 <1>   0.0360 
 12 N        3.3160     3.1720    -1.1970 N.2   1 <1>  -0.7070 
 13 N        3.1280     3.3860     0.1230 N.pl3 1 <1>   0.3140 
 14 N       -0.2400    -1.9230     2.4960 N.2   1 <1>   0.0000 
 15 N       -1.2260    -2.0140     1.6110 N.2   1 <1>  -0.3380 
 16 C        3.3340     4.7120     0.7740 C.3   1 <1>   0.1760 
 17 C        2.3800     5.7600     0.1840 C.3   1 <1>  -0.2400 
 18 C        4.7950     5.1640     0.6330 C.3   1 <1>  -0.2400 
 19 H        2.0760    -0.2720     1.0300 H     1 <1>   0.3700 
 20 H        2.5830    -2.8600     0.1800 H     1 <1>   0.0800 
 21 H        0.5230    -3.1000    -2.0350 H     1 <1>   0.0800 
 22 H        1.0550    -4.4200    -1.0010 H     1 <1>   0.0800 
 23 H        2.1720    -3.6450    -2.0920 H     1 <1>   0.0800 
 24 H        3.0890     1.4240    -2.3300 H     1 <1>   0.1500 
 25 H        2.5330     2.2050     1.8010 H     1 <1>   0.1500 
 26 H       -1.1610    -2.3580    -0.4520 H     1 <1>   0.1500 
 27 H        3.1120     4.5980     1.8190 H     1 <1>   0.0800 
 28 H        2.5830     5.9020    -0.8640 H     1 <1>   0.0800 
 29 H        2.5030     6.7010     0.6880 H     1 <1>   0.0800 
 30 H        1.3600     5.4390     0.3010 H     1 <1>   0.0800 
 31 H        5.0470     5.2930    -0.4060 H     1 <1>   0.0800 
 32 H        5.4530     4.4290     1.0630 H     1 <1>   0.0800 
 33 H        4.9460     6.0980     1.1410 H     1 <1>   0.0800 
@<TRIPOS>BOND
  1   1   2  2   
  2   2   3  am  
  3   2   4  1   
  4   3   5  1   
  5   3  19  1   
  6   4   6  1   
  7   4   7  1   
  8   4  20  1   
  9   5   8  1   
 10   5   9  2   
 11   6  10  1   
 12   6  11  1   
 13   7  21  1   
 14   7  22  1   
 15   7  23  1   
 16   8  12  2   
 17   8  24  1   
 18   9  13  1   
 19   9  25  1   
 20  10  14  2   
 21  11  15  2   
 22  11  26  1   
 23  12  13  1   
 24  13  16  1   
 25  14  15  1   
 26  16  17  1   
 27  16  18  1   
 28  16  27  1   
 29  17  28  1   
 30  17  29  1   
 31  17  30  1   
 32  18  31  1   
 33  18  32  1   
 34  18  33  1   
@<TRIPOS>SUBSTRUCTURE
  1 ****   3 GROUP 4 **** **** 0

# MOE 2024.06 (io_trps.svl 2023.06)
