@<TRIPOS>MOLECULE
NONAME
45 46 1 0 0 
SMALL
USER_CHARGES


@<TRIPOS>ATOM
  1 O       -0.5970    -0.0100     0.1410 O.3   1 <1>  -0.3630 
  2 C       -0.4410     1.3290     0.3030 C.ar  1 <1>   0.0830 
  3 C       -1.8650    -0.5790    -0.0610 C.3   1 <1>   0.1200 
  4 C        0.8540     1.7900     0.4640 C.ar  1 <1>  -0.1500 
  5 C       -1.4980     2.2370     0.3130 C.ar  1 <1>  -0.1500 
  6 C       -1.6610    -2.0900    -0.2160 C.3   1 <1>   0.3430 
  7 C        1.1120     3.1390     0.6340 C.ar  1 <1>   0.0830 
  8 C       -1.2460     3.5870     0.4830 C.ar  1 <1>  -0.1500 
  9 N       -2.9460    -2.8440    -0.3920 N.4   1 <1>  -0.9590 
 10 O        2.4110     3.4990     0.7830 O.3   1 <1>  -0.3630 
 11 C        0.0520     4.0420     0.6430 C.ar  1 <1>  -0.1500 
 12 C       -2.7170    -4.3090    -0.2750 C.3   1 <1>   0.5240 
 13 C       -3.6620    -2.5100    -1.6540 C.3   1 <1>   0.3430 
 14 C        2.7830     4.8470     0.9640 C.3   1 <1>   0.0400 
 15 C       -4.0630    -4.9590    -0.0720 C.2   1 <1>  -0.1810 
 16 C       -4.9260    -1.7400    -1.3000 C.3   1 <1>  -0.2400 
 17 C       -4.7470    -5.7200    -1.0130 C.2   1 <1>   0.1390 
 18 C       -4.8760    -4.9420     1.0090 C.2   1 <1>  -0.3020 
 19 N       -5.8910    -6.1260    -0.5670 N.2   1 <1>  -0.7070 
 20 N       -5.9730    -5.6590     0.6870 N.pl3 1 <1>   0.3140 
 21 C       -7.1380    -5.9460     1.5340 C.3   1 <1>   0.0160 
 22 H       -2.2830    -0.1460    -0.9520 H     1 <1>   0.0800 
 23 H       -2.4710    -0.3580     0.8000 H     1 <1>   0.0800 
 24 H        1.6750     1.0980     0.4580 H     1 <1>   0.1500 
 25 H       -2.5170     1.9230     0.1940 H     1 <1>   0.1500 
 26 H       -1.1570    -2.4460     0.6680 H     1 <1>   0.0800 
 27 H       -1.0200    -2.2650    -1.0640 H     1 <1>   0.0800 
 28 H       -2.0610     4.2910     0.4910 H     1 <1>   0.1500 
 29 H       -3.5880    -2.6240     0.3820 H     1 <1>   0.4500 
 30 H        0.2170     5.0940     0.7720 H     1 <1>   0.1500 
 31 H       -2.0930    -4.5220     0.5780 H     1 <1>   0.0800 
 32 H       -2.2380    -4.6940    -1.1610 H     1 <1>   0.0800 
 33 H       -3.9370    -3.4090    -2.1830 H     1 <1>   0.0800 
 34 H       -3.0340    -1.9170    -2.3010 H     1 <1>   0.0800 
 35 H        3.8530     4.8880     1.0600 H     1 <1>   0.0800 
 36 H        2.3210     5.2200     1.8620 H     1 <1>   0.0800 
 37 H        2.4710     5.4140     0.1050 H     1 <1>   0.0800 
 38 H       -5.5830    -2.3460    -0.7010 H     1 <1>   0.0800 
 39 H       -5.4500    -1.4880    -2.2050 H     1 <1>   0.0800 
 40 H       -4.7000    -0.8250    -0.7820 H     1 <1>   0.0800 
 41 H       -4.3960    -5.9600    -2.0050 H     1 <1>   0.1500 
 42 H       -4.7540    -4.4840     1.9740 H     1 <1>   0.1500 
 43 H       -7.0150    -5.4830     2.4950 H     1 <1>   0.0800 
 44 H       -7.2270    -7.0100     1.6520 H     1 <1>   0.0800 
 45 H       -8.0200    -5.5660     1.0550 H     1 <1>   0.0800 
@<TRIPOS>BOND
  1   1   2  1   
  2   1   3  1   
  3   2   4  ar  
  4   2   5  ar  
  5   3   6  1   
  6   3  22  1   
  7   3  23  1   
  8   4   7  ar  
  9   4  24  1   
 10   5   8  ar  
 11   5  25  1   
 12   6   9  1   
 13   6  26  1   
 14   6  27  1   
 15   7  10  1   
 16   7  11  ar  
 17   8  11  ar  
 18   8  28  1   
 19   9  12  1   
 20   9  13  1   
 21   9  29  1   
 22  10  14  1   
 23  11  30  1   
 24  12  15  1   
 25  12  31  1   
 26  12  32  1   
 27  13  16  1   
 28  13  33  1   
 29  13  34  1   
 30  14  35  1   
 31  14  36  1   
 32  14  37  1   
 33  15  17  1   
 34  15  18  2   
 35  16  38  1   
 36  16  39  1   
 37  16  40  1   
 38  17  19  2   
 39  17  41  1   
 40  18  20  1   
 41  18  42  1   
 42  19  20  1   
 43  20  21  1   
 44  21  43  1   
 45  21  44  1   
 46  21  45  1   
@<TRIPOS>SUBSTRUCTURE
  1 ****   3 GROUP 4 **** **** 0

# MOE 2024.06 (io_trps.svl 2023.06)
