@<TRIPOS>MOLECULE
NONAME
47 49 1 0 0 
SMALL
USER_CHARGES


@<TRIPOS>ATOM
  1 S        0.7670    -0.3260     1.3850 S.3   1 <1>  -0.0800 
  2 C        0.4710    -0.8170    -0.2670 C.2   1 <1>   0.4620 
  3 C       -0.2190    -1.6500     1.9210 C.2   1 <1>  -0.1100 
  4 N       -0.2790    -1.8440    -0.3870 N.2   1 <1>  -0.5650 
  5 N        1.0360    -0.1070    -1.2710 N.pl3 1 <1>  -0.8840 
  6 C       -0.6940    -2.3420     0.8600 C.2   1 <1>   0.1410 
  7 C       -1.5440    -3.5280     0.9900 C.2   1 <1>   0.7160 
  8 O       -1.4960    -4.1640     2.0300 O.2   1 <1>  -0.5700 
  9 N       -2.4210    -3.9730     0.0130 N.am  1 <1>  -0.6600 
 10 C       -2.9250    -5.3790     0.0500 C.3   1 <1>   0.1400 
 11 C       -2.9160    -3.0930    -1.0860 C.3   1 <1>   0.1400 
 12 C       -4.2240    -5.4920     0.8620 C.3   1 <1>   0.1400 
 13 C       -4.3980    -3.2950    -1.4330 C.3   1 <1>  -0.1600 
 14 N       -5.4030    -4.9360     0.1220 N.am  1 <1>  -0.6600 
 15 C       -5.3070    -3.4870    -0.2150 C.3   1 <1>   0.1400 
 16 C       -6.5070    -5.6620    -0.2550 C.2   1 <1>   0.5690 
 17 O       -7.3900    -5.1730    -0.9210 O.2   1 <1>  -0.5700 
 18 C       -6.6440    -7.1220     0.1400 C.3   1 <1>  -0.0990 
 19 C       -8.0120    -7.7110    -0.2350 C.3   1 <1>   0.0960 
 20 N       -8.0640    -9.1490     0.0850 N.pl3 1 <1>   0.3140 
 21 N       -7.9140    -9.6100     1.3420 N.2   1 <1>  -0.7070 
 22 C       -8.2450   -10.1600    -0.7870 C.2   1 <1>  -0.3020 
 23 C       -8.0080   -10.9000     1.2350 C.2   1 <1>   0.1390 
 24 C       -8.2150   -11.3060    -0.0790 C.2   1 <1>  -0.1810 
 25 C       -8.3710   -12.7290    -0.5750 C.3   1 <1>  -0.0590 
 26 H       -0.3500    -1.7940     2.9780 H     1 <1>   0.1500 
 27 H        0.9670    -0.4540    -2.2280 H     1 <1>   0.4000 
 28 H        1.7260     0.6230    -1.0900 H     1 <1>   0.4000 
 29 H       -2.1780    -6.0020     0.5130 H     1 <1>   0.0800 
 30 H       -3.0770    -5.7500    -0.9490 H     1 <1>   0.0800 
 31 H       -2.3120    -3.2510    -1.9630 H     1 <1>   0.0800 
 32 H       -2.7930    -2.0660    -0.7880 H     1 <1>   0.0800 
 33 H       -4.1060    -4.9700     1.7970 H     1 <1>   0.0800 
 34 H       -4.3770    -6.5280     1.0950 H     1 <1>   0.0800 
 35 H       -4.5150    -4.1200    -2.1130 H     1 <1>   0.0800 
 36 H       -4.7230    -2.4170    -1.9610 H     1 <1>   0.0800 
 37 H       -6.2880    -3.1040    -0.4450 H     1 <1>   0.0800 
 38 H       -4.9360    -2.9340     0.6310 H     1 <1>   0.0800 
 39 H       -6.5190    -7.2040     1.2040 H     1 <1>   0.0800 
 40 H       -5.8720    -7.6820    -0.3540 H     1 <1>   0.0800 
 41 H       -8.1960    -7.5860    -1.2870 H     1 <1>   0.0800 
 42 H       -8.7910    -7.2120     0.3120 H     1 <1>   0.0800 
 43 H       -8.3830   -10.0080    -1.8420 H     1 <1>   0.1500 
 44 H       -7.9330   -11.5700     2.0750 H     1 <1>   0.1500 
 45 H       -8.5170   -12.7360    -1.6400 H     1 <1>   0.0800 
 46 H       -9.2200   -13.1900    -0.1040 H     1 <1>   0.0800 
 47 H       -7.4880   -13.2970    -0.3420 H     1 <1>   0.0800 
@<TRIPOS>BOND
  1   1   2  1   
  2   1   3  1   
  3   2   4  2   
  4   2   5  1   
  5   3   6  2   
  6   3  26  1   
  7   4   6  1   
  8   5  27  1   
  9   5  28  1   
 10   6   7  1   
 11   7   8  2   
 12   7   9  am  
 13   9  10  1   
 14   9  11  1   
 15  10  12  1   
 16  10  29  1   
 17  10  30  1   
 18  11  13  1   
 19  11  31  1   
 20  11  32  1   
 21  12  14  1   
 22  12  33  1   
 23  12  34  1   
 24  13  15  1   
 25  13  35  1   
 26  13  36  1   
 27  14  15  1   
 28  14  16  am  
 29  15  37  1   
 30  15  38  1   
 31  16  17  2   
 32  16  18  1   
 33  18  19  1   
 34  18  39  1   
 35  18  40  1   
 36  19  20  1   
 37  19  41  1   
 38  19  42  1   
 39  20  21  1   
 40  20  22  1   
 41  21  23  2   
 42  22  24  2   
 43  22  43  1   
 44  23  24  1   
 45  23  44  1   
 46  24  25  1   
 47  25  45  1   
 48  25  46  1   
 49  25  47  1   
@<TRIPOS>SUBSTRUCTURE
  1 ****  12 GROUP 4 **** **** 0

# MOE 2024.06 (io_trps.svl 2023.06)
