@<TRIPOS>MOLECULE
NONAME
57 59 1 0 0 
SMALL
USER_CHARGES


@<TRIPOS>ATOM
  1 O       -0.1850    -0.7480    -1.0990 O.3   1 <1>  -0.5600 
  2 C        1.2050    -0.8290    -1.2770 C.3   1 <1>   0.2000 
  3 C       -0.6890     0.5450    -0.9760 C.3   1 <1>   0.1200 
  4 C        1.9720    -0.0480    -0.1620 C.3   1 <1>   0.3340 
  5 C        1.5190    -2.3380    -1.3030 C.3   1 <1>   0.1200 
  6 C       -0.0850     1.2040     0.2690 C.3   1 <1>   0.1100 
  7 N        1.3820     1.2960     0.1520 N.3   1 <1>  -0.8100 
  8 C        3.4380     0.1640    -0.5400 C.ar  1 <1>  -0.1440 
  9 O        2.8830    -2.6080    -1.3430 O.3   1 <1>  -0.6800 
 10 C        1.9780     1.9070     1.3830 C.3   1 <1>   0.2540 
 11 C        4.4420    -0.3820     0.2460 C.ar  1 <1>  -0.1500 
 12 C        3.7890     0.9340    -1.6400 C.ar  1 <1>  -0.1500 
 13 C        3.3170     2.6380     1.1480 C.cat 1 <1>   0.6560 
 14 C        5.7790    -0.1240    -0.0180 C.ar  1 <1>   0.0830 
 15 C        5.1200     1.1930    -1.9170 C.ar  1 <1>  -0.1500 
 16 N        3.4820     3.5070     0.1650 N.pl3 1 <1>  -0.7000 
 17 N        4.4620     2.5040     1.8250 N.pl3 1 <1>  -0.7640 
 18 O        6.7190    -0.6330     0.8190 O.3   1 <1>  -0.3630 
 19 C        6.1230     0.6920    -1.1060 C.ar  1 <1>   0.0830 
 20 C        4.7830     3.9100     0.1560 C.2   1 <1>   0.1820 
 21 C        5.4000     3.2820     1.1840 C.2   1 <1>   0.1820 
 22 C        4.7750     1.6160     2.9790 C.3   1 <1>   0.2740 
 23 C        6.7450    -2.0360     0.9810 C.3   1 <1>   0.0400 
 24 O        7.3890     1.0660    -1.4390 O.3   1 <1>  -0.3630 
 25 C        5.2980     4.8640    -0.9020 C.3   1 <1>  -0.0720 
 26 C        6.8550     3.3240     1.6140 C.3   1 <1>  -0.0720 
 27 C        8.4590     0.1550    -1.3130 C.3   1 <1>   0.0400 
 28 H        1.4280    -0.4060    -2.2400 H     1 <1>   0.0800 
 29 H       -0.4540     1.1030    -1.8660 H     1 <1>   0.0800 
 30 H       -1.7580     0.4710    -0.8790 H     1 <1>   0.0800 
 31 H        1.9250    -0.6590     0.7240 H     1 <1>   0.0800 
 32 H        1.0650    -2.7950    -2.1650 H     1 <1>   0.0800 
 33 H        1.1300    -2.8050    -0.4150 H     1 <1>   0.0800 
 34 H       -0.3600     0.6290     1.1370 H     1 <1>   0.0800 
 35 H       -0.5010     2.1920     0.3710 H     1 <1>   0.0800 
 36 H        3.2930    -2.2420    -2.1530 H     1 <1>   0.4000 
 37 H        1.2980     2.6430     1.7730 H     1 <1>   0.0800 
 38 H        2.0970     1.1510     2.1370 H     1 <1>   0.0800 
 39 H        4.1800    -1.0010     1.0830 H     1 <1>   0.1500 
 40 H        3.0250     1.3520    -2.2730 H     1 <1>   0.1500 
 41 H        5.3890     1.7970    -2.7640 H     1 <1>   0.1500 
 42 H        2.7580     3.7250    -0.5220 H     1 <1>   0.4500 
 43 H        5.1140     2.2090     3.8110 H     1 <1>   0.0800 
 44 H        5.5540     0.9250     2.7040 H     1 <1>   0.0800 
 45 H        3.9120     1.0550     3.2840 H     1 <1>   0.0800 
 46 H        7.6640    -2.3010     1.4730 H     1 <1>   0.0800 
 47 H        6.7010    -2.5020     0.0120 H     1 <1>   0.0800 
 48 H        5.9090    -2.3440     1.5820 H     1 <1>   0.0800 
 49 H        6.3470     5.0540    -0.7690 H     1 <1>   0.0800 
 50 H        4.7680     5.7970    -0.8440 H     1 <1>   0.0800 
 51 H        5.1510     4.4370    -1.8780 H     1 <1>   0.0800 
 52 H        7.4200     3.9900     0.9900 H     1 <1>   0.0800 
 53 H        7.2850     2.3410     1.5300 H     1 <1>   0.0800 
 54 H        6.9320     3.6590     2.6320 H     1 <1>   0.0800 
 55 H        9.2620     0.4920    -1.9430 H     1 <1>   0.0800 
 56 H        8.1300    -0.8200    -1.6270 H     1 <1>   0.0800 
 57 H        8.7850     0.1380    -0.2890 H     1 <1>   0.0800 
@<TRIPOS>BOND
  1   1   2  1   
  2   1   3  1   
  3   2   4  1   
  4   2   5  1   
  5   2  28  1   
  6   3   6  1   
  7   3  29  1   
  8   3  30  1   
  9   4   7  1   
 10   4   8  1   
 11   4  31  1   
 12   5   9  1   
 13   5  32  1   
 14   5  33  1   
 15   6   7  1   
 16   6  34  1   
 17   6  35  1   
 18   7  10  1   
 19   8  11  ar  
 20   8  12  ar  
 21   9  36  1   
 22  10  13  1   
 23  10  37  1   
 24  10  38  1   
 25  11  14  ar  
 26  11  39  1   
 27  12  15  ar  
 28  12  40  1   
 29  13  16  ar  
 30  13  17  ar  
 31  14  18  1   
 32  14  19  ar  
 33  15  19  ar  
 34  15  41  1   
 35  16  20  1   
 36  16  42  1   
 37  17  21  1   
 38  17  22  1   
 39  18  23  1   
 40  19  24  1   
 41  20  21  2   
 42  20  25  1   
 43  21  26  1   
 44  22  43  1   
 45  22  44  1   
 46  22  45  1   
 47  23  46  1   
 48  23  47  1   
 49  23  48  1   
 50  24  27  1   
 51  25  49  1   
 52  25  50  1   
 53  25  51  1   
 54  26  52  1   
 55  26  53  1   
 56  26  54  1   
 57  27  55  1   
 58  27  56  1   
 59  27  57  1   
@<TRIPOS>SUBSTRUCTURE
  1 ****   8 GROUP 4 **** **** 0

# MOE 2024.06 (io_trps.svl 2023.06)
