@<TRIPOS>MOLECULE
NONAME
58 61 1 0 0 
SMALL
USER_CHARGES


@<TRIPOS>ATOM
  1 O       -0.4380     1.3950    -1.3400 O.2   1 <1>  -0.5700 
  2 C       -1.1530     1.5560    -0.3690 C.2   1 <1>   0.5440 
  3 N       -2.0160     0.5470     0.0000 N.am  1 <1>  -0.6600 
  4 C       -1.0790     2.8070     0.3600 C.ar  1 <1>   0.0860 
  5 C       -1.9240    -0.8270    -0.5820 C.3   1 <1>   0.1400 
  6 C       -3.2730     0.7690     0.7780 C.3   1 <1>   0.1400 
  7 C       -1.0870     4.0310    -0.2810 C.ar  1 <1>  -0.1500 
  8 C       -0.9850     2.8700     1.7440 C.ar  1 <1>  -0.1500 
  9 C       -3.2270    -1.1960    -1.3080 C.3   1 <1>   0.1200 
 10 C       -4.4990     0.2970    -0.0230 C.3   1 <1>   0.1200 
 11 C       -1.0240     5.2170     0.4370 C.ar  1 <1>   0.4100 
 12 C       -0.9280     4.0940     2.3770 C.ar  1 <1>   0.1600 
 13 O       -4.3290    -1.0210    -0.4600 O.3   1 <1>  -0.5600 
 14 N       -0.9500     5.2610     1.7600 N.ar  1 <1>  -0.6200 
 15 N       -1.0360     6.4090    -0.2480 N.pl3 1 <1>  -0.8690 
 16 C       -0.7120     7.7060     0.3730 C.3   1 <1>   0.2890 
 17 C       -1.3910     8.8140    -0.4290 C.3   1 <1>  -0.1600 
 18 C        0.8060     7.8890     0.3880 C.3   1 <1>  -0.1600 
 19 C       -1.0040    10.1880     0.1170 C.3   1 <1>   0.1400 
 20 C        1.1830     9.2710     0.9240 C.3   1 <1>   0.1400 
 21 N        0.4800    10.3170     0.1300 N.am  1 <1>  -0.6600 
 22 C        1.1340    11.2340    -0.6710 C.2   1 <1>   0.5440 
 23 O        0.5060    11.8180    -1.5340 O.2   1 <1>  -0.5700 
 24 C        2.5510    11.5100    -0.5220 C.ar  1 <1>   0.0860 
 25 C        3.0920    11.9190     0.6960 C.ar  1 <1>  -0.1500 
 26 C        3.4230    11.3780    -1.6010 C.ar  1 <1>  -0.1500 
 27 C        4.4460    12.1650     0.8360 C.ar  1 <1>  -0.1500 
 28 C        4.7770    11.6220    -1.4670 C.ar  1 <1>  -0.1500 
 29 C        5.2980    12.0140    -0.2450 C.ar  1 <1>  -0.1430 
 30 C        6.7850    12.2840    -0.0960 C.3   1 <1>  -0.0970 
 31 H       -1.7490    -1.5340     0.2090 H     1 <1>   0.0800 
 32 H       -1.1010    -0.8970    -1.2720 H     1 <1>   0.0800 
 33 H       -3.3980     1.8110     1.0150 H     1 <1>   0.0800 
 34 H       -3.2210     0.2180     1.7010 H     1 <1>   0.0800 
 35 H       -1.1430     4.0650    -1.3520 H     1 <1>   0.1500 
 36 H       -0.9540     1.9620     2.3170 H     1 <1>   0.1500 
 37 H       -3.2040    -2.2280    -1.6090 H     1 <1>   0.0800 
 38 H       -3.3590    -0.5820    -2.1820 H     1 <1>   0.0800 
 39 H       -4.6550     0.9270    -0.8820 H     1 <1>   0.0800 
 40 H       -5.3800     0.3270     0.5930 H     1 <1>   0.0800 
 41 H       -0.8580     4.1180     3.4520 H     1 <1>   0.1500 
 42 H       -0.7830     6.3620    -1.2350 H     1 <1>   0.4000 
 43 H       -1.0860     7.7320     1.3840 H     1 <1>   0.0800 
 44 H       -2.4580     8.6960    -0.3690 H     1 <1>   0.0800 
 45 H       -1.0980     8.7610    -1.4620 H     1 <1>   0.0800 
 46 H        1.2020     7.7820    -0.6060 H     1 <1>   0.0800 
 47 H        1.2480     7.1360     1.0150 H     1 <1>   0.0800 
 48 H       -1.3750    10.3030     1.1210 H     1 <1>   0.0800 
 49 H       -1.4510    10.9580    -0.4890 H     1 <1>   0.0800 
 50 H        2.2500     9.3880     0.8670 H     1 <1>   0.0800 
 51 H        0.8900     9.3570     1.9570 H     1 <1>   0.0800 
 52 H        2.4360    12.0460     1.5390 H     1 <1>   0.1500 
 53 H        3.0220    11.0810    -2.5550 H     1 <1>   0.1500 
 54 H        4.8340    12.4780     1.7900 H     1 <1>   0.1500 
 55 H        5.4240    11.5100    -2.3190 H     1 <1>   0.1500 
 56 H        7.1060    12.0850     0.9110 H     1 <1>   0.0800 
 57 H        6.9910    13.3130    -0.3290 H     1 <1>   0.0800 
 58 H        7.3490    11.6570    -0.7620 H     1 <1>   0.0800 
@<TRIPOS>BOND
  1   1   2  2   
  2   2   3  am  
  3   2   4  1   
  4   3   5  1   
  5   3   6  1   
  6   4   7  ar  
  7   4   8  ar  
  8   5   9  1   
  9   5  31  1   
 10   5  32  1   
 11   6  10  1   
 12   6  33  1   
 13   6  34  1   
 14   7  11  ar  
 15   7  35  1   
 16   8  12  ar  
 17   8  36  1   
 18   9  13  1   
 19   9  37  1   
 20   9  38  1   
 21  10  13  1   
 22  10  39  1   
 23  10  40  1   
 24  11  14  ar  
 25  11  15  1   
 26  12  14  ar  
 27  12  41  1   
 28  15  16  1   
 29  15  42  1   
 30  16  17  1   
 31  16  18  1   
 32  16  43  1   
 33  17  19  1   
 34  17  44  1   
 35  17  45  1   
 36  18  20  1   
 37  18  46  1   
 38  18  47  1   
 39  19  21  1   
 40  19  48  1   
 41  19  49  1   
 42  20  21  1   
 43  20  50  1   
 44  20  51  1   
 45  21  22  am  
 46  22  23  2   
 47  22  24  1   
 48  24  25  ar  
 49  24  26  ar  
 50  25  27  ar  
 51  25  52  1   
 52  26  28  ar  
 53  26  53  1   
 54  27  29  ar  
 55  27  54  1   
 56  28  29  ar  
 57  28  55  1   
 58  29  30  1   
 59  30  56  1   
 60  30  57  1   
 61  30  58  1   
@<TRIPOS>SUBSTRUCTURE
  1 ****  15 GROUP 4 **** **** 0

# MOE 2024.06 (io_trps.svl 2023.06)
