@<TRIPOS>MOLECULE
NONAME
52 55 1 0 0 
SMALL
USER_CHARGES


@<TRIPOS>ATOM
  1 O       -1.1100    -2.8510     1.2440 O.2   1 <1>  -0.5700 
  2 C       -1.5790    -2.1490     0.3730 C.2   1 <1>   0.9370 
  3 N       -2.5820    -1.2290     0.7370 N.pl3 1 <1>  -0.5760 
  4 C       -1.1420    -2.2240    -0.9790 C.2   1 <1>   0.0290 
  5 C       -3.1000    -0.3880    -0.1960 C.cat 1 <1>   0.7390 
  6 C       -3.0420    -1.1520     2.0330 C.2   1 <1>   0.1910 
  7 C       -0.1190    -3.1470    -1.3490 C.2   1 <1>   0.6160 
  8 C       -1.6800    -1.3570    -1.8700 C.2   1 <1>   0.1910 
  9 N       -2.6410    -0.4670    -1.4690 N.pl3 1 <1>  -0.6450 
 10 C       -4.0870     0.5380     0.1630 C.2   1 <1>  -0.1800 
 11 C       -4.0050    -0.2540     2.3990 C.2   1 <1>  -0.1500 
 12 O        0.7850    -2.7240    -2.0400 O.2   1 <1>  -0.5700 
 13 N       -0.1200    -4.4830    -1.0030 N.am  1 <1>  -0.6600 
 14 C       -4.5480     0.6160     1.4500 C.2   1 <1>  -0.1500 
 15 C        1.1430    -5.3280    -1.0370 C.3   1 <1>   0.2200 
 16 C       -1.4150    -5.2250    -0.8610 C.3   1 <1>   0.1400 
 17 C        1.0280    -6.5820    -0.1150 C.3   1 <1>   0.0000 
 18 C        2.4370    -4.5100    -0.7590 C.3   1 <1>   0.3430 
 19 C       -1.2740    -6.6690    -1.3370 C.3   1 <1>  -0.1600 
 20 C        2.3340    -7.4400    -0.2100 C.3   1 <1>  -0.1600 
 21 C       -0.1780    -7.4510    -0.5900 C.3   1 <1>  -0.1600 
 22 C        0.7640    -6.1900     1.3770 C.3   1 <1>   0.1200 
 23 N        3.5520    -5.3070    -0.1540 N.4   1 <1>  -0.9590 
 24 C        3.5920    -6.6890    -0.6700 C.3   1 <1>   0.3430 
 25 O        1.8510    -5.5680     1.9870 O.3   1 <1>  -0.6800 
 26 C        4.8600    -4.5990    -0.2390 C.3   1 <1>   0.2630 
 27 H       -2.6270    -1.8180     2.7790 H     1 <1>   0.1500 
 28 H       -1.3640    -1.3400    -2.9060 H     1 <1>   0.1500 
 29 H       -3.0330     0.1940    -2.1520 H     1 <1>   0.4500 
 30 H       -4.4880     1.1970    -0.5870 H     1 <1>   0.1500 
 31 H       -4.3550    -0.2050     3.4180 H     1 <1>   0.1500 
 32 H       -5.3090     1.3240     1.7440 H     1 <1>   0.1500 
 33 H        1.2380    -5.6890    -2.0470 H     1 <1>   0.0800 
 34 H       -1.7320    -5.2170     0.1680 H     1 <1>   0.0800 
 35 H       -2.1800    -4.7450    -1.4490 H     1 <1>   0.0800 
 36 H        2.1910    -3.7080    -0.0840 H     1 <1>   0.0800 
 37 H        2.7640    -4.0740    -1.6880 H     1 <1>   0.0800 
 38 H       -2.2160    -7.1790    -1.2200 H     1 <1>   0.0800 
 39 H       -1.0540    -6.6580    -2.3910 H     1 <1>   0.0800 
 40 H        2.2180    -8.2560    -0.8980 H     1 <1>   0.0800 
 41 H        2.5380    -7.8950     0.7440 H     1 <1>   0.0800 
 42 H        0.1380    -8.2300    -1.2620 H     1 <1>   0.0800 
 43 H       -0.6220    -7.9540     0.2530 H     1 <1>   0.0800 
 44 H        0.5490    -7.0750     1.9530 H     1 <1>   0.0800 
 45 H       -0.0760    -5.5250     1.4670 H     1 <1>   0.0800 
 46 H        3.2700    -5.4000     0.8470 H     1 <1>   0.4500 
 47 H        3.6320    -6.6670    -1.7480 H     1 <1>   0.0800 
 48 H        4.4690    -7.2020    -0.3080 H     1 <1>   0.0800 
 49 H        1.6280    -5.3640     2.9240 H     1 <1>   0.4000 
 50 H        5.1520    -4.4750    -1.2690 H     1 <1>   0.0800 
 51 H        5.6230    -5.1630     0.2730 H     1 <1>   0.0800 
 52 H        4.7880    -3.6260     0.2190 H     1 <1>   0.0800 
@<TRIPOS>BOND
  1   1   2  2   
  2   2   3  1   
  3   2   4  1   
  4   3   5  ar  
  5   3   6  1   
  6   4   7  1   
  7   4   8  2   
  8   5   9  ar  
  9   5  10  1   
 10   6  11  2   
 11   6  27  1   
 12   7  12  2   
 13   7  13  am  
 14   8   9  1   
 15   8  28  1   
 16   9  29  1   
 17  10  14  2   
 18  10  30  1   
 19  11  14  1   
 20  11  31  1   
 21  13  15  1   
 22  13  16  1   
 23  14  32  1   
 24  15  17  1   
 25  15  18  1   
 26  15  33  1   
 27  16  19  1   
 28  16  34  1   
 29  16  35  1   
 30  17  20  1   
 31  17  21  1   
 32  17  22  1   
 33  18  23  1   
 34  18  36  1   
 35  18  37  1   
 36  19  21  1   
 37  19  38  1   
 38  19  39  1   
 39  20  24  1   
 40  20  40  1   
 41  20  41  1   
 42  21  42  1   
 43  21  43  1   
 44  22  25  1   
 45  22  44  1   
 46  22  45  1   
 47  23  24  1   
 48  23  26  1   
 49  23  46  1   
 50  24  47  1   
 51  24  48  1   
 52  25  49  1   
 53  26  50  1   
 54  26  51  1   
 55  26  52  1   
@<TRIPOS>SUBSTRUCTURE
  1 ****  13 GROUP 4 **** **** 0

# MOE 2024.06 (io_trps.svl 2023.06)
