@<TRIPOS>MOLECULE
NONAME
49 51 1 0 0 
SMALL
USER_CHARGES


@<TRIPOS>ATOM
  1 S       -0.1370    -0.1930     2.4220 S.3   1 <1>  -0.3320 
  2 C       -0.1550     1.3890     1.5990 C.ar  1 <1>   0.4120 
  3 C       -1.9380    -0.5630     2.6920 C.3   1 <1>   0.1310 
  4 N        0.4870     1.4570     0.4790 N.ar  1 <1>  -0.6200 
  5 C       -0.8730     2.4330     2.1960 C.ar  1 <1>  -0.1500 
  6 C       -2.2990    -1.9360     2.1400 C.2   1 <1>   0.5690 
  7 C        0.4510     2.6550    -0.1560 C.ar  1 <1>   0.3100 
  8 C       -0.9360     3.6430     1.5740 C.ar  1 <1>  -0.1440 
  9 O       -2.6600    -2.7640     2.9430 O.2   1 <1>  -0.5700 
 10 N       -2.2530    -2.2210     0.7940 N.am  1 <1>  -0.6600 
 11 C       -0.2540     3.7790     0.3410 C.ar  1 <1>   0.0000 
 12 C        1.1430     2.7760    -1.3710 C.ar  1 <1>  -0.1500 
 13 C       -1.7080     4.7990     2.1950 C.3   1 <1>  -0.0970 
 14 C       -2.4550    -3.6330     0.3260 C.3   1 <1>   0.1400 
 15 C       -1.8750    -1.2470    -0.2720 C.3   1 <1>   0.1400 
 16 C       -0.2310     4.9690    -0.4200 C.ar  1 <1>  -0.1500 
 17 C        1.1460     3.9430    -2.0840 C.ar  1 <1>  -0.1500 
 18 C       -2.8850    -3.7150    -1.1550 C.3   1 <1>  -0.0800 
 19 C       -2.9510    -1.1850    -1.3670 C.3   1 <1>  -0.1600 
 20 C        0.4490     5.0560    -1.6060 C.ar  1 <1>  -0.1430 
 21 C       -3.7310    -2.4940    -1.5520 C.3   1 <1>   0.2000 
 22 C       -3.6400    -5.0210    -1.4430 C.3   1 <1>   0.1200 
 23 C        0.4710     6.3380    -2.4190 C.3   1 <1>  -0.0970 
 24 O       -4.8420    -2.4430    -0.7350 O.3   1 <1>  -0.6800 
 25 O       -2.8140    -6.1010    -1.1750 O.3   1 <1>  -0.6800 
 26 H       -2.1080    -0.5310     3.7520 H     1 <1>   0.0800 
 27 H       -2.5150     0.1990     2.2050 H     1 <1>   0.0800 
 28 H       -1.3520     2.2530     3.1400 H     1 <1>   0.1500 
 29 H        1.6760     1.9130    -1.7250 H     1 <1>   0.1500 
 30 H       -2.1520     4.5070     3.1290 H     1 <1>   0.0800 
 31 H       -2.4920     5.1180     1.5320 H     1 <1>   0.0800 
 32 H       -1.0450     5.6260     2.3800 H     1 <1>   0.0800 
 33 H       -1.5460    -4.1910     0.4730 H     1 <1>   0.0800 
 34 H       -3.2150    -4.0940     0.9370 H     1 <1>   0.0800 
 35 H       -1.7290    -0.2590     0.1220 H     1 <1>   0.0800 
 36 H       -0.9390    -1.5640    -0.7000 H     1 <1>   0.0800 
 37 H       -0.7630     5.8270    -0.0540 H     1 <1>   0.1500 
 38 H        1.6840     4.0140    -3.0140 H     1 <1>   0.1500 
 39 H       -2.0020    -3.7070    -1.7680 H     1 <1>   0.0800 
 40 H       -2.4530    -0.9480    -2.2900 H     1 <1>   0.0800 
 41 H       -3.6330    -0.3770    -1.1700 H     1 <1>   0.0800 
 42 H       -4.0840    -2.5770    -2.5670 H     1 <1>   0.0800 
 43 H       -3.9470    -5.0760    -2.4730 H     1 <1>   0.0800 
 44 H       -4.5110    -5.1050    -0.8140 H     1 <1>   0.0800 
 45 H        0.0550     6.1600    -3.3950 H     1 <1>   0.0800 
 46 H        1.4830     6.6840    -2.5300 H     1 <1>   0.0800 
 47 H       -0.1030     7.1100    -1.9390 H     1 <1>   0.0800 
 48 H       -4.5300    -2.3590     0.1910 H     1 <1>   0.4000 
 49 H       -2.0740    -6.1440    -1.8100 H     1 <1>   0.4000 
@<TRIPOS>BOND
  1   1   2  1   
  2   1   3  1   
  3   2   4  ar  
  4   2   5  ar  
  5   3   6  1   
  6   3  26  1   
  7   3  27  1   
  8   4   7  ar  
  9   5   8  ar  
 10   5  28  1   
 11   6   9  2   
 12   6  10  am  
 13   7  11  ar  
 14   7  12  ar  
 15   8  11  ar  
 16   8  13  1   
 17  10  14  1   
 18  10  15  1   
 19  11  16  ar  
 20  12  17  ar  
 21  12  29  1   
 22  13  30  1   
 23  13  31  1   
 24  13  32  1   
 25  14  18  1   
 26  14  33  1   
 27  14  34  1   
 28  15  19  1   
 29  15  35  1   
 30  15  36  1   
 31  16  20  ar  
 32  16  37  1   
 33  17  20  ar  
 34  17  38  1   
 35  18  21  1   
 36  18  22  1   
 37  18  39  1   
 38  19  21  1   
 39  19  40  1   
 40  19  41  1   
 41  20  23  1   
 42  21  24  1   
 43  21  42  1   
 44  22  25  1   
 45  22  43  1   
 46  22  44  1   
 47  23  45  1   
 48  23  46  1   
 49  23  47  1   
 50  24  48  1   
 51  25  49  1   
@<TRIPOS>SUBSTRUCTURE
  1 ****  15 GROUP 4 **** **** 0

# MOE 2024.06 (io_trps.svl 2023.06)
