@<TRIPOS>MOLECULE
NONAME
42 44 1 0 0 
SMALL
USER_CHARGES


@<TRIPOS>ATOM
  1 S       -0.3990     0.0710     0.2930 S.3   1 <1>  -0.3320 
  2 C       -0.2560    -1.7020     0.2160 C.ar  1 <1>   0.7720 
  3 C        1.2900     0.8110     0.4830 C.3   1 <1>  -0.0100 
  4 N       -1.3430    -2.3810     0.0770 N.ar  1 <1>  -0.6200 
  5 N        0.9810    -2.2280     0.3070 N.ar  1 <1>  -0.1790 
  6 C       -1.2270    -3.7210     0.0220 C.ar  1 <1>   0.4100 
  7 C        1.1510    -3.5560     0.2560 C.ar  1 <1>   0.4610 
  8 N       -2.3830    -4.4190    -0.1220 N.pl3 1 <1>  -0.8380 
  9 C        0.0150    -4.3240     0.1060 C.ar  1 <1>  -0.1500 
 10 N        2.3920    -4.0820     0.3490 N.pl3 1 <1>  -0.9000 
 11 C       -3.7340    -3.7830    -0.2190 C.3   1 <1>   0.2090 
 12 C       -2.5260    -5.8980    -0.1030 C.3   1 <1>   0.2090 
 13 C       -4.7270    -4.9450    -0.3170 C.3   1 <1>   0.2000 
 14 C       -3.9900    -6.1520     0.2540 C.3   1 <1>  -0.0800 
 15 O       -5.8850    -4.7100     0.4090 O.3   1 <1>  -0.6800 
 16 C       -4.5300    -7.4980    -0.2560 C.3   1 <1>   0.0200 
 17 C       -3.5960    -8.6360     0.1120 C.2   1 <1>  -0.0400 
 18 O       -3.2010    -8.7870     1.3480 O.3   1 <1>  -0.0190 
 19 C       -3.0220    -9.5970    -0.6250 C.2   1 <1>  -0.1500 
 20 N       -2.3820    -9.7900     1.4750 N.2   1 <1>  -0.4100 
 21 C       -2.2620   -10.3030     0.3030 C.2   1 <1>   0.1080 
 22 C       -1.4080   -11.5110    -0.0120 C.3   1 <1>  -0.0590 
 23 H        1.1630     1.8790     0.5230 H     1 <1>   0.0800 
 24 H        1.8840     0.5440    -0.3740 H     1 <1>   0.0800 
 25 H        1.7210     0.4590     1.4040 H     1 <1>   0.0800 
 26 H        1.7700    -1.6100     0.4150 H     1 <1>   0.4570 
 27 H        0.1030    -5.3910     0.0550 H     1 <1>   0.1500 
 28 H        3.2800    -3.5770     0.4610 H     1 <1>   0.4000 
 29 H        2.5450    -5.1000     0.3190 H     1 <1>   0.4000 
 30 H       -3.9160    -3.1950     0.6640 H     1 <1>   0.0800 
 31 H       -3.7910    -3.1580    -1.0930 H     1 <1>   0.0800 
 32 H       -2.3020    -6.2880    -1.0820 H     1 <1>   0.0800 
 33 H       -1.8770    -6.3520     0.6270 H     1 <1>   0.0800 
 34 H       -4.9990    -5.0990    -1.3470 H     1 <1>   0.0800 
 35 H       -4.0530    -6.1340     1.3280 H     1 <1>   0.0800 
 36 H       -5.6780    -4.5750     1.3540 H     1 <1>   0.4000 
 37 H       -4.6440    -7.4720    -1.3250 H     1 <1>   0.0800 
 38 H       -5.4990    -7.6790     0.1780 H     1 <1>   0.0800 
 39 H       -3.1010    -9.8050    -1.6760 H     1 <1>   0.1500 
 40 H       -0.7320   -11.2840    -0.8150 H     1 <1>   0.0800 
 41 H       -2.0350   -12.3350    -0.2970 H     1 <1>   0.0800 
 42 H       -0.8370   -11.7930     0.8550 H     1 <1>   0.0800 
@<TRIPOS>BOND
  1   1   2  1   
  2   1   3  1   
  3   2   4  ar  
  4   2   5  ar  
  5   3  23  1   
  6   3  24  1   
  7   3  25  1   
  8   4   6  ar  
  9   5   7  ar  
 10   5  26  1   
 11   6   8  1   
 12   6   9  ar  
 13   7   9  ar  
 14   7  10  1   
 15   8  11  1   
 16   8  12  1   
 17   9  27  1   
 18  10  28  1   
 19  10  29  1   
 20  11  13  1   
 21  11  30  1   
 22  11  31  1   
 23  12  14  1   
 24  12  32  1   
 25  12  33  1   
 26  13  14  1   
 27  13  15  1   
 28  13  34  1   
 29  14  16  1   
 30  14  35  1   
 31  15  36  1   
 32  16  17  1   
 33  16  37  1   
 34  16  38  1   
 35  17  18  1   
 36  17  19  2   
 37  18  20  1   
 38  19  21  1   
 39  19  39  1   
 40  20  21  2   
 41  21  22  1   
 42  22  40  1   
 43  22  41  1   
 44  22  42  1   
@<TRIPOS>SUBSTRUCTURE
  1 ****  12 GROUP 4 **** **** 0

# MOE 2024.06 (io_trps.svl 2023.06)
