@<TRIPOS>MOLECULE
NONAME
56 59 1 0 0 
SMALL
USER_CHARGES


@<TRIPOS>ATOM
  1 O       -0.5590     0.3600     0.5280 O.2   1 <1>  -0.5700 
  2 C       -1.0890     1.1480    -0.2410 C.2   1 <1>   0.7150 
  3 N       -2.4190     0.9170    -0.5570 N.am  1 <1>  -0.6600 
  4 C       -0.3210     2.2690    -0.7580 C.2   1 <1>   0.1020 
  5 C       -3.0060    -0.4470    -0.3700 C.3   1 <1>   0.1400 
  6 C       -3.3150     1.9850    -1.0950 C.3   1 <1>   0.1400 
  7 N       -0.5780     2.9610    -1.8410 N.2   1 <1>  -0.3380 
  8 N        0.7930     2.7600    -0.1750 N.pl3 1 <1>   0.0480 
  9 C       -3.6390    -0.5830     1.0210 C.3   1 <1>   0.1400 
 10 C       -4.7530     1.9430    -0.5580 C.3   1 <1>  -0.1600 
 11 N        0.3370     3.9130    -1.9550 N.2   1 <1>  -0.3380 
 12 C        1.1390     3.7780    -0.9570 C.2   1 <1>   0.0070 
 13 C        1.4850     2.3740     1.0830 C.3   1 <1>   0.0960 
 14 N       -4.9540     0.1270     1.0960 N.am  1 <1>  -0.6600 
 15 C       -4.8690     1.6050     0.9330 C.3   1 <1>   0.1400 
 16 C        2.3440     4.6590    -0.6820 C.3   1 <1>   0.0200 
 17 C        2.8490     3.0750     1.2190 C.3   1 <1>  -0.1600 
 18 C       -6.1820    -0.4990     1.1570 C.2   1 <1>   0.5690 
 19 C        2.7830     4.5490     0.7860 C.3   1 <1>  -0.1600 
 20 O       -7.1980     0.1520     1.2770 O.2   1 <1>  -0.5700 
 21 C       -6.3140    -2.0330     1.1060 C.3   1 <1>   0.2610 
 22 O       -5.6330    -2.5790    -0.0180 O.3   1 <1>  -0.2170 
 23 C       -7.7310    -2.6030     0.9630 C.3   1 <1>  -0.0990 
 24 N       -6.3380    -3.5150    -0.6220 N.2   1 <1>  -0.5130 
 25 C       -7.4970    -3.5870    -0.1440 C.2   1 <1>   0.3280 
 26 C       -8.6270    -4.5330    -0.5600 C.3   1 <1>  -0.0190 
 27 C       -8.1350    -5.6560    -1.4880 C.3   1 <1>  -0.2400 
 28 C       -9.7690    -3.7680    -1.2450 C.3   1 <1>  -0.2400 
 29 H       -2.2240    -1.1810    -0.4650 H     1 <1>   0.0800 
 30 H       -3.7350    -0.6560    -1.1340 H     1 <1>   0.0800 
 31 H       -3.3280     1.9240    -2.1700 H     1 <1>   0.0800 
 32 H       -2.9060     2.9450    -0.8300 H     1 <1>   0.0800 
 33 H       -2.9670    -0.1800     1.7590 H     1 <1>   0.0800 
 34 H       -3.7580    -1.6260     1.2460 H     1 <1>   0.0800 
 35 H       -5.3440     1.2550    -1.1360 H     1 <1>   0.0800 
 36 H       -5.1790     2.9170    -0.7160 H     1 <1>   0.0800 
 37 H        1.6300     1.3080     1.1000 H     1 <1>   0.0800 
 38 H        0.8500     2.6460     1.9070 H     1 <1>   0.0800 
 39 H       -5.7570     2.0640     1.3320 H     1 <1>   0.0800 
 40 H       -4.0280     1.9940     1.4810 H     1 <1>   0.0800 
 41 H        2.1060     5.6810    -0.9230 H     1 <1>   0.0800 
 42 H        3.1460     4.3440    -1.3260 H     1 <1>   0.0800 
 43 H        3.5710     2.5560     0.6110 H     1 <1>   0.0800 
 44 H        3.1810     3.0070     2.2410 H     1 <1>   0.0800 
 45 H        2.0770     5.0730     1.4070 H     1 <1>   0.0800 
 46 H        3.7460     5.0150     0.9100 H     1 <1>   0.0800 
 47 H       -5.8490    -2.4500     1.9790 H     1 <1>   0.0800 
 48 H       -8.4460    -1.8630     0.6560 H     1 <1>   0.0800 
 49 H       -8.0520    -3.0790     1.8700 H     1 <1>   0.0800 
 50 H       -9.0120    -4.9940     0.3330 H     1 <1>   0.0800 
 51 H       -7.7500    -5.2430    -2.4050 H     1 <1>   0.0800 
 52 H       -8.9360    -6.3340    -1.7230 H     1 <1>   0.0800 
 53 H       -7.3460    -6.2100    -1.0110 H     1 <1>   0.0800 
 54 H       -9.4040    -3.2660    -2.1250 H     1 <1>   0.0800 
 55 H      -10.1880    -3.0330    -0.5810 H     1 <1>   0.0800 
 56 H      -10.5530    -4.4440    -1.5350 H     1 <1>   0.0800 
@<TRIPOS>BOND
  1   1   2  2   
  2   2   3  am  
  3   2   4  1   
  4   3   5  1   
  5   3   6  1   
  6   4   7  2   
  7   4   8  1   
  8   5   9  1   
  9   5  29  1   
 10   5  30  1   
 11   6  10  1   
 12   6  31  1   
 13   6  32  1   
 14   7  11  1   
 15   8  12  1   
 16   8  13  1   
 17   9  14  1   
 18   9  33  1   
 19   9  34  1   
 20  10  15  1   
 21  10  35  1   
 22  10  36  1   
 23  11  12  2   
 24  12  16  1   
 25  13  17  1   
 26  13  37  1   
 27  13  38  1   
 28  14  15  1   
 29  14  18  am  
 30  15  39  1   
 31  15  40  1   
 32  16  19  1   
 33  16  41  1   
 34  16  42  1   
 35  17  19  1   
 36  17  43  1   
 37  17  44  1   
 38  18  20  2   
 39  18  21  1   
 40  19  45  1   
 41  19  46  1   
 42  21  22  1   
 43  21  23  1   
 44  21  47  1   
 45  22  24  1   
 46  23  25  1   
 47  23  48  1   
 48  23  49  1   
 49  24  25  2   
 50  25  26  1   
 51  26  27  1   
 52  26  28  1   
 53  26  50  1   
 54  27  51  1   
 55  27  52  1   
 56  27  53  1   
 57  28  54  1   
 58  28  55  1   
 59  28  56  1   
@<TRIPOS>SUBSTRUCTURE
  1 ****   5 GROUP 4 **** **** 0

# MOE 2024.06 (io_trps.svl 2023.06)
