@<TRIPOS>MOLECULE
NONAME
50 51 1 0 0 
SMALL
USER_CHARGES


@<TRIPOS>ATOM
  1 O       -0.8670     0.0450    -1.0330 O.2   1 <1>  -0.5700 
  2 C       -1.6020     0.6210    -0.2710 C.2   1 <1>   0.5690 
  3 N       -1.2750     1.7660     0.3790 N.am  1 <1>  -0.7300 
  4 C       -2.9690     0.0290    -0.0300 C.3   1 <1>  -0.0990 
  5 C       -0.0210     2.5270     0.3110 C.3   1 <1>   0.3000 
  6 C       -2.9090    -1.4750    -0.2950 C.3   1 <1>   0.3430 
  7 C       -0.1900     3.7240     1.2440 C.3   1 <1>  -0.2400 
  8 C        0.2080     3.0190    -1.1180 C.3   1 <1>  -0.2400 
  9 C        1.1400     1.6590     0.7960 C.3   1 <1>  -0.2400 
 10 N       -4.2390    -2.1190    -0.0960 N.4   1 <1>  -0.9590 
 11 C       -5.2890    -1.7430    -1.0860 C.3   1 <1>   0.3430 
 12 C       -4.1850    -3.6120    -0.1180 C.3   1 <1>   0.3430 
 13 C       -6.3500    -2.8250    -0.9010 C.3   1 <1>   0.2000 
 14 C       -5.4980    -4.0900    -0.7560 C.3   1 <1>  -0.0800 
 15 O       -7.0090    -2.5580     0.2960 O.3   1 <1>  -0.6800 
 16 C       -6.1410    -5.2690     0.0000 C.3   1 <1>  -0.0170 
 17 C       -5.1470    -6.4120     0.1330 C.ar  1 <1>  -0.1440 
 18 C       -4.5500    -6.7250     1.3390 C.ar  1 <1>  -0.1500 
 19 C       -4.7870    -7.1950    -0.9460 C.ar  1 <1>  -0.1500 
 20 C       -3.6350    -7.7620     1.4010 C.ar  1 <1>   0.1600 
 21 C       -3.8600    -8.2090    -0.7770 C.ar  1 <1>   0.1600 
 22 N       -3.2690    -8.5030     0.3690 N.ar  1 <1>  -0.6200 
 23 H       -1.9600     2.2150     0.9860 H     1 <1>   0.3700 
 24 H       -3.2620     0.2130     0.9860 H     1 <1>   0.0800 
 25 H       -3.6560     0.5080    -0.7010 H     1 <1>   0.0800 
 26 H       -2.1870    -1.9140     0.3750 H     1 <1>   0.0800 
 27 H       -2.5640    -1.6460    -1.3030 H     1 <1>   0.0800 
 28 H        0.7040     4.3230     1.2370 H     1 <1>   0.0800 
 29 H       -0.3620     3.3990     2.2540 H     1 <1>   0.0800 
 30 H       -1.0070     4.3450     0.9240 H     1 <1>   0.0800 
 31 H        1.0840     3.6420    -1.1580 H     1 <1>   0.0800 
 32 H       -0.6330     3.5940    -1.4610 H     1 <1>   0.0800 
 33 H        0.3640     2.1920    -1.7860 H     1 <1>   0.0800 
 34 H        2.0460     2.2370     0.8240 H     1 <1>   0.0800 
 35 H        1.3010     0.8300     0.1310 H     1 <1>   0.0800 
 36 H        0.9460     1.2840     1.7850 H     1 <1>   0.0800 
 37 H       -4.6330    -1.8630     0.8230 H     1 <1>   0.4500 
 38 H       -5.6950    -0.7620    -0.8970 H     1 <1>   0.0800 
 39 H       -4.8900    -1.7880    -2.0860 H     1 <1>   0.0800 
 40 H       -3.3480    -3.9600    -0.7040 H     1 <1>   0.0800 
 41 H       -4.0890    -3.9930     0.8860 H     1 <1>   0.0800 
 42 H       -7.0660    -2.8580    -1.7060 H     1 <1>   0.0800 
 43 H       -5.2520    -4.4320    -1.7470 H     1 <1>   0.0800 
 44 H       -7.8480    -3.0630     0.3610 H     1 <1>   0.4000 
 45 H       -7.0110    -5.6160    -0.5300 H     1 <1>   0.0800 
 46 H       -6.4570    -4.9650     0.9830 H     1 <1>   0.0800 
 47 H       -4.7860    -6.1820     2.2360 H     1 <1>   0.1500 
 48 H       -5.2170    -7.0350    -1.9180 H     1 <1>   0.1500 
 49 H       -3.1790    -7.9970     2.3490 H     1 <1>   0.1500 
 50 H       -3.5890    -8.8120    -1.6280 H     1 <1>   0.1500 
@<TRIPOS>BOND
  1   1   2  2   
  2   2   3  am  
  3   2   4  1   
  4   3   5  1   
  5   3  23  1   
  6   4   6  1   
  7   4  24  1   
  8   4  25  1   
  9   5   7  1   
 10   5   8  1   
 11   5   9  1   
 12   6  10  1   
 13   6  26  1   
 14   6  27  1   
 15   7  28  1   
 16   7  29  1   
 17   7  30  1   
 18   8  31  1   
 19   8  32  1   
 20   8  33  1   
 21   9  34  1   
 22   9  35  1   
 23   9  36  1   
 24  10  11  1   
 25  10  12  1   
 26  10  37  1   
 27  11  13  1   
 28  11  38  1   
 29  11  39  1   
 30  12  14  1   
 31  12  40  1   
 32  12  41  1   
 33  13  14  1   
 34  13  15  1   
 35  13  42  1   
 36  14  16  1   
 37  14  43  1   
 38  15  44  1   
 39  16  17  1   
 40  16  45  1   
 41  16  46  1   
 42  17  18  ar  
 43  17  19  ar  
 44  18  20  ar  
 45  18  47  1   
 46  19  21  ar  
 47  19  48  1   
 48  20  22  ar  
 49  20  49  1   
 50  21  22  ar  
 51  21  50  1   
@<TRIPOS>SUBSTRUCTURE
  1 ****  10 GROUP 4 **** **** 0

# MOE 2024.06 (io_trps.svl 2023.06)
