@<TRIPOS>MOLECULE
NONAME
50 52 1 0 0 
SMALL
USER_CHARGES


@<TRIPOS>ATOM
  1 O       -1.5550     0.5440    -1.7070 O.2   1 <1>  -0.5700 
  2 C       -1.6070     1.3130    -0.7660 C.2   1 <1>   0.5440 
  3 N       -2.4200     0.9940     0.3030 N.am  1 <1>  -0.6600 
  4 C       -0.8320     2.5340    -0.8190 C.ar  1 <1>   0.0860 
  5 C       -2.9760    -0.3880     0.4240 C.3   1 <1>   0.1400 
  6 C       -2.8920     1.9990     1.3010 C.3   1 <1>   0.1400 
  7 C       -0.8530     3.3230    -1.9680 C.ar  1 <1>   0.1600 
  8 C       -0.0430     2.9700     0.2370 C.ar  1 <1>  -0.1500 
  9 C       -4.2520    -0.5580    -0.4150 C.3   1 <1>   0.1400 
 10 C       -4.4020     1.9370     1.5710 C.3   1 <1>  -0.1600 
 11 N       -0.2090     4.4710    -2.1370 N.ar  1 <1>  -0.6200 
 12 C        0.6400     4.1560     0.0860 C.ar  1 <1>   0.0830 
 13 N       -5.4260     0.1630     0.1770 N.am  1 <1>  -0.6600 
 14 C       -5.2540     1.6360     0.3330 C.3   1 <1>   0.1400 
 15 C        0.5240     4.8620    -1.1060 C.ar  1 <1>   0.1600 
 16 O        1.4020     4.5980     1.1030 O.3   1 <1>  -0.5320 
 17 C       -6.5840    -0.4390     0.6070 C.2   1 <1>   0.5690 
 18 O       -7.3810     0.1590     1.2930 O.2   1 <1>  -0.5700 
 19 C       -6.8840    -1.8930     0.2500 C.3   1 <1>  -0.0990 
 20 C       -8.3700    -2.3060     0.3350 C.3   1 <1>  -0.0800 
 21 C       -8.5130    -3.8230     0.1180 C.3   1 <1>   0.1200 
 22 C       -9.2340    -1.5470    -0.6890 C.3   1 <1>  -0.1600 
 23 O       -9.8580    -4.1930     0.1640 O.3   1 <1>  -0.5600 
 24 C      -10.6620    -2.1050    -0.6810 C.3   1 <1>  -0.1600 
 25 C      -10.6550    -3.6300    -0.8310 C.3   1 <1>   0.1200 
 26 H       -3.1740    -0.6250     1.4540 H     1 <1>   0.0800 
 27 H       -2.2380    -1.0860     0.0670 H     1 <1>   0.0800 
 28 H       -2.6670     2.9880     0.9420 H     1 <1>   0.0800 
 29 H       -2.3580     1.8570     2.2250 H     1 <1>   0.0800 
 30 H       -1.4450     2.9740    -2.7980 H     1 <1>   0.1500 
 31 H        0.0400     2.4010     1.1460 H     1 <1>   0.1500 
 32 H       -4.4510    -1.6100    -0.4820 H     1 <1>   0.0800 
 33 H       -4.0760    -0.1990    -1.4140 H     1 <1>   0.0800 
 34 H       -4.6990     2.8950     1.9590 H     1 <1>   0.0800 
 35 H       -4.6160     1.2170     2.3410 H     1 <1>   0.0800 
 36 H       -4.8060     2.0520    -0.5530 H     1 <1>   0.0800 
 37 H       -6.2210     2.0970     0.4520 H     1 <1>   0.0800 
 38 H        1.0580     5.7890    -1.2180 H     1 <1>   0.1500 
 39 H        1.8870     5.4240     0.9170 H     1 <1>   0.4500 
 40 H       -6.3130    -2.5090     0.9210 H     1 <1>   0.0800 
 41 H       -6.5480    -2.0820    -0.7510 H     1 <1>   0.0800 
 42 H       -8.7290    -2.0860     1.3270 H     1 <1>   0.0800 
 43 H       -8.0040    -4.3630     0.8970 H     1 <1>   0.0800 
 44 H       -8.1120    -4.1210    -0.8350 H     1 <1>   0.0800 
 45 H       -8.8160    -1.6630    -1.6740 H     1 <1>   0.0800 
 46 H       -9.2580    -0.4970    -0.4550 H     1 <1>   0.0800 
 47 H      -11.2320    -1.6650    -1.4790 H     1 <1>   0.0800 
 48 H      -11.1450    -1.8520     0.2480 H     1 <1>   0.0800 
 49 H      -11.6500    -4.0250    -0.7170 H     1 <1>   0.0800 
 50 H      -10.2680    -3.9270    -1.7910 H     1 <1>   0.0800 
@<TRIPOS>BOND
  1   1   2  2   
  2   2   3  am  
  3   2   4  1   
  4   3   5  1   
  5   3   6  1   
  6   4   7  ar  
  7   4   8  ar  
  8   5   9  1   
  9   5  26  1   
 10   5  27  1   
 11   6  10  1   
 12   6  28  1   
 13   6  29  1   
 14   7  11  ar  
 15   7  30  1   
 16   8  12  ar  
 17   8  31  1   
 18   9  13  1   
 19   9  32  1   
 20   9  33  1   
 21  10  14  1   
 22  10  34  1   
 23  10  35  1   
 24  11  15  ar  
 25  12  15  ar  
 26  12  16  1   
 27  13  14  1   
 28  13  17  am  
 29  14  36  1   
 30  14  37  1   
 31  15  38  1   
 32  16  39  1   
 33  17  18  2   
 34  17  19  1   
 35  19  20  1   
 36  19  40  1   
 37  19  41  1   
 38  20  21  1   
 39  20  22  1   
 40  20  42  1   
 41  21  23  1   
 42  21  43  1   
 43  21  44  1   
 44  22  24  1   
 45  22  45  1   
 46  22  46  1   
 47  23  25  1   
 48  24  25  1   
 49  24  47  1   
 50  24  48  1   
 51  25  49  1   
 52  25  50  1   
@<TRIPOS>SUBSTRUCTURE
  1 ****   9 GROUP 4 **** **** 0

# MOE 2024.06 (io_trps.svl 2023.06)
