@<TRIPOS>MOLECULE
NONAME
43 45 1 0 0 
SMALL
USER_CHARGES


@<TRIPOS>ATOM
  1 O        2.3490     0.3710     1.5840 O.3   1 <1>  -0.6800 
  2 C        2.1740    -0.0310     0.2610 C.3   1 <1>   0.2000 
  3 C        2.8750    -1.3680     0.0180 C.3   1 <1>  -0.0800 
  4 C        2.9610     0.9190    -0.6440 C.3   1 <1>   0.3430 
  5 C        4.3410    -0.9980    -0.2490 C.3   1 <1>   0.3430 
  6 C        2.7220    -2.4250     1.1300 C.3   1 <1>   0.0210 
  7 N        4.3860     0.4650    -0.5600 N.4   1 <1>  -0.9590 
  8 C        3.4310    -3.7140     0.7610 C.2   1 <1>   0.1080 
  9 C        5.1310     1.1830     0.5180 C.3   1 <1>   0.4860 
 10 N        4.7090    -3.7770     0.5400 N.2   1 <1>  -0.7070 
 11 C        2.8110    -4.9500     0.6250 C.2   1 <1>  -0.1500 
 12 C        5.1040     2.6960     0.3080 C.ar  1 <1>  -0.1440 
 13 N        4.9410    -5.0790     0.2640 N.pl3 1 <1>   0.3000 
 14 C        3.8050    -5.8050     0.3050 C.2   1 <1>  -0.3320 
 15 C        5.6820     3.2960    -0.8140 C.ar  1 <1>   0.0730 
 16 C        4.4920     3.4830     1.2730 C.ar  1 <1>  -0.1500 
 17 C        3.7380    -7.2970     0.0380 C.3   1 <1>  -0.0600 
 18 C        6.2740     2.4910    -1.8420 C.1   1 <1>   0.4840 
 19 C        5.6440     4.6800    -0.9340 C.ar  1 <1>  -0.1500 
 20 C        4.4590     4.8590     1.1370 C.ar  1 <1>  -0.1500 
 21 N        6.6010     1.6900    -2.5830 N.1   1 <1>  -0.5570 
 22 C        5.0380     5.4590     0.0340 C.ar  1 <1>  -0.1500 
 23 H        1.6980    -0.0630     2.1750 H     1 <1>   0.4000 
 24 H        1.1210    -0.0420     0.0330 H     1 <1>   0.0800 
 25 H        2.4870    -1.7900    -0.8930 H     1 <1>   0.0800 
 26 H        2.8330     1.9450    -0.3380 H     1 <1>   0.0800 
 27 H        2.6110     0.8080    -1.6560 H     1 <1>   0.0800 
 28 H        4.7260    -1.5850    -1.0680 H     1 <1>   0.0800 
 29 H        4.9330    -1.2170     0.6260 H     1 <1>   0.0800 
 30 H        1.6800    -2.6320     1.2960 H     1 <1>   0.0800 
 31 H        3.1440    -2.0700     2.0540 H     1 <1>   0.0800 
 32 H        4.8780     0.6100    -1.4570 H     1 <1>   0.4500 
 33 H        4.6890     0.9520     1.4740 H     1 <1>   0.0800 
 34 H        6.1550     0.8440     0.5380 H     1 <1>   0.0800 
 35 H        1.7640    -5.1610     0.7550 H     1 <1>   0.1500 
 36 H        5.8790    -5.4440     0.0570 H     1 <1>   0.2700 
 37 H        4.0370     3.0370     2.1430 H     1 <1>   0.1500 
 38 H        2.7250    -7.6460     0.1340 H     1 <1>   0.0800 
 39 H        4.3500    -7.8300     0.7450 H     1 <1>   0.0800 
 40 H        4.0820    -7.5150    -0.9580 H     1 <1>   0.0800 
 41 H        6.0890     5.1600    -1.7910 H     1 <1>   0.1500 
 42 H        3.9850     5.4670     1.8900 H     1 <1>   0.1500 
 43 H        5.0140     6.5310    -0.0690 H     1 <1>   0.1500 
@<TRIPOS>BOND
  1   1   2  1   
  2   1  23  1   
  3   2   3  1   
  4   2   4  1   
  5   2  24  1   
  6   3   5  1   
  7   3   6  1   
  8   3  25  1   
  9   4   7  1   
 10   4  26  1   
 11   4  27  1   
 12   5   7  1   
 13   5  28  1   
 14   5  29  1   
 15   6   8  1   
 16   6  30  1   
 17   6  31  1   
 18   7   9  1   
 19   7  32  1   
 20   8  10  2   
 21   8  11  1   
 22   9  12  1   
 23   9  33  1   
 24   9  34  1   
 25  10  13  1   
 26  11  14  2   
 27  11  35  1   
 28  12  15  ar  
 29  12  16  ar  
 30  13  14  1   
 31  13  36  1   
 32  14  17  1   
 33  15  18  1   
 34  15  19  ar  
 35  16  20  ar  
 36  16  37  1   
 37  17  38  1   
 38  17  39  1   
 39  17  40  1   
 40  18  21  3   
 41  19  22  ar  
 42  19  41  1   
 43  20  22  ar  
 44  20  42  1   
 45  22  43  1   
@<TRIPOS>SUBSTRUCTURE
  1 ****   5 GROUP 4 **** **** 0

# MOE 2024.06 (io_trps.svl 2023.06)
