@<TRIPOS>MOLECULE
NONAME
51 55 1 0 0 
SMALL
USER_CHARGES


@<TRIPOS>ATOM
  1 O       -1.6600    -0.2470    -2.5830 O.2   1 <1>  -0.5700 
  2 C       -1.8590    -0.7530    -1.5030 C.2   1 <1>   0.5690 
  3 N       -1.8120    -0.0330    -0.3470 N.am  1 <1>  -0.6600 
  4 C       -2.1730    -2.2310    -1.4610 C.3   1 <1>  -0.0190 
  5 C       -2.0430    -0.6780     0.9750 C.3   1 <1>   0.2200 
  6 C       -1.5140     1.4270    -0.3310 C.3   1 <1>   0.0600 
  7 C       -1.0640    -3.0240    -0.7390 C.3   1 <1>   0.1200 
  8 C       -3.6270    -2.4740    -1.0160 C.3   1 <1>   0.1100 
  9 C       -0.9500    -1.7320     1.2820 C.3   1 <1>   0.1200 
 10 C       -3.5090    -1.1610     1.1160 C.3   1 <1>   0.1100 
 11 O       -1.1200    -2.9730     0.6560 O.3   1 <1>  -0.5600 
 12 N       -3.8570    -2.4350     0.4440 N.3   1 <1>  -0.8100 
 13 C       -5.1880    -2.9170     0.8260 C.3   1 <1>   0.2480 
 14 C       -5.3120    -4.3970     0.5150 C.2   1 <1>  -0.1240 
 15 C       -4.3010    -5.2780     0.9990 C.2   1 <1>   0.3760 
 16 C       -6.3420    -4.9080    -0.2120 C.2   1 <1>  -0.1810 
 17 N       -4.3080    -6.5580     0.7920 N.2   1 <1>  -0.5760 
 18 N       -6.3610    -6.2630    -0.4450 N.pl3 1 <1>   0.6010 
 19 C       -5.3580    -7.0600     0.0520 C.2   1 <1>  -0.0260 
 20 N       -7.2750    -6.9710    -1.1340 N.2   1 <1>  -0.7070 
 21 C       -5.6560    -8.3390    -0.3390 C.2   1 <1>  -0.0540 
 22 C       -6.8400    -8.1950    -1.0610 C.2   1 <1>   0.1390 
 23 C       -4.9450    -9.5720    -0.0930 C.ar  1 <1>   0.0540 
 24 C       -5.6240   -10.7830     0.0380 C.ar  1 <1>  -0.1500 
 25 C       -3.5560    -9.6000     0.0150 C.ar  1 <1>  -0.1500 
 26 C       -4.9470   -11.9690     0.2600 C.ar  1 <1>  -0.1500 
 27 C       -2.8720   -10.7810     0.2380 C.ar  1 <1>  -0.1500 
 28 C       -3.5670   -11.9710     0.3590 C.ar  1 <1>  -0.1500 
 29 H       -2.1300    -2.5520    -2.4850 H     1 <1>   0.0800 
 30 H       -1.9170     0.0920     1.7150 H     1 <1>   0.0800 
 31 H       -0.6160     1.6100     0.2320 H     1 <1>   0.0800 
 32 H       -2.3330     1.9610     0.1170 H     1 <1>   0.0800 
 33 H       -1.3710     1.7990    -1.3310 H     1 <1>   0.0800 
 34 H       -0.0930    -2.6790    -1.0500 H     1 <1>   0.0800 
 35 H       -1.1520    -4.0630    -1.0040 H     1 <1>   0.0800 
 36 H       -3.9030    -3.4480    -1.3830 H     1 <1>   0.0800 
 37 H       -4.2690    -1.7550    -1.4980 H     1 <1>   0.0800 
 38 H       -0.9580    -1.9320     2.3380 H     1 <1>   0.0800 
 39 H        0.0220    -1.3490     1.0230 H     1 <1>   0.0800 
 40 H       -4.1660    -0.3820     0.7700 H     1 <1>   0.0800 
 41 H       -3.6890    -1.2900     2.1690 H     1 <1>   0.0800 
 42 H       -5.3310    -2.7830     1.8850 H     1 <1>   0.0800 
 43 H       -5.9450    -2.3530     0.3070 H     1 <1>   0.0800 
 44 H       -3.4910    -4.8510     1.5650 H     1 <1>   0.0600 
 45 H       -7.1540    -4.3440    -0.6290 H     1 <1>   0.1500 
 46 H       -7.3550    -9.0180    -1.5270 H     1 <1>   0.1500 
 47 H       -6.6960   -10.7980    -0.0270 H     1 <1>   0.1500 
 48 H       -3.0060    -8.6800    -0.0770 H     1 <1>   0.1500 
 49 H       -5.4930   -12.8910     0.3580 H     1 <1>   0.1500 
 50 H       -1.7990   -10.7720     0.3180 H     1 <1>   0.1500 
 51 H       -3.0380   -12.8910     0.5320 H     1 <1>   0.1500 
@<TRIPOS>BOND
  1   1   2  2   
  2   2   3  am  
  3   2   4  1   
  4   3   5  1   
  5   3   6  1   
  6   4   7  1   
  7   4   8  1   
  8   4  29  1   
  9   5   9  1   
 10   5  10  1   
 11   5  30  1   
 12   6  31  1   
 13   6  32  1   
 14   6  33  1   
 15   7  11  1   
 16   7  34  1   
 17   7  35  1   
 18   8  12  1   
 19   8  36  1   
 20   8  37  1   
 21   9  11  1   
 22   9  38  1   
 23   9  39  1   
 24  10  12  1   
 25  10  40  1   
 26  10  41  1   
 27  12  13  1   
 28  13  14  1   
 29  13  42  1   
 30  13  43  1   
 31  14  15  1   
 32  14  16  2   
 33  15  17  2   
 34  15  44  1   
 35  16  18  1   
 36  16  45  1   
 37  17  19  1   
 38  18  19  1   
 39  18  20  1   
 40  19  21  2   
 41  20  22  2   
 42  21  22  1   
 43  21  23  1   
 44  22  46  1   
 45  23  24  ar  
 46  23  25  ar  
 47  24  26  ar  
 48  24  47  1   
 49  25  27  ar  
 50  25  48  1   
 51  26  28  ar  
 52  26  49  1   
 53  27  28  ar  
 54  27  50  1   
 55  28  51  1   
@<TRIPOS>SUBSTRUCTURE
  1 ****  15 GROUP 4 **** **** 0

# MOE 2024.06 (io_trps.svl 2023.06)
