@<TRIPOS>MOLECULE
NONAME
55 57 1 0 0 
SMALL
USER_CHARGES


@<TRIPOS>ATOM
  1 O       -0.4080     0.5140     1.4420 O.2   1 <1>  -0.5700 
  2 C       -1.2460     1.3280     1.1360 C.2   1 <1>   0.5690 
  3 N       -2.5600     0.9720     0.9250 N.am  1 <1>  -0.6600 
  4 C       -0.7650     2.7600     0.9920 C.3   1 <1>  -0.0990 
  5 C       -3.6060     1.9160     0.4240 C.3   1 <1>   0.2200 
  6 C       -2.9740    -0.4390     1.2120 C.3   1 <1>   0.0600 
  7 C       -0.2860     3.0420    -0.4370 C.3   1 <1>  -0.0160 
  8 C       -4.5540     2.3670     1.5310 C.3   1 <1>  -0.1600 
  9 C       -4.5220     1.3450    -0.6620 C.3   1 <1>  -0.1600 
 10 C        0.1150     4.5000    -0.5830 C.ar  1 <1>  -0.1440 
 11 C       -5.8080     2.8580     0.7930 C.3   1 <1>  -0.0800 
 12 C       -5.7760     2.2290    -0.6050 C.3   1 <1>  -0.0800 
 13 C        1.3660     4.9220    -0.1590 C.ar  1 <1>  -0.1500 
 14 C       -0.7640     5.4200    -1.1350 C.ar  1 <1>  -0.1500 
 15 C       -7.1450     2.4300     1.4140 C.3   1 <1>  -0.1600 
 16 C       -7.1130     1.4860    -0.7620 C.3   1 <1>  -0.1600 
 17 C        1.7250     6.2540    -0.2870 C.ar  1 <1>   0.0820 
 18 C       -0.4020     6.7510    -1.2620 C.ar  1 <1>  -0.1500 
 19 C       -8.0760     2.1500     0.2290 C.3   1 <1>   0.4230 
 20 O        2.9330     6.6690     0.1220 O.3   1 <1>  -0.5320 
 21 C        0.8460     7.1710    -0.8360 C.ar  1 <1>  -0.1500 
 22 N       -8.6260     3.4260    -0.3340 N.4   1 <1>  -0.9590 
 23 C       -9.4650     4.1800     0.6540 C.3   1 <1>   0.2630 
 24 C       -9.4430     3.2060    -1.5720 C.3   1 <1>   0.2630 
 25 H       -1.5320     3.4520     1.2820 H     1 <1>   0.0800 
 26 H        0.0570     2.9060     1.6690 H     1 <1>   0.0800 
 27 H       -3.1450     2.7920     0.0050 H     1 <1>   0.0800 
 28 H       -3.9680    -0.4720     1.6180 H     1 <1>   0.0800 
 29 H       -2.3080    -0.8910     1.9280 H     1 <1>   0.0800 
 30 H       -2.9390    -1.0160     0.3050 H     1 <1>   0.0800 
 31 H       -1.0630     2.8040    -1.1410 H     1 <1>   0.0800 
 32 H        0.5560     2.4090    -0.6620 H     1 <1>   0.0800 
 33 H       -4.7890     1.5360     2.1720 H     1 <1>   0.0800 
 34 H       -4.1130     3.1500     2.1220 H     1 <1>   0.0800 
 35 H       -4.0500     1.3900    -1.6280 H     1 <1>   0.0800 
 36 H       -4.7830     0.3270    -0.4470 H     1 <1>   0.0800 
 37 H       -5.7680     3.9310     0.6940 H     1 <1>   0.0800 
 38 H       -5.6960     3.0150    -1.3390 H     1 <1>   0.0800 
 39 H        2.0540     4.2170     0.2690 H     1 <1>   0.1500 
 40 H       -1.7360     5.1060    -1.4710 H     1 <1>   0.1500 
 41 H       -7.5150     3.1450     2.1240 H     1 <1>   0.0800 
 42 H       -7.0140     1.4990     1.9390 H     1 <1>   0.0800 
 43 H       -6.9950     0.4630    -0.4470 H     1 <1>   0.0800 
 44 H       -7.4510     1.4650    -1.7800 H     1 <1>   0.0800 
 45 H       -1.0880     7.4600    -1.6910 H     1 <1>   0.1500 
 46 H       -8.8780     1.4840     0.5060 H     1 <1>   0.0800 
 47 H        3.4760     5.9500     0.4880 H     1 <1>   0.4500 
 48 H        1.1430     8.2000    -0.9280 H     1 <1>   0.1500 
 49 H       -7.8110     4.0060    -0.5790 H     1 <1>   0.4500 
 50 H      -10.2780     3.5630     1.0020 H     1 <1>   0.0800 
 51 H       -9.8770     5.0640     0.1950 H     1 <1>   0.0800 
 52 H       -8.8770     4.4870     1.5010 H     1 <1>   0.0800 
 53 H      -10.2550     2.5270    -1.3690 H     1 <1>   0.0800 
 54 H       -8.8390     2.7960    -2.3630 H     1 <1>   0.0800 
 55 H       -9.8560     4.1410    -1.9170 H     1 <1>   0.0800 
@<TRIPOS>BOND
  1   1   2  2   
  2   2   3  am  
  3   2   4  1   
  4   3   5  1   
  5   3   6  1   
  6   4   7  1   
  7   4  25  1   
  8   4  26  1   
  9   5   8  1   
 10   5   9  1   
 11   5  27  1   
 12   6  28  1   
 13   6  29  1   
 14   6  30  1   
 15   7  10  1   
 16   7  31  1   
 17   7  32  1   
 18   8  11  1   
 19   8  33  1   
 20   8  34  1   
 21   9  12  1   
 22   9  35  1   
 23   9  36  1   
 24  10  13  ar  
 25  10  14  ar  
 26  11  12  1   
 27  11  15  1   
 28  11  37  1   
 29  12  16  1   
 30  12  38  1   
 31  13  17  ar  
 32  13  39  1   
 33  14  18  ar  
 34  14  40  1   
 35  15  19  1   
 36  15  41  1   
 37  15  42  1   
 38  16  19  1   
 39  16  43  1   
 40  16  44  1   
 41  17  20  1   
 42  17  21  ar  
 43  18  21  ar  
 44  18  45  1   
 45  19  22  1   
 46  19  46  1   
 47  20  47  1   
 48  21  48  1   
 49  22  23  1   
 50  22  24  1   
 51  22  49  1   
 52  23  50  1   
 53  23  51  1   
 54  23  52  1   
 55  24  53  1   
 56  24  54  1   
 57  24  55  1   
@<TRIPOS>SUBSTRUCTURE
  1 ****   5 GROUP 4 **** **** 0

# MOE 2024.06 (io_trps.svl 2023.06)
