@<TRIPOS>MOLECULE
NONAME
58 60 1 0 0 
SMALL
USER_CHARGES


@<TRIPOS>ATOM
  1 O       -0.2850     1.1780    -0.1340 O.2   1 <1>  -0.5700 
  2 C       -1.4650     1.4360    -0.0140 C.2   1 <1>   0.5690 
  3 N       -2.4240     0.4520    -0.1190 N.am  1 <1>  -0.6600 
  4 C       -1.8430     2.9060     0.2770 C.3   1 <1>   0.2810 
  5 C       -3.8820     0.6960     0.1040 C.3   1 <1>   0.1400 
  6 C       -2.0230    -0.9410    -0.4880 C.3   1 <1>   0.1400 
  7 N       -0.9770     3.8470    -0.4850 N.am  1 <1>  -0.7300 
  8 C       -1.7200     3.2100     1.7820 C.3   1 <1>  -0.1600 
  9 C       -4.5920    -0.6040     0.4750 C.3   1 <1>  -0.1600 
 10 C       -3.1040    -1.6170    -1.3360 C.3   1 <1>  -0.1600 
 11 C       -1.4250     4.8690    -1.2450 C.2   1 <1>   0.5690 
 12 C       -2.2070     4.6160     2.1670 C.3   1 <1>  -0.2400 
 13 C       -4.4990    -1.6260    -0.6730 C.3   1 <1>   0.4240 
 14 O       -2.5900     5.1760    -1.2960 O.2   1 <1>  -0.5700 
 15 C       -0.4200     5.6430    -2.0560 C.3   1 <1>  -0.1790 
 16 O       -5.3760    -1.1910    -1.6850 O.3   1 <1>  -0.5600 
 17 C       -4.8510    -3.0460    -0.1780 C.ar  1 <1>  -0.1440 
 18 C       -6.7190    -1.5600    -1.5950 C.3   1 <1>   0.1200 
 19 C       -5.9520    -3.7340    -0.6700 C.ar  1 <1>  -0.1440 
 20 C       -4.0620    -3.6720     0.7780 C.ar  1 <1>  -0.1500 
 21 C       -6.8290    -3.0760    -1.7160 C.3   1 <1>  -0.0170 
 22 C       -6.2510    -5.0080    -0.2130 C.ar  1 <1>  -0.1500 
 23 C       -4.3400    -4.9450     1.2440 C.ar  1 <1>   0.0820 
 24 C       -5.4630    -5.6300     0.7510 C.ar  1 <1>   0.0820 
 25 O       -3.4560    -5.4110     2.1720 O.3   1 <1>  -0.3630 
 26 O       -5.7730    -6.8720     1.2270 O.3   1 <1>  -0.3620 
 27 C       -3.2100    -6.7890     2.3390 C.3   1 <1>   0.0400 
 28 C       -6.9730    -7.5310     0.8860 C.3   1 <1>   0.0400 
 29 H       -2.8600     3.0700    -0.0270 H     1 <1>   0.0800 
 30 H       -4.0200     1.4060     0.9010 H     1 <1>   0.0800 
 31 H       -4.3150     1.1020    -0.7970 H     1 <1>   0.0800 
 32 H       -1.1010    -0.9230    -1.0460 H     1 <1>   0.0800 
 33 H       -1.8490    -1.5030     0.4130 H     1 <1>   0.0800 
 34 H       -0.0040     3.5360    -0.5420 H     1 <1>   0.3700 
 35 H       -2.3040     2.4880     2.3240 H     1 <1>   0.0800 
 36 H       -0.6950     3.0840     2.0850 H     1 <1>   0.0800 
 37 H       -5.6180    -0.4080     0.7180 H     1 <1>   0.0800 
 38 H       -4.1320    -0.9950     1.3630 H     1 <1>   0.0800 
 39 H       -2.7970    -2.6240    -1.5510 H     1 <1>   0.0800 
 40 H       -3.1470    -1.0950    -2.2760 H     1 <1>   0.0800 
 41 H       -3.2220     4.7650     1.8420 H     1 <1>   0.0800 
 42 H       -1.5900     5.3700     1.7090 H     1 <1>   0.0800 
 43 H       -2.1630     4.7450     3.2340 H     1 <1>   0.0800 
 44 H        0.3250     6.0610    -1.4070 H     1 <1>   0.0800 
 45 H       -0.9140     6.4390    -2.5810 H     1 <1>   0.0800 
 46 H        0.0470     4.9900    -2.7700 H     1 <1>   0.0800 
 47 H       -7.1220    -1.2180    -0.6580 H     1 <1>   0.0800 
 48 H       -7.2460    -1.0790    -2.4010 H     1 <1>   0.0800 
 49 H       -3.2010    -3.1750     1.1830 H     1 <1>   0.1500 
 50 H       -7.8550    -3.3680    -1.5820 H     1 <1>   0.0800 
 51 H       -6.5140    -3.3810    -2.6980 H     1 <1>   0.0800 
 52 H       -7.1090    -5.5010    -0.6250 H     1 <1>   0.1500 
 53 H       -2.2820    -6.9020     2.8680 H     1 <1>   0.0800 
 54 H       -3.1440    -7.2540     1.3710 H     1 <1>   0.0800 
 55 H       -4.0110    -7.2160     2.9150 H     1 <1>   0.0800 
 56 H       -7.0150    -8.4530     1.4380 H     1 <1>   0.0800 
 57 H       -6.9700    -7.7390    -0.1690 H     1 <1>   0.0800 
 58 H       -7.8050    -6.9060     1.1570 H     1 <1>   0.0800 
@<TRIPOS>BOND
  1   1   2  2   
  2   2   3  am  
  3   2   4  1   
  4   3   5  1   
  5   3   6  1   
  6   4   7  1   
  7   4   8  1   
  8   4  29  1   
  9   5   9  1   
 10   5  30  1   
 11   5  31  1   
 12   6  10  1   
 13   6  32  1   
 14   6  33  1   
 15   7  11  am  
 16   7  34  1   
 17   8  12  1   
 18   8  35  1   
 19   8  36  1   
 20   9  13  1   
 21   9  37  1   
 22   9  38  1   
 23  10  13  1   
 24  10  39  1   
 25  10  40  1   
 26  11  14  2   
 27  11  15  1   
 28  12  41  1   
 29  12  42  1   
 30  12  43  1   
 31  13  16  1   
 32  13  17  1   
 33  15  44  1   
 34  15  45  1   
 35  15  46  1   
 36  16  18  1   
 37  17  19  ar  
 38  17  20  ar  
 39  18  21  1   
 40  18  47  1   
 41  18  48  1   
 42  19  21  1   
 43  19  22  ar  
 44  20  23  ar  
 45  20  49  1   
 46  21  50  1   
 47  21  51  1   
 48  22  24  ar  
 49  22  52  1   
 50  23  24  ar  
 51  23  25  1   
 52  24  26  1   
 53  25  27  1   
 54  26  28  1   
 55  27  53  1   
 56  27  54  1   
 57  27  55  1   
 58  28  56  1   
 59  28  57  1   
 60  28  58  1   
@<TRIPOS>SUBSTRUCTURE
  1 ****   9 GROUP 4 **** **** 0

# MOE 2024.06 (io_trps.svl 2023.06)
