@<TRIPOS>MOLECULE
NONAME
51 54 1 0 0 
SMALL
USER_CHARGES


@<TRIPOS>ATOM
  1 O       -2.4930     0.5430    -2.2560 O.2   1 <1>  -0.5700 
  2 C       -2.1260     0.6420    -1.1130 C.2   1 <1>   0.5690 
  3 N       -1.8110    -0.4400    -0.3640 N.am  1 <1>  -0.7300 
  4 C       -2.0220     2.0140    -0.4970 C.3   1 <1>  -0.0990 
  5 C       -1.8410    -1.8440    -0.8410 C.3   1 <1>   0.2200 
  6 C       -0.9790     2.8450    -1.2480 C.3   1 <1>   0.0960 
  7 C       -3.0730    -2.5830    -0.3310 C.3   1 <1>  -0.0800 
  8 C       -0.7400    -2.6210    -0.1330 C.3   1 <1>   0.1200 
  9 N       -0.8450     4.1740    -0.6290 N.pl3 1 <1>   0.3140 
 10 C       -2.6480    -3.0010     1.0830 C.3   1 <1>   0.1200 
 11 C       -4.3910    -1.7830    -0.3950 C.3   1 <1>  -0.0170 
 12 O       -1.2540    -2.9030     1.1330 O.3   1 <1>  -0.5600 
 13 N       -0.2930     4.3330     0.5870 N.2   1 <1>  -0.7070 
 14 C       -1.2440     5.3530    -1.1440 C.2   1 <1>  -0.3020 
 15 C       -5.6710    -2.5280     0.0040 C.ar  1 <1>  -0.1440 
 16 C       -0.3500     5.6070     0.8140 C.2   1 <1>   0.1080 
 17 C       -0.9370     6.3030    -0.2360 C.2   1 <1>  -0.1500 
 18 C       -6.8820    -1.8070     0.1510 C.ar  1 <1>   0.0000 
 19 C       -5.7240    -3.8770     0.2270 C.ar  1 <1>  -0.1500 
 20 C        0.1740     6.2260     2.0880 C.3   1 <1>  -0.0590 
 21 C       -8.0390    -2.5210     0.5480 C.ar  1 <1>   0.3100 
 22 C       -7.0150    -0.4170    -0.0810 C.ar  1 <1>  -0.1500 
 23 C       -6.9250    -4.4870     0.6070 C.ar  1 <1>   0.1600 
 24 N       -8.0440    -3.8580     0.7730 N.ar  1 <1>  -0.6200 
 25 C       -9.2470    -1.8250     0.7170 C.ar  1 <1>  -0.1500 
 26 C       -8.2080     0.2320     0.0890 C.ar  1 <1>  -0.1500 
 27 C       -9.3390    -0.4780     0.4960 C.ar  1 <1>  -0.1500 
 28 H       -1.5280    -0.3430     0.6150 H     1 <1>   0.3700 
 29 H       -2.9830     2.4910    -0.5610 H     1 <1>   0.0800 
 30 H       -1.7440     1.9290     0.5380 H     1 <1>   0.0800 
 31 H       -1.7460    -1.8830    -1.9140 H     1 <1>   0.0800 
 32 H       -1.2660     2.9650    -2.2770 H     1 <1>   0.0800 
 33 H       -0.0210     2.3600    -1.2090 H     1 <1>   0.0800 
 34 H       -3.1790    -3.4700    -0.9300 H     1 <1>   0.0800 
 35 H        0.1750    -2.0630    -0.0410 H     1 <1>   0.0800 
 36 H       -0.5520    -3.5570    -0.6300 H     1 <1>   0.0800 
 37 H       -2.9310    -4.0140     1.3100 H     1 <1>   0.0800 
 38 H       -3.0490    -2.3380     1.8300 H     1 <1>   0.0800 
 39 H       -4.5170    -1.4150    -1.3990 H     1 <1>   0.0800 
 40 H       -4.2960    -0.9300     0.2530 H     1 <1>   0.0800 
 41 H       -1.7130     5.4490    -2.1060 H     1 <1>   0.1500 
 42 H       -1.0990     7.3640    -0.2870 H     1 <1>   0.1500 
 43 H       -4.8720    -4.5190     0.1230 H     1 <1>   0.1500 
 44 H        0.0160     7.2880     2.0830 H     1 <1>   0.0800 
 45 H        1.2260     6.0250     2.1770 H     1 <1>   0.0800 
 46 H       -0.3350     5.7970     2.9310 H     1 <1>   0.0800 
 47 H       -6.1640     0.1520    -0.4040 H     1 <1>   0.1500 
 48 H       -6.9170    -5.5510     0.7740 H     1 <1>   0.1500 
 49 H      -10.1040    -2.3930     1.0260 H     1 <1>   0.1500 
 50 H       -8.2910     1.2900    -0.0890 H     1 <1>   0.1500 
 51 H      -10.2720     0.0430     0.6290 H     1 <1>   0.1500 
@<TRIPOS>BOND
  1   1   2  2   
  2   2   3  am  
  3   2   4  1   
  4   3   5  1   
  5   3  28  1   
  6   4   6  1   
  7   4  29  1   
  8   4  30  1   
  9   5   7  1   
 10   5   8  1   
 11   5  31  1   
 12   6   9  1   
 13   6  32  1   
 14   6  33  1   
 15   7  10  1   
 16   7  11  1   
 17   7  34  1   
 18   8  12  1   
 19   8  35  1   
 20   8  36  1   
 21   9  13  1   
 22   9  14  1   
 23  10  12  1   
 24  10  37  1   
 25  10  38  1   
 26  11  15  1   
 27  11  39  1   
 28  11  40  1   
 29  13  16  2   
 30  14  17  2   
 31  14  41  1   
 32  15  18  ar  
 33  15  19  ar  
 34  16  17  1   
 35  16  20  1   
 36  17  42  1   
 37  18  21  ar  
 38  18  22  ar  
 39  19  23  ar  
 40  19  43  1   
 41  20  44  1   
 42  20  45  1   
 43  20  46  1   
 44  21  24  ar  
 45  21  25  ar  
 46  22  26  ar  
 47  22  47  1   
 48  23  24  ar  
 49  23  48  1   
 50  25  27  ar  
 51  25  49  1   
 52  26  27  ar  
 53  26  50  1   
 54  27  51  1   
@<TRIPOS>SUBSTRUCTURE
  1 ****  11 GROUP 4 **** **** 0

# MOE 2024.06 (io_trps.svl 2023.06)
