@<TRIPOS>MOLECULE
NONAME
55 59 1 0 0 
SMALL
USER_CHARGES


@<TRIPOS>ATOM
  1 S        0.6760     0.4140    -1.9140 S.3   1 <1>  -0.0800 
  2 C        0.4230     1.8750    -0.9820 C.2   1 <1>  -0.1400 
  3 C        2.3880     0.7850    -2.0650 C.2   1 <1>  -0.1100 
  4 C        1.5610     2.5580    -0.8030 C.2   1 <1>  -0.1810 
  5 C       -0.9290     2.2870    -0.4650 C.3   1 <1>   0.0200 
  6 C        2.6910     1.9360    -1.4330 C.2   1 <1>  -0.1500 
  7 C        1.5830     3.8610    -0.0010 C.3   1 <1>   0.4610 
  8 C       -0.8420     3.7800    -0.1090 C.3   1 <1>   0.1200 
  9 O        0.3260     4.0610     0.6250 O.3   1 <1>  -0.5600 
 10 C        2.6080     3.7680     1.1330 C.3   1 <1>  -0.1600 
 11 C        1.8940     5.0580    -0.9070 C.3   1 <1>  -0.1600 
 12 C        2.6900     5.0730     1.9210 C.3   1 <1>   0.2090 
 13 C        2.0110     6.3560    -0.1070 C.3   1 <1>   0.2090 
 14 N        3.0040     6.1890     0.9900 N.pl3 1 <1>  -0.8380 
 15 C        4.3150     6.5860     0.8210 C.ar  1 <1>   0.4100 
 16 N        4.8300     6.5050    -0.4010 N.ar  1 <1>  -0.6200 
 17 C        5.0440     7.0490     1.9130 C.ar  1 <1>  -0.1500 
 18 C        6.0840     6.8830    -0.5380 C.ar  1 <1>   0.1600 
 19 C        6.3500     7.4500     1.7600 C.ar  1 <1>  -0.1500 
 20 C        6.8810     7.3700     0.4850 C.ar  1 <1>  -0.1430 
 21 C        8.2980     7.8180     0.2030 C.3   1 <1>   0.4860 
 22 N        8.2670     9.1340    -0.4950 N.4   1 <1>  -0.9590 
 23 C        9.6310     9.6410    -0.8700 C.3   1 <1>   0.3430 
 24 C        7.4860    10.1960     0.2300 C.3   1 <1>   0.3430 
 25 C        9.5600    11.0470    -1.5100 C.3   1 <1>   0.1200 
 26 C        7.4440    11.5110    -0.5840 C.3   1 <1>   0.1200 
 27 O        8.2310    11.4240    -1.7440 O.3   1 <1>  -0.5600 
 28 H        2.9950     0.0930    -2.6200 H     1 <1>   0.1500 
 29 H       -1.1810     1.7080     0.4050 H     1 <1>   0.0800 
 30 H       -1.6810     2.1340    -1.2170 H     1 <1>   0.0800 
 31 H        3.6710     2.3790    -1.3830 H     1 <1>   0.1500 
 32 H       -1.6860     4.0670     0.4930 H     1 <1>   0.0800 
 33 H       -0.8370     4.3780    -1.0020 H     1 <1>   0.0800 
 34 H        3.5790     3.5550     0.7280 H     1 <1>   0.0800 
 35 H        2.3390     2.9590     1.7870 H     1 <1>   0.0800 
 36 H        1.1460     5.1580    -1.6680 H     1 <1>   0.0800 
 37 H        2.8290     4.8850    -1.4060 H     1 <1>   0.0800 
 38 H        3.4520     4.9890     2.6760 H     1 <1>   0.0800 
 39 H        1.7510     5.2720     2.4100 H     1 <1>   0.0800 
 40 H        1.0560     6.6100     0.3200 H     1 <1>   0.0800 
 41 H        2.3120     7.1610    -0.7560 H     1 <1>   0.0800 
 42 H        4.5610     7.0920     2.8710 H     1 <1>   0.1500 
 43 H        6.4880     6.7990    -1.5330 H     1 <1>   0.1500 
 44 H        6.9150     7.8060     2.6060 H     1 <1>   0.1500 
 45 H        8.7910     7.0830    -0.4130 H     1 <1>   0.0800 
 46 H        8.8400     7.9040     1.1300 H     1 <1>   0.0800 
 47 H        7.7630     9.0250    -1.3870 H     1 <1>   0.4500 
 48 H       10.0940     8.9640    -1.5690 H     1 <1>   0.0800 
 49 H       10.2640     9.6890     0.0020 H     1 <1>   0.0800 
 50 H        7.9310    10.3930     1.1910 H     1 <1>   0.0800 
 51 H        6.4740     9.8640     0.4040 H     1 <1>   0.0800 
 52 H       10.0760    11.0520    -2.4550 H     1 <1>   0.0800 
 53 H       10.0200    11.7830    -0.8730 H     1 <1>   0.0800 
 54 H        7.7920    12.3390     0.0090 H     1 <1>   0.0800 
 55 H        6.4340    11.7210    -0.8920 H     1 <1>   0.0800 
@<TRIPOS>BOND
  1   1   2  1   
  2   1   3  1   
  3   2   4  2   
  4   2   5  1   
  5   3   6  2   
  6   3  28  1   
  7   4   6  1   
  8   4   7  1   
  9   5   8  1   
 10   5  29  1   
 11   5  30  1   
 12   6  31  1   
 13   7   9  1   
 14   7  10  1   
 15   7  11  1   
 16   8   9  1   
 17   8  32  1   
 18   8  33  1   
 19  10  12  1   
 20  10  34  1   
 21  10  35  1   
 22  11  13  1   
 23  11  36  1   
 24  11  37  1   
 25  12  14  1   
 26  12  38  1   
 27  12  39  1   
 28  13  14  1   
 29  13  40  1   
 30  13  41  1   
 31  14  15  1   
 32  15  16  ar  
 33  15  17  ar  
 34  16  18  ar  
 35  17  19  ar  
 36  17  42  1   
 37  18  20  ar  
 38  18  43  1   
 39  19  20  ar  
 40  19  44  1   
 41  20  21  1   
 42  21  22  1   
 43  21  45  1   
 44  21  46  1   
 45  22  23  1   
 46  22  24  1   
 47  22  47  1   
 48  23  25  1   
 49  23  48  1   
 50  23  49  1   
 51  24  26  1   
 52  24  50  1   
 53  24  51  1   
 54  25  27  1   
 55  25  52  1   
 56  25  53  1   
 57  26  27  1   
 58  26  54  1   
 59  26  55  1   
@<TRIPOS>SUBSTRUCTURE
  1 ****  16 GROUP 4 **** **** 0

# MOE 2024.06 (io_trps.svl 2023.06)
