@<TRIPOS>MOLECULE
NONAME
46 47 1 0 0 
SMALL
USER_CHARGES


@<TRIPOS>ATOM
  1 O       -0.5960    -0.1980    -0.9270 O.2   1 <1>  -0.5700 
  2 C       -1.4910     0.5080    -0.4990 C.2   1 <1>   0.5440 
  3 N       -2.6560    -0.0980    -0.0910 N.am  1 <1>  -0.6600 
  4 C       -1.3050     1.9450    -0.4410 C.ar  1 <1>   0.0860 
  5 C       -2.6020    -1.5370     0.3280 C.3   1 <1>   0.3210 
  6 C       -3.9840     0.5920    -0.1080 C.3   1 <1>   0.1400 
  7 C       -1.6290     2.6760     0.7040 C.ar  1 <1>  -0.1500 
  8 C       -0.7870     2.6500    -1.5260 C.ar  1 <1>  -0.1500 
  9 C       -3.7150    -1.9570     1.2950 C.2   1 <1>   0.0460 
 10 C       -4.9030    -0.0080    -1.1770 C.3   1 <1>   0.1200 
 11 C       -1.4640     4.0470     0.7600 C.ar  1 <1>  -0.1500 
 12 C       -0.6190     4.0210    -1.4780 C.ar  1 <1>  -0.1500 
 13 N       -3.8130    -1.4070     2.5250 N.2   1 <1>  -0.5650 
 14 C       -4.6930    -2.8780     1.1060 C.2   1 <1>  -0.3320 
 15 O       -6.1490     0.5960    -1.1050 O.3   1 <1>  -0.6800 
 16 C       -0.9560     4.7350    -0.3390 C.ar  1 <1>   0.0830 
 17 C       -4.8320    -1.9980     3.0540 C.2   1 <1>   0.0360 
 18 N       -5.4130    -2.9030     2.2430 N.pl3 1 <1>   0.0330 
 19 C       -5.0180    -3.7740    -0.0790 C.3   1 <1>  -0.0600 
 20 O       -0.7630     6.0740    -0.3820 O.3   1 <1>  -0.3630 
 21 C       -1.0000     6.9350     0.7090 C.3   1 <1>   0.2000 
 22 C       -1.1570     8.3440     0.1410 C.3   1 <1>  -0.2400 
 23 C        0.1900     6.8580     1.6680 C.3   1 <1>  -0.2400 
 24 H       -1.6590    -1.7240     0.8110 H     1 <1>   0.0800 
 25 H       -2.6380    -2.1480    -0.5540 H     1 <1>   0.0800 
 26 H       -3.8580     1.6360    -0.3310 H     1 <1>   0.0800 
 27 H       -4.4410     0.5120     0.8620 H     1 <1>   0.0800 
 28 H       -2.0140     2.1490     1.5610 H     1 <1>   0.1500 
 29 H       -0.5150     2.1060    -2.4140 H     1 <1>   0.1500 
 30 H       -5.0390    -1.0630    -1.0290 H     1 <1>   0.0800 
 31 H       -4.5020     0.1730    -2.1590 H     1 <1>   0.0800 
 32 H       -1.7310     4.5600     1.6640 H     1 <1>   0.1500 
 33 H       -0.2210     4.5510    -2.3250 H     1 <1>   0.1500 
 34 H       -6.5720     0.4050    -0.2450 H     1 <1>   0.4000 
 35 H       -5.1970    -1.8020     4.0470 H     1 <1>   0.1500 
 36 H       -6.2240    -3.4900     2.4580 H     1 <1>   0.2700 
 37 H       -4.3310    -3.6090    -0.8880 H     1 <1>   0.0800 
 38 H       -6.0140    -3.5730    -0.4340 H     1 <1>   0.0800 
 39 H       -4.9560    -4.8080     0.2120 H     1 <1>   0.0800 
 40 H       -1.9170     6.6460     1.1910 H     1 <1>   0.0800 
 41 H       -0.2620     8.6410    -0.3770 H     1 <1>   0.0800 
 42 H       -1.3450     9.0440     0.9340 H     1 <1>   0.0800 
 43 H       -1.9870     8.3710    -0.5410 H     1 <1>   0.0800 
 44 H        1.0950     7.1390     1.1600 H     1 <1>   0.0800 
 45 H        0.3010     5.8630     2.0580 H     1 <1>   0.0800 
 46 H        0.0390     7.5280     2.4940 H     1 <1>   0.0800 
@<TRIPOS>BOND
  1   1   2  2   
  2   2   3  am  
  3   2   4  1   
  4   3   5  1   
  5   3   6  1   
  6   4   7  ar  
  7   4   8  ar  
  8   5   9  1   
  9   5  24  1   
 10   5  25  1   
 11   6  10  1   
 12   6  26  1   
 13   6  27  1   
 14   7  11  ar  
 15   7  28  1   
 16   8  12  ar  
 17   8  29  1   
 18   9  13  1   
 19   9  14  2   
 20  10  15  1   
 21  10  30  1   
 22  10  31  1   
 23  11  16  ar  
 24  11  32  1   
 25  12  16  ar  
 26  12  33  1   
 27  13  17  2   
 28  14  18  1   
 29  14  19  1   
 30  15  34  1   
 31  16  20  1   
 32  17  18  1   
 33  17  35  1   
 34  18  36  1   
 35  19  37  1   
 36  19  38  1   
 37  19  39  1   
 38  20  21  1   
 39  21  22  1   
 40  21  23  1   
 41  21  40  1   
 42  22  41  1   
 43  22  42  1   
 44  22  43  1   
 45  23  44  1   
 46  23  45  1   
 47  23  46  1   
@<TRIPOS>SUBSTRUCTURE
  1 ****   4 GROUP 4 **** **** 0

# MOE 2024.06 (io_trps.svl 2023.06)
