@<TRIPOS>MOLECULE
NONAME
50 52 1 0 0 
SMALL
USER_CHARGES


@<TRIPOS>ATOM
  1 F       -0.9310    -0.0830    -0.2360 F     1 <1>  -0.1900 
  2 C       -2.1590     0.3670    -0.2340 C.ar  1 <1>   0.1900 
  3 C       -2.6970     1.0520     0.8610 C.ar  1 <1>   0.0830 
  4 C       -2.9040     0.1260    -1.3730 C.ar  1 <1>  -0.1500 
  5 O       -2.0650     1.3540     2.0310 O.3   1 <1>  -0.3630 
  6 C       -4.0120     1.4770     0.7700 C.ar  1 <1>  -0.1500 
  7 C       -4.2130     0.5660    -1.4320 C.ar  1 <1>  -0.1500 
  8 C       -0.6920     1.1130     2.2470 C.3   1 <1>   0.0400 
  9 C       -4.7980     1.2410    -0.3590 C.ar  1 <1>   0.0530 
 10 C       -6.1660     1.6870    -0.3990 C.2   1 <1>   0.0870 
 11 O       -6.4870     2.8740     0.0470 O.3   1 <1>  -0.0190 
 12 C       -7.3200     1.0920    -0.8010 C.2   1 <1>  -0.0860 
 13 N       -7.7680     3.1200    -0.0360 N.2   1 <1>  -0.4100 
 14 C       -8.2930     2.0680    -0.5580 C.2   1 <1>   0.3720 
 15 C       -7.5610    -0.2240    -1.3000 C.2   1 <1>   0.7160 
 16 N       -9.6640     1.9210    -0.8290 N.pl3 1 <1>  -0.8210 
 17 O       -7.0670    -0.5650    -2.3580 O.2   1 <1>  -0.5700 
 18 N       -8.3310    -1.1460    -0.6140 N.am  1 <1>  -0.6600 
 19 C       -9.9740     1.9000    -2.2870 C.3   1 <1>   0.1290 
 20 C      -10.5540     2.8830    -0.1120 C.3   1 <1>   0.1290 
 21 C       -8.6880    -2.4680    -1.2190 C.3   1 <1>   0.1400 
 22 C       -9.0040    -0.8360     0.6880 C.3   1 <1>   0.1400 
 23 C       -8.5700    -3.6080    -0.1910 C.3   1 <1>   0.3430 
 24 C       -8.9010    -2.0130     1.6770 C.3   1 <1>   0.3430 
 25 N       -9.3450    -3.3160     1.0660 N.4   1 <1>  -0.9590 
 26 C       -9.2230    -4.4390     2.0450 C.3   1 <1>   0.2630 
 27 H       -2.4610    -0.3960    -2.2020 H     1 <1>   0.1500 
 28 H       -4.4350     2.0090     1.6040 H     1 <1>   0.1500 
 29 H       -4.7840     0.3900    -2.3270 H     1 <1>   0.1500 
 30 H       -0.4310     1.5040     3.2130 H     1 <1>   0.0800 
 31 H       -0.1230     1.6150     1.4840 H     1 <1>   0.0800 
 32 H       -0.5150     0.0520     2.2250 H     1 <1>   0.0800 
 33 H       -9.3800     1.1560    -2.7890 H     1 <1>   0.0800 
 34 H       -9.7620     2.8620    -2.7220 H     1 <1>   0.0800 
 35 H      -11.0140     1.6660    -2.4400 H     1 <1>   0.0800 
 36 H      -10.3170     2.8910     0.9380 H     1 <1>   0.0800 
 37 H      -11.5830     2.5950    -0.2320 H     1 <1>   0.0800 
 38 H      -10.4160     3.8770    -0.5030 H     1 <1>   0.0800 
 39 H       -8.0420    -2.6930    -2.0510 H     1 <1>   0.0800 
 40 H       -9.6940    -2.4220    -1.5980 H     1 <1>   0.0800 
 41 H      -10.0390    -0.6030     0.5010 H     1 <1>   0.0800 
 42 H       -8.5600     0.0280     1.1500 H     1 <1>   0.0800 
 43 H       -7.5270    -3.7430     0.0470 H     1 <1>   0.0800 
 44 H       -8.9260    -4.5210    -0.6390 H     1 <1>   0.0800 
 45 H       -9.4980    -1.7920     2.5460 H     1 <1>   0.0800 
 46 H       -7.8750    -2.0970     1.9960 H     1 <1>   0.0800 
 47 H      -10.3360    -3.2120     0.8020 H     1 <1>   0.4500 
 48 H       -8.1940    -4.5690     2.3410 H     1 <1>   0.0800 
 49 H       -9.5750    -5.3590     1.6070 H     1 <1>   0.0800 
 50 H       -9.8110    -4.2340     2.9260 H     1 <1>   0.0800 
@<TRIPOS>BOND
  1   1   2  1   
  2   2   3  ar  
  3   2   4  ar  
  4   3   5  1   
  5   3   6  ar  
  6   4   7  ar  
  7   4  27  1   
  8   5   8  1   
  9   6   9  ar  
 10   6  28  1   
 11   7   9  ar  
 12   7  29  1   
 13   8  30  1   
 14   8  31  1   
 15   8  32  1   
 16   9  10  1   
 17  10  11  1   
 18  10  12  2   
 19  11  13  1   
 20  12  14  1   
 21  12  15  1   
 22  13  14  2   
 23  14  16  1   
 24  15  17  2   
 25  15  18  am  
 26  16  19  1   
 27  16  20  1   
 28  18  21  1   
 29  18  22  1   
 30  19  33  1   
 31  19  34  1   
 32  19  35  1   
 33  20  36  1   
 34  20  37  1   
 35  20  38  1   
 36  21  23  1   
 37  21  39  1   
 38  21  40  1   
 39  22  24  1   
 40  22  41  1   
 41  22  42  1   
 42  23  25  1   
 43  23  43  1   
 44  23  44  1   
 45  24  25  1   
 46  24  45  1   
 47  24  46  1   
 48  25  26  1   
 49  25  47  1   
 50  26  48  1   
 51  26  49  1   
 52  26  50  1   
@<TRIPOS>SUBSTRUCTURE
  1 ****  12 GROUP 4 **** **** 0

# MOE 2024.06 (io_trps.svl 2023.06)
