@<TRIPOS>MOLECULE
NONAME
34 36 1 0 0 
SMALL
USER_CHARGES


@<TRIPOS>ATOM
  1 O        2.7270    -0.6400    -1.4750 O.2   1 <1>  -0.5700 
  2 C        2.1140    -0.9540    -0.4850 C.2   1 <1>   0.5690 
  3 N        1.7620    -0.0640     0.4960 N.am  1 <1>  -0.4940 
  4 C        1.7220    -2.4060    -0.3450 C.3   1 <1>   0.1570 
  5 C        1.9220     1.3410     0.5520 C.2   1 <1>  -0.0880 
  6 N        0.3000    -2.4930    -0.0040 N.pl3 1 <1>   0.3140 
  7 N        3.0230     2.0950     0.2420 N.pl3 1 <1>   0.3140 
  8 C        0.9640     2.2060     0.9560 C.2   1 <1>  -0.1500 
  9 N       -0.1440    -2.3360     1.2240 N.2   1 <1>  -0.4180 
 10 C       -0.7460    -2.6730    -0.7860 C.2   1 <1>   0.0360 
 11 N        2.7590     3.4170     0.4350 N.2   1 <1>  -0.7070 
 12 C        4.3770     1.6140    -0.1890 C.3   1 <1>   0.1760 
 13 C        1.5370     3.4650     0.8580 C.2   1 <1>   0.1390 
 14 N       -1.4230    -2.4310     1.1600 N.2   1 <1>   0.0000 
 15 N       -1.8170    -2.6410    -0.0920 N.2   1 <1>  -0.3380 
 16 C        4.9960     0.5970     0.7860 C.3   1 <1>  -0.1600 
 17 C        5.4380     2.7160    -0.3070 C.3   1 <1>  -0.1600 
 18 C        6.5070     0.8670     0.8150 C.3   1 <1>  -0.1600 
 19 C        6.7640     1.9690    -0.2120 C.3   1 <1>  -0.1600 
 20 H        1.1140    -0.4360     1.2030 H     1 <1>   0.3700 
 21 H        2.3010    -2.8650     0.4330 H     1 <1>   0.0800 
 22 H        1.8970    -2.9230    -1.2700 H     1 <1>   0.0800 
 23 H       -0.0380     1.9950     1.2830 H     1 <1>   0.1500 
 24 H       -0.6910    -2.8170    -1.8490 H     1 <1>   0.1500 
 25 H        4.2780     1.1620    -1.1570 H     1 <1>   0.0800 
 26 H        1.0330     4.3850     1.1020 H     1 <1>   0.1500 
 27 H        4.8020    -0.4050     0.4480 H     1 <1>   0.0800 
 28 H        4.5910     0.7280     1.7740 H     1 <1>   0.0800 
 29 H        5.3650     3.3960     0.5250 H     1 <1>   0.0800 
 30 H        5.3450     3.2620    -1.2290 H     1 <1>   0.0800 
 31 H        7.0770    -0.0170     0.5860 H     1 <1>   0.0800 
 32 H        6.7880     1.2180     1.7940 H     1 <1>   0.0800 
 33 H        7.5720     2.6170     0.0810 H     1 <1>   0.0800 
 34 H        6.9940     1.5260    -1.1670 H     1 <1>   0.0800 
@<TRIPOS>BOND
  1   1   2  2   
  2   2   3  am  
  3   2   4  1   
  4   3   5  1   
  5   3  20  1   
  6   4   6  1   
  7   4  21  1   
  8   4  22  1   
  9   5   7  1   
 10   5   8  2   
 11   6   9  1   
 12   6  10  1   
 13   7  11  1   
 14   7  12  1   
 15   8  13  1   
 16   8  23  1   
 17   9  14  2   
 18  10  15  2   
 19  10  24  1   
 20  11  13  2   
 21  12  16  1   
 22  12  17  1   
 23  12  25  1   
 24  13  26  1   
 25  14  15  1   
 26  16  18  1   
 27  16  27  1   
 28  16  28  1   
 29  17  19  1   
 30  17  29  1   
 31  17  30  1   
 32  18  19  1   
 33  18  31  1   
 34  18  32  1   
 35  19  33  1   
 36  19  34  1   
@<TRIPOS>SUBSTRUCTURE
  1 ****   3 GROUP 4 **** **** 0

# MOE 2024.06 (io_trps.svl 2023.06)
