@<TRIPOS>MOLECULE
NONAME
56 59 1 0 0 
SMALL
USER_CHARGES


@<TRIPOS>ATOM
  1 O        0.7620     0.6940    -2.3490 O.3   1 <1>  -0.2800 
  2 C        1.3600    -0.3780    -1.8370 C.ar  1 <1>   0.1400 
  3 C        1.1830     1.7450    -1.6640 C.2   1 <1>  -0.0400 
  4 C        2.1840    -0.0130    -0.7930 C.ar  1 <1>   0.0000 
  5 C        1.2160    -1.6970    -2.2380 C.ar  1 <1>  -0.1500 
  6 C        2.0580     1.3940    -0.6900 C.2   1 <1>  -0.0540 
  7 C        0.6520     3.1060    -2.0660 C.3   1 <1>  -0.0600 
  8 C        2.8950    -0.9940    -0.1050 C.ar  1 <1>  -0.1500 
  9 C        1.9190    -2.6730    -1.5560 C.ar  1 <1>  -0.1430 
 10 C        2.7490     2.2090     0.2800 C.ar  1 <1>   0.0540 
 11 C        2.7620    -2.3220    -0.4870 C.ar  1 <1>   0.0820 
 12 C        1.7730    -4.1280    -1.9540 C.3   1 <1>   0.4870 
 13 C        4.1390     2.2500     0.3200 C.ar  1 <1>  -0.1500 
 14 C        2.0430     2.9710     1.2040 C.ar  1 <1>  -0.1500 
 15 O        3.4120    -3.3400     0.1460 O.3   1 <1>  -0.3630 
 16 N        1.2060    -4.8680    -0.7990 N.4   1 <1>  -0.9590 
 17 C        4.8040     3.0230     1.2550 C.ar  1 <1>  -0.1500 
 18 C        2.7010     3.7460     2.1420 C.ar  1 <1>  -0.1500 
 19 C        4.4500    -3.0650     1.0680 C.3   1 <1>   0.0400 
 20 C        1.3020    -6.3520    -0.9780 C.3   1 <1>   0.3430 
 21 C       -0.1710    -4.4080    -0.4540 C.3   1 <1>   0.3430 
 22 C        4.0840     3.7730     2.1690 C.ar  1 <1>  -0.1500 
 23 C        0.7890    -7.1060     0.2630 C.3   1 <1>   0.2000 
 24 C       -0.6480    -5.1130     0.8150 C.3   1 <1>  -0.1600 
 25 O        0.7790    -8.4630    -0.0090 O.3   1 <1>  -0.6800 
 26 C       -0.6200    -6.6520     0.6770 C.3   1 <1>  -0.0800 
 27 C       -1.0680    -7.3450     1.9740 C.3   1 <1>   0.1200 
 28 O       -2.3580    -6.9390     2.2640 O.3   1 <1>  -0.6800 
 29 H        0.5620    -1.9120    -3.0650 H     1 <1>   0.1500 
 30 H        1.0930     3.8760    -1.4600 H     1 <1>   0.0800 
 31 H       -0.4150     3.1300    -1.9440 H     1 <1>   0.0800 
 32 H        0.8910     3.2960    -3.0960 H     1 <1>   0.0800 
 33 H        3.5190    -0.6790     0.7100 H     1 <1>   0.1500 
 34 H        2.7460    -4.5200    -2.2030 H     1 <1>   0.0800 
 35 H        1.1300    -4.2200    -2.8140 H     1 <1>   0.0800 
 36 H        4.7010     1.6730    -0.3930 H     1 <1>   0.1500 
 37 H        0.9680     2.9510     1.1880 H     1 <1>   0.1500 
 38 H        1.8250    -4.5860    -0.0190 H     1 <1>   0.4500 
 39 H        5.8800     3.0450     1.2710 H     1 <1>   0.1500 
 40 H        2.1390     4.3290     2.8510 H     1 <1>   0.1500 
 41 H        4.8920    -3.9980     1.3710 H     1 <1>   0.0800 
 42 H        4.0380    -2.5640     1.9260 H     1 <1>   0.0800 
 43 H        5.1940    -2.4520     0.5890 H     1 <1>   0.0800 
 44 H        0.7120    -6.6460    -1.8300 H     1 <1>   0.0800 
 45 H        2.3280    -6.6330    -1.1540 H     1 <1>   0.0800 
 46 H       -0.1750    -3.3410    -0.2920 H     1 <1>   0.0800 
 47 H       -0.8460    -4.6290    -1.2650 H     1 <1>   0.0800 
 48 H        4.5990     4.3750     2.8970 H     1 <1>   0.1500 
 49 H        1.4830    -6.9550     1.0730 H     1 <1>   0.0800 
 50 H       -0.0420    -4.8010     1.6470 H     1 <1>   0.0800 
 51 H       -1.6540    -4.7890     1.0170 H     1 <1>   0.0800 
 52 H       -0.0730    -8.7550    -0.3960 H     1 <1>   0.4000 
 53 H       -1.3080    -6.9290    -0.1040 H     1 <1>   0.0800 
 54 H       -0.4330    -7.0760     2.8020 H     1 <1>   0.0800 
 55 H       -1.0730    -8.4170     1.8630 H     1 <1>   0.0800 
 56 H       -2.6930    -7.3810     3.0710 H     1 <1>   0.4000 
@<TRIPOS>BOND
  1   1   2  1   
  2   1   3  1   
  3   2   4  ar  
  4   2   5  ar  
  5   3   6  2   
  6   3   7  1   
  7   4   6  1   
  8   4   8  ar  
  9   5   9  ar  
 10   5  29  1   
 11   6  10  1   
 12   7  30  1   
 13   7  31  1   
 14   7  32  1   
 15   8  11  ar  
 16   8  33  1   
 17   9  11  ar  
 18   9  12  1   
 19  10  13  ar  
 20  10  14  ar  
 21  11  15  1   
 22  12  16  1   
 23  12  34  1   
 24  12  35  1   
 25  13  17  ar  
 26  13  36  1   
 27  14  18  ar  
 28  14  37  1   
 29  15  19  1   
 30  16  20  1   
 31  16  21  1   
 32  16  38  1   
 33  17  22  ar  
 34  17  39  1   
 35  18  22  ar  
 36  18  40  1   
 37  19  41  1   
 38  19  42  1   
 39  19  43  1   
 40  20  23  1   
 41  20  44  1   
 42  20  45  1   
 43  21  24  1   
 44  21  46  1   
 45  21  47  1   
 46  22  48  1   
 47  23  25  1   
 48  23  26  1   
 49  23  49  1   
 50  24  26  1   
 51  24  50  1   
 52  24  51  1   
 53  25  52  1   
 54  26  27  1   
 55  26  53  1   
 56  27  28  1   
 57  27  54  1   
 58  27  55  1   
 59  28  56  1   
@<TRIPOS>SUBSTRUCTURE
  1 ****  11 GROUP 4 **** **** 0

# MOE 2024.06 (io_trps.svl 2023.06)
