@<TRIPOS>MOLECULE
NONAME
53 57 1 0 0 
SMALL
USER_CHARGES


@<TRIPOS>ATOM
  1 O        0.3660     0.1820    -1.0200 O.2   1 <1>  -0.5700 
  2 C       -0.3090     1.1950    -1.0180 C.2   1 <1>   0.5440 
  3 N       -1.6720     1.1000    -0.8170 N.am  1 <1>  -0.6600 
  4 C        0.3250     2.4590    -1.3030 C.ar  1 <1>   0.0860 
  5 C       -2.6290     2.2410    -0.9720 C.3   1 <1>   0.1400 
  6 C       -2.3280    -0.1870    -0.4530 C.3   1 <1>   0.1400 
  7 C        0.8900     3.2310    -0.2600 C.ar  1 <1>   0.3100 
  8 C        0.3750     2.9220    -2.6040 C.ar  1 <1>  -0.1500 
  9 C       -3.4340     2.4740     0.3210 C.3   1 <1>   0.1440 
 10 C       -3.1230    -0.0160     0.8460 C.3   1 <1>  -0.1600 
 11 N        0.8530     2.7910     1.0320 N.ar  1 <1>  -0.6200 
 12 C        1.4880     4.4780    -0.5860 C.ar  1 <1>   0.3100 
 13 C        0.9630     4.1450    -2.9180 C.ar  1 <1>  -0.1500 
 14 C       -4.4860     3.5470     0.1090 C.ar  1 <1>   0.1670 
 15 C       -4.1140     1.1610     0.7690 C.3   1 <1>  -0.1600 
 16 C       -2.5690     3.0930     1.4500 C.3   1 <1>  -0.1600 
 17 C        1.4140     3.5800     1.8920 C.ar  1 <1>   0.1600 
 18 N        2.0490     5.2870     0.3520 N.ar  1 <1>  -0.6200 
 19 C        1.5070     4.9060    -1.9200 C.ar  1 <1>  -0.1500 
 20 N       -5.2990     3.6210    -0.9160 N.ar  1 <1>  -0.6200 
 21 C       -4.4900     4.4520     1.1270 C.ar  1 <1>  -0.1430 
 22 C       -3.4500     4.1280     2.1690 C.3   1 <1>  -0.0170 
 23 C        2.0030     4.8130     1.5560 C.ar  1 <1>   0.1600 
 24 C       -6.1470     4.6530    -0.8980 C.ar  1 <1>   0.7200 
 25 C       -5.3960     5.4800     1.0610 C.ar  1 <1>   0.1600 
 26 N       -6.2280     5.5900     0.0520 N.ar  1 <1>  -0.6200 
 27 N       -7.0210     4.7620    -1.9630 N.pl3 1 <1>  -0.8380 
 28 C       -8.1890     5.6860    -1.9320 C.3   1 <1>   0.1290 
 29 C       -6.8710     3.9500    -3.2010 C.3   1 <1>   0.1290 
 30 H       -3.3120     2.0030    -1.7690 H     1 <1>   0.0800 
 31 H       -2.1200     3.1470    -1.2450 H     1 <1>   0.0800 
 32 H       -1.5950    -0.9660    -0.3240 H     1 <1>   0.0800 
 33 H       -2.9870    -0.4800    -1.2520 H     1 <1>   0.0800 
 34 H       -0.0470     2.3240    -3.3950 H     1 <1>   0.1500 
 35 H       -2.4290     0.1300     1.6540 H     1 <1>   0.0800 
 36 H       -3.6620    -0.9250     1.0480 H     1 <1>   0.0800 
 37 H        0.9840     4.4780    -3.9430 H     1 <1>   0.1500 
 38 H       -4.8820     0.9140     0.0550 H     1 <1>   0.0800 
 39 H       -4.5940     1.3000     1.7210 H     1 <1>   0.0800 
 40 H       -1.7450     3.6210     1.0080 H     1 <1>   0.0800 
 41 H       -2.1690     2.3610     2.1280 H     1 <1>   0.0800 
 42 H        1.4320     3.2820     2.9250 H     1 <1>   0.1500 
 43 H        1.9670     5.8540    -2.1360 H     1 <1>   0.1500 
 44 H       -2.8850     4.9970     2.4580 H     1 <1>   0.0800 
 45 H       -3.9250     3.6910     3.0310 H     1 <1>   0.0800 
 46 H        2.4380     5.3920     2.3520 H     1 <1>   0.1500 
 47 H       -5.4380     6.2200     1.8410 H     1 <1>   0.1500 
 48 H       -8.5440     5.8120    -0.9240 H     1 <1>   0.0800 
 49 H       -8.9930     5.2880    -2.5250 H     1 <1>   0.0800 
 50 H       -7.8970     6.6450    -2.3230 H     1 <1>   0.0800 
 51 H       -5.8340     3.7230    -3.3800 H     1 <1>   0.0800 
 52 H       -7.2490     4.4930    -4.0490 H     1 <1>   0.0800 
 53 H       -7.4170     3.0290    -3.0950 H     1 <1>   0.0800 
@<TRIPOS>BOND
  1   1   2  2   
  2   2   3  am  
  3   2   4  1   
  4   3   5  1   
  5   3   6  1   
  6   4   7  ar  
  7   4   8  ar  
  8   5   9  1   
  9   5  30  1   
 10   5  31  1   
 11   6  10  1   
 12   6  32  1   
 13   6  33  1   
 14   7  11  ar  
 15   7  12  ar  
 16   8  13  ar  
 17   8  34  1   
 18   9  14  1   
 19   9  15  1   
 20   9  16  1   
 21  10  15  1   
 22  10  35  1   
 23  10  36  1   
 24  11  17  ar  
 25  12  18  ar  
 26  12  19  ar  
 27  13  19  ar  
 28  13  37  1   
 29  14  20  ar  
 30  14  21  ar  
 31  15  38  1   
 32  15  39  1   
 33  16  22  1   
 34  16  40  1   
 35  16  41  1   
 36  17  23  ar  
 37  17  42  1   
 38  18  23  ar  
 39  19  43  1   
 40  20  24  ar  
 41  21  22  1   
 42  21  25  ar  
 43  22  44  1   
 44  22  45  1   
 45  23  46  1   
 46  24  26  ar  
 47  24  27  1   
 48  25  26  ar  
 49  25  47  1   
 50  27  28  1   
 51  27  29  1   
 52  28  48  1   
 53  28  49  1   
 54  28  50  1   
 55  29  51  1   
 56  29  52  1   
 57  29  53  1   
@<TRIPOS>SUBSTRUCTURE
  1 ****   5 GROUP 4 **** **** 0

# MOE 2024.06 (io_trps.svl 2023.06)
