@<TRIPOS>MOLECULE
NONAME
47 49 1 0 0 
SMALL
USER_CHARGES


@<TRIPOS>ATOM
  1 F        0.8170    -0.3650    -0.7630 F     1 <1>  -0.3400 
  2 C        0.5060    -1.5630    -0.2910 C.3   1 <1>   1.3000 
  3 F        0.4820    -1.4820     1.0340 F     1 <1>  -0.3400 
  4 F        1.4750    -2.4000    -0.6410 F     1 <1>  -0.3400 
  5 O       -0.7440    -1.9750    -0.8060 O.3   1 <1>  -0.3630 
  6 C       -1.2210    -3.1710    -0.4160 C.ar  1 <1>   0.0830 
  7 C       -2.0400    -3.2590     0.6980 C.ar  1 <1>  -0.1500 
  8 C       -0.9080    -4.3120    -1.1380 C.ar  1 <1>  -0.1500 
  9 C       -2.5370    -4.4890     1.0890 C.ar  1 <1>  -0.1500 
 10 C       -1.4110    -5.5360    -0.7390 C.ar  1 <1>  -0.1500 
 11 C       -2.2430    -5.6520     0.3750 C.ar  1 <1>   0.0860 
 12 C       -2.7810    -6.9380     0.7700 C.2   1 <1>   0.5440 
 13 O       -2.0110    -7.8480     1.0140 O.2   1 <1>  -0.5700 
 14 N       -4.1410    -7.1690     0.8690 N.am  1 <1>  -0.6600 
 15 C       -5.1390    -6.2880     0.1900 C.3   1 <1>   0.2200 
 16 C       -4.6240    -8.4270     1.5180 C.3   1 <1>   0.0600 
 17 C       -6.0930    -7.0310    -0.7430 C.3   1 <1>  -0.1600 
 18 C       -6.0560    -5.5630     1.1690 C.3   1 <1>  -0.1600 
 19 C       -7.2750    -6.0700    -0.9220 C.3   1 <1>  -0.0800 
 20 C       -7.2730    -5.1580     0.3280 C.3   1 <1>  -0.0800 
 21 C       -8.6040    -6.8000    -1.1980 C.3   1 <1>   0.1400 
 22 C       -8.5920    -5.1910     1.1190 C.3   1 <1>  -0.0990 
 23 N       -9.7500    -5.8930    -0.9430 N.am  1 <1>  -0.6600 
 24 C       -9.7750    -5.1070     0.1760 C.2   1 <1>   0.5690 
 25 C      -10.8670    -5.9280    -1.9240 C.3   1 <1>   0.0600 
 26 O      -10.6850    -4.3610     0.4450 O.2   1 <1>  -0.5700 
 27 H       -2.2840    -2.3720     1.2560 H     1 <1>   0.1500 
 28 H       -0.2740    -4.2430    -2.0050 H     1 <1>   0.1500 
 29 H       -3.1610    -4.5610     1.9620 H     1 <1>   0.1500 
 30 H       -1.1620    -6.4270    -1.2910 H     1 <1>   0.1500 
 31 H       -4.6330    -5.5450    -0.4040 H     1 <1>   0.0800 
 32 H       -5.5950    -8.2880     1.9560 H     1 <1>   0.0800 
 33 H       -3.9420    -8.7260     2.2960 H     1 <1>   0.0800 
 34 H       -4.6720    -9.2140     0.7860 H     1 <1>   0.0800 
 35 H       -5.6220    -7.2620    -1.6820 H     1 <1>   0.0800 
 36 H       -6.4410    -7.9380    -0.2840 H     1 <1>   0.0800 
 37 H       -6.3580    -6.2290     1.9570 H     1 <1>   0.0800 
 38 H       -5.5750    -4.7030     1.5970 H     1 <1>   0.0800 
 39 H       -7.0670    -5.4470    -1.7760 H     1 <1>   0.0800 
 40 H       -7.1260    -4.1470    -0.0170 H     1 <1>   0.0800 
 41 H       -8.7020    -7.6540    -0.5480 H     1 <1>   0.0800 
 42 H       -8.6220    -7.1470    -2.2170 H     1 <1>   0.0800 
 43 H       -8.6270    -4.3730     1.8150 H     1 <1>   0.0800 
 44 H       -8.6810    -6.1080     1.6710 H     1 <1>   0.0800 
 45 H      -10.5100    -5.6280    -2.8930 H     1 <1>   0.0800 
 46 H      -11.6530    -5.2550    -1.6250 H     1 <1>   0.0800 
 47 H      -11.2700    -6.9230    -1.9830 H     1 <1>   0.0800 
@<TRIPOS>BOND
  1   1   2  1   
  2   2   3  1   
  3   2   4  1   
  4   2   5  1   
  5   5   6  1   
  6   6   7  ar  
  7   6   8  ar  
  8   7   9  ar  
  9   7  27  1   
 10   8  10  ar  
 11   8  28  1   
 12   9  11  ar  
 13   9  29  1   
 14  10  11  ar  
 15  10  30  1   
 16  11  12  1   
 17  12  13  2   
 18  12  14  am  
 19  14  15  1   
 20  14  16  1   
 21  15  17  1   
 22  15  18  1   
 23  15  31  1   
 24  16  32  1   
 25  16  33  1   
 26  16  34  1   
 27  17  19  1   
 28  17  35  1   
 29  17  36  1   
 30  18  20  1   
 31  18  37  1   
 32  18  38  1   
 33  19  20  1   
 34  19  21  1   
 35  19  39  1   
 36  20  22  1   
 37  20  40  1   
 38  21  23  1   
 39  21  41  1   
 40  21  42  1   
 41  22  24  1   
 42  22  43  1   
 43  22  44  1   
 44  23  24  am  
 45  23  25  1   
 46  24  26  2   
 47  25  45  1   
 48  25  46  1   
 49  25  47  1   
@<TRIPOS>SUBSTRUCTURE
  1 ****  15 GROUP 4 **** **** 0

# MOE 2024.06 (io_trps.svl 2023.06)
