@<TRIPOS>MOLECULE
NONAME
34 35 1 0 0 
SMALL
USER_CHARGES


@<TRIPOS>ATOM
  1 S       -0.8730     0.2660    -0.4500 S.3   1 <1>  -0.0800 
  2 C       -0.7900    -0.9390     0.7910 C.2   1 <1>   0.4420 
  3 C        0.1720     1.2430     0.5280 C.2   1 <1>   0.1980 
  4 N       -0.0430    -0.5750     1.7710 N.2   1 <1>  -0.3380 
  5 N       -1.4980    -2.0980     0.5630 N.am  1 <1>  -0.4940 
  6 N        0.5000     0.6700     1.6150 N.2   1 <1>  -0.3380 
  7 C        0.5700     2.6300     0.0260 C.3   1 <1>   0.3800 
  8 C       -1.7790    -3.1450     1.4050 C.2   1 <1>   0.5440 
  9 O       -0.5580     3.3980    -0.2780 O.3   1 <1>  -0.5600 
 10 C        1.4190     2.5640    -1.2420 C.3   1 <1>  -0.2400 
 11 O       -1.5500    -3.0310     2.5900 O.2   1 <1>  -0.5700 
 12 C       -2.3090    -4.3980     0.9050 C.ar  1 <1>   0.0860 
 13 C       -1.3180     3.7900     0.8250 C.3   1 <1>   0.0400 
 14 C       -3.2360    -4.5270    -0.1400 C.ar  1 <1>   0.4120 
 15 C       -1.8850    -5.5880     1.4880 C.ar  1 <1>  -0.1500 
 16 S       -3.8970    -3.0650    -0.9550 S.3   1 <1>  -0.3310 
 17 N       -3.7160    -5.6610    -0.6290 N.ar  1 <1>  -0.6200 
 18 C       -2.3770    -6.7790     1.0020 C.ar  1 <1>  -0.1500 
 19 C       -5.1140    -3.7000    -2.1970 C.3   1 <1>  -0.0100 
 20 C       -3.2770    -6.7620    -0.0460 C.ar  1 <1>   0.1600 
 21 H       -1.9510    -2.1450    -0.3490 H     1 <1>   0.3700 
 22 H        1.1270     3.1380     0.7950 H     1 <1>   0.0800 
 23 H        0.8630     2.1120    -2.0430 H     1 <1>   0.0800 
 24 H        2.3020     1.9800    -1.0590 H     1 <1>   0.0800 
 25 H        1.7170     3.5550    -1.5320 H     1 <1>   0.0800 
 26 H       -2.1290     4.4010     0.4710 H     1 <1>   0.0800 
 27 H       -0.7030     4.3610     1.4990 H     1 <1>   0.0800 
 28 H       -1.7150     2.9210     1.3220 H     1 <1>   0.0800 
 29 H       -1.1830    -5.5730     2.3070 H     1 <1>   0.1500 
 30 H       -2.0660    -7.7150     1.4320 H     1 <1>   0.1500 
 31 H       -5.5430    -2.8540    -2.7020 H     1 <1>   0.0800 
 32 H       -5.8670    -4.2560    -1.6670 H     1 <1>   0.0800 
 33 H       -4.5840    -4.3340    -2.8860 H     1 <1>   0.0800 
 34 H       -3.6550    -7.6990    -0.4220 H     1 <1>   0.1500 
@<TRIPOS>BOND
  1   1   2  1   
  2   1   3  1   
  3   2   4  2   
  4   2   5  1   
  5   3   6  2   
  6   3   7  1   
  7   4   6  1   
  8   5   8  am  
  9   5  21  1   
 10   7   9  1   
 11   7  10  1   
 12   7  22  1   
 13   8  11  2   
 14   8  12  1   
 15   9  13  1   
 16  10  23  1   
 17  10  24  1   
 18  10  25  1   
 19  12  14  ar  
 20  12  15  ar  
 21  13  26  1   
 22  13  27  1   
 23  13  28  1   
 24  14  16  1   
 25  14  17  ar  
 26  15  18  ar  
 27  15  29  1   
 28  16  19  1   
 29  17  20  ar  
 30  18  20  ar  
 31  18  30  1   
 32  19  31  1   
 33  19  32  1   
 34  19  33  1   
 35  20  34  1   
@<TRIPOS>SUBSTRUCTURE
  1 ****   5 GROUP 4 **** **** 0

# MOE 2024.06 (io_trps.svl 2023.06)
