@<TRIPOS>MOLECULE
NONAME
45 48 1 0 0 
SMALL
USER_CHARGES


@<TRIPOS>ATOM
  1 O        1.7740    -0.5180    -2.3830 O.2   1 <1>  -0.5700 
  2 C        1.5380    -1.4430    -1.6270 C.2   1 <1>   0.7800 
  3 O        0.3120    -1.9160    -1.4070 O.3   1 <1>  -0.2320 
  4 N        2.4580    -2.0890    -0.8570 N.am  1 <1>  -0.4770 
  5 C        0.4290    -2.8620    -0.4530 C.ar  1 <1>   0.0830 
  6 C        1.7510    -2.9860    -0.0840 C.ar  1 <1>   0.1170 
  7 C        3.9100    -1.7710    -0.7880 C.3   1 <1>   0.2010 
  8 C       -0.5690    -3.6250     0.1240 C.ar  1 <1>  -0.1500 
  9 C        2.1190    -3.8890     0.9030 C.ar  1 <1>  -0.1500 
 10 C        4.1920    -0.4530    -0.0750 C.2   1 <1>   0.5690 
 11 C       -0.2030    -4.5330     1.1060 C.ar  1 <1>  -0.1500 
 12 C        1.1300    -4.6610     1.4920 C.ar  1 <1>  -0.1500 
 13 O        4.8510    -0.4850     0.9360 O.2   1 <1>  -0.5700 
 14 N        3.6940     0.7020    -0.6160 N.am  1 <1>  -0.4940 
 15 C        3.7020     2.0300    -0.1290 C.2   1 <1>  -0.0880 
 16 N        4.7390     2.7290     0.4300 N.pl3 1 <1>   0.3140 
 17 C        2.6420     2.8720    -0.1630 C.2   1 <1>  -0.1810 
 18 N        4.3410     3.9900     0.7550 N.2   1 <1>  -0.7070 
 19 C        6.1550     2.2740     0.6220 C.3   1 <1>   0.1760 
 20 C        3.0990     4.0570     0.3970 C.2   1 <1>   0.1390 
 21 C        1.2380     2.6240    -0.6840 C.3   1 <1>  -0.0590 
 22 C        7.1080     3.3530     1.1530 C.3   1 <1>  -0.1600 
 23 C        6.8170     1.7950    -0.6820 C.3   1 <1>  -0.1600 
 24 C        8.4930     2.8540     0.7570 C.3   1 <1>  -0.1600 
 25 C        8.2910     2.2190    -0.6180 C.3   1 <1>  -0.1600 
 26 H        4.3030    -1.7130    -1.7870 H     1 <1>   0.0800 
 27 H        4.4240    -2.5620    -0.2740 H     1 <1>   0.0800 
 28 H       -1.5930    -3.5100    -0.1850 H     1 <1>   0.1500 
 29 H        3.1470    -3.9830     1.2030 H     1 <1>   0.1500 
 30 H       -0.9540    -5.1430     1.5770 H     1 <1>   0.1500 
 31 H        1.3930    -5.3700     2.2600 H     1 <1>   0.1500 
 32 H        3.0520     0.5580    -1.4090 H     1 <1>   0.3700 
 33 H        6.1540     1.4720     1.3340 H     1 <1>   0.0800 
 34 H        2.4980     4.9410     0.5250 H     1 <1>   0.1500 
 35 H        1.0270     1.5710    -0.7170 H     1 <1>   0.0800 
 36 H        1.1390     3.0300    -1.6740 H     1 <1>   0.0800 
 37 H        0.5180     3.0940    -0.0390 H     1 <1>   0.0800 
 38 H        7.0100     3.4820     2.2160 H     1 <1>   0.0800 
 39 H        6.9240     4.2910     0.6560 H     1 <1>   0.0800 
 40 H        6.3480     2.2590    -1.5330 H     1 <1>   0.0800 
 41 H        6.7370     0.7270    -0.7670 H     1 <1>   0.0800 
 42 H        8.8160     2.1020     1.4580 H     1 <1>   0.0800 
 43 H        9.2170     3.6500     0.7340 H     1 <1>   0.0800 
 44 H        8.4850     2.9520    -1.3830 H     1 <1>   0.0800 
 45 H        8.9540     1.3830    -0.7610 H     1 <1>   0.0800 
@<TRIPOS>BOND
  1   1   2  2   
  2   2   3  1   
  3   2   4  am  
  4   3   5  1   
  5   4   6  1   
  6   4   7  1   
  7   5   6  ar  
  8   5   8  ar  
  9   6   9  ar  
 10   7  10  1   
 11   7  26  1   
 12   7  27  1   
 13   8  11  ar  
 14   8  28  1   
 15   9  12  ar  
 16   9  29  1   
 17  10  13  2   
 18  10  14  am  
 19  11  12  ar  
 20  11  30  1   
 21  12  31  1   
 22  14  15  1   
 23  14  32  1   
 24  15  16  1   
 25  15  17  2   
 26  16  18  1   
 27  16  19  1   
 28  17  20  1   
 29  17  21  1   
 30  18  20  2   
 31  19  22  1   
 32  19  23  1   
 33  19  33  1   
 34  20  34  1   
 35  21  35  1   
 36  21  36  1   
 37  21  37  1   
 38  22  24  1   
 39  22  38  1   
 40  22  39  1   
 41  23  25  1   
 42  23  40  1   
 43  23  41  1   
 44  24  25  1   
 45  24  42  1   
 46  24  43  1   
 47  25  44  1   
 48  25  45  1   
@<TRIPOS>SUBSTRUCTURE
  1 ****  14 GROUP 4 **** **** 0

# MOE 2024.06 (io_trps.svl 2023.06)
