@<TRIPOS>MOLECULE
NONAME
50 53 1 0 0 
SMALL
USER_CHARGES


@<TRIPOS>ATOM
  1 O        0.7390     0.0330    -1.5210 O.2   1 <1>  -0.5700 
  2 C        1.1630    -0.6710    -0.6160 C.2   1 <1>   0.5440 
  3 N        0.2850    -1.2770     0.2720 N.am  1 <1>  -0.2980 
  4 C        2.5690    -0.9050    -0.4360 C.ar  1 <1>   0.0860 
  5 N        0.6830    -2.1100     1.2900 N.2   1 <1>  -0.5120 
  6 C       -1.1930    -1.0890     0.1000 C.3   1 <1>   0.2010 
  7 C        2.9690    -1.7480     0.6140 C.ar  1 <1>   0.0860 
  8 C        3.5390    -0.3300    -1.2640 C.ar  1 <1>  -0.1500 
  9 C        1.9420    -2.3240     1.4420 C.2   1 <1>   0.3030 
 10 C       -1.8370    -2.2380    -0.6700 C.2   1 <1>   0.5690 
 11 C        4.3430    -1.9780     0.7900 C.ar  1 <1>  -0.1500 
 12 C        4.8800    -0.5720    -1.0700 C.ar  1 <1>  -0.1500 
 13 C        2.3350    -3.2550     2.5760 C.3   1 <1>  -0.1790 
 14 O       -2.8770    -2.0570    -1.2580 O.2   1 <1>  -0.5700 
 15 N       -1.2320    -3.4520    -0.6550 N.am  1 <1>  -0.7300 
 16 C        5.2830    -1.4020    -0.0350 C.ar  1 <1>  -0.1500 
 17 C       -1.6570    -4.6670    -1.3760 C.3   1 <1>   0.2200 
 18 C       -1.9950    -5.7470    -0.3650 C.3   1 <1>  -0.0800 
 19 C       -0.4560    -5.2720    -2.1000 C.3   1 <1>   0.1200 
 20 C       -0.6100    -6.3180    -0.0490 C.3   1 <1>   0.1200 
 21 C       -2.9410    -6.8060    -0.9610 C.3   1 <1>  -0.0170 
 22 O        0.1760    -6.1250    -1.1880 O.3   1 <1>  -0.5600 
 23 C       -3.2820    -7.8830     0.0570 C.ar  1 <1>  -0.1430 
 24 C       -4.1630    -7.6490     1.0940 C.ar  1 <1>  -0.1500 
 25 C       -2.7310    -9.1480     0.0000 C.ar  1 <1>  -0.1500 
 26 C       -4.4380    -8.6600     2.0000 C.ar  1 <1>   0.1600 
 27 C       -3.0740   -10.0880     0.9570 C.ar  1 <1>   0.1600 
 28 N       -3.9140    -9.8740     1.9570 N.ar  1 <1>  -0.6200 
 29 H       -1.6500    -1.0330     1.0700 H     1 <1>   0.0800 
 30 H       -1.3970    -0.1680    -0.4130 H     1 <1>   0.0800 
 31 H        3.2220     0.3150    -2.0670 H     1 <1>   0.1500 
 32 H        4.6860    -2.6180     1.5830 H     1 <1>   0.1500 
 33 H        5.6150    -0.1210    -1.7160 H     1 <1>   0.1500 
 34 H        2.8580    -4.1090     2.1880 H     1 <1>   0.0800 
 35 H        1.4610    -3.6030     3.0970 H     1 <1>   0.0800 
 36 H        2.9610    -2.7360     3.2800 H     1 <1>   0.0800 
 37 H       -0.3570    -3.5270    -0.1200 H     1 <1>   0.3700 
 38 H        6.3330    -1.5910     0.1150 H     1 <1>   0.1500 
 39 H       -2.4680    -4.4370    -2.0470 H     1 <1>   0.0800 
 40 H       -2.4510    -5.3290     0.5150 H     1 <1>   0.0800 
 41 H        0.2390    -4.5240    -2.4390 H     1 <1>   0.0800 
 42 H       -0.7790    -5.8700    -2.9330 H     1 <1>   0.0800 
 43 H       -0.6240    -7.3640     0.1990 H     1 <1>   0.0800 
 44 H       -0.1510    -5.7680     0.7560 H     1 <1>   0.0800 
 45 H       -2.4930    -7.2600    -1.8290 H     1 <1>   0.0800 
 46 H       -3.8530    -6.3310    -1.2780 H     1 <1>   0.0800 
 47 H       -4.6370    -6.6910     1.2050 H     1 <1>   0.1500 
 48 H       -2.0370    -9.4110    -0.7780 H     1 <1>   0.1500 
 49 H       -5.1270    -8.4580     2.8020 H     1 <1>   0.1500 
 50 H       -2.6340   -11.0690     0.8970 H     1 <1>   0.1500 
@<TRIPOS>BOND
  1   1   2  2   
  2   2   3  am  
  3   2   4  1   
  4   3   5  1   
  5   3   6  1   
  6   4   7  ar  
  7   4   8  ar  
  8   5   9  2   
  9   6  10  1   
 10   6  29  1   
 11   6  30  1   
 12   7   9  1   
 13   7  11  ar  
 14   8  12  ar  
 15   8  31  1   
 16   9  13  1   
 17  10  14  2   
 18  10  15  am  
 19  11  16  ar  
 20  11  32  1   
 21  12  16  ar  
 22  12  33  1   
 23  13  34  1   
 24  13  35  1   
 25  13  36  1   
 26  15  17  1   
 27  15  37  1   
 28  16  38  1   
 29  17  18  1   
 30  17  19  1   
 31  17  39  1   
 32  18  20  1   
 33  18  21  1   
 34  18  40  1   
 35  19  22  1   
 36  19  41  1   
 37  19  42  1   
 38  20  22  1   
 39  20  43  1   
 40  20  44  1   
 41  21  23  1   
 42  21  45  1   
 43  21  46  1   
 44  23  24  ar  
 45  23  25  ar  
 46  24  26  ar  
 47  24  47  1   
 48  25  27  ar  
 49  25  48  1   
 50  26  28  ar  
 51  26  49  1   
 52  27  28  ar  
 53  27  50  1   
@<TRIPOS>SUBSTRUCTURE
  1 ****  15 GROUP 4 **** **** 0

# MOE 2024.06 (io_trps.svl 2023.06)
