@<TRIPOS>MOLECULE
NONAME
67 70 1 0 0 
SMALL
USER_CHARGES


@<TRIPOS>ATOM
  1 O       -5.4290     2.5890    -0.0160 O.2   1 <1>  -0.5700 
  2 C       -4.3260     2.4950    -0.5230 C.2   1 <1>   0.5440 
  3 N       -3.8980     1.2370    -0.8910 N.am  1 <1>  -0.6600 
  4 C       -3.5190     3.6920    -0.6920 C.ar  1 <1>   0.0860 
  5 C       -2.4570     0.8720    -1.0000 C.3   1 <1>   0.3200 
  6 C       -4.8760     0.1010    -0.9390 C.3   1 <1>   0.1400 
  7 C       -2.8690     3.9870    -1.8900 C.ar  1 <1>  -0.1500 
  8 C       -3.3880     4.6100     0.3480 C.ar  1 <1>  -0.1500 
  9 C       -2.1410    -0.1380     0.0820 C.2   1 <1>  -0.3320 
 10 C       -5.2120    -0.3900     0.4860 C.3   1 <1>   0.3430 
 11 C       -2.1120     5.1360    -2.0380 C.ar  1 <1>  -0.1500 
 12 C       -2.6380     5.7630     0.2080 C.ar  1 <1>  -0.1500 
 13 N       -1.6750    -1.3840    -0.1350 N.pl3 1 <1>   0.0330 
 14 C       -2.2810    -0.0140     1.4210 C.2   1 <1>   0.0770 
 15 N       -6.6670    -0.6880     0.7070 N.4   1 <1>  -0.9590 
 16 C       -1.9880     6.0340    -0.9870 C.ar  1 <1>  -0.1430 
 17 C       -1.5980    -1.9490     1.0890 C.2   1 <1>   0.0060 
 18 N       -1.9700    -1.1620     2.0440 N.2   1 <1>  -0.5650 
 19 C       -7.4660     0.5810     0.6990 C.3   1 <1>   0.2630 
 20 C       -6.8330    -1.3880     2.0160 C.3   1 <1>   0.2630 
 21 C       -1.1670     7.3020    -1.1470 C.3   1 <1>   0.4860 
 22 C       -1.1120    -3.3660     1.3120 C.3   1 <1>  -0.0600 
 23 N        0.0460     7.1980    -0.2970 N.4   1 <1>  -0.9590 
 24 C        0.7900     8.4840    -0.2230 C.3   1 <1>   0.4870 
 25 C        0.9620     6.0950    -0.7160 C.3   1 <1>   0.3430 
 26 C        1.9740     8.3420     0.7190 C.ar  1 <1>  -0.1430 
 27 C        1.9870     5.8230     0.3870 C.3   1 <1>  -0.0170 
 28 C        2.5440     7.1030     0.9950 C.ar  1 <1>  -0.1430 
 29 C        2.5020     9.4840     1.3050 C.ar  1 <1>  -0.1500 
 30 C        3.6300     7.0210     1.8510 C.ar  1 <1>  -0.1500 
 31 C        3.5860     9.3940     2.1590 C.ar  1 <1>  -0.1500 
 32 C        4.1510     8.1630     2.4320 C.ar  1 <1>  -0.1500 
 33 H       -1.8270     1.7330    -0.8650 H     1 <1>   0.0800 
 34 H       -2.2650     0.4590    -1.9750 H     1 <1>   0.0800 
 35 H       -4.4650    -0.7090    -1.5150 H     1 <1>   0.0800 
 36 H       -5.7650     0.4450    -1.4360 H     1 <1>   0.0800 
 37 H       -2.9730     3.3100    -2.7210 H     1 <1>   0.1500 
 38 H       -3.8970     4.4150     1.2780 H     1 <1>   0.1500 
 39 H       -4.9100     0.3750     1.1830 H     1 <1>   0.0800 
 40 H       -4.6210    -1.2680     0.6940 H     1 <1>   0.0800 
 41 H       -1.6340     5.3250    -2.9850 H     1 <1>   0.1500 
 42 H       -2.5800     6.4450     1.0400 H     1 <1>   0.1500 
 43 H       -1.4120    -1.8280    -1.0210 H     1 <1>   0.2700 
 44 H       -2.6100     0.8480     1.9790 H     1 <1>   0.1500 
 45 H       -7.0030    -1.3040    -0.0470 H     1 <1>   0.4500 
 46 H       -7.1040     1.2560     1.4590 H     1 <1>   0.0800 
 47 H       -8.5080     0.3750     0.8840 H     1 <1>   0.0800 
 48 H       -7.3780     1.0790    -0.2530 H     1 <1>   0.0800 
 49 H       -6.4840    -0.7610     2.8210 H     1 <1>   0.0800 
 50 H       -6.2660    -2.3050     2.0260 H     1 <1>   0.0800 
 51 H       -7.8710    -1.6230     2.1870 H     1 <1>   0.0800 
 52 H       -1.7630     8.1470    -0.8420 H     1 <1>   0.0800 
 53 H       -0.8900     7.4340    -2.1800 H     1 <1>   0.0800 
 54 H       -1.7380    -4.0640     0.7870 H     1 <1>   0.0800 
 55 H       -1.1390    -3.5990     2.3610 H     1 <1>   0.0800 
 56 H       -0.0990    -3.4660     0.9680 H     1 <1>   0.0800 
 57 H       -0.2550     6.9820     0.6610 H     1 <1>   0.4500 
 58 H        0.1420     9.2650     0.1400 H     1 <1>   0.0800 
 59 H        1.1490     8.7630    -1.2000 H     1 <1>   0.0800 
 60 H        1.4770     6.3770    -1.6200 H     1 <1>   0.0800 
 61 H        0.4040     5.1930    -0.9090 H     1 <1>   0.0800 
 62 H        2.7910     5.2350    -0.0210 H     1 <1>   0.0800 
 63 H        1.5240     5.2400     1.1640 H     1 <1>   0.0800 
 64 H        2.0830    10.4560     1.1070 H     1 <1>   0.1500 
 65 H        4.0810     6.0690     2.0760 H     1 <1>   0.1500 
 66 H        3.9940    10.2820     2.6130 H     1 <1>   0.1500 
 67 H        4.9950     8.0930     3.0960 H     1 <1>   0.1500 
@<TRIPOS>BOND
  1   1   2  2   
  2   2   3  am  
  3   2   4  1   
  4   3   5  1   
  5   3   6  1   
  6   4   7  ar  
  7   4   8  ar  
  8   5   9  1   
  9   5  33  1   
 10   5  34  1   
 11   6  10  1   
 12   6  35  1   
 13   6  36  1   
 14   7  11  ar  
 15   7  37  1   
 16   8  12  ar  
 17   8  38  1   
 18   9  13  1   
 19   9  14  2   
 20  10  15  1   
 21  10  39  1   
 22  10  40  1   
 23  11  16  ar  
 24  11  41  1   
 25  12  16  ar  
 26  12  42  1   
 27  13  17  1   
 28  13  43  1   
 29  14  18  1   
 30  14  44  1   
 31  15  19  1   
 32  15  20  1   
 33  15  45  1   
 34  16  21  1   
 35  17  18  2   
 36  17  22  1   
 37  19  46  1   
 38  19  47  1   
 39  19  48  1   
 40  20  49  1   
 41  20  50  1   
 42  20  51  1   
 43  21  23  1   
 44  21  52  1   
 45  21  53  1   
 46  22  54  1   
 47  22  55  1   
 48  22  56  1   
 49  23  24  1   
 50  23  25  1   
 51  23  57  1   
 52  24  26  1   
 53  24  58  1   
 54  24  59  1   
 55  25  27  1   
 56  25  60  1   
 57  25  61  1   
 58  26  28  ar  
 59  26  29  ar  
 60  27  28  1   
 61  27  62  1   
 62  27  63  1   
 63  28  30  ar  
 64  29  31  ar  
 65  29  64  1   
 66  30  32  ar  
 67  30  65  1   
 68  31  32  ar  
 69  31  66  1   
 70  32  67  1   
@<TRIPOS>SUBSTRUCTURE
  1 ****   8 GROUP 4 **** **** 0

# MOE 2024.06 (io_trps.svl 2023.06)
