@<TRIPOS>MOLECULE
NONAME
51 55 1 0 0 
SMALL
USER_CHARGES


@<TRIPOS>ATOM
  1 N        0.1770     0.6030    -0.1710 N.ar  1 <1>  -0.1790 
  2 C        1.5060     0.5890    -0.4800 C.ar  1 <1>   0.7710 
  3 C       -0.6250     1.6710    -0.3280 C.ar  1 <1>   0.4610 
  4 N        2.1420     1.6180    -0.9580 N.ar  1 <1>  -0.5670 
  5 N        2.2090    -0.5400    -0.2900 N.pl3 1 <1>  -0.9000 
  6 N       -1.9480     1.5340     0.0020 N.pl3 1 <1>  -0.8380 
  7 C        0.0320     2.8180    -0.8380 C.ar  1 <1>   0.2270 
  8 C        1.3820     2.7190    -1.1260 C.ar  1 <1>   0.1050 
  9 C       -3.0120     2.5130    -0.4480 C.3   1 <1>   0.2090 
 10 C       -2.5530     0.4650     0.8650 C.3   1 <1>   0.2090 
 11 N       -0.3830     4.0980    -1.1090 N.2   1 <1>  -0.5650 
 12 N        1.7750     3.9180    -1.5810 N.pl3 1 <1>   0.0330 
 13 C       -3.6970     3.2070     0.7470 C.3   1 <1>   0.1440 
 14 C       -3.1960     1.1060     2.1000 C.3   1 <1>  -0.1600 
 15 C        0.6660     4.7030    -1.5450 C.2   1 <1>   0.0360 
 16 C       -4.7760     4.1200     0.1990 C.ar  1 <1>   0.1670 
 17 C       -4.2640     2.1430     1.7110 C.3   1 <1>  -0.1600 
 18 C       -2.7520     4.2050     1.4710 C.3   1 <1>  -0.1600 
 19 N       -5.9120     3.7210    -0.3160 N.ar  1 <1>  -0.6200 
 20 C       -4.4160     5.4300     0.2820 C.ar  1 <1>  -0.1430 
 21 C       -3.0480     5.6000     0.8920 C.3   1 <1>  -0.0170 
 22 C       -6.7140     4.6980    -0.7480 C.ar  1 <1>   0.7200 
 23 C       -5.3030     6.3650    -0.1880 C.ar  1 <1>   0.1600 
 24 N       -6.4560     6.0090    -0.7050 N.ar  1 <1>  -0.6200 
 25 N       -7.9230     4.3150    -1.2960 N.pl3 1 <1>  -0.8380 
 26 C       -8.4960     2.9580    -1.0860 C.3   1 <1>   0.1290 
 27 C       -8.7500     5.2500    -2.1080 C.3   1 <1>   0.1290 
 28 H       -0.2350    -0.2570     0.1470 H     1 <1>   0.4570 
 29 H        3.2060    -0.5230    -0.5330 H     1 <1>   0.4000 
 30 H        1.8920    -1.4370     0.0820 H     1 <1>   0.4000 
 31 H       -3.7660     1.9710    -0.9950 H     1 <1>   0.0800 
 32 H       -2.6280     3.2510    -1.1240 H     1 <1>   0.0800 
 33 H       -1.8210    -0.2500     1.1920 H     1 <1>   0.0800 
 34 H       -3.3070    -0.0620     0.3020 H     1 <1>   0.0800 
 35 H        2.7180     4.1760    -1.8850 H     1 <1>   0.2700 
 36 H       -2.4330     1.5720     2.6990 H     1 <1>   0.0800 
 37 H       -3.6550     0.3390     2.6990 H     1 <1>   0.0800 
 38 H        0.6940     5.7350    -1.8580 H     1 <1>   0.1500 
 39 H       -5.0770     1.6320     1.2240 H     1 <1>   0.0800 
 40 H       -4.6680     2.6140     2.5900 H     1 <1>   0.0800 
 41 H       -1.7150     3.9460     1.3690 H     1 <1>   0.0800 
 42 H       -2.9900     4.2280     2.5200 H     1 <1>   0.0800 
 43 H       -2.3380     5.8520     0.1230 H     1 <1>   0.0800 
 44 H       -3.0420     6.3570     1.6580 H     1 <1>   0.0800 
 45 H       -5.0650     7.4130    -0.1430 H     1 <1>   0.1500 
 46 H       -8.1300     2.5300    -0.1690 H     1 <1>   0.0800 
 47 H       -8.2170     2.3200    -1.9060 H     1 <1>   0.0800 
 48 H       -9.5690     3.0150    -1.0270 H     1 <1>   0.0800 
 49 H       -8.1260     5.9750    -2.6010 H     1 <1>   0.0800 
 50 H       -9.4440     5.7640    -1.4660 H     1 <1>   0.0800 
 51 H       -9.2940     4.7050    -2.8590 H     1 <1>   0.0800 
@<TRIPOS>BOND
  1   1   2  ar  
  2   1   3  ar  
  3   1  28  1   
  4   2   4  ar  
  5   2   5  1   
  6   3   6  1   
  7   3   7  ar  
  8   4   8  ar  
  9   5  29  1   
 10   5  30  1   
 11   6   9  1   
 12   6  10  1   
 13   7   8  ar  
 14   7  11  1   
 15   8  12  1   
 16   9  13  1   
 17   9  31  1   
 18   9  32  1   
 19  10  14  1   
 20  10  33  1   
 21  10  34  1   
 22  11  15  2   
 23  12  15  1   
 24  12  35  1   
 25  13  16  1   
 26  13  17  1   
 27  13  18  1   
 28  14  17  1   
 29  14  36  1   
 30  14  37  1   
 31  15  38  1   
 32  16  19  ar  
 33  16  20  ar  
 34  17  39  1   
 35  17  40  1   
 36  18  21  1   
 37  18  41  1   
 38  18  42  1   
 39  19  22  ar  
 40  20  21  1   
 41  20  23  ar  
 42  21  43  1   
 43  21  44  1   
 44  22  24  ar  
 45  22  25  1   
 46  23  24  ar  
 47  23  45  1   
 48  25  26  1   
 49  25  27  1   
 50  26  46  1   
 51  26  47  1   
 52  26  48  1   
 53  27  49  1   
 54  27  50  1   
 55  27  51  1   
@<TRIPOS>SUBSTRUCTURE
  1 ****   9 GROUP 4 **** **** 0

# MOE 2024.06 (io_trps.svl 2023.06)
