@<TRIPOS>MOLECULE
NONAME
57 60 1 0 0 
SMALL
USER_CHARGES


@<TRIPOS>ATOM
  1 O       -0.2620     1.5670    -1.3670 O.2   1 <1>  -0.5700 
  2 C        0.6720     1.9220    -0.6780 C.2   1 <1>   0.6900 
  3 N        0.9250     1.4300     0.5710 N.am  1 <1>  -0.4200 
  4 N        1.5920     2.8600    -1.0470 N.am  1 <1>  -0.6600 
  5 C        2.0360     2.0280     1.0810 C.2   1 <1>   0.5690 
  6 C        0.1130     0.3880     1.2380 C.3   1 <1>   0.0600 
  7 C        2.5720     3.0490     0.0610 C.3   1 <1>   0.3610 
  8 C        1.5750     3.6370    -2.3160 C.3   1 <1>   0.0600 
  9 O        2.5440     1.7870     2.1520 O.2   1 <1>  -0.5700 
 10 C        2.4890     4.4830     0.6210 C.3   1 <1>  -0.1600 
 11 C        3.9860     2.6670    -0.4140 C.3   1 <1>  -0.1600 
 12 C        3.6170     5.3660     0.0930 C.3   1 <1>   0.2090 
 13 C        5.0370     3.2860     0.5030 C.3   1 <1>   0.2090 
 14 N        4.9470     4.7820     0.4710 N.pl3 1 <1>  -0.8380 
 15 C        6.0160     5.5870     0.7230 C.ar  1 <1>   0.4100 
 16 N        5.9920     6.8150     0.2380 N.ar  1 <1>  -0.6200 
 17 C        7.1130     5.1280     1.4800 C.ar  1 <1>  -0.1500 
 18 C        7.0330     7.6070     0.4490 C.ar  1 <1>   0.7710 
 19 C        8.1640     5.9530     1.6990 C.ar  1 <1>   0.2180 
 20 N        8.0930     7.1950     1.1660 N.ar  1 <1>  -0.1790 
 21 N        7.0300     8.8670    -0.0660 N.pl3 1 <1>  -0.8380 
 22 C        9.3940     5.5600     2.5080 C.3   1 <1>  -0.0170 
 23 C        5.8120     9.4430    -0.7520 C.3   1 <1>   0.2090 
 24 C        8.1690     9.8520    -0.0980 C.3   1 <1>   0.2090 
 25 C       10.6710     5.5620     1.6570 C.3   1 <1>  -0.2400 
 26 C        6.1680    10.0080    -2.1380 C.3   1 <1>   0.1200 
 27 C        8.3980    10.3910    -1.5230 C.3   1 <1>   0.1200 
 28 O        7.2170    10.9270    -2.0390 O.3   1 <1>  -0.5600 
 29 H       -0.9090     0.7170     1.3040 H     1 <1>   0.0800 
 30 H        0.4910     0.2000     2.2280 H     1 <1>   0.0800 
 31 H        0.1530    -0.5200     0.6630 H     1 <1>   0.0800 
 32 H        0.7300     3.3420    -2.9140 H     1 <1>   0.0800 
 33 H        2.4730     3.4500    -2.8790 H     1 <1>   0.0800 
 34 H        1.4960     4.6880    -2.1060 H     1 <1>   0.0800 
 35 H        2.5840     4.4580     1.6920 H     1 <1>   0.0800 
 36 H        1.5340     4.9220     0.3970 H     1 <1>   0.0800 
 37 H        4.1680     3.0180    -1.4120 H     1 <1>   0.0800 
 38 H        4.0950     1.5970    -0.4130 H     1 <1>   0.0800 
 39 H        3.5140     6.3520     0.5140 H     1 <1>   0.0800 
 40 H        3.5580     5.4510    -0.9790 H     1 <1>   0.0800 
 41 H        6.0140     2.9730     0.1730 H     1 <1>   0.0800 
 42 H        4.8900     2.9410     1.5130 H     1 <1>   0.0800 
 43 H        7.0920     4.1330     1.8820 H     1 <1>   0.1500 
 44 H        8.8280     7.8730     1.3030 H     1 <1>   0.4570 
 45 H        9.2520     4.5720     2.9140 H     1 <1>   0.0800 
 46 H        9.5110     6.2320     3.3410 H     1 <1>   0.0800 
 47 H        5.4110    10.2410    -0.1490 H     1 <1>   0.0800 
 48 H        5.0320     8.7130    -0.8740 H     1 <1>   0.0800 
 49 H        9.0850     9.4120     0.2460 H     1 <1>   0.0800 
 50 H        7.9360    10.6850     0.5470 H     1 <1>   0.0800 
 51 H       10.5670     4.8910     0.8210 H     1 <1>   0.0800 
 52 H       11.5030     5.2250     2.2520 H     1 <1>   0.0800 
 53 H       10.9010     6.5450     1.2890 H     1 <1>   0.0800 
 54 H        5.3210    10.5210    -2.5570 H     1 <1>   0.0800 
 55 H        6.4590     9.2170    -2.8080 H     1 <1>   0.0800 
 56 H        8.7370     9.6100    -2.1820 H     1 <1>   0.0800 
 57 H        9.1330    11.1760    -1.5120 H     1 <1>   0.0800 
@<TRIPOS>BOND
  1   1   2  2   
  2   2   3  am  
  3   2   4  am  
  4   3   5  am  
  5   3   6  1   
  6   4   7  1   
  7   4   8  1   
  8   5   7  1   
  9   5   9  2   
 10   6  29  1   
 11   6  30  1   
 12   6  31  1   
 13   7  10  1   
 14   7  11  1   
 15   8  32  1   
 16   8  33  1   
 17   8  34  1   
 18  10  12  1   
 19  10  35  1   
 20  10  36  1   
 21  11  13  1   
 22  11  37  1   
 23  11  38  1   
 24  12  14  1   
 25  12  39  1   
 26  12  40  1   
 27  13  14  1   
 28  13  41  1   
 29  13  42  1   
 30  14  15  1   
 31  15  16  ar  
 32  15  17  ar  
 33  16  18  ar  
 34  17  19  ar  
 35  17  43  1   
 36  18  20  ar  
 37  18  21  1   
 38  19  20  ar  
 39  19  22  1   
 40  20  44  1   
 41  21  23  1   
 42  21  24  1   
 43  22  25  1   
 44  22  45  1   
 45  22  46  1   
 46  23  26  1   
 47  23  47  1   
 48  23  48  1   
 49  24  27  1   
 50  24  49  1   
 51  24  50  1   
 52  25  51  1   
 53  25  52  1   
 54  25  53  1   
 55  26  28  1   
 56  26  54  1   
 57  26  55  1   
 58  27  28  1   
 59  27  56  1   
 60  27  57  1   
@<TRIPOS>SUBSTRUCTURE
  1 ****  14 GROUP 4 **** **** 0

# MOE 2024.06 (io_trps.svl 2023.06)
