@<TRIPOS>MOLECULE
NONAME
43 45 1 0 0 
SMALL
USER_CHARGES


@<TRIPOS>ATOM
  1 F       -1.1760    -0.4760     0.0300 F     1 <1>  -0.1900 
  2 C       -1.8240     0.6560    -0.0120 C.ar  1 <1>   0.1900 
  3 C       -1.2000     1.7590    -0.5500 C.ar  1 <1>  -0.1500 
  4 C       -3.1080     0.7060     0.4880 C.ar  1 <1>  -0.1500 
  5 C       -1.8590     2.9880    -0.5960 C.ar  1 <1>   0.0860 
  6 C       -3.7830     1.9120     0.4320 C.ar  1 <1>  -0.1500 
  7 C       -3.1780     3.0400    -0.1080 C.ar  1 <1>  -0.1440 
  8 C       -1.1420     4.1360    -1.1300 C.2   1 <1>   0.5440 
  9 C       -4.0050     4.3200    -0.1670 C.3   1 <1>  -0.0960 
 10 O       -0.4100     4.0290    -2.0960 O.2   1 <1>  -0.5700 
 11 N       -1.1250     5.3510    -0.4930 N.am  1 <1>  -0.6600 
 12 C       -0.4020     5.4120     0.8240 C.3   1 <1>   0.2200 
 13 C       -1.2320     6.5990    -1.3170 C.3   1 <1>   0.1400 
 14 C       -0.7960     6.6280     1.6780 C.3   1 <1>   0.1200 
 15 C        1.1340     5.3660     0.6020 C.3   1 <1>   0.3430 
 16 C       -0.1360     7.6500    -1.0560 C.3   1 <1>  -0.0800 
 17 O       -0.0050     7.7320     1.3560 O.3   1 <1>  -0.5600 
 18 N        1.5340     5.7130    -0.8090 N.4   1 <1>  -0.9590 
 19 C       -0.3920     8.4470     0.2320 C.3   1 <1>   0.1200 
 20 C        1.3230     7.1520    -1.1610 C.3   1 <1>   0.3430 
 21 C        2.9180     5.2650    -1.1220 C.3   1 <1>   0.2630 
 22 H       -0.2020     1.6600    -0.9360 H     1 <1>   0.1500 
 23 H       -3.5640    -0.1750     0.9030 H     1 <1>   0.1500 
 24 H       -4.7900     1.9590     0.8100 H     1 <1>   0.1500 
 25 H       -5.0500     4.1110    -0.0190 H     1 <1>   0.0800 
 26 H       -3.8990     4.7910    -1.1280 H     1 <1>   0.0800 
 27 H       -3.6870     5.0040     0.5980 H     1 <1>   0.0800 
 28 H       -0.6810     4.5420     1.3930 H     1 <1>   0.0800 
 29 H       -1.2130     6.3350    -2.3620 H     1 <1>   0.0800 
 30 H       -2.1970     7.0420    -1.1330 H     1 <1>   0.0800 
 31 H       -0.6020     6.4080     2.7130 H     1 <1>   0.0800 
 32 H       -1.8400     6.8720     1.5760 H     1 <1>   0.0800 
 33 H        1.4650     4.3650     0.8220 H     1 <1>   0.0800 
 34 H        1.6210     6.0260     1.3010 H     1 <1>   0.0800 
 35 H       -0.2490     8.3770    -1.8400 H     1 <1>   0.0800 
 36 H        0.8690     5.1710    -1.4090 H     1 <1>   0.4500 
 37 H       -1.4280     8.7260     0.3320 H     1 <1>   0.0800 
 38 H        0.1940     9.3510     0.2240 H     1 <1>   0.0800 
 39 H        1.9470     7.7700    -0.5350 H     1 <1>   0.0800 
 40 H        1.6440     7.2960    -2.1790 H     1 <1>   0.0800 
 41 H        3.6310     5.7940    -0.5100 H     1 <1>   0.0800 
 42 H        3.1440     5.4510    -2.1590 H     1 <1>   0.0800 
 43 H        3.0170     4.2070    -0.9370 H     1 <1>   0.0800 
@<TRIPOS>BOND
  1   1   2  1   
  2   2   3  ar  
  3   2   4  ar  
  4   3   5  ar  
  5   3  22  1   
  6   4   6  ar  
  7   4  23  1   
  8   5   7  ar  
  9   5   8  1   
 10   6   7  ar  
 11   6  24  1   
 12   7   9  1   
 13   8  10  2   
 14   8  11  am  
 15   9  25  1   
 16   9  26  1   
 17   9  27  1   
 18  11  12  1   
 19  11  13  1   
 20  12  14  1   
 21  12  15  1   
 22  12  28  1   
 23  13  16  1   
 24  13  29  1   
 25  13  30  1   
 26  14  17  1   
 27  14  31  1   
 28  14  32  1   
 29  15  18  1   
 30  15  33  1   
 31  15  34  1   
 32  16  19  1   
 33  16  20  1   
 34  16  35  1   
 35  17  19  1   
 36  18  20  1   
 37  18  21  1   
 38  18  36  1   
 39  19  37  1   
 40  19  38  1   
 41  20  39  1   
 42  20  40  1   
 43  21  41  1   
 44  21  42  1   
 45  21  43  1   
@<TRIPOS>SUBSTRUCTURE
  1 ****  11 GROUP 4 **** **** 0

# MOE 2024.06 (io_trps.svl 2023.06)
