@<TRIPOS>MOLECULE
NONAME
56 59 1 0 0 
SMALL
USER_CHARGES


@<TRIPOS>ATOM
  1 F        1.9380    -3.7570     1.9650 F     1 <1>  -0.1900 
  2 C        1.9230    -3.1940     0.7860 C.ar  1 <1>   0.1900 
  3 C        0.7120    -2.9440     0.1540 C.ar  1 <1>  -0.0320 
  4 C        3.1420    -2.8670     0.2220 C.ar  1 <1>  -0.1500 
  5 C        0.7550    -2.3300    -1.0910 C.ar  1 <1>  -0.1500 
  6 C       -0.6190    -3.3310     0.8010 C.3   1 <1>   0.0320 
  7 C        3.1610    -2.2620    -1.0230 C.ar  1 <1>  -0.1500 
  8 C        1.9680    -1.9930    -1.6740 C.ar  1 <1>  -0.1500 
  9 C       -0.8100    -4.8520     0.9420 C.2   1 <1>   0.6300 
 10 C       -1.1030    -2.4310     1.9060 C.3   1 <1>  -0.2000 
 11 C       -1.8390    -2.4660     0.6090 C.3   1 <1>  -0.2000 
 12 O       -0.7680    -5.3290     2.0530 O.2   1 <1>  -0.5700 
 13 N       -1.0290    -5.6380    -0.1600 N.am  1 <1>  -0.6600 
 14 C       -1.2510    -7.1130    -0.0220 C.3   1 <1>   0.3640 
 15 C       -1.1170    -5.1060    -1.5520 C.3   1 <1>   0.1400 
 16 C        0.0440    -7.8560    -0.4020 C.ar  1 <1>  -0.1430 
 17 C       -2.5270    -7.5240    -0.8170 C.3   1 <1>   0.2000 
 18 C       -1.5900    -6.1550    -2.5730 C.3   1 <1>   0.1200 
 19 C        1.1850    -7.5890     0.3440 C.ar  1 <1>  -0.1500 
 20 C        0.1390    -8.7810    -1.4350 C.ar  1 <1>  -0.1500 
 21 O       -2.6670    -6.9070    -2.0850 O.3   1 <1>  -0.5600 
 22 C       -3.8010    -7.1860    -0.0300 C.3   1 <1>   0.1200 
 23 C        2.4070    -8.2010     0.0750 C.ar  1 <1>   0.0830 
 24 C        1.3400    -9.4090    -1.7090 C.ar  1 <1>  -0.1500 
 25 O       -3.9450    -8.0470     1.0540 O.3   1 <1>  -0.6800 
 26 O        3.5250    -7.8880     0.7960 O.3   1 <1>  -0.3630 
 27 C        2.4770    -9.1400    -0.9670 C.ar  1 <1>   0.0830 
 28 C        3.5590    -6.7780     1.6690 C.3   1 <1>   0.0400 
 29 O        3.5830    -9.8420    -1.3470 O.3   1 <1>  -0.3630 
 30 C        4.6090   -10.1550    -0.4320 C.3   1 <1>   0.0400 
 31 H        4.0550    -3.0810     0.7480 H     1 <1>   0.1500 
 32 H       -0.1550    -2.1090    -1.6190 H     1 <1>   0.1500 
 33 H        4.0990    -1.9980    -1.4820 H     1 <1>   0.1500 
 34 H        1.9850    -1.5190    -2.6410 H     1 <1>   0.1500 
 35 H       -1.5470    -2.8840     2.7760 H     1 <1>   0.1000 
 36 H       -0.5140    -1.5640     2.1520 H     1 <1>   0.1000 
 37 H       -1.7970    -1.5860    -0.0070 H     1 <1>   0.1000 
 38 H       -2.8080    -2.9340     0.5910 H     1 <1>   0.1000 
 39 H       -1.4370    -7.3540     1.0110 H     1 <1>   0.0800 
 40 H       -1.8010    -4.2770    -1.5720 H     1 <1>   0.0800 
 41 H       -0.1480    -4.7530    -1.8550 H     1 <1>   0.0800 
 42 H       -2.5260    -8.5840    -0.9840 H     1 <1>   0.0800 
 43 H       -0.7880    -6.8200    -2.8320 H     1 <1>   0.0800 
 44 H       -1.9150    -5.6670    -3.4750 H     1 <1>   0.0800 
 45 H        1.1000    -6.8840     1.1490 H     1 <1>   0.1500 
 46 H       -0.7080    -9.0310    -2.0480 H     1 <1>   0.1500 
 47 H       -4.6710    -7.2900    -0.6540 H     1 <1>   0.0800 
 48 H       -3.7490    -6.1800     0.3510 H     1 <1>   0.0800 
 49 H        1.4030   -10.1230    -2.5100 H     1 <1>   0.1500 
 50 H       -4.2410    -8.9320     0.7620 H     1 <1>   0.4000 
 51 H        4.5620    -6.6750     2.0400 H     1 <1>   0.0800 
 52 H        2.8840    -6.9530     2.4880 H     1 <1>   0.0800 
 53 H        3.2790    -5.8970     1.1210 H     1 <1>   0.0800 
 54 H        5.1910   -10.9600    -0.8430 H     1 <1>   0.0800 
 55 H        4.1680   -10.4570     0.5020 H     1 <1>   0.0800 
 56 H        5.2310    -9.2880    -0.2990 H     1 <1>   0.0800 
@<TRIPOS>BOND
  1   1   2  1   
  2   2   3  ar  
  3   2   4  ar  
  4   3   5  ar  
  5   3   6  1   
  6   4   7  ar  
  7   4  31  1   
  8   5   8  ar  
  9   5  32  1   
 10   6   9  1   
 11   6  10  1   
 12   6  11  1   
 13   7   8  ar  
 14   7  33  1   
 15   8  34  1   
 16   9  12  2   
 17   9  13  am  
 18  10  11  1   
 19  10  35  1   
 20  10  36  1   
 21  11  37  1   
 22  11  38  1   
 23  13  14  1   
 24  13  15  1   
 25  14  16  1   
 26  14  17  1   
 27  14  39  1   
 28  15  18  1   
 29  15  40  1   
 30  15  41  1   
 31  16  19  ar  
 32  16  20  ar  
 33  17  21  1   
 34  17  22  1   
 35  17  42  1   
 36  18  21  1   
 37  18  43  1   
 38  18  44  1   
 39  19  23  ar  
 40  19  45  1   
 41  20  24  ar  
 42  20  46  1   
 43  22  25  1   
 44  22  47  1   
 45  22  48  1   
 46  23  26  1   
 47  23  27  ar  
 48  24  27  ar  
 49  24  49  1   
 50  25  50  1   
 51  26  28  1   
 52  27  29  1   
 53  28  51  1   
 54  28  52  1   
 55  28  53  1   
 56  29  30  1   
 57  30  54  1   
 58  30  55  1   
 59  30  56  1   
@<TRIPOS>SUBSTRUCTURE
  1 ****  13 GROUP 4 **** **** 0

# MOE 2024.06 (io_trps.svl 2023.06)
