@<TRIPOS>MOLECULE
NONAME
45 49 1 0 0 
SMALL
USER_CHARGES


@<TRIPOS>ATOM
  1 O       -5.5560    -1.1620    -4.1890 O.2   1 <1>  -0.5200 
  2 N       -4.6890    -1.1240    -3.2980 N.pl3 1 <1>   0.8360 
  3 O       -3.7130    -0.3600    -3.4190 O.2   1 <1>  -0.5200 
  4 C       -4.7120    -2.0560    -2.2540 C.2   1 <1>   0.2190 
  5 C       -5.5210    -1.7380    -1.1300 C.2   1 <1>   0.6160 
  6 C       -3.9920    -3.2180    -2.2820 C.2   1 <1>  -0.1500 
  7 O       -6.1530    -0.6880    -1.0550 O.2   1 <1>  -0.5700 
  8 N       -5.5810    -2.6400    -0.0710 N.am  1 <1>  -0.4690 
  9 C       -4.0790    -4.1140    -1.1990 C.2   1 <1>  -0.1500 
 10 C       -4.8670    -3.8320    -0.1240 C.2   1 <1>  -0.0290 
 11 C       -6.4080    -2.2470     1.1190 C.3   1 <1>   0.1400 
 12 C       -5.0050    -4.8530     1.0090 C.3   1 <1>   0.0580 
 13 C       -6.6180    -3.3670     2.1550 C.3   1 <1>  -0.0800 
 14 C       -6.1390    -5.8390     0.6710 C.3   1 <1>   0.1400 
 15 C       -5.3140    -4.1540     2.3380 C.3   1 <1>  -0.1600 
 16 C       -7.7800    -4.3040     1.7620 C.3   1 <1>   0.1400 
 17 N       -7.4380    -5.1090     0.5510 N.am  1 <1>  -0.6600 
 18 C       -8.0340    -4.9160    -0.6820 C.2   1 <1>   0.5440 
 19 O       -7.5320    -5.4170    -1.6720 O.2   1 <1>  -0.5700 
 20 C       -9.2290    -4.1140    -0.8290 C.ar  1 <1>   0.0860 
 21 C       -9.1860    -2.9020    -1.5240 C.ar  1 <1>  -0.1500 
 22 C      -10.4490    -4.5240    -0.2710 C.ar  1 <1>  -0.1500 
 23 C      -10.3350    -2.1480    -1.6200 C.ar  1 <1>   0.0820 
 24 C      -11.5990    -3.7540    -0.3780 C.ar  1 <1>  -0.1500 
 25 O      -10.5020    -0.9680    -2.2260 O.3   1 <1>  -0.3630 
 26 C      -11.5110    -2.5570    -1.0620 C.ar  1 <1>   0.0820 
 27 C      -11.8690    -0.6050    -2.0480 C.3   1 <1>   0.4000 
 28 O      -12.4660    -1.6560    -1.2900 O.3   1 <1>  -0.3630 
 29 H       -3.3660    -3.4710    -3.1210 H     1 <1>   0.1500 
 30 H       -3.5220    -5.0350    -1.2590 H     1 <1>   0.1500 
 31 H       -5.9080    -1.4230     1.6000 H     1 <1>   0.0800 
 32 H       -7.3660    -1.8880     0.7830 H     1 <1>   0.0800 
 33 H       -4.0880    -5.4070     1.1070 H     1 <1>   0.0800 
 34 H       -6.8820    -2.9020     3.0890 H     1 <1>   0.0800 
 35 H       -6.2250    -6.5800     1.4470 H     1 <1>   0.0800 
 36 H       -5.9050    -6.3540    -0.2450 H     1 <1>   0.0800 
 37 H       -5.4220    -4.8800     3.1240 H     1 <1>   0.0800 
 38 H       -4.5090    -3.4880     2.5980 H     1 <1>   0.0800 
 39 H       -8.6690    -3.7210     1.6020 H     1 <1>   0.0800 
 40 H       -7.9800    -4.9830     2.5730 H     1 <1>   0.0800 
 41 H       -8.2740    -2.5590    -1.9780 H     1 <1>   0.1500 
 42 H      -10.4870    -5.4640     0.2520 H     1 <1>   0.1500 
 43 H      -12.5350    -4.0650     0.0490 H     1 <1>   0.1500 
 44 H      -11.9280     0.3170    -1.4980 H     1 <1>   0.0800 
 45 H      -12.3500    -0.5320    -3.0060 H     1 <1>   0.0800 
@<TRIPOS>BOND
  1   1   2  2   
  2   2   3  2   
  3   2   4  1   
  4   4   5  1   
  5   4   6  2   
  6   5   7  2   
  7   5   8  am  
  8   6   9  1   
  9   6  29  1   
 10   8  10  1   
 11   8  11  1   
 12   9  10  2   
 13   9  30  1   
 14  10  12  1   
 15  11  13  1   
 16  11  31  1   
 17  11  32  1   
 18  12  14  1   
 19  12  15  1   
 20  12  33  1   
 21  13  15  1   
 22  13  16  1   
 23  13  34  1   
 24  14  17  1   
 25  14  35  1   
 26  14  36  1   
 27  15  37  1   
 28  15  38  1   
 29  16  17  1   
 30  16  39  1   
 31  16  40  1   
 32  17  18  am  
 33  18  19  2   
 34  18  20  1   
 35  20  21  ar  
 36  20  22  ar  
 37  21  23  ar  
 38  21  41  1   
 39  22  24  ar  
 40  22  42  1   
 41  23  25  1   
 42  23  26  ar  
 43  24  26  ar  
 44  24  43  1   
 45  25  27  1   
 46  26  28  1   
 47  27  28  1   
 48  27  44  1   
 49  27  45  1   
@<TRIPOS>SUBSTRUCTURE
  1 ****  21 GROUP 4 **** **** 0

# MOE 2024.06 (io_trps.svl 2023.06)
