@<TRIPOS>MOLECULE
NONAME
55 58 1 0 0 
SMALL
USER_CHARGES


@<TRIPOS>ATOM
  1 O        0.1820    -0.1910    -1.0130 O.2   1 <1>  -0.5700 
  2 C       -0.2800     0.9190    -1.1380 C.2   1 <1>   0.5690 
  3 N       -1.5930     1.1970    -0.8380 N.am  1 <1>  -0.6600 
  4 C        0.6620     1.9920    -1.6660 C.3   1 <1>  -0.0990 
  5 C       -2.2270     2.5560    -0.8910 C.3   1 <1>   0.1400 
  6 C       -2.5520     0.0980    -0.5200 C.3   1 <1>   0.1400 
  7 C        1.2570     2.8550    -0.5410 C.3   1 <1>  -0.1600 
  8 C       -2.9740     2.8900     0.4160 C.3   1 <1>   0.1440 
  9 C       -3.3200     0.4000     0.7730 C.3   1 <1>  -0.1600 
 10 C        2.1500     3.9840    -1.0830 C.3   1 <1>  -0.0990 
 11 C       -3.6140     4.2560     0.2530 C.ar  1 <1>   0.1670 
 12 C       -3.9990     1.7800     0.7250 C.3   1 <1>  -0.1600 
 13 C       -2.0070     3.1230     1.6080 C.3   1 <1>  -0.1600 
 14 C        2.6100     4.9400     0.0170 C.2   1 <1>   0.4230 
 15 N       -4.6690     4.5230    -0.4850 N.ar  1 <1>  -0.6200 
 16 C       -2.9420     5.2110     0.9550 C.ar  1 <1>  -0.1440 
 17 C       -1.7610     4.6390     1.6980 C.3   1 <1>  -0.0170 
 18 O        1.7760     5.3190     0.8010 O.2   1 <1>  -0.5700 
 19 C        3.9950     5.3590     0.0930 C.ar  1 <1>   0.0860 
 20 C       -5.0320     5.7990    -0.4790 C.ar  1 <1>   0.4770 
 21 C       -3.4030     6.5020     0.8860 C.ar  1 <1>   0.1600 
 22 C        4.5450     5.7210     1.3240 C.ar  1 <1>  -0.1500 
 23 C        4.8350     5.4360    -1.0230 C.ar  1 <1>  -0.1500 
 24 N       -4.4610     6.8080     0.1640 N.ar  1 <1>  -0.6200 
 25 C       -6.2460     6.1490    -1.3050 C.3   1 <1>  -0.0970 
 26 C        5.8630     6.1200     1.4450 C.ar  1 <1>  -0.1500 
 27 C        6.1550     5.8330    -0.9100 C.ar  1 <1>  -0.1500 
 28 C        6.6730     6.1740     0.3250 C.ar  1 <1>  -0.1500 
 29 H        0.1400     2.6020    -2.3790 H     1 <1>   0.0800 
 30 H        1.4610     1.5030    -2.1940 H     1 <1>   0.0800 
 31 H       -2.9310     2.5720    -1.7050 H     1 <1>   0.0800 
 32 H       -1.5000     3.3230    -1.0800 H     1 <1>   0.0800 
 33 H       -2.0350    -0.8410    -0.4150 H     1 <1>   0.0800 
 34 H       -3.2460     0.0000    -1.3380 H     1 <1>   0.0800 
 35 H        1.8270     2.2300     0.1260 H     1 <1>   0.0800 
 36 H        0.4580     3.2880     0.0270 H     1 <1>   0.0800 
 37 H       -2.6360     0.3490     1.6010 H     1 <1>   0.0800 
 38 H       -4.0660    -0.3610     0.9230 H     1 <1>   0.0800 
 39 H        1.6040     4.5590    -1.8100 H     1 <1>   0.0800 
 40 H        2.9970     3.5380    -1.5710 H     1 <1>   0.0800 
 41 H       -4.7490     1.7730    -0.0480 H     1 <1>   0.0800 
 42 H       -4.4980     1.9830     1.6560 H     1 <1>   0.0800 
 43 H       -1.0920     2.5640     1.5190 H     1 <1>   0.0800 
 44 H       -2.4890     2.8170     2.5200 H     1 <1>   0.0800 
 45 H       -0.8500     4.9150     1.1970 H     1 <1>   0.0800 
 46 H       -1.7280     4.9750     2.7200 H     1 <1>   0.0800 
 47 H       -2.9020     7.2890     1.4230 H     1 <1>   0.1500 
 48 H        3.9220     5.6870     2.2020 H     1 <1>   0.1500 
 49 H        4.4590     5.1940    -2.0010 H     1 <1>   0.1500 
 50 H       -6.4330     5.3860    -2.0370 H     1 <1>   0.0800 
 51 H       -6.0860     7.0840    -1.8080 H     1 <1>   0.0800 
 52 H       -7.0980     6.2370    -0.6590 H     1 <1>   0.0800 
 53 H        6.2600     6.3900     2.4090 H     1 <1>   0.1500 
 54 H        6.7830     5.8820    -1.7840 H     1 <1>   0.1500 
 55 H        7.7010     6.4830     0.4160 H     1 <1>   0.1500 
@<TRIPOS>BOND
  1   1   2  2   
  2   2   3  am  
  3   2   4  1   
  4   3   5  1   
  5   3   6  1   
  6   4   7  1   
  7   4  29  1   
  8   4  30  1   
  9   5   8  1   
 10   5  31  1   
 11   5  32  1   
 12   6   9  1   
 13   6  33  1   
 14   6  34  1   
 15   7  10  1   
 16   7  35  1   
 17   7  36  1   
 18   8  11  1   
 19   8  12  1   
 20   8  13  1   
 21   9  12  1   
 22   9  37  1   
 23   9  38  1   
 24  10  14  1   
 25  10  39  1   
 26  10  40  1   
 27  11  15  ar  
 28  11  16  ar  
 29  12  41  1   
 30  12  42  1   
 31  13  17  1   
 32  13  43  1   
 33  13  44  1   
 34  14  18  2   
 35  14  19  1   
 36  15  20  ar  
 37  16  17  1   
 38  16  21  ar  
 39  17  45  1   
 40  17  46  1   
 41  19  22  ar  
 42  19  23  ar  
 43  20  24  ar  
 44  20  25  1   
 45  21  24  ar  
 46  21  47  1   
 47  22  26  ar  
 48  22  48  1   
 49  23  27  ar  
 50  23  49  1   
 51  25  50  1   
 52  25  51  1   
 53  25  52  1   
 54  26  28  ar  
 55  26  53  1   
 56  27  28  ar  
 57  27  54  1   
 58  28  55  1   
@<TRIPOS>SUBSTRUCTURE
  1 ****   7 GROUP 4 **** **** 0

# MOE 2024.06 (io_trps.svl 2023.06)
