@<TRIPOS>MOLECULE
NONAME
59 61 1 0 0 
SMALL
USER_CHARGES


@<TRIPOS>ATOM
  1 O        1.7840     4.4270    -0.8330 O.2   1 <1>  -0.5700 
  2 C        0.7110     4.9840    -0.8190 C.2   1 <1>   0.5690 
  3 N       -0.3380     4.5390    -0.0590 N.am  1 <1>  -0.6600 
  4 C        0.5800     6.2500    -1.6750 C.3   1 <1>   0.1810 
  5 C       -1.6430     5.2780    -0.0850 C.3   1 <1>   0.3640 
  6 C       -0.1480     3.4480     0.9360 C.3   1 <1>   0.2200 
  7 O       -0.6890     6.8790    -1.6740 O.3   1 <1>  -0.5600 
  8 C       -2.6530     4.5980    -1.0150 C.ar  1 <1>  -0.1440 
  9 C       -1.4580     6.7600    -0.4810 C.3   1 <1>   0.2610 
 10 C       -1.2980     2.4420     0.9060 C.3   1 <1>  -0.2400 
 11 C        0.0320     4.0560     2.3270 C.3   1 <1>  -0.2400 
 12 C       -2.2940     4.0900    -2.2570 C.ar  1 <1>  -0.1500 
 13 C       -3.9760     4.4890    -0.6060 C.ar  1 <1>  -0.1500 
 14 C       -0.8880     7.5690     0.6930 C.2   1 <1>   0.5690 
 15 C       -3.2350     3.4860    -3.0720 C.ar  1 <1>  -0.1500 
 16 C       -4.9190     3.8850    -1.4190 C.ar  1 <1>  -0.1500 
 17 O       -1.3370     7.3940     1.8020 O.2   1 <1>  -0.5700 
 18 N        0.1070     8.4650     0.4690 N.am  1 <1>  -0.7300 
 19 C       -4.5490     3.3820    -2.6540 C.ar  1 <1>  -0.1500 
 20 C        0.9930     9.0160     1.5040 C.3   1 <1>   0.2350 
 21 C        2.2920     8.2040     1.4710 C.3   1 <1>  -0.1950 
 22 C        3.6220     8.7610     1.8990 C.3   1 <1>  -0.1900 
 23 C        3.3940     8.3810     0.4580 C.3   1 <1>  -0.1900 
 24 C        3.7780    10.2350     2.3100 C.3   1 <1>  -0.1450 
 25 C        4.4850     7.8800     2.8150 C.3   1 <1>  -0.1450 
 26 C        4.0540     7.1140    -0.1110 C.3   1 <1>  -0.1450 
 27 C        3.2910     9.4560    -0.6370 C.3   1 <1>  -0.1450 
 28 H        0.8130     6.0030    -2.6940 H     1 <1>   0.0800 
 29 H        1.3040     6.9640    -1.3340 H     1 <1>   0.0800 
 30 H       -2.0630     5.2560     0.9030 H     1 <1>   0.0800 
 31 H        0.7540     2.9100     0.6930 H     1 <1>   0.0800 
 32 H       -2.4250     7.1710    -0.6990 H     1 <1>   0.0800 
 33 H       -2.2140     2.8800     1.2560 H     1 <1>   0.0800 
 34 H       -1.0630     1.6090     1.5430 H     1 <1>   0.0800 
 35 H       -1.4350     2.0710    -0.0940 H     1 <1>   0.0800 
 36 H       -0.8580     4.5600     2.6570 H     1 <1>   0.0800 
 37 H        0.8500     4.7550     2.3170 H     1 <1>   0.0800 
 38 H        0.2620     3.2810     3.0350 H     1 <1>   0.0800 
 39 H       -1.2780     4.1600    -2.6010 H     1 <1>   0.1500 
 40 H       -4.2840     4.8720     0.3510 H     1 <1>   0.1500 
 41 H       -2.9430     3.0960    -4.0310 H     1 <1>   0.1500 
 42 H       -5.9410     3.8050    -1.0920 H     1 <1>   0.1500 
 43 H        0.4460     8.5760    -0.4880 H     1 <1>   0.3700 
 44 H       -5.2810     2.9120    -3.2870 H     1 <1>   0.1500 
 45 H        1.1660    10.0560     1.3030 H     1 <1>   0.0800 
 46 H        0.5350     8.9290     2.4750 H     1 <1>   0.0800 
 47 H        2.0860     7.1940     1.7850 H     1 <1>   0.1000 
 48 H        3.5260    10.3560     3.3490 H     1 <1>   0.0800 
 49 H        3.1540    10.8980     1.7450 H     1 <1>   0.0800 
 50 H        4.7990    10.5420     2.1700 H     1 <1>   0.0800 
 51 H        4.2700     8.0950     3.8470 H     1 <1>   0.0800 
 52 H        5.5270     8.0730     2.6340 H     1 <1>   0.0800 
 53 H        4.3010     6.8340     2.6600 H     1 <1>   0.0800 
 54 H        3.6090     6.8410    -1.0500 H     1 <1>   0.0800 
 55 H        3.9430     6.2730     0.5480 H     1 <1>   0.0800 
 56 H        5.1020     7.2890    -0.2710 H     1 <1>   0.0800 
 57 H        2.8000     9.0560    -1.5050 H     1 <1>   0.0800 
 58 H        4.2780     9.7750    -0.9220 H     1 <1>   0.0800 
 59 H        2.7380    10.3180    -0.3200 H     1 <1>   0.0800 
@<TRIPOS>BOND
  1   1   2  2   
  2   2   3  am  
  3   2   4  1   
  4   3   5  1   
  5   3   6  1   
  6   4   7  1   
  7   4  28  1   
  8   4  29  1   
  9   5   8  1   
 10   5   9  1   
 11   5  30  1   
 12   6  10  1   
 13   6  11  1   
 14   6  31  1   
 15   7   9  1   
 16   8  12  ar  
 17   8  13  ar  
 18   9  14  1   
 19   9  32  1   
 20  10  33  1   
 21  10  34  1   
 22  10  35  1   
 23  11  36  1   
 24  11  37  1   
 25  11  38  1   
 26  12  15  ar  
 27  12  39  1   
 28  13  16  ar  
 29  13  40  1   
 30  14  17  2   
 31  14  18  am  
 32  15  19  ar  
 33  15  41  1   
 34  16  19  ar  
 35  16  42  1   
 36  18  20  1   
 37  18  43  1   
 38  19  44  1   
 39  20  21  1   
 40  20  45  1   
 41  20  46  1   
 42  21  22  1   
 43  21  23  1   
 44  21  47  1   
 45  22  23  1   
 46  22  24  1   
 47  22  25  1   
 48  23  26  1   
 49  23  27  1   
 50  24  48  1   
 51  24  49  1   
 52  24  50  1   
 53  25  51  1   
 54  25  52  1   
 55  25  53  1   
 56  26  54  1   
 57  26  55  1   
 58  26  56  1   
 59  27  57  1   
 60  27  58  1   
 61  27  59  1   
@<TRIPOS>SUBSTRUCTURE
  1 ****   2 GROUP 4 **** **** 0

# MOE 2024.06 (io_trps.svl 2023.06)
