@<TRIPOS>MOLECULE
NONAME
38 40 1 0 0 
SMALL
USER_CHARGES


@<TRIPOS>ATOM
  1 S        1.6870     0.1080     1.8880 S.3   1 <1>  -0.0800 
  2 C        0.9670    -0.3360     0.3620 C.2   1 <1>   0.1980 
  3 C        1.3940    -1.5020     2.4570 C.2   1 <1>  -0.1100 
  4 N        0.5610    -1.5380     0.3040 N.2   1 <1>  -0.5650 
  5 C        0.9000     0.7280    -0.7080 C.3   1 <1>  -0.0600 
  6 C        0.7900    -2.2460     1.5020 C.2   1 <1>   0.1410 
  7 C        0.4240    -3.6530     1.6850 C.2   1 <1>   0.7160 
  8 O        0.8560    -4.2480     2.6580 O.2   1 <1>  -0.5700 
  9 N       -0.3950    -4.3690     0.8310 N.am  1 <1>  -0.6600 
 10 C       -1.1510    -3.8410    -0.3340 C.3   1 <1>   0.1400 
 11 C       -0.6190    -5.8290     0.9690 C.3   1 <1>   0.1400 
 12 C       -2.1510    -4.9440    -0.6760 C.3   1 <1>   0.2000 
 13 C       -1.4210    -6.2300    -0.2740 C.3   1 <1>  -0.0800 
 14 O       -3.2710    -4.7780     0.1250 O.3   1 <1>  -0.6800 
 15 C       -2.3310    -7.4550    -0.0590 C.3   1 <1>   0.0200 
 16 C       -1.5560    -8.7360     0.1990 C.2   1 <1>  -0.0400 
 17 O       -2.2160    -9.8080     0.5450 O.3   1 <1>  -0.0190 
 18 C       -0.2520    -9.0580     0.1490 C.2   1 <1>  -0.1500 
 19 N       -1.4280   -10.8270     0.7340 N.2   1 <1>  -0.4100 
 20 C       -0.2380   -10.4050     0.5020 C.2   1 <1>   0.1080 
 21 C        1.0030   -11.2630     0.6040 C.3   1 <1>  -0.0590 
 22 H        1.7000    -1.7540     3.4560 H     1 <1>   0.1500 
 23 H        0.4390     0.3270    -1.5920 H     1 <1>   0.0800 
 24 H        1.8920     1.0610    -0.9520 H     1 <1>   0.0800 
 25 H        0.3210     1.5620    -0.3570 H     1 <1>   0.0800 
 26 H       -1.6480    -2.9130    -0.1050 H     1 <1>   0.0800 
 27 H       -0.4700    -3.6920    -1.1540 H     1 <1>   0.0800 
 28 H        0.3210    -6.3520     1.0270 H     1 <1>   0.0800 
 29 H       -1.1810    -6.0130     1.8690 H     1 <1>   0.0800 
 30 H       -2.4620    -4.9300    -1.7060 H     1 <1>   0.0800 
 31 H       -0.7200    -6.4600    -1.0570 H     1 <1>   0.0800 
 32 H       -2.9810    -4.5940     1.0420 H     1 <1>   0.4000 
 33 H       -2.9470    -7.5990    -0.9300 H     1 <1>   0.0800 
 34 H       -2.9880    -7.2830     0.7760 H     1 <1>   0.0800 
 35 H        0.6060    -8.4640    -0.0980 H     1 <1>   0.1500 
 36 H        1.6650   -10.8600     1.3470 H     1 <1>   0.0800 
 37 H        1.5060   -11.2910    -0.3450 H     1 <1>   0.0800 
 38 H        0.7330   -12.2650     0.8850 H     1 <1>   0.0800 
@<TRIPOS>BOND
  1   1   2  1   
  2   1   3  1   
  3   2   4  2   
  4   2   5  1   
  5   3   6  2   
  6   3  22  1   
  7   4   6  1   
  8   5  23  1   
  9   5  24  1   
 10   5  25  1   
 11   6   7  1   
 12   7   8  2   
 13   7   9  am  
 14   9  10  1   
 15   9  11  1   
 16  10  12  1   
 17  10  26  1   
 18  10  27  1   
 19  11  13  1   
 20  11  28  1   
 21  11  29  1   
 22  12  13  1   
 23  12  14  1   
 24  12  30  1   
 25  13  15  1   
 26  13  31  1   
 27  14  32  1   
 28  15  16  1   
 29  15  33  1   
 30  15  34  1   
 31  16  17  1   
 32  16  18  2   
 33  17  19  1   
 34  18  20  1   
 35  18  35  1   
 36  19  20  2   
 37  20  21  1   
 38  21  36  1   
 39  21  37  1   
 40  21  38  1   
@<TRIPOS>SUBSTRUCTURE
  1 ****  11 GROUP 4 **** **** 0

# MOE 2024.06 (io_trps.svl 2023.06)
