@<TRIPOS>MOLECULE
NONAME
61 63 1 0 0 
SMALL
USER_CHARGES


@<TRIPOS>ATOM
  1 O        0.3530    -0.4820    -1.4810 O.2   1 <1>  -0.5700 
  2 C        1.0490    -1.3420    -0.9990 C.2   1 <1>   0.5690 
  3 N        0.5560    -2.4020    -0.2870 N.am  1 <1>  -0.6600 
  4 C        2.5500    -1.2610    -1.1820 C.3   1 <1>  -0.0990 
  5 C        1.4720    -3.3970     0.3190 C.3   1 <1>   0.1400 
  6 C       -0.8970    -2.5730    -0.0150 C.3   1 <1>   0.0600 
  7 C        3.1130    -2.6410    -1.5680 C.3   1 <1>  -0.0800 
  8 C        2.5750    -3.7940    -0.6860 C.3   1 <1>  -0.0800 
  9 C        4.6460    -2.7070    -1.5030 C.3   1 <1>  -0.1600 
 10 C        3.8060    -4.4130    -0.0110 C.3   1 <1>  -0.1600 
 11 C        4.9490    -4.1040    -0.9760 C.3   1 <1>   0.4230 
 12 N        6.3340    -4.2520    -0.4270 N.4   1 <1>  -0.9590 
 13 C        6.5820    -3.8340     0.9910 C.3   1 <1>   0.4860 
 14 C        6.8040    -5.6570    -0.6250 C.3   1 <1>   0.2630 
 15 C        6.6480    -2.3230     1.1000 C.ar  1 <1>  -0.1440 
 16 C        7.7030    -1.6230     0.5310 C.ar  1 <1>  -0.1500 
 17 C        5.6590    -1.6240     1.7770 C.ar  1 <1>  -0.1500 
 18 C        7.7690    -0.2420     0.6220 C.ar  1 <1>   0.0820 
 19 C        5.7140    -0.2440     1.8640 C.ar  1 <1>  -0.1500 
 20 O        8.8430     0.3560     0.0480 O.3   1 <1>  -0.3630 
 21 C        6.7610     0.4500     1.2870 C.ar  1 <1>  -0.1500 
 22 C        9.1190     1.7220     0.2660 C.3   1 <1>   0.1200 
 23 C       10.4660     2.0370    -0.3960 C.3   1 <1>   0.3430 
 24 N       10.8720     3.4780    -0.2520 N.4   1 <1>  -0.9590 
 25 C       12.0620     3.7600    -1.1160 C.3   1 <1>   0.2630 
 26 C       11.1740     3.8470     1.1690 C.3   1 <1>   0.2630 
 27 H        2.7760    -0.5410    -1.9470 H     1 <1>   0.0800 
 28 H        2.9750    -0.9160    -0.2570 H     1 <1>   0.0800 
 29 H        1.9040    -2.9530     1.2000 H     1 <1>   0.0800 
 30 H        0.9210    -4.2720     0.6190 H     1 <1>   0.0800 
 31 H       -1.2340    -3.5140    -0.4120 H     1 <1>   0.0800 
 32 H       -1.4640    -1.7830    -0.4780 H     1 <1>   0.0800 
 33 H       -1.0760    -2.5480     1.0450 H     1 <1>   0.0800 
 34 H        2.8010    -2.8410    -2.5810 H     1 <1>   0.0800 
 35 H        2.1500    -4.5310    -1.3470 H     1 <1>   0.0800 
 36 H        5.0060    -1.9470    -0.8380 H     1 <1>   0.0800 
 37 H        5.0750    -2.5530    -2.4770 H     1 <1>   0.0800 
 38 H        3.6780    -5.4710     0.1340 H     1 <1>   0.0800 
 39 H        3.9530    -3.9280     0.9340 H     1 <1>   0.0800 
 40 H        4.8410    -4.7700    -1.8180 H     1 <1>   0.0800 
 41 H        6.9230    -3.6310    -0.9970 H     1 <1>   0.4500 
 42 H        5.8200    -4.2260     1.6440 H     1 <1>   0.0800 
 43 H        7.5280    -4.2300     1.3220 H     1 <1>   0.0800 
 44 H        6.2080    -6.3380    -0.0400 H     1 <1>   0.0800 
 45 H        7.8350    -5.7550    -0.3240 H     1 <1>   0.0800 
 46 H        6.7250    -5.9360    -1.6630 H     1 <1>   0.0800 
 47 H        8.4970    -2.1340     0.0170 H     1 <1>   0.1500 
 48 H        4.8350    -2.1360     2.2460 H     1 <1>   0.1500 
 49 H        4.9380     0.2930     2.3850 H     1 <1>   0.1500 
 50 H        6.7680     1.5200     1.3710 H     1 <1>   0.1500 
 51 H        8.3280     2.2970    -0.1810 H     1 <1>   0.0800 
 52 H        9.1620     1.8840     1.3280 H     1 <1>   0.0800 
 53 H       10.3870     1.7940    -1.4430 H     1 <1>   0.0800 
 54 H       11.2230     1.4050     0.0400 H     1 <1>   0.0800 
 55 H       10.0970     4.0710    -0.5890 H     1 <1>   0.4500 
 56 H       12.9020     3.1600    -0.8060 H     1 <1>   0.0800 
 57 H       12.3380     4.8000    -1.0460 H     1 <1>   0.0800 
 58 H       11.8400     3.5340    -2.1470 H     1 <1>   0.0800 
 59 H       11.9760     3.2370     1.5540 H     1 <1>   0.0800 
 60 H       10.3050     3.7060     1.7910 H     1 <1>   0.0800 
 61 H       11.4710     4.8820     1.2310 H     1 <1>   0.0800 
@<TRIPOS>BOND
  1   1   2  2   
  2   2   3  am  
  3   2   4  1   
  4   3   5  1   
  5   3   6  1   
  6   4   7  1   
  7   4  27  1   
  8   4  28  1   
  9   5   8  1   
 10   5  29  1   
 11   5  30  1   
 12   6  31  1   
 13   6  32  1   
 14   6  33  1   
 15   7   8  1   
 16   7   9  1   
 17   7  34  1   
 18   8  10  1   
 19   8  35  1   
 20   9  11  1   
 21   9  36  1   
 22   9  37  1   
 23  10  11  1   
 24  10  38  1   
 25  10  39  1   
 26  11  12  1   
 27  11  40  1   
 28  12  13  1   
 29  12  14  1   
 30  12  41  1   
 31  13  15  1   
 32  13  42  1   
 33  13  43  1   
 34  14  44  1   
 35  14  45  1   
 36  14  46  1   
 37  15  16  ar  
 38  15  17  ar  
 39  16  18  ar  
 40  16  47  1   
 41  17  19  ar  
 42  17  48  1   
 43  18  20  1   
 44  18  21  ar  
 45  19  21  ar  
 46  19  49  1   
 47  20  22  1   
 48  21  50  1   
 49  22  23  1   
 50  22  51  1   
 51  22  52  1   
 52  23  24  1   
 53  23  53  1   
 54  23  54  1   
 55  24  25  1   
 56  24  26  1   
 57  24  55  1   
 58  25  56  1   
 59  25  57  1   
 60  25  58  1   
 61  26  59  1   
 62  26  60  1   
 63  26  61  1   
@<TRIPOS>SUBSTRUCTURE
  1 ****  15 GROUP 4 **** **** 0

# MOE 2024.06 (io_trps.svl 2023.06)
