@<TRIPOS>MOLECULE
NONAME
58 60 1 0 0 
SMALL
USER_CHARGES


@<TRIPOS>ATOM
  1 O        0.0620     0.6770    -1.4260 O.2   1 <1>  -0.5700 
  2 C        0.8180    -0.1040    -0.9060 C.2   1 <1>   0.5690 
  3 N        1.7020     0.2630     0.0570 N.am  1 <1>  -0.7300 
  4 C        0.7810    -1.5550    -1.3420 C.3   1 <1>  -0.0990 
  5 C        1.8040     1.6280     0.6190 C.3   1 <1>   0.1400 
  6 C       -0.0550    -2.4140    -0.3800 C.3   1 <1>  -0.1600 
  7 C        2.7820     2.4480    -0.2340 C.3   1 <1>  -0.1600 
  8 C       -0.1700    -3.8620    -0.8720 C.3   1 <1>   0.0960 
  9 C        3.1270     3.8480     0.3430 C.3   1 <1>   0.1430 
 10 N       -0.9320    -4.6730     0.0960 N.pl3 1 <1>   0.0480 
 11 C        1.7960     4.5250     0.7730 C.ar  1 <1>  -0.1430 
 12 C        3.8260     4.6570    -0.7920 C.3   1 <1>  -0.1600 
 13 C        4.1440     3.6680     1.5060 C.3   1 <1>  -0.1600 
 14 C       -0.4470    -5.5240     1.0280 C.2   1 <1>   0.0360 
 15 C       -2.2670    -4.7230     0.2510 C.2   1 <1>  -0.3020 
 16 C        1.4750     4.8360     2.0940 C.ar  1 <1>  -0.1500 
 17 C        0.8380     4.8090    -0.1980 C.ar  1 <1>  -0.1500 
 18 C        4.9400     5.6200    -0.3280 C.3   1 <1>   0.2800 
 19 C        5.5880     3.7120     1.0040 C.3   1 <1>   0.1200 
 20 N       -1.3600    -6.0950     1.7460 N.2   1 <1>  -0.5650 
 21 C       -2.5080    -5.5910     1.2580 C.2   1 <1>   0.0770 
 22 C        0.2680     5.4300     2.4210 C.ar  1 <1>  -0.1500 
 23 C       -0.3700     5.4010     0.1240 C.ar  1 <1>  -0.1500 
 24 O        5.8600     4.9940     0.5210 O.3   1 <1>  -0.5600 
 25 C        4.3800     6.8310     0.4230 C.3   1 <1>  -0.2400 
 26 C        5.7510     6.1050    -1.5290 C.3   1 <1>  -0.2400 
 27 C       -0.6560     5.7180     1.4370 C.ar  1 <1>  -0.1500 
 28 H        2.3340    -0.4300     0.4570 H     1 <1>   0.3700 
 29 H        1.7860    -1.9290    -1.4020 H     1 <1>   0.0800 
 30 H        0.3530    -1.5940    -2.3280 H     1 <1>   0.0800 
 31 H        2.1330     1.5660     1.6410 H     1 <1>   0.0800 
 32 H        0.8290     2.0880     0.6080 H     1 <1>   0.0800 
 33 H       -1.0420    -1.9870    -0.3000 H     1 <1>   0.0800 
 34 H        0.3980    -2.4000     0.5970 H     1 <1>   0.0800 
 35 H        2.3280     2.5680    -1.2020 H     1 <1>   0.0800 
 36 H        3.6880     1.8860    -0.3700 H     1 <1>   0.0800 
 37 H        0.8070    -4.2950    -0.9910 H     1 <1>   0.0800 
 38 H       -0.6770    -3.8940    -1.8200 H     1 <1>   0.0800 
 39 H        3.1160     5.2180    -1.3670 H     1 <1>   0.0800 
 40 H        4.2810     3.9710    -1.4830 H     1 <1>   0.0800 
 41 H        3.9740     2.7510     2.0360 H     1 <1>   0.0800 
 42 H        4.0790     4.4640     2.2200 H     1 <1>   0.0800 
 43 H        0.6070    -5.6980     1.1490 H     1 <1>   0.1500 
 44 H       -2.9570    -4.1530    -0.3440 H     1 <1>   0.1500 
 45 H        2.1380     4.6210     2.9080 H     1 <1>   0.1500 
 46 H        1.0140     4.5610    -1.2290 H     1 <1>   0.1500 
 47 H        5.7620     3.0020     0.2140 H     1 <1>   0.0800 
 48 H        6.2770     3.5180     1.8070 H     1 <1>   0.0800 
 49 H       -3.4620    -5.8840     1.6630 H     1 <1>   0.1500 
 50 H        0.0470     5.6670     3.4470 H     1 <1>   0.1500 
 51 H       -1.0880     5.6100    -0.6500 H     1 <1>   0.1500 
 52 H        3.8240     6.5300     1.2890 H     1 <1>   0.0800 
 53 H        3.7190     7.3880    -0.2160 H     1 <1>   0.0800 
 54 H        5.1800     7.4780     0.7320 H     1 <1>   0.0800 
 55 H        6.2040     5.2730    -2.0360 H     1 <1>   0.0800 
 56 H        6.5260     6.7770    -1.2060 H     1 <1>   0.0800 
 57 H        5.1160     6.6250    -2.2230 H     1 <1>   0.0800 
 58 H       -1.5940     6.1800     1.6900 H     1 <1>   0.1500 
@<TRIPOS>BOND
  1   1   2  2   
  2   2   3  am  
  3   2   4  1   
  4   3   5  1   
  5   3  28  1   
  6   4   6  1   
  7   4  29  1   
  8   4  30  1   
  9   5   7  1   
 10   5  31  1   
 11   5  32  1   
 12   6   8  1   
 13   6  33  1   
 14   6  34  1   
 15   7   9  1   
 16   7  35  1   
 17   7  36  1   
 18   8  10  1   
 19   8  37  1   
 20   8  38  1   
 21   9  11  1   
 22   9  12  1   
 23   9  13  1   
 24  10  14  1   
 25  10  15  1   
 26  11  16  ar  
 27  11  17  ar  
 28  12  18  1   
 29  12  39  1   
 30  12  40  1   
 31  13  19  1   
 32  13  41  1   
 33  13  42  1   
 34  14  20  2   
 35  14  43  1   
 36  15  21  2   
 37  15  44  1   
 38  16  22  ar  
 39  16  45  1   
 40  17  23  ar  
 41  17  46  1   
 42  18  24  1   
 43  18  25  1   
 44  18  26  1   
 45  19  24  1   
 46  19  47  1   
 47  19  48  1   
 48  20  21  1   
 49  21  49  1   
 50  22  27  ar  
 51  22  50  1   
 52  23  27  ar  
 53  23  51  1   
 54  25  52  1   
 55  25  53  1   
 56  25  54  1   
 57  26  55  1   
 58  26  56  1   
 59  26  57  1   
 60  27  58  1   
@<TRIPOS>SUBSTRUCTURE
  1 ****   5 GROUP 4 **** **** 0

# MOE 2024.06 (io_trps.svl 2023.06)
