@<TRIPOS>MOLECULE
NONAME
52 54 1 0 0 
SMALL
USER_CHARGES


@<TRIPOS>ATOM
  1 O        2.6810    -0.7020     2.5440 O.2   1 <1>  -0.5700 
  2 C        2.2080    -1.1110     1.5090 C.2   1 <1>   0.5690 
  3 N        2.0140    -0.3560     0.3940 N.am  1 <1>  -0.4930 
  4 C        1.7540    -2.5690     1.4300 C.3   1 <1>   0.1710 
  5 C        2.1910     1.0300     0.1570 C.2   1 <1>   0.0630 
  6 N        0.5600    -2.7800     0.5520 N.3   1 <1>  -0.8100 
  7 C        3.1790     1.9130     0.6070 C.2   1 <1>   0.1080 
  8 C        1.3840     1.7860    -0.6180 C.2   1 <1>  -0.3320 
  9 C       -0.6470    -2.1330     1.1380 C.3   1 <1>   0.2530 
 10 C        0.3180    -4.2120     0.2680 C.3   1 <1>   0.2900 
 11 N        2.9980     3.1180     0.1620 N.2   1 <1>  -0.7070 
 12 C        4.3550     1.5720     1.4940 C.3   1 <1>  -0.0590 
 13 N        1.8860     3.0460    -0.5900 N.pl3 1 <1>   0.3140 
 14 C        0.1370     1.3720    -1.3890 C.3   1 <1>  -0.0600 
 15 C       -1.8990    -2.2520     0.2640 C.ar  1 <1>   0.1670 
 16 C        1.5010    -4.8740    -0.4210 C.2   1 <1>  -0.0400 
 17 C        1.3530     4.2470    -1.2670 C.3   1 <1>   0.0960 
 18 N       -1.9360    -1.5340    -0.8530 N.ar  1 <1>  -0.6200 
 19 C       -2.9260    -3.0920     0.6710 C.ar  1 <1>  -0.1500 
 20 O        2.4030    -5.5090     0.3050 O.3   1 <1>  -0.2800 
 21 C        1.8140    -4.9470    -1.7330 C.2   1 <1>  -0.1500 
 22 C        0.3020     4.9520    -0.4010 C.3   1 <1>  -0.2400 
 23 C       -3.0280    -1.6650    -1.5880 C.ar  1 <1>   0.1600 
 24 C       -4.0590    -3.2170    -0.1040 C.ar  1 <1>  -0.1500 
 25 C        3.3080    -5.9950    -0.5220 C.2   1 <1>  -0.0100 
 26 C        3.0030    -5.6830    -1.7990 C.2   1 <1>  -0.1500 
 27 C       -4.1000    -2.4790    -1.2660 C.ar  1 <1>  -0.1500 
 28 H        1.4690    -0.8480    -0.3210 H     1 <1>   0.3700 
 29 H        1.5500    -2.9270     2.4230 H     1 <1>   0.0800 
 30 H        2.5940    -3.1190     1.0500 H     1 <1>   0.0800 
 31 H       -0.4590    -1.0830     1.2840 H     1 <1>   0.0800 
 32 H       -0.8450    -2.5600     2.1060 H     1 <1>   0.0800 
 33 H       -0.5240    -4.3020    -0.3960 H     1 <1>   0.0800 
 34 H        0.0900    -4.7430     1.1760 H     1 <1>   0.0800 
 35 H        4.7140     0.5860     1.2690 H     1 <1>   0.0800 
 36 H        4.0500     1.6120     2.5230 H     1 <1>   0.0800 
 37 H        5.1480     2.2780     1.3360 H     1 <1>   0.0800 
 38 H       -0.0240     0.3130    -1.3060 H     1 <1>   0.0800 
 39 H        0.2440     1.6120    -2.4310 H     1 <1>   0.0800 
 40 H       -0.7280     1.8740    -0.9960 H     1 <1>   0.0800 
 41 H        0.9300     3.9540    -2.2090 H     1 <1>   0.0800 
 42 H        2.1750     4.9120    -1.4560 H     1 <1>   0.0800 
 43 H       -2.8460    -3.6480     1.5880 H     1 <1>   0.1500 
 44 H        1.2830    -4.5340    -2.5720 H     1 <1>   0.1500 
 45 H       -0.5300     4.2970    -0.2100 H     1 <1>   0.0800 
 46 H       -0.0580     5.8300    -0.9040 H     1 <1>   0.0800 
 47 H        0.7410     5.2480     0.5360 H     1 <1>   0.0800 
 48 H       -3.0720    -1.0930    -2.4980 H     1 <1>   0.1500 
 49 H       -4.8730    -3.8610     0.1830 H     1 <1>   0.1500 
 50 H        4.1360    -6.5510    -0.1170 H     1 <1>   0.1500 
 51 H        3.5360    -5.9300    -2.7000 H     1 <1>   0.1500 
 52 H       -4.9530    -2.5310    -1.9180 H     1 <1>   0.1500 
@<TRIPOS>BOND
  1   1   2  2   
  2   2   3  am  
  3   2   4  1   
  4   3   5  1   
  5   3  28  1   
  6   4   6  1   
  7   4  29  1   
  8   4  30  1   
  9   5   7  1   
 10   5   8  2   
 11   6   9  1   
 12   6  10  1   
 13   7  11  2   
 14   7  12  1   
 15   8  13  1   
 16   8  14  1   
 17   9  15  1   
 18   9  31  1   
 19   9  32  1   
 20  10  16  1   
 21  10  33  1   
 22  10  34  1   
 23  11  13  1   
 24  12  35  1   
 25  12  36  1   
 26  12  37  1   
 27  13  17  1   
 28  14  38  1   
 29  14  39  1   
 30  14  40  1   
 31  15  18  ar  
 32  15  19  ar  
 33  16  20  1   
 34  16  21  2   
 35  17  22  1   
 36  17  41  1   
 37  17  42  1   
 38  18  23  ar  
 39  19  24  ar  
 40  19  43  1   
 41  20  25  1   
 42  21  26  1   
 43  21  44  1   
 44  22  45  1   
 45  22  46  1   
 46  22  47  1   
 47  23  27  ar  
 48  23  48  1   
 49  24  27  ar  
 50  24  49  1   
 51  25  26  2   
 52  25  50  1   
 53  26  51  1   
 54  27  52  1   
@<TRIPOS>SUBSTRUCTURE
  1 ****   3 GROUP 4 **** **** 0

# MOE 2024.06 (io_trps.svl 2023.06)
