@<TRIPOS>MOLECULE
NONAME
44 46 1 0 0 
SMALL
USER_CHARGES


@<TRIPOS>ATOM
  1 F       -0.7590    -0.1130     0.0830 F     1 <1>  -0.1900 
  2 C       -1.5810     0.8960    -0.0280 C.ar  1 <1>   0.1900 
  3 C       -1.2670     2.0830     0.6060 C.ar  1 <1>  -0.1500 
  4 C       -2.7320     0.7380    -0.7760 C.ar  1 <1>  -0.1500 
  5 C       -2.1370     3.1570     0.4880 C.ar  1 <1>  -0.1440 
  6 C       -3.5970     1.8120    -0.8890 C.ar  1 <1>  -0.1500 
  7 C       -3.2990     3.0120    -0.2600 C.ar  1 <1>  -0.1500 
  8 C       -1.8190     4.4800     1.1650 C.3   1 <1>  -0.0160 
  9 C       -1.0210     5.3830     0.2130 C.3   1 <1>  -0.0990 
 10 C       -0.6590     6.7400     0.8020 C.2   1 <1>   0.5690 
 11 O       -0.9570     6.9640     1.9510 O.2   1 <1>  -0.5700 
 12 N        0.0040     7.6760     0.0440 N.am  1 <1>  -0.6600 
 13 C        0.2540     9.0510     0.5890 C.3   1 <1>   0.1400 
 14 C        0.5670     7.4320    -1.3180 C.3   1 <1>   0.1400 
 15 C        1.7430     9.3580     0.8510 C.3   1 <1>   0.2200 
 16 C        2.1040     7.4550    -1.3400 C.3   1 <1>  -0.0190 
 17 N        2.4260     9.7640    -0.4180 N.am  1 <1>  -0.6600 
 18 C        2.4720     8.2080     1.5940 C.3   1 <1>   0.1200 
 19 C        2.6120     8.8820    -1.4490 C.2   1 <1>   0.5690 
 20 C        2.7660     6.6510    -0.2010 C.3   1 <1>   0.1200 
 21 C        2.9900    11.1410    -0.4470 C.3   1 <1>   0.0600 
 22 O        3.3380     7.4580     0.7840 O.3   1 <1>  -0.5600 
 23 O        3.1360     9.2090    -2.4890 O.2   1 <1>  -0.5700 
 24 H       -0.3600     2.1570     1.1780 H     1 <1>   0.1500 
 25 H       -2.9410    -0.2020    -1.2530 H     1 <1>   0.1500 
 26 H       -4.5020     1.7160    -1.4650 H     1 <1>   0.1500 
 27 H       -3.9820     3.8390    -0.3560 H     1 <1>   0.1500 
 28 H       -2.7330     4.9720     1.4530 H     1 <1>   0.0800 
 29 H       -1.2510     4.3030     2.0620 H     1 <1>   0.0800 
 30 H       -1.6040     5.5430    -0.6750 H     1 <1>   0.0800 
 31 H       -0.1150     4.8750    -0.0600 H     1 <1>   0.0800 
 32 H       -0.1440     9.7830    -0.0910 H     1 <1>   0.0800 
 33 H       -0.2750     9.1720     1.5180 H     1 <1>   0.0800 
 34 H        0.2390     6.4810    -1.6940 H     1 <1>   0.0800 
 35 H        0.1900     8.1810    -1.9940 H     1 <1>   0.0800 
 36 H        1.7500    10.2060     1.5120 H     1 <1>   0.0800 
 37 H        2.3820     6.9670    -2.2560 H     1 <1>   0.0800 
 38 H        1.7750     7.5420     2.0720 H     1 <1>   0.0800 
 39 H        3.0820     8.6400     2.3670 H     1 <1>   0.0800 
 40 H        3.5740     6.0720    -0.6130 H     1 <1>   0.0800 
 41 H        2.0780     5.9700     0.2670 H     1 <1>   0.0800 
 42 H        2.2050    11.8620    -0.3070 H     1 <1>   0.0800 
 43 H        3.4720    11.3370    -1.3900 H     1 <1>   0.0800 
 44 H        3.7210    11.2490     0.3360 H     1 <1>   0.0800 
@<TRIPOS>BOND
  1   1   2  1   
  2   2   3  ar  
  3   2   4  ar  
  4   3   5  ar  
  5   3  24  1   
  6   4   6  ar  
  7   4  25  1   
  8   5   7  ar  
  9   5   8  1   
 10   6   7  ar  
 11   6  26  1   
 12   7  27  1   
 13   8   9  1   
 14   8  28  1   
 15   8  29  1   
 16   9  10  1   
 17   9  30  1   
 18   9  31  1   
 19  10  11  2   
 20  10  12  am  
 21  12  13  1   
 22  12  14  1   
 23  13  15  1   
 24  13  32  1   
 25  13  33  1   
 26  14  16  1   
 27  14  34  1   
 28  14  35  1   
 29  15  17  1   
 30  15  18  1   
 31  15  36  1   
 32  16  19  1   
 33  16  20  1   
 34  16  37  1   
 35  17  19  am  
 36  17  21  1   
 37  18  22  1   
 38  18  38  1   
 39  18  39  1   
 40  19  23  2   
 41  20  22  1   
 42  20  40  1   
 43  20  41  1   
 44  21  42  1   
 45  21  43  1   
 46  21  44  1   
@<TRIPOS>SUBSTRUCTURE
  1 ****   9 GROUP 4 **** **** 0

# MOE 2024.06 (io_trps.svl 2023.06)
