@<TRIPOS>MOLECULE
NONAME
47 49 1 0 0 
SMALL
USER_CHARGES


@<TRIPOS>ATOM
  1 O       -1.3280     0.0390     1.5460 O.3   1 <1>  -0.6800 
  2 C       -1.9860    -0.6530     0.5390 C.3   1 <1>   0.1200 
  3 C       -3.5210    -0.5790     0.7590 C.3   1 <1>   0.4230 
  4 N       -4.2980    -1.3550    -0.2750 N.4   1 <1>  -0.9590 
  5 C       -3.9980     0.8860     0.7450 C.3   1 <1>  -0.1600 
  6 C       -5.7660    -1.3050     0.0360 C.3   1 <1>   0.3430 
  7 C       -3.8610    -2.7980    -0.3640 C.3   1 <1>   0.3430 
  8 C       -5.5070     1.0190     0.9740 C.3   1 <1>  -0.1600 
  9 C       -6.2710     0.1350    -0.0110 C.3   1 <1>  -0.1600 
 10 C       -4.4520    -3.5770    -1.5640 C.3   1 <1>   0.2090 
 11 N       -4.8510    -4.9490    -1.1480 N.pl3 1 <1>  -0.8690 
 12 C       -5.9110    -5.2290    -0.3030 C.ar  1 <1>   0.4100 
 13 N       -6.4930    -4.2040     0.2830 N.ar  1 <1>  -0.3100 
 14 C       -6.3270    -6.5670    -0.0960 C.ar  1 <1>   0.0000 
 15 N       -7.5210    -4.3830     1.0960 N.ar  1 <1>  -0.3100 
 16 C       -7.4260    -6.7530     0.7570 C.ar  1 <1>   0.0000 
 17 C       -5.7180    -7.7040    -0.6760 C.ar  1 <1>  -0.1500 
 18 C       -7.9740    -5.5860     1.3250 C.ar  1 <1>   0.1670 
 19 C       -7.8910    -8.0700     0.9840 C.ar  1 <1>  -0.1500 
 20 C       -6.1870    -8.9660    -0.4350 C.ar  1 <1>  -0.1500 
 21 C       -9.1630    -5.6860     2.2660 C.3   1 <1>  -0.0970 
 22 C       -7.2890    -9.1500     0.4030 C.ar  1 <1>  -0.1500 
 23 H       -0.3540     0.0230     1.4260 H     1 <1>   0.4000 
 24 H       -1.6330    -1.6670     0.5810 H     1 <1>   0.0800 
 25 H       -1.7140    -0.2050    -0.4010 H     1 <1>   0.0800 
 26 H       -3.7310    -0.9990     1.7300 H     1 <1>   0.0800 
 27 H       -4.1600    -0.8860    -1.1760 H     1 <1>   0.4500 
 28 H       -3.7280     1.3460    -0.1900 H     1 <1>   0.0800 
 29 H       -3.4920     1.4330     1.5230 H     1 <1>   0.0800 
 30 H       -5.9470    -1.7190     1.0160 H     1 <1>   0.0800 
 31 H       -6.3230    -1.8940    -0.6730 H     1 <1>   0.0800 
 32 H       -4.1550    -3.3040     0.5420 H     1 <1>   0.0800 
 33 H       -2.7910    -2.8590    -0.4380 H     1 <1>   0.0800 
 34 H       -5.8080     2.0470     0.8580 H     1 <1>   0.0800 
 35 H       -5.7430     0.7210     1.9830 H     1 <1>   0.0800 
 36 H       -7.3180     0.1450     0.2400 H     1 <1>   0.0800 
 37 H       -6.1760     0.5200    -1.0120 H     1 <1>   0.0800 
 38 H       -3.7130    -3.6460    -2.3430 H     1 <1>   0.0800 
 39 H       -5.3170    -3.0770    -1.9640 H     1 <1>   0.0800 
 40 H       -4.5740    -5.7020    -1.7860 H     1 <1>   0.4000 
 41 H       -4.8670    -7.5780    -1.3170 H     1 <1>   0.1500 
 42 H       -8.7360    -8.2280     1.6290 H     1 <1>   0.1500 
 43 H       -5.7190    -9.8270    -0.8820 H     1 <1>   0.1500 
 44 H       -9.4580    -4.7110     2.6120 H     1 <1>   0.0800 
 45 H       -8.9060    -6.2850     3.1210 H     1 <1>   0.0800 
 46 H       -9.9990    -6.1310     1.7570 H     1 <1>   0.0800 
 47 H       -7.6490   -10.1490     0.5820 H     1 <1>   0.1500 
@<TRIPOS>BOND
  1   1   2  1   
  2   1  23  1   
  3   2   3  1   
  4   2  24  1   
  5   2  25  1   
  6   3   4  1   
  7   3   5  1   
  8   3  26  1   
  9   4   6  1   
 10   4   7  1   
 11   4  27  1   
 12   5   8  1   
 13   5  28  1   
 14   5  29  1   
 15   6   9  1   
 16   6  30  1   
 17   6  31  1   
 18   7  10  1   
 19   7  32  1   
 20   7  33  1   
 21   8   9  1   
 22   8  34  1   
 23   8  35  1   
 24   9  36  1   
 25   9  37  1   
 26  10  11  1   
 27  10  38  1   
 28  10  39  1   
 29  11  12  1   
 30  11  40  1   
 31  12  13  ar  
 32  12  14  ar  
 33  13  15  ar  
 34  14  16  ar  
 35  14  17  ar  
 36  15  18  ar  
 37  16  18  ar  
 38  16  19  ar  
 39  17  20  ar  
 40  17  41  1   
 41  18  21  1   
 42  19  22  ar  
 43  19  42  1   
 44  20  22  ar  
 45  20  43  1   
 46  21  44  1   
 47  21  45  1   
 48  21  46  1   
 49  22  47  1   
@<TRIPOS>SUBSTRUCTURE
  1 ****  13 GROUP 4 **** **** 0

# MOE 2024.06 (io_trps.svl 2023.06)
