@<TRIPOS>MOLECULE
NONAME
49 51 1 0 0 
SMALL
USER_CHARGES


@<TRIPOS>ATOM
  1 F        0.1640    -0.4480     0.6370 F     1 <1>  -0.1900 
  2 C        0.0720    -1.7250     0.3710 C.ar  1 <1>   0.1900 
  3 C        0.1960    -2.1580    -0.9420 C.ar  1 <1>   0.0830 
  4 C       -0.1460    -2.6110     1.4070 C.ar  1 <1>  -0.1500 
  5 O        0.4070    -1.2870    -1.9470 O.3   1 <1>  -0.5330 
  6 C        0.0970    -3.5090    -1.2170 C.ar  1 <1>  -0.1500 
  7 C       -0.2430    -3.9620     1.1130 C.ar  1 <1>  -0.1500 
  8 C       -0.1360    -4.4380    -0.2000 C.ar  1 <1>   0.0860 
  9 C       -0.2670    -5.8510    -0.5090 C.2   1 <1>   0.5440 
 10 O        0.5270    -6.3730    -1.2670 O.2   1 <1>  -0.5700 
 11 N       -1.2890    -6.6190     0.0080 N.am  1 <1>  -0.6600 
 12 C       -2.5710    -6.0620     0.5280 C.3   1 <1>   0.1400 
 13 C       -1.2220    -8.1060     0.0430 C.3   1 <1>   0.1400 
 14 C       -3.7620    -6.6330    -0.2860 C.3   1 <1>   0.4230 
 15 C       -2.3680    -8.6870    -0.7970 C.3   1 <1>  -0.1600 
 16 N       -5.1360    -6.1880     0.1210 N.4   1 <1>  -0.9590 
 17 C       -3.7740    -8.1820    -0.3750 C.3   1 <1>   0.0000 
 18 C       -6.1350    -6.4190    -0.9450 C.3   1 <1>   0.3430 
 19 C       -5.2350    -4.8580     0.8430 C.3   1 <1>   0.2370 
 20 C       -4.7790    -8.5470    -1.4990 C.3   1 <1>  -0.1600 
 21 C       -4.2380    -8.8920     0.9380 C.3   1 <1>   0.1200 
 22 C       -6.1750    -7.9140    -1.2910 C.3   1 <1>  -0.1600 
 23 C       -4.8850    -5.0670     2.3210 C.2   1 <1>   0.9060 
 24 O       -3.5920    -8.4340     2.0720 O.3   1 <1>  -0.6800 
 25 O       -4.9610    -6.2440     2.7230 O.co2 1 <1>  -0.9000 
 26 O       -4.4290    -4.1410     2.9810 O.co2 1 <1>  -0.9000 
 27 H       -0.2400    -2.2540     2.4180 H     1 <1>   0.1500 
 28 H        0.4810    -0.3670    -1.6240 H     1 <1>   0.4500 
 29 H        0.2040    -3.8510    -2.2320 H     1 <1>   0.1500 
 30 H       -0.4080    -4.6640     1.9140 H     1 <1>   0.1500 
 31 H       -2.6440    -6.2960     1.5730 H     1 <1>   0.0800 
 32 H       -2.5700    -4.9930     0.4250 H     1 <1>   0.0800 
 33 H       -0.2780    -8.4500    -0.3460 H     1 <1>   0.0800 
 34 H       -1.2920    -8.4410     1.0640 H     1 <1>   0.0800 
 35 H       -3.5990    -6.2690    -1.2860 H     1 <1>   0.0800 
 36 H       -2.1690    -8.4220    -1.8210 H     1 <1>   0.0800 
 37 H       -2.3290    -9.7600    -0.7360 H     1 <1>   0.0800 
 38 H       -5.3480    -6.8150     0.9300 H     1 <1>   0.4500 
 39 H       -7.1100    -6.0970    -0.6160 H     1 <1>   0.0800 
 40 H       -5.8640    -5.8480    -1.8190 H     1 <1>   0.0800 
 41 H       -4.5680    -4.1290     0.4210 H     1 <1>   0.0800 
 42 H       -6.2410    -4.4820     0.8040 H     1 <1>   0.0800 
 43 H       -4.3950    -8.1990    -2.4430 H     1 <1>   0.0800 
 44 H       -4.8760    -9.6180    -1.5730 H     1 <1>   0.0800 
 45 H       -4.0410    -9.9490     0.8680 H     1 <1>   0.0800 
 46 H       -5.2900    -8.7710     1.1180 H     1 <1>   0.0800 
 47 H       -6.7030    -8.4330    -0.5110 H     1 <1>   0.0800 
 48 H       -6.7570    -8.0440    -2.1870 H     1 <1>   0.0800 
 49 H       -4.0780    -7.6560     2.4910 H     1 <1>   0.4000 
@<TRIPOS>BOND
  1   1   2  1   
  2   2   3  ar  
  3   2   4  ar  
  4   3   5  1   
  5   3   6  ar  
  6   4   7  ar  
  7   4  27  1   
  8   5  28  1   
  9   6   8  ar  
 10   6  29  1   
 11   7   8  ar  
 12   7  30  1   
 13   8   9  1   
 14   9  10  2   
 15   9  11  am  
 16  11  12  1   
 17  11  13  1   
 18  12  14  1   
 19  12  31  1   
 20  12  32  1   
 21  13  15  1   
 22  13  33  1   
 23  13  34  1   
 24  14  16  1   
 25  14  17  1   
 26  14  35  1   
 27  15  17  1   
 28  15  36  1   
 29  15  37  1   
 30  16  18  1   
 31  16  19  1   
 32  16  38  1   
 33  17  20  1   
 34  17  21  1   
 35  18  22  1   
 36  18  39  1   
 37  18  40  1   
 38  19  23  1   
 39  19  41  1   
 40  19  42  1   
 41  20  22  1   
 42  20  43  1   
 43  20  44  1   
 44  21  24  1   
 45  21  45  1   
 46  21  46  1   
 47  22  47  1   
 48  22  48  1   
 49  23  25  ar  
 50  23  26  ar  
 51  24  49  1   
@<TRIPOS>SUBSTRUCTURE
  1 ****  12 GROUP 4 **** **** 0

# MOE 2024.06 (io_trps.svl 2023.06)
