@<TRIPOS>MOLECULE
NONAME
52 54 1 0 0 
SMALL
USER_CHARGES


@<TRIPOS>ATOM
  1 O        3.9660    -0.0140     1.1460 O.2   1 <1>  -0.5700 
  2 C        2.9800    -0.4570     0.5890 C.2   1 <1>   0.5440 
  3 N        2.3100     0.4130    -0.2360 N.am  1 <1>  -0.6600 
  4 C        2.6060    -1.8540     0.6790 C.ar  1 <1>   0.0860 
  5 C        2.5460     0.3470    -1.7110 C.3   1 <1>   0.1400 
  6 C        1.7790     1.7130     0.2730 C.3   1 <1>   0.1400 
  7 C        3.5070    -2.8820     0.4130 C.ar  1 <1>   0.1660 
  8 C        1.3190    -2.2640     1.0150 C.ar  1 <1>   0.1660 
  9 C        3.9730     0.8190    -2.0790 C.3   1 <1>   0.3430 
 10 C        2.8510     2.8110     0.3710 C.3   1 <1>  -0.1600 
 11 N        3.1630    -4.1490     0.4320 N.ar  1 <1>  -0.6200 
 12 C        4.9680    -2.6230     0.0770 C.3   1 <1>  -0.0960 
 13 N        0.9600    -3.5270     1.0340 N.ar  1 <1>  -0.6200 
 14 C        0.2230    -1.2840     1.3990 C.3   1 <1>  -0.0970 
 15 N        4.5400     1.7430    -1.0460 N.4   1 <1>  -0.9590 
 16 C        3.7390     2.9820    -0.8630 C.3   1 <1>   0.3430 
 17 C        1.9050    -4.4010     0.7400 C.ar  1 <1>   0.4700 
 18 C        5.9980     1.9850    -1.1930 C.3   1 <1>   0.5240 
 19 C        6.4830     2.8080    -0.0210 C.2   1 <1>  -0.1810 
 20 C        6.4630     2.4240     1.3160 C.2   1 <1>   0.1390 
 21 C        7.0100     4.0530    -0.0100 C.2   1 <1>  -0.3020 
 22 N        6.9250     3.3510     2.0920 N.2   1 <1>  -0.7070 
 23 N        7.2770     4.3590     1.2760 N.pl3 1 <1>   0.3140 
 24 C        7.8750     5.6090     1.7910 C.3   1 <1>   0.0960 
 25 C        9.3880     5.6430     1.5430 C.3   1 <1>  -0.2400 
 26 H        1.8230     0.9620    -2.2190 H     1 <1>   0.0800 
 27 H        2.4030    -0.6630    -2.0580 H     1 <1>   0.0800 
 28 H        1.3570     1.5600     1.2530 H     1 <1>   0.0800 
 29 H        0.9800     2.0410    -0.3700 H     1 <1>   0.0800 
 30 H        3.9600     1.2940    -3.0460 H     1 <1>   0.0800 
 31 H        4.6020    -0.0520    -2.1530 H     1 <1>   0.0800 
 32 H        3.4700     2.6310     1.2340 H     1 <1>   0.0800 
 33 H        2.3500     3.7440     0.5540 H     1 <1>   0.0800 
 34 H        5.0620    -1.8460    -0.6550 H     1 <1>   0.0800 
 35 H        5.4260    -3.5140    -0.3160 H     1 <1>   0.0800 
 36 H        5.4960    -2.3380     0.9700 H     1 <1>   0.0800 
 37 H        0.6020    -0.5420     2.0760 H     1 <1>   0.0800 
 38 H       -0.5820    -1.8000     1.8920 H     1 <1>   0.0800 
 39 H       -0.1690    -0.8080     0.5200 H     1 <1>   0.0800 
 40 H        4.4230     1.2360    -0.1410 H     1 <1>   0.4500 
 41 H        4.3890     3.8270    -0.7040 H     1 <1>   0.0800 
 42 H        3.1370     3.1790    -1.7350 H     1 <1>   0.0800 
 43 H        1.6150    -5.4400     0.7570 H     1 <1>   0.1500 
 44 H        6.1960     2.5140    -2.1100 H     1 <1>   0.0800 
 45 H        6.5300     1.0480    -1.2120 H     1 <1>   0.0800 
 46 H        6.1060     1.4760     1.6910 H     1 <1>   0.1500 
 47 H        7.2180     4.7330    -0.8170 H     1 <1>   0.1500 
 48 H        7.6780     5.6640     2.8470 H     1 <1>   0.0800 
 49 H        7.3980     6.4430     1.3100 H     1 <1>   0.0800 
 50 H        9.8600     4.8080     2.0320 H     1 <1>   0.0800 
 51 H        9.8030     6.5500     1.9440 H     1 <1>   0.0800 
 52 H        9.6010     5.6060     0.4890 H     1 <1>   0.0800 
@<TRIPOS>BOND
  1   1   2  2   
  2   2   3  am  
  3   2   4  1   
  4   3   5  1   
  5   3   6  1   
  6   4   7  ar  
  7   4   8  ar  
  8   5   9  1   
  9   5  26  1   
 10   5  27  1   
 11   6  10  1   
 12   6  28  1   
 13   6  29  1   
 14   7  11  ar  
 15   7  12  1   
 16   8  13  ar  
 17   8  14  1   
 18   9  15  1   
 19   9  30  1   
 20   9  31  1   
 21  10  16  1   
 22  10  32  1   
 23  10  33  1   
 24  11  17  ar  
 25  12  34  1   
 26  12  35  1   
 27  12  36  1   
 28  13  17  ar  
 29  14  37  1   
 30  14  38  1   
 31  14  39  1   
 32  15  16  1   
 33  15  18  1   
 34  15  40  1   
 35  16  41  1   
 36  16  42  1   
 37  17  43  1   
 38  18  19  1   
 39  18  44  1   
 40  18  45  1   
 41  19  20  1   
 42  19  21  2   
 43  20  22  2   
 44  20  46  1   
 45  21  23  1   
 46  21  47  1   
 47  22  23  1   
 48  23  24  1   
 49  24  25  1   
 50  24  48  1   
 51  24  49  1   
 52  25  50  1   
 53  25  51  1   
 54  25  52  1   
@<TRIPOS>SUBSTRUCTURE
  1 ****   1 GROUP 4 **** **** 0

# MOE 2024.06 (io_trps.svl 2023.06)
