@<TRIPOS>MOLECULE
NONAME
48 49 1 0 0 
SMALL
USER_CHARGES


@<TRIPOS>ATOM
  1 S        0.0550    -0.1840     3.0580 S.o2  1 <1>   1.4470 
  2 O        0.9280    -1.0480     3.8200 O.2   1 <1>  -0.6500 
  3 O       -0.7680     0.7900     3.7340 O.2   1 <1>  -0.6500 
  4 N       -1.0420    -1.1850     2.2790 N.am  1 <1>  -0.9140 
  5 C        0.9410     0.5730     1.6690 C.ar  1 <1>  -0.0090 
  6 C       -0.5040    -2.4790     1.8770 C.3   1 <1>   0.2760 
  7 C        0.2570     1.2960     0.7000 C.ar  1 <1>  -0.1500 
  8 C        2.3170     0.4360     1.5280 C.ar  1 <1>  -0.1500 
  9 C       -1.3750    -3.0700     0.7790 C.3   1 <1>  -0.0800 
 10 C       -0.7280    -3.5060     2.9850 C.3   1 <1>   0.1200 
 11 C        0.9200     1.8570    -0.3780 C.ar  1 <1>  -0.1500 
 12 C        2.9860     0.9960     0.4530 C.ar  1 <1>  -0.1500 
 13 C       -2.5040    -3.7520     1.5650 C.3   1 <1>   0.1200 
 14 C       -1.8460    -2.0550    -0.2870 C.3   1 <1>  -0.0550 
 15 O       -2.0800    -3.8290     2.8950 O.3   1 <1>  -0.5600 
 16 C        2.2900     1.7080    -0.5090 C.ar  1 <1>  -0.1430 
 17 S       -2.6260    -2.7980    -1.7200 S.o2  1 <1>   1.3330 
 18 C        3.0210     2.3250    -1.6910 C.3   1 <1>  -0.0160 
 19 O       -1.7800    -3.8820    -2.1660 O.2   1 <1>  -0.6500 
 20 O       -3.0010    -1.7540    -2.6460 O.2   1 <1>  -0.6500 
 21 N       -4.0600    -3.4720    -1.1060 N.am  1 <1>  -0.8490 
 22 C        3.4690     3.7500    -1.3600 C.3   1 <1>  -0.2400 
 23 C       -4.5340    -4.5940    -1.9230 C.3   1 <1>   0.1160 
 24 C       -5.1390    -2.4910    -0.9420 C.3   1 <1>   0.1160 
 25 H       -1.7490    -1.3890     2.9870 H     1 <1>   0.4200 
 26 H        0.5290    -2.4030     1.5760 H     1 <1>   0.0800 
 27 H       -0.8080     1.4220     0.7910 H     1 <1>   0.1500 
 28 H        2.8740    -0.1140     2.2670 H     1 <1>   0.1500 
 29 H       -0.8070    -3.8430     0.2890 H     1 <1>   0.0800 
 30 H       -0.5070    -3.1350     3.9700 H     1 <1>   0.0800 
 31 H       -0.1590    -4.4000     2.7980 H     1 <1>   0.0800 
 32 H        0.3650     2.4130    -1.1140 H     1 <1>   0.1500 
 33 H        4.0530     0.8780     0.3690 H     1 <1>   0.1500 
 34 H       -2.7010    -4.7460     1.2000 H     1 <1>   0.0800 
 35 H       -3.4120    -3.1740     1.5480 H     1 <1>   0.0800 
 36 H       -0.9880    -1.5060    -0.6240 H     1 <1>   0.0800 
 37 H       -2.5190    -1.3480     0.1570 H     1 <1>   0.0800 
 38 H        3.8790     1.7260    -1.9410 H     1 <1>   0.0800 
 39 H        2.3730     2.3400    -2.5510 H     1 <1>   0.0800 
 40 H        4.1310     3.7430    -0.5120 H     1 <1>   0.0800 
 41 H        2.6160     4.3620    -1.1250 H     1 <1>   0.0800 
 42 H        3.9840     4.1800    -2.1990 H     1 <1>   0.0800 
 43 H       -5.4350    -5.0090    -1.5040 H     1 <1>   0.0800 
 44 H       -3.7890    -5.3720    -1.9510 H     1 <1>   0.0800 
 45 H       -4.7300    -4.2680    -2.9310 H     1 <1>   0.0800 
 46 H       -5.9900    -2.9530    -0.4730 H     1 <1>   0.0800 
 47 H       -5.4380    -2.0960    -1.9000 H     1 <1>   0.0800 
 48 H       -4.8100    -1.6760    -0.3210 H     1 <1>   0.0800 
@<TRIPOS>BOND
  1   1   2  2   
  2   1   3  2   
  3   1   4  am  
  4   1   5  1   
  5   4   6  1   
  6   4  25  1   
  7   5   7  ar  
  8   5   8  ar  
  9   6   9  1   
 10   6  10  1   
 11   6  26  1   
 12   7  11  ar  
 13   7  27  1   
 14   8  12  ar  
 15   8  28  1   
 16   9  13  1   
 17   9  14  1   
 18   9  29  1   
 19  10  15  1   
 20  10  30  1   
 21  10  31  1   
 22  11  16  ar  
 23  11  32  1   
 24  12  16  ar  
 25  12  33  1   
 26  13  15  1   
 27  13  34  1   
 28  13  35  1   
 29  14  17  1   
 30  14  36  1   
 31  14  37  1   
 32  16  18  1   
 33  17  19  2   
 34  17  20  2   
 35  17  21  am  
 36  18  22  1   
 37  18  38  1   
 38  18  39  1   
 39  21  23  1   
 40  21  24  1   
 41  22  40  1   
 42  22  41  1   
 43  22  42  1   
 44  23  43  1   
 45  23  44  1   
 46  23  45  1   
 47  24  46  1   
 48  24  47  1   
 49  24  48  1   
@<TRIPOS>SUBSTRUCTURE
  1 ****  14 GROUP 4 **** **** 0

# MOE 2024.06 (io_trps.svl 2023.06)
