@<TRIPOS>MOLECULE
NONAME
50 52 1 0 0 
SMALL
USER_CHARGES


@<TRIPOS>ATOM
  1 CL      -1.0310    -0.9000    -1.5760 Cl    1 <1>  -0.1770 
  2 C       -1.8670     0.1540    -0.4590 C.ar  1 <1>   0.1770 
  3 C       -2.6670    -0.3720     0.5520 C.ar  1 <1>  -0.1440 
  4 C       -1.6950     1.5210    -0.6200 C.ar  1 <1>  -0.1500 
  5 C       -3.2970     0.5080     1.4220 C.ar  1 <1>  -0.1500 
  6 C       -2.8570    -1.8740     0.7190 C.3   1 <1>   0.2540 
  7 C       -2.3290     2.3960     0.2460 C.ar  1 <1>  -0.1500 
  8 C       -3.1180     1.8690     1.2520 C.ar  1 <1>   0.1900 
  9 N       -3.8140    -2.4160    -0.2680 N.3   1 <1>  -0.8100 
 10 F       -3.7180     2.6880     2.0730 F     1 <1>  -0.1900 
 11 C       -3.9350    -3.8980    -0.1540 C.3   1 <1>   0.3330 
 12 C       -5.1350    -1.7690    -0.1880 C.3   1 <1>   0.1100 
 13 C       -2.5760    -4.5210    -0.4870 C.ar  1 <1>  -0.1430 
 14 C       -5.0510    -4.4790    -1.0790 C.3   1 <1>   0.2000 
 15 C       -6.0950    -2.3740    -1.2180 C.3   1 <1>   0.1200 
 16 C       -1.9580    -5.3750     0.4150 C.ar  1 <1>  -0.1500 
 17 C       -1.9430    -4.2400    -1.6910 C.ar  1 <1>  -0.1500 
 18 O       -6.2420    -3.7380    -0.9760 O.3   1 <1>  -0.5600 
 19 C       -5.4580    -5.9340    -0.7730 C.3   1 <1>   0.1200 
 20 C       -0.7360    -5.9530     0.1200 C.ar  1 <1>   0.0830 
 21 C       -0.7150    -4.8040    -1.9910 C.ar  1 <1>  -0.1500 
 22 O       -4.3840    -6.8190    -0.7480 O.3   1 <1>  -0.6800 
 23 O       -0.2110    -6.8090     1.0290 O.3   1 <1>  -0.3630 
 24 C       -0.0980    -5.6520    -1.0880 C.ar  1 <1>   0.0830 
 25 C       -0.2090    -8.1690     0.6580 C.3   1 <1>   0.0400 
 26 O        1.1140    -6.1560    -1.4260 O.3   1 <1>  -0.3630 
 27 C        2.2050    -5.7370    -0.6370 C.3   1 <1>   0.0400 
 28 H       -1.0710     1.8880    -1.4140 H     1 <1>   0.1500 
 29 H       -3.9220     0.1530     2.2220 H     1 <1>   0.1500 
 30 H       -3.2050    -2.0900     1.7140 H     1 <1>   0.0800 
 31 H       -1.8980    -2.3490     0.6020 H     1 <1>   0.0800 
 32 H       -2.2160     3.4610     0.1480 H     1 <1>   0.1500 
 33 H       -4.1970    -4.1470     0.8610 H     1 <1>   0.0800 
 34 H       -5.5510    -1.8820     0.7980 H     1 <1>   0.0800 
 35 H       -5.0400    -0.7180    -0.3990 H     1 <1>   0.0800 
 36 H       -4.7290    -4.4180    -2.1030 H     1 <1>   0.0800 
 37 H       -5.7220    -2.2310    -2.2170 H     1 <1>   0.0800 
 38 H       -7.0660    -1.9190    -1.1360 H     1 <1>   0.0800 
 39 H       -2.4260    -5.6150     1.3520 H     1 <1>   0.1500 
 40 H       -2.4030    -3.5650    -2.3930 H     1 <1>   0.1500 
 41 H       -6.1440    -6.2790    -1.5260 H     1 <1>   0.0800 
 42 H       -5.9380    -5.9880     0.1890 H     1 <1>   0.0800 
 43 H       -0.2260    -4.5800    -2.9220 H     1 <1>   0.1500 
 44 H       -3.7170    -6.5890    -1.4270 H     1 <1>   0.4000 
 45 H        0.1670    -8.7430     1.4840 H     1 <1>   0.0800 
 46 H        0.4230    -8.3010    -0.2020 H     1 <1>   0.0800 
 47 H       -1.2180    -8.4660     0.4290 H     1 <1>   0.0800 
 48 H        3.1080    -6.1100    -1.0860 H     1 <1>   0.0800 
 49 H        2.1000    -6.1320     0.3570 H     1 <1>   0.0800 
 50 H        2.2220    -4.6610    -0.6120 H     1 <1>   0.0800 
@<TRIPOS>BOND
  1   1   2  1   
  2   2   3  ar  
  3   2   4  ar  
  4   3   5  ar  
  5   3   6  1   
  6   4   7  ar  
  7   4  28  1   
  8   5   8  ar  
  9   5  29  1   
 10   6   9  1   
 11   6  30  1   
 12   6  31  1   
 13   7   8  ar  
 14   7  32  1   
 15   8  10  1   
 16   9  11  1   
 17   9  12  1   
 18  11  13  1   
 19  11  14  1   
 20  11  33  1   
 21  12  15  1   
 22  12  34  1   
 23  12  35  1   
 24  13  16  ar  
 25  13  17  ar  
 26  14  18  1   
 27  14  19  1   
 28  14  36  1   
 29  15  18  1   
 30  15  37  1   
 31  15  38  1   
 32  16  20  ar  
 33  16  39  1   
 34  17  21  ar  
 35  17  40  1   
 36  19  22  1   
 37  19  41  1   
 38  19  42  1   
 39  20  23  1   
 40  20  24  ar  
 41  21  24  ar  
 42  21  43  1   
 43  22  44  1   
 44  23  25  1   
 45  24  26  1   
 46  25  45  1   
 47  25  46  1   
 48  25  47  1   
 49  26  27  1   
 50  27  48  1   
 51  27  49  1   
 52  27  50  1   
@<TRIPOS>SUBSTRUCTURE
  1 ****   9 GROUP 4 **** **** 0

# MOE 2024.06 (io_trps.svl 2023.06)
