@<TRIPOS>MOLECULE
NONAME
41 42 1 0 0 
SMALL
USER_CHARGES


@<TRIPOS>ATOM
  1 F       -2.2430    -1.6960     1.2040 F     1 <1>  -0.1900 
  2 C       -2.5090    -0.4400     0.9560 C.ar  1 <1>   0.1900 
  3 C       -3.0490    -0.1010    -0.2740 C.ar  1 <1>  -0.1440 
  4 C       -2.2560     0.4950     1.9400 C.ar  1 <1>  -0.1500 
  5 C       -3.3420     1.2340    -0.5140 C.ar  1 <1>  -0.1500 
  6 C       -3.3090    -1.1680    -1.3150 C.3   1 <1>   0.4870 
  7 C       -2.5570     1.8210     1.6830 C.ar  1 <1>  -0.1500 
  8 C       -3.0980     2.1920     0.4600 C.ar  1 <1>  -0.1440 
  9 N       -4.3800    -2.0610    -0.8060 N.4   1 <1>  -0.9590 
 10 C       -3.4230     3.6510     0.1920 C.3   1 <1>  -0.0970 
 11 C       -4.4190    -3.3470    -1.5350 C.3   1 <1>   0.5230 
 12 C       -5.7130    -1.3660    -0.7830 C.3   1 <1>   0.3430 
 13 C       -5.1690    -4.3210    -0.6680 C.2   1 <1>  -0.3320 
 14 C       -6.4540    -1.5460     0.5490 C.3   1 <1>   0.1200 
 15 N       -4.6870    -4.9410     0.4340 N.pl3 1 <1>   0.0480 
 16 C       -6.4400    -4.7550    -0.8290 C.2   1 <1>   0.0770 
 17 O       -7.6160    -0.8000     0.4790 O.3   1 <1>  -0.6800 
 18 C       -5.7190    -5.6930     0.8750 C.2   1 <1>   0.0360 
 19 C       -3.3440    -4.8890     1.0490 C.3   1 <1>   0.0160 
 20 N       -6.7850    -5.6010     0.1500 N.2   1 <1>  -0.5650 
 21 H       -1.8340     0.1970     2.8840 H     1 <1>   0.1500 
 22 H       -3.7600     1.5450    -1.4580 H     1 <1>   0.1500 
 23 H       -2.4010    -1.7260    -1.4730 H     1 <1>   0.0800 
 24 H       -3.6040    -0.7170    -2.2490 H     1 <1>   0.0800 
 25 H       -2.3670     2.5650     2.4390 H     1 <1>   0.1500 
 26 H       -4.1300    -2.2790     0.1650 H     1 <1>   0.4500 
 27 H       -3.3240     3.8780    -0.8550 H     1 <1>   0.0800 
 28 H       -2.7550     4.2930     0.7380 H     1 <1>   0.0800 
 29 H       -4.4320     3.8640     0.4990 H     1 <1>   0.0800 
 30 H       -3.4230    -3.7170    -1.7140 H     1 <1>   0.0800 
 31 H       -4.9200    -3.2260    -2.4820 H     1 <1>   0.0800 
 32 H       -6.3370    -1.7350    -1.5810 H     1 <1>   0.0800 
 33 H       -5.5720    -0.3080    -0.9300 H     1 <1>   0.0800 
 34 H       -5.8690    -1.1710     1.3710 H     1 <1>   0.0800 
 35 H       -6.7280    -2.5720     0.7190 H     1 <1>   0.0800 
 36 H       -7.1490    -4.5010    -1.6020 H     1 <1>   0.1500 
 37 H       -8.1720    -0.9270     1.2780 H     1 <1>   0.4000 
 38 H       -5.6440    -6.3130     1.7530 H     1 <1>   0.1500 
 39 H       -2.6050    -4.6490     0.3080 H     1 <1>   0.0800 
 40 H       -3.1110    -5.8490     1.4740 H     1 <1>   0.0800 
 41 H       -3.3330    -4.1490     1.8290 H     1 <1>   0.0800 
@<TRIPOS>BOND
  1   1   2  1   
  2   2   3  ar  
  3   2   4  ar  
  4   3   5  ar  
  5   3   6  1   
  6   4   7  ar  
  7   4  21  1   
  8   5   8  ar  
  9   5  22  1   
 10   6   9  1   
 11   6  23  1   
 12   6  24  1   
 13   7   8  ar  
 14   7  25  1   
 15   8  10  1   
 16   9  11  1   
 17   9  12  1   
 18   9  26  1   
 19  10  27  1   
 20  10  28  1   
 21  10  29  1   
 22  11  13  1   
 23  11  30  1   
 24  11  31  1   
 25  12  14  1   
 26  12  32  1   
 27  12  33  1   
 28  13  15  1   
 29  13  16  2   
 30  14  17  1   
 31  14  34  1   
 32  14  35  1   
 33  15  18  1   
 34  15  19  1   
 35  16  20  1   
 36  16  36  1   
 37  17  37  1   
 38  18  20  2   
 39  18  38  1   
 40  19  39  1   
 41  19  40  1   
 42  19  41  1   
@<TRIPOS>SUBSTRUCTURE
  1 ****   9 GROUP 4 **** **** 0

# MOE 2024.06 (io_trps.svl 2023.06)
