@<TRIPOS>MOLECULE
NONAME
50 52 1 0 0 
SMALL
USER_CHARGES


@<TRIPOS>ATOM
  1 O        0.7090     1.9620    -0.8490 O.2   1 <1>  -0.5700 
  2 C        0.1130     3.0100    -0.7580 C.2   1 <1>   0.5690 
  3 N       -0.9420     3.1810     0.0950 N.am  1 <1>  -0.6600 
  4 C        0.5830     4.1780    -1.6240 C.3   1 <1>   0.1810 
  5 C       -1.6790     4.4830     0.1710 C.3   1 <1>   0.3640 
  6 C       -1.4380     2.0950     0.9870 C.3   1 <1>   0.0600 
  7 O       -0.4220     5.1380    -1.8700 O.3   1 <1>  -0.5600 
  8 C       -3.1880     4.3090    -0.0790 C.ar  1 <1>  -0.1430 
  9 C       -1.0850     5.6240    -0.7070 C.3   1 <1>   0.2610 
 10 C       -3.7630     3.7060    -1.2020 C.ar  1 <1>  -0.1430 
 11 C       -4.0290     4.8130     0.9090 C.ar  1 <1>  -0.1500 
 12 C       -0.1890     6.5870     0.0890 C.2   1 <1>   0.5690 
 13 C       -5.1450     3.6220    -1.3010 C.ar  1 <1>  -0.1500 
 14 C       -2.9540     3.1230    -2.3540 C.3   1 <1>  -0.0960 
 15 C       -5.4040     4.7240     0.8010 C.ar  1 <1>  -0.1500 
 16 O       -0.4180     6.7950     1.2590 O.2   1 <1>  -0.5700 
 17 N        0.8280     7.2110    -0.5680 N.am  1 <1>  -0.7300 
 18 C       -5.9640     4.1260    -0.3080 C.ar  1 <1>  -0.1500 
 19 C        1.8220     8.1480    -0.0310 C.3   1 <1>   0.3000 
 20 C        2.5330     7.5810     1.1990 C.3   1 <1>  -0.1600 
 21 C        2.9560     8.3070    -1.0430 C.3   1 <1>  -0.1600 
 22 C        1.1440     9.4900     0.2570 C.3   1 <1>  -0.2400 
 23 C        3.9410     8.1890     1.1980 C.3   1 <1>  -0.1600 
 24 C        4.1920     8.6980    -0.2260 C.3   1 <1>  -0.1600 
 25 H        0.9070     3.7980    -2.5760 H     1 <1>   0.0800 
 26 H        1.4170     4.6570    -1.1460 H     1 <1>   0.0800 
 27 H       -1.5920     4.7910     1.1960 H     1 <1>   0.0800 
 28 H       -1.4700     2.4430     2.0040 H     1 <1>   0.0800 
 29 H       -0.7910     1.2360     0.9370 H     1 <1>   0.0800 
 30 H       -2.4270     1.7970     0.6850 H     1 <1>   0.0800 
 31 H       -1.9070     6.2190    -1.0590 H     1 <1>   0.0800 
 32 H       -3.6200     5.2880     1.7850 H     1 <1>   0.1500 
 33 H       -5.6010     3.1600    -2.1580 H     1 <1>   0.1500 
 34 H       -3.5980     2.7070    -3.1070 H     1 <1>   0.0800 
 35 H       -2.3150     2.3340    -2.0060 H     1 <1>   0.0800 
 36 H       -2.3620     3.8860    -2.8210 H     1 <1>   0.0800 
 37 H       -6.0350     5.1200     1.5770 H     1 <1>   0.1500 
 38 H        0.9110     7.0330    -1.5700 H     1 <1>   0.3700 
 39 H       -7.0340     4.0520    -0.4010 H     1 <1>   0.1500 
 40 H        2.0050     7.8060     2.1090 H     1 <1>   0.0800 
 41 H        2.6200     6.5130     1.1010 H     1 <1>   0.0800 
 42 H        3.1540     7.3600    -1.5140 H     1 <1>   0.0800 
 43 H        2.7340     9.0400    -1.7980 H     1 <1>   0.0800 
 44 H        1.8600    10.2050     0.6160 H     1 <1>   0.0800 
 45 H        0.3870     9.3690     1.0110 H     1 <1>   0.0800 
 46 H        0.6900     9.8800    -0.6360 H     1 <1>   0.0800 
 47 H        3.9870     9.0120     1.8910 H     1 <1>   0.0800 
 48 H        4.6720     7.4530     1.4850 H     1 <1>   0.0800 
 49 H        5.0860     8.2710    -0.6460 H     1 <1>   0.0800 
 50 H        4.2940     9.7700    -0.2110 H     1 <1>   0.0800 
@<TRIPOS>BOND
  1   1   2  2   
  2   2   3  am  
  3   2   4  1   
  4   3   5  1   
  5   3   6  1   
  6   4   7  1   
  7   4  25  1   
  8   4  26  1   
  9   5   8  1   
 10   5   9  1   
 11   5  27  1   
 12   6  28  1   
 13   6  29  1   
 14   6  30  1   
 15   7   9  1   
 16   8  10  ar  
 17   8  11  ar  
 18   9  12  1   
 19   9  31  1   
 20  10  13  ar  
 21  10  14  1   
 22  11  15  ar  
 23  11  32  1   
 24  12  16  2   
 25  12  17  am  
 26  13  18  ar  
 27  13  33  1   
 28  14  34  1   
 29  14  35  1   
 30  14  36  1   
 31  15  18  ar  
 32  15  37  1   
 33  17  19  1   
 34  17  38  1   
 35  18  39  1   
 36  19  20  1   
 37  19  21  1   
 38  19  22  1   
 39  20  23  1   
 40  20  40  1   
 41  20  41  1   
 42  21  24  1   
 43  21  42  1   
 44  21  43  1   
 45  22  44  1   
 46  22  45  1   
 47  22  46  1   
 48  23  24  1   
 49  23  47  1   
 50  23  48  1   
 51  24  49  1   
 52  24  50  1   
@<TRIPOS>SUBSTRUCTURE
  1 ****   9 GROUP 4 **** **** 0

# MOE 2024.06 (io_trps.svl 2023.06)
