@<TRIPOS>MOLECULE
NONAME
45 47 1 0 0 
SMALL
USER_CHARGES


@<TRIPOS>ATOM
  1 O       -2.2640    -1.4430     0.5790 O.3   1 <1>  -0.5600 
  2 C       -2.1000    -0.3490     1.4410 C.3   1 <1>   0.1200 
  3 C       -1.9540    -1.2810    -0.7760 C.3   1 <1>   0.1200 
  4 C       -3.0400     0.8370     1.1040 C.3   1 <1>   0.4230 
  5 C       -3.0370    -0.4710    -1.5290 C.3   1 <1>  -0.0800 
  6 N       -2.5070     1.5790    -0.1050 N.4   1 <1>  -0.9590 
  7 C       -4.5430     0.3910     1.0170 C.3   1 <1>   0.3430 
  8 C       -4.4930    -0.8720    -1.2280 C.3   1 <1>   0.3430 
  9 C       -2.8690     1.0490    -1.4560 C.3   1 <1>   0.3430 
 10 C       -2.7940     3.0520    -0.0360 C.3   1 <1>   0.2630 
 11 N       -4.8210    -0.8690     0.2310 N.4   1 <1>  -0.9590 
 12 C       -6.1640    -1.4570     0.4990 C.3   1 <1>   0.5240 
 13 C       -6.1160    -2.8900     0.0310 C.2   1 <1>  -0.1810 
 14 C       -6.9590    -3.4610    -0.9150 C.2   1 <1>   0.1390 
 15 C       -5.2740    -3.8870     0.3870 C.2   1 <1>  -0.3020 
 16 N       -6.6580    -4.6970    -1.1440 N.2   1 <1>  -0.7070 
 17 N       -5.6260    -4.9760    -0.3290 N.pl3 1 <1>   0.3140 
 18 C       -5.0130    -6.3210    -0.2740 C.3   1 <1>   0.0960 
 19 C       -5.4150    -7.0630     1.0070 C.3   1 <1>  -0.2400 
 20 H       -2.3200    -0.7060     2.4330 H     1 <1>   0.0800 
 21 H       -1.0660    -0.0490     1.4270 H     1 <1>   0.0800 
 22 H       -0.9760    -0.8380    -0.8670 H     1 <1>   0.0800 
 23 H       -1.9010    -2.2740    -1.1940 H     1 <1>   0.0800 
 24 H       -2.9700     1.5170     1.9380 H     1 <1>   0.0800 
 25 H       -2.8990    -0.7030    -2.5700 H     1 <1>   0.0800 
 26 H       -1.4780     1.4950    -0.0430 H     1 <1>   0.4500 
 27 H       -5.1310     1.2040     0.6250 H     1 <1>   0.0800 
 28 H       -4.8750     0.2220     2.0290 H     1 <1>   0.0800 
 29 H       -4.6460    -1.8680    -1.6160 H     1 <1>   0.0800 
 30 H       -5.1680    -0.2180    -1.7570 H     1 <1>   0.0800 
 31 H       -3.7830     1.5120    -1.7920 H     1 <1>   0.0800 
 32 H       -2.0970     1.3400    -2.1520 H     1 <1>   0.0800 
 33 H       -3.8540     3.2390    -0.1060 H     1 <1>   0.0800 
 34 H       -2.3040     3.5690    -0.8470 H     1 <1>   0.0800 
 35 H       -2.4310     3.4670     0.8920 H     1 <1>   0.0800 
 36 H       -4.1590    -1.5830     0.6020 H     1 <1>   0.4500 
 37 H       -6.3840    -1.4400     1.5540 H     1 <1>   0.0800 
 38 H       -6.9330    -0.9150    -0.0280 H     1 <1>   0.0800 
 39 H       -7.7720    -2.9620    -1.4200 H     1 <1>   0.1500 
 40 H       -4.4630    -3.9110     1.0930 H     1 <1>   0.1500 
 41 H       -5.3420    -6.8750    -1.1350 H     1 <1>   0.0800 
 42 H       -3.9450    -6.2150    -0.3250 H     1 <1>   0.0800 
 43 H       -6.4850    -7.1710     1.0490 H     1 <1>   0.0800 
 44 H       -5.0740    -6.5320     1.8770 H     1 <1>   0.0800 
 45 H       -4.9750    -8.0440     1.0110 H     1 <1>   0.0800 
@<TRIPOS>BOND
  1   1   2  1   
  2   1   3  1   
  3   2   4  1   
  4   2  20  1   
  5   2  21  1   
  6   3   5  1   
  7   3  22  1   
  8   3  23  1   
  9   4   6  1   
 10   4   7  1   
 11   4  24  1   
 12   5   8  1   
 13   5   9  1   
 14   5  25  1   
 15   6   9  1   
 16   6  10  1   
 17   6  26  1   
 18   7  11  1   
 19   7  27  1   
 20   7  28  1   
 21   8  11  1   
 22   8  29  1   
 23   8  30  1   
 24   9  31  1   
 25   9  32  1   
 26  10  33  1   
 27  10  34  1   
 28  10  35  1   
 29  11  12  1   
 30  11  36  1   
 31  12  13  1   
 32  12  37  1   
 33  12  38  1   
 34  13  14  1   
 35  13  15  2   
 36  14  16  2   
 37  14  39  1   
 38  15  17  1   
 39  15  40  1   
 40  16  17  1   
 41  17  18  1   
 42  18  19  1   
 43  18  41  1   
 44  18  42  1   
 45  19  43  1   
 46  19  44  1   
 47  19  45  1   
@<TRIPOS>SUBSTRUCTURE
  1 ****  11 GROUP 4 **** **** 0

# MOE 2024.06 (io_trps.svl 2023.06)
