@<TRIPOS>MOLECULE
NONAME
49 52 1 0 0 
SMALL
USER_CHARGES


@<TRIPOS>ATOM
  1 O        0.9870    -0.3100     2.3800 O.2   1 <1>  -0.5700 
  2 C        1.2350    -1.0230     1.4210 C.2   1 <1>   0.5440 
  3 N        1.7390    -0.4030     0.2900 N.am  1 <1>  -0.6600 
  4 C        1.0120    -2.4670     1.5410 C.ar  1 <1>   0.3960 
  5 C        2.2270    -1.0820    -0.9330 C.3   1 <1>   0.1400 
  6 C        2.0340     1.0460     0.2380 C.3   1 <1>   0.1400 
  7 N        0.6850    -3.2150     0.4760 N.ar  1 <1>  -0.6200 
  8 C        1.1410    -3.0380     2.8090 C.ar  1 <1>   0.1600 
  9 C        2.7490     0.0360    -1.8310 C.3   1 <1>  -0.1600 
 10 C        3.0540     1.1920    -0.8840 C.3   1 <1>  -0.1600 
 11 C        0.5020    -4.5010     0.7300 C.ar  1 <1>   0.4100 
 12 N        0.9710    -4.3190     3.1020 N.ar  1 <1>  -0.6200 
 13 N        0.1530    -5.2900    -0.3700 N.pl3 1 <1>  -0.8380 
 14 C        0.6480    -5.0180     2.0330 C.ar  1 <1>   0.1600 
 15 C       -0.2080    -6.7310    -0.2340 C.3   1 <1>   0.3900 
 16 C       -0.3750    -4.6430    -1.6110 C.3   1 <1>   0.1290 
 17 C       -1.5920    -6.8940     0.3770 C.2   1 <1>  -0.1810 
 18 C       -2.2700    -8.1130     0.4920 C.2   1 <1>   0.2350 
 19 C       -2.4300    -5.9710     0.8960 C.2   1 <1>  -0.3020 
 20 N       -3.4480    -7.9410     1.0370 N.2   1 <1>  -0.7070 
 21 C       -1.7660    -9.3980     0.0600 C.ar  1 <1>   0.0540 
 22 N       -3.5350    -6.6260     1.2880 N.pl3 1 <1>   0.3000 
 23 C       -0.5960    -9.9390     0.5900 C.ar  1 <1>  -0.1500 
 24 C       -2.4420   -10.1350    -0.9090 C.ar  1 <1>  -0.1500 
 25 C       -0.1070   -11.1560     0.1510 C.ar  1 <1>  -0.1500 
 26 C       -1.9600   -11.3540    -1.3510 C.ar  1 <1>  -0.1500 
 27 C       -0.7880   -11.8650    -0.8230 C.ar  1 <1>  -0.1500 
 28 H        1.4300    -1.6190    -1.4180 H     1 <1>   0.0800 
 29 H        3.0190    -1.7620    -0.6710 H     1 <1>   0.0800 
 30 H        2.4230     1.4010     1.1770 H     1 <1>   0.0800 
 31 H        1.1280     1.5770     0.0000 H     1 <1>   0.0800 
 32 H        1.4000    -2.3900     3.6290 H     1 <1>   0.1500 
 33 H        1.9710     0.3220    -2.5160 H     1 <1>   0.0800 
 34 H        3.6130    -0.2740    -2.3920 H     1 <1>   0.0800 
 35 H        4.0420     1.0790    -0.4720 H     1 <1>   0.0800 
 36 H        2.9820     2.1510    -1.3670 H     1 <1>   0.0800 
 37 H        0.4800    -6.0640     2.1900 H     1 <1>   0.1500 
 38 H        0.5250    -7.2320     0.3730 H     1 <1>   0.0800 
 39 H       -0.1890    -7.2010    -1.2020 H     1 <1>   0.0800 
 40 H        0.3590    -3.9630    -2.0080 H     1 <1>   0.0800 
 41 H       -1.2700    -4.0910    -1.3770 H     1 <1>   0.0800 
 42 H       -0.6040    -5.3760    -2.3630 H     1 <1>   0.0800 
 43 H       -2.3040    -4.9080     1.0020 H     1 <1>   0.1500 
 44 H       -4.3630    -6.2040     1.7270 H     1 <1>   0.2700 
 45 H       -0.0720    -9.4030     1.3610 H     1 <1>   0.1500 
 46 H       -3.3580    -9.7390    -1.3110 H     1 <1>   0.1500 
 47 H        0.8000   -11.5570     0.5710 H     1 <1>   0.1500 
 48 H       -2.4980   -11.9060    -2.1020 H     1 <1>   0.1500 
 49 H       -0.4110   -12.8140    -1.1650 H     1 <1>   0.1500 
@<TRIPOS>BOND
  1   1   2  2   
  2   2   3  am  
  3   2   4  1   
  4   3   5  1   
  5   3   6  1   
  6   4   7  ar  
  7   4   8  ar  
  8   5   9  1   
  9   5  28  1   
 10   5  29  1   
 11   6  10  1   
 12   6  30  1   
 13   6  31  1   
 14   7  11  ar  
 15   8  12  ar  
 16   8  32  1   
 17   9  10  1   
 18   9  33  1   
 19   9  34  1   
 20  10  35  1   
 21  10  36  1   
 22  11  13  1   
 23  11  14  ar  
 24  12  14  ar  
 25  13  15  1   
 26  13  16  1   
 27  14  37  1   
 28  15  17  1   
 29  15  38  1   
 30  15  39  1   
 31  16  40  1   
 32  16  41  1   
 33  16  42  1   
 34  17  18  1   
 35  17  19  2   
 36  18  20  2   
 37  18  21  1   
 38  19  22  1   
 39  19  43  1   
 40  20  22  1   
 41  21  23  ar  
 42  21  24  ar  
 43  22  44  1   
 44  23  25  ar  
 45  23  45  1   
 46  24  26  ar  
 47  24  46  1   
 48  25  27  ar  
 49  25  47  1   
 50  26  27  ar  
 51  26  48  1   
 52  27  49  1   
@<TRIPOS>SUBSTRUCTURE
  1 ****  13 GROUP 4 **** **** 0

# MOE 2024.06 (io_trps.svl 2023.06)
