@<TRIPOS>MOLECULE
NONAME
52 54 1 0 0 
SMALL
USER_CHARGES


@<TRIPOS>ATOM
  1 F        0.4230    -0.7060     0.5810 F     1 <1>  -0.1900 
  2 C        0.1850    -1.9770     0.7390 C.ar  1 <1>   0.1900 
  3 C        1.1220    -2.8930     0.3010 C.ar  1 <1>  -0.1500 
  4 C       -0.9960    -2.3660     1.3400 C.ar  1 <1>  -0.1500 
  5 C        0.8710    -4.2470     0.4640 C.ar  1 <1>  -0.1440 
  6 C       -1.2390    -3.7180     1.4970 C.ar  1 <1>  -0.1500 
  7 C       -0.3250    -4.6790     1.0580 C.ar  1 <1>   0.0860 
  8 C        1.9130    -5.2590     0.0000 C.3   1 <1>  -0.0960 
  9 C       -0.6350    -6.0860     1.2190 C.2   1 <1>   0.5440 
 10 O       -0.4370    -6.6210     2.2920 O.2   1 <1>  -0.5700 
 11 N       -1.1550    -6.8180     0.1770 N.am  1 <1>  -0.6600 
 12 C       -1.2680    -8.3130     0.2980 C.3   1 <1>   0.3640 
 13 C       -1.7480    -6.1430    -1.0180 C.3   1 <1>   0.1400 
 14 C        0.0880    -8.9500    -0.0250 C.ar  1 <1>  -0.1430 
 15 C       -2.3820    -8.9690    -0.5740 C.3   1 <1>   0.2000 
 16 C       -2.4420    -7.1060    -1.9890 C.3   1 <1>   0.1200 
 17 C        0.6240    -9.8820     0.8540 C.ar  1 <1>  -0.1500 
 18 C        0.7970    -8.6320    -1.1770 C.ar  1 <1>  -0.1500 
 19 O       -3.1760    -8.0450    -1.2730 O.3   1 <1>  -0.5600 
 20 C       -3.3360    -9.8340     0.2620 C.3   1 <1>   0.1200 
 21 C        1.8380   -10.4940     0.5920 C.ar  1 <1>   0.0830 
 22 C        2.0190    -9.2260    -1.4410 C.ar  1 <1>  -0.1500 
 23 O       -2.6490   -10.8850     0.8650 O.3   1 <1>  -0.6800 
 24 O        2.2740   -11.4240     1.4750 O.3   1 <1>  -0.3630 
 25 C        2.5560   -10.1450    -0.5570 C.ar  1 <1>   0.0830 
 26 C        2.3140   -12.7550     1.0110 C.3   1 <1>   0.0400 
 27 O        3.7730   -10.6620    -0.8570 O.3   1 <1>  -0.3630 
 28 C        4.8200   -10.3620     0.0400 C.3   1 <1>   0.0400 
 29 H        2.0290    -2.5400    -0.1540 H     1 <1>   0.1500 
 30 H       -1.6990    -1.6250     1.6760 H     1 <1>   0.1500 
 31 H       -2.1490    -4.0480     1.9700 H     1 <1>   0.1500 
 32 H        2.8420    -4.7750    -0.2420 H     1 <1>   0.0800 
 33 H        1.5610    -5.7800    -0.8710 H     1 <1>   0.0800 
 34 H        2.1040    -5.9800     0.7760 H     1 <1>   0.0800 
 35 H       -1.4940    -8.5410     1.3250 H     1 <1>   0.0800 
 36 H       -2.4760    -5.4270    -0.6800 H     1 <1>   0.0800 
 37 H       -0.9790    -5.6030    -1.5440 H     1 <1>   0.0800 
 38 H       -1.9270    -9.6020    -1.3150 H     1 <1>   0.0800 
 39 H       -1.7310    -7.6190    -2.6130 H     1 <1>   0.0800 
 40 H       -3.1230    -6.5650    -2.6210 H     1 <1>   0.0800 
 41 H        0.0980   -10.1460     1.7560 H     1 <1>   0.1500 
 42 H        0.4070    -7.9150    -1.8740 H     1 <1>   0.1500 
 43 H       -4.1080   -10.2520    -0.3600 H     1 <1>   0.0800 
 44 H       -3.7840    -9.2430     1.0430 H     1 <1>   0.0800 
 45 H        2.5680    -8.9740    -2.3300 H     1 <1>   0.1500 
 46 H       -2.3170   -11.5170     0.1980 H     1 <1>   0.4000 
 47 H        2.6020   -13.3880     1.8300 H     1 <1>   0.0800 
 48 H        3.0320   -12.8330     0.2150 H     1 <1>   0.0800 
 49 H        1.3350   -13.0280     0.6590 H     1 <1>   0.0800 
 50 H        5.7420   -10.7100    -0.3900 H     1 <1>   0.0800 
 51 H        4.6430   -10.8580     0.9770 H     1 <1>   0.0800 
 52 H        4.8590    -9.2960     0.1850 H     1 <1>   0.0800 
@<TRIPOS>BOND
  1   1   2  1   
  2   2   3  ar  
  3   2   4  ar  
  4   3   5  ar  
  5   3  29  1   
  6   4   6  ar  
  7   4  30  1   
  8   5   7  ar  
  9   5   8  1   
 10   6   7  ar  
 11   6  31  1   
 12   7   9  1   
 13   8  32  1   
 14   8  33  1   
 15   8  34  1   
 16   9  10  2   
 17   9  11  am  
 18  11  12  1   
 19  11  13  1   
 20  12  14  1   
 21  12  15  1   
 22  12  35  1   
 23  13  16  1   
 24  13  36  1   
 25  13  37  1   
 26  14  17  ar  
 27  14  18  ar  
 28  15  19  1   
 29  15  20  1   
 30  15  38  1   
 31  16  19  1   
 32  16  39  1   
 33  16  40  1   
 34  17  21  ar  
 35  17  41  1   
 36  18  22  ar  
 37  18  42  1   
 38  20  23  1   
 39  20  43  1   
 40  20  44  1   
 41  21  24  1   
 42  21  25  ar  
 43  22  25  ar  
 44  22  45  1   
 45  23  46  1   
 46  24  26  1   
 47  25  27  1   
 48  26  47  1   
 49  26  48  1   
 50  26  49  1   
 51  27  28  1   
 52  28  50  1   
 53  28  51  1   
 54  28  52  1   
@<TRIPOS>SUBSTRUCTURE
  1 ****  11 GROUP 4 **** **** 0

# MOE 2024.06 (io_trps.svl 2023.06)
