@<TRIPOS>MOLECULE
NONAME
48 49 1 0 0 
SMALL
USER_CHARGES


@<TRIPOS>ATOM
  1 S       -0.1790     0.4310     0.5840 S.o2  1 <1>   1.0900 
  2 O       -0.9840     0.2770     1.7720 O.2   1 <1>  -0.6500 
  3 O       -0.3050    -0.4590    -0.5460 O.2   1 <1>  -0.6500 
  4 C       -0.2950     2.1000    -0.0040 C.3   1 <1>  -0.0550 
  5 C        1.5480     0.5430     1.0180 C.3   1 <1>  -0.0550 
  6 C        1.1100     2.4920    -0.4670 C.3   1 <1>   0.1900 
  7 C        2.0620     1.9300     0.6050 C.3   1 <1>  -0.1600 
  8 N        1.2520     3.9590    -0.6010 N.3   1 <1>  -0.8100 
  9 C        2.6200     4.3550    -1.0850 C.3   1 <1>   0.1710 
 10 C        0.2420     4.5220    -1.5250 C.3   1 <1>   0.0300 
 11 C        2.9400     5.8530    -0.9940 C.2   1 <1>   0.5690 
 12 O        3.7220     6.3390    -1.7770 O.2   1 <1>  -0.5700 
 13 N        2.3450     6.5940    -0.0240 N.am  1 <1>  -0.7300 
 14 C        2.4860     8.0620     0.1380 C.3   1 <1>   0.1400 
 15 C        3.8430     8.4090     0.7600 C.3   1 <1>   0.1400 
 16 N        4.0870     9.8830     0.6800 N.am  1 <1>  -0.4690 
 17 C        3.5570    10.6850     1.6850 C.2   1 <1>   0.8410 
 18 C        4.7920    10.4530    -0.3580 C.2   1 <1>  -0.0290 
 19 O        2.8800    10.1960     2.5740 O.2   1 <1>  -0.5700 
 20 N        3.7630    12.0390     1.6960 N.2   1 <1>  -0.6610 
 21 C        4.9700    11.7950    -0.3300 C.2   1 <1>  -0.1360 
 22 C        5.3430     9.6000    -1.4930 C.3   1 <1>  -0.1020 
 23 C        4.4350    12.5520     0.7350 C.2   1 <1>   0.3750 
 24 C        4.6690    14.0460     0.7350 C.3   1 <1>  -0.1790 
 25 H       -0.5880     2.7440     0.8030 H     1 <1>   0.0800 
 26 H       -1.0090     2.1680    -0.8010 H     1 <1>   0.0800 
 27 H        2.0930    -0.2170     0.4900 H     1 <1>   0.0800 
 28 H        1.6880     0.3910     2.0720 H     1 <1>   0.0800 
 29 H        1.3120     2.0130    -1.4130 H     1 <1>   0.0800 
 30 H        3.0710     1.8480     0.2430 H     1 <1>   0.0800 
 31 H        2.0430     2.5780     1.4660 H     1 <1>   0.0800 
 32 H        2.7460     4.0430    -2.1070 H     1 <1>   0.0800 
 33 H        3.3750     3.8640    -0.5020 H     1 <1>   0.0800 
 34 H       -0.7490     4.4050    -1.1240 H     1 <1>   0.0800 
 35 H        0.2940     4.0330    -2.4850 H     1 <1>   0.0800 
 36 H        0.4030     5.5760    -1.6700 H     1 <1>   0.0800 
 37 H        1.6470     6.1170     0.5570 H     1 <1>   0.3700 
 38 H        1.6930     8.4350     0.7620 H     1 <1>   0.0800 
 39 H        2.4120     8.5240    -0.8320 H     1 <1>   0.0800 
 40 H        4.6240     7.8780     0.2490 H     1 <1>   0.0800 
 41 H        3.8570     8.0940     1.7890 H     1 <1>   0.0800 
 42 H        5.5100    12.3140    -1.1000 H     1 <1>   0.1500 
 43 H        4.5530     9.0380    -1.9600 H     1 <1>   0.0800 
 44 H        6.0840     8.9160    -1.1210 H     1 <1>   0.0800 
 45 H        5.8030    10.2150    -2.2450 H     1 <1>   0.0800 
 46 H        5.7230    14.2510     0.7560 H     1 <1>   0.0800 
 47 H        4.2140    14.4940     1.6010 H     1 <1>   0.0800 
 48 H        4.2370    14.4840    -0.1460 H     1 <1>   0.0800 
@<TRIPOS>BOND
  1   1   2  2   
  2   1   3  2   
  3   1   4  1   
  4   1   5  1   
  5   4   6  1   
  6   4  25  1   
  7   4  26  1   
  8   5   7  1   
  9   5  27  1   
 10   5  28  1   
 11   6   7  1   
 12   6   8  1   
 13   6  29  1   
 14   7  30  1   
 15   7  31  1   
 16   8   9  1   
 17   8  10  1   
 18   9  11  1   
 19   9  32  1   
 20   9  33  1   
 21  10  34  1   
 22  10  35  1   
 23  10  36  1   
 24  11  12  2   
 25  11  13  am  
 26  13  14  1   
 27  13  37  1   
 28  14  15  1   
 29  14  38  1   
 30  14  39  1   
 31  15  16  1   
 32  15  40  1   
 33  15  41  1   
 34  16  17  am  
 35  16  18  1   
 36  17  19  2   
 37  17  20  1   
 38  18  21  2   
 39  18  22  1   
 40  20  23  2   
 41  21  23  1   
 42  21  42  1   
 43  22  43  1   
 44  22  44  1   
 45  22  45  1   
 46  23  24  1   
 47  24  46  1   
 48  24  47  1   
 49  24  48  1   
@<TRIPOS>SUBSTRUCTURE
  1 ****  13 GROUP 4 **** **** 0

# MOE 2024.06 (io_trps.svl 2023.06)
