@<TRIPOS>MOLECULE
NONAME
39 41 1 0 0 
SMALL
USER_CHARGES


@<TRIPOS>ATOM
  1 CL       0.2280    -0.3980     0.9750 Cl    1 <1>  -0.1770 
  2 C       -0.6540    -1.8390     0.5410 C.ar  1 <1>   0.1770 
  3 C       -0.1420    -3.0770     0.8790 C.ar  1 <1>  -0.1500 
  4 C       -1.8530    -1.7280    -0.1350 C.ar  1 <1>  -0.1500 
  5 C       -0.8450    -4.2170     0.5310 C.ar  1 <1>  -0.1500 
  6 C       -2.5440    -2.8760    -0.4790 C.ar  1 <1>  -0.1500 
  7 C       -2.0610    -4.1450    -0.1540 C.ar  1 <1>   0.0530 
  8 C       -2.7610    -5.3520    -0.5220 C.2   1 <1>   0.0870 
  9 O       -2.0570    -6.3870    -0.9220 O.3   1 <1>  -0.0190 
 10 C       -4.0700    -5.7260    -0.5640 C.2   1 <1>  -0.2330 
 11 N       -2.7960    -7.4150    -1.2400 N.2   1 <1>  -0.4100 
 12 C       -4.0080    -7.0320    -1.0460 C.2   1 <1>   0.3720 
 13 C       -5.2820    -5.0560    -0.1860 C.2   1 <1>   1.0330 
 14 N       -5.1130    -7.8330    -1.2830 N.pl3 1 <1>  -0.8520 
 15 O       -5.2700    -3.8850     0.2240 O.co2 1 <1>  -0.9000 
 16 O       -6.3810    -5.6420    -0.2460 O.co2 1 <1>  -0.9000 
 17 C       -5.1060    -9.1240    -0.5740 C.3   1 <1>   0.2090 
 18 C       -6.5240    -9.7130    -0.5310 C.3   1 <1>  -0.0800 
 19 C       -7.4870    -8.8540     0.3080 C.3   1 <1>  -0.1600 
 20 C       -6.5030   -11.1400     0.0370 C.3   1 <1>  -0.1600 
 21 C       -8.8450    -9.5420     0.4770 C.3   1 <1>   0.1200 
 22 C       -7.9270   -11.6850     0.1910 C.3   1 <1>   0.1200 
 23 O       -8.6660   -10.8250     1.0000 O.3   1 <1>  -0.5600 
 24 H        0.7920    -3.1420     1.4060 H     1 <1>   0.1500 
 25 H       -2.2450    -0.7600    -0.3870 H     1 <1>   0.1500 
 26 H       -0.4530    -5.1840     0.7930 H     1 <1>   0.1500 
 27 H       -3.4800    -2.7930    -1.0050 H     1 <1>   0.1500 
 28 H       -5.9340    -7.2650    -0.9770 H     1 <1>   0.4000 
 29 H       -4.7330    -8.9860     0.4270 H     1 <1>   0.0800 
 30 H       -4.4450    -9.7950    -1.0950 H     1 <1>   0.0800 
 31 H       -6.8930    -9.7610    -1.5410 H     1 <1>   0.0800 
 32 H       -7.6420    -7.9000    -0.1650 H     1 <1>   0.0800 
 33 H       -7.0690    -8.6650     1.2810 H     1 <1>   0.0800 
 34 H       -6.0280   -11.1480     1.0030 H     1 <1>   0.0800 
 35 H       -5.9440   -11.7860    -0.6150 H     1 <1>   0.0800 
 36 H       -9.3570    -9.6230    -0.4670 H     1 <1>   0.0800 
 37 H       -9.4610    -8.9880     1.1630 H     1 <1>   0.0800 
 38 H       -7.9140   -12.6510     0.6650 H     1 <1>   0.0800 
 39 H       -8.4200   -11.7680    -0.7630 H     1 <1>   0.0800 
@<TRIPOS>BOND
  1   1   2  1   
  2   2   3  ar  
  3   2   4  ar  
  4   3   5  ar  
  5   3  24  1   
  6   4   6  ar  
  7   4  25  1   
  8   5   7  ar  
  9   5  26  1   
 10   6   7  ar  
 11   6  27  1   
 12   7   8  1   
 13   8   9  1   
 14   8  10  2   
 15   9  11  1   
 16  10  12  1   
 17  10  13  1   
 18  11  12  2   
 19  12  14  1   
 20  13  15  ar  
 21  13  16  ar  
 22  14  17  1   
 23  14  28  1   
 24  17  18  1   
 25  17  29  1   
 26  17  30  1   
 27  18  19  1   
 28  18  20  1   
 29  18  31  1   
 30  19  21  1   
 31  19  32  1   
 32  19  33  1   
 33  20  22  1   
 34  20  34  1   
 35  20  35  1   
 36  21  23  1   
 37  21  36  1   
 38  21  37  1   
 39  22  23  1   
 40  22  38  1   
 41  22  39  1   
@<TRIPOS>SUBSTRUCTURE
  1 ****  10 GROUP 4 **** **** 0

# MOE 2024.06 (io_trps.svl 2023.06)
