@<TRIPOS>MOLECULE
NONAME
52 55 1 0 0 
SMALL
USER_CHARGES


@<TRIPOS>ATOM
  1 S       -0.9690    -0.9560    -1.3740 S.3   1 <1>  -0.0800 
  2 C       -2.0130    -1.2310     0.0260 C.2   1 <1>   0.4620 
  3 C       -1.9160     0.4520    -1.7900 C.ar  1 <1>   0.0400 
  4 N       -2.9760    -0.3920     0.1420 N.2   1 <1>  -0.5650 
  5 N       -1.8050    -2.2960     0.8680 N.pl3 1 <1>  -0.8220 
  6 C       -2.9200     0.5790    -0.8480 C.ar  1 <1>   0.2270 
  7 C       -1.7480     1.3200    -2.8520 C.ar  1 <1>  -0.1500 
  8 C       -2.0330    -2.1310     2.3450 C.3   1 <1>   0.2090 
  9 C       -0.9830    -3.4960     0.5170 C.3   1 <1>   0.2090 
 10 C       -3.7990     1.6480    -0.9700 C.ar  1 <1>  -0.1500 
 11 C       -2.6390     2.3740    -2.9630 C.ar  1 <1>  -0.1500 
 12 C       -3.2410    -2.9350     2.8740 C.3   1 <1>   0.2090 
 13 C       -1.8470    -4.7640     0.4410 C.3   1 <1>  -0.1600 
 14 C       -3.6570     2.5360    -2.0250 C.ar  1 <1>  -0.1500 
 15 N       -3.6810    -4.0430     1.9570 N.pl3 1 <1>  -0.8380 
 16 C       -2.6590    -5.0960     1.7050 C.3   1 <1>   0.2090 
 17 C       -4.7030    -3.8670     1.0820 C.ar  1 <1>   0.4610 
 18 N       -4.7410    -2.7340     0.3760 N.ar  1 <1>  -0.1790 
 19 C       -5.6920    -4.7840     0.8190 C.ar  1 <1>  -0.1500 
 20 C       -5.6890    -2.4950    -0.5440 C.ar  1 <1>   0.7710 
 21 C       -6.6500    -4.4790    -0.1270 C.ar  1 <1>   0.3930 
 22 N       -6.6590    -3.3350    -0.8140 N.ar  1 <1>  -0.6200 
 23 N       -5.6570    -1.3590    -1.2380 N.pl3 1 <1>  -0.9000 
 24 O       -7.5990    -5.3850    -0.3500 O.3   1 <1>  -0.3630 
 25 C       -8.6760    -5.2190    -1.2490 C.3   1 <1>   0.2000 
 26 C       -9.7890    -4.4440    -0.5410 C.3   1 <1>  -0.2400 
 27 C       -9.1450    -6.6150    -1.6550 C.3   1 <1>  -0.2400 
 28 H       -0.9510     1.1780    -3.5620 H     1 <1>   0.1500 
 29 H       -2.1740    -1.0890     2.5830 H     1 <1>   0.0800 
 30 H       -1.1510    -2.4440     2.8760 H     1 <1>   0.0800 
 31 H       -0.2090    -3.6290     1.2550 H     1 <1>   0.0800 
 32 H       -0.4920    -3.3610    -0.4300 H     1 <1>   0.0800 
 33 H       -4.5780     1.7820    -0.2420 H     1 <1>   0.1500 
 34 H       -2.5440     3.0750    -3.7750 H     1 <1>   0.1500 
 35 H       -4.0620    -2.2550     3.0300 H     1 <1>   0.0800 
 36 H       -2.9970    -3.3450     3.8400 H     1 <1>   0.0800 
 37 H       -1.1860    -5.5910     0.2520 H     1 <1>   0.0800 
 38 H       -2.5000    -4.6980    -0.4090 H     1 <1>   0.0800 
 39 H       -4.3360     3.3660    -2.1230 H     1 <1>   0.1500 
 40 H       -2.0030    -5.1860     2.5550 H     1 <1>   0.0800 
 41 H       -3.1530    -6.0440     1.5720 H     1 <1>   0.0800 
 42 H       -3.9450    -2.0970     0.4700 H     1 <1>   0.4570 
 43 H       -5.7260    -5.7200     1.3430 H     1 <1>   0.1500 
 44 H       -6.3750    -1.1870    -1.9460 H     1 <1>   0.4000 
 45 H       -4.9480    -0.6250    -1.1420 H     1 <1>   0.4000 
 46 H       -8.3310    -4.6890    -2.1210 H     1 <1>   0.0800 
 47 H      -10.1050    -4.9650     0.3450 H     1 <1>   0.0800 
 48 H      -10.6340    -4.3400    -1.1970 H     1 <1>   0.0800 
 49 H       -9.4490    -3.4600    -0.2760 H     1 <1>   0.0800 
 50 H       -9.4700    -7.1690    -0.7930 H     1 <1>   0.0800 
 51 H       -8.3440    -7.1450    -2.1390 H     1 <1>   0.0800 
 52 H       -9.9660    -6.5400    -2.3450 H     1 <1>   0.0800 
@<TRIPOS>BOND
  1   1   2  1   
  2   1   3  1   
  3   2   4  2   
  4   2   5  1   
  5   3   6  ar  
  6   3   7  ar  
  7   4   6  1   
  8   5   8  1   
  9   5   9  1   
 10   6  10  ar  
 11   7  11  ar  
 12   7  28  1   
 13   8  12  1   
 14   8  29  1   
 15   8  30  1   
 16   9  13  1   
 17   9  31  1   
 18   9  32  1   
 19  10  14  ar  
 20  10  33  1   
 21  11  14  ar  
 22  11  34  1   
 23  12  15  1   
 24  12  35  1   
 25  12  36  1   
 26  13  16  1   
 27  13  37  1   
 28  13  38  1   
 29  14  39  1   
 30  15  16  1   
 31  15  17  1   
 32  16  40  1   
 33  16  41  1   
 34  17  18  ar  
 35  17  19  ar  
 36  18  20  ar  
 37  18  42  1   
 38  19  21  ar  
 39  19  43  1   
 40  20  22  ar  
 41  20  23  1   
 42  21  22  ar  
 43  21  24  1   
 44  23  44  1   
 45  23  45  1   
 46  24  25  1   
 47  25  26  1   
 48  25  27  1   
 49  25  46  1   
 50  26  47  1   
 51  26  48  1   
 52  26  49  1   
 53  27  50  1   
 54  27  51  1   
 55  27  52  1   
@<TRIPOS>SUBSTRUCTURE
  1 ****  18 GROUP 4 **** **** 0

# MOE 2024.06 (io_trps.svl 2023.06)
