@<TRIPOS>MOLECULE
NONAME
41 42 1 0 0 
SMALL
USER_CHARGES


@<TRIPOS>ATOM
  1 S       -0.2110     0.1960    -0.8540 S.o2  1 <1>   1.3330 
  2 O        0.1650     1.0730    -1.9400 O.2   1 <1>  -0.6500 
  3 O       -0.9650    -1.0050    -1.1330 O.2   1 <1>  -0.6500 
  4 N        1.2070    -0.2830    -0.0480 N.am  1 <1>  -0.8490 
  5 C       -1.0840     1.1460     0.4010 C.3   1 <1>  -0.0550 
  6 C        1.0520    -1.5130     0.7360 C.3   1 <1>   0.1160 
  7 C        2.3540    -0.4100    -0.9540 C.3   1 <1>   0.1160 
  8 C       -0.5980     2.5870     0.6740 C.3   1 <1>  -0.0800 
  9 C       -0.9870     3.5930    -0.4110 C.3   1 <1>   0.2000 
 10 C        0.9060     2.7940     0.8550 C.3   1 <1>   0.1400 
 11 O       -2.2960     4.0040    -0.2040 O.3   1 <1>  -0.6800 
 12 C       -0.0040     4.7580    -0.2610 C.3   1 <1>   0.1400 
 13 N        1.1150     4.2260     0.5570 N.am  1 <1>  -0.6600 
 14 C        2.3100     4.8780     0.8050 C.2   1 <1>   0.7160 
 15 O        3.1870     4.2290     1.3550 O.2   1 <1>  -0.5700 
 16 C        2.5530     6.2730     0.4270 C.2   1 <1>   0.1410 
 17 N        1.5700     7.2270     0.3530 N.2   1 <1>  -0.5650 
 18 C        3.7460     6.8720     0.1070 C.2   1 <1>  -0.3320 
 19 C        2.1720     8.3140     0.0160 C.2   1 <1>   0.0360 
 20 N        3.4980     8.1630    -0.1460 N.pl3 1 <1>   0.0330 
 21 C        5.1510     6.2930     0.0210 C.3   1 <1>  -0.0600 
 22 H       -2.1180     1.2050     0.1170 H     1 <1>   0.0800 
 23 H       -1.0490     0.5980     1.3220 H     1 <1>   0.0800 
 24 H        1.9480    -1.7060     1.3010 H     1 <1>   0.0800 
 25 H        0.8590    -2.3520     0.0870 H     1 <1>   0.0800 
 26 H        0.2300    -1.4150     1.4240 H     1 <1>   0.0800 
 27 H        3.2340    -0.6970    -0.4050 H     1 <1>   0.0800 
 28 H        2.5530     0.5350    -1.4330 H     1 <1>   0.0800 
 29 H        2.1510    -1.1470    -1.7140 H     1 <1>   0.0800 
 30 H       -1.0510     2.9090     1.5960 H     1 <1>   0.0800 
 31 H       -0.9160     3.1810    -1.4020 H     1 <1>   0.0800 
 32 H        1.4840     2.2270     0.1480 H     1 <1>   0.0800 
 33 H        1.2280     2.5560     1.8550 H     1 <1>   0.0800 
 34 H       -2.3590     4.5220     0.6220 H     1 <1>   0.4000 
 35 H       -0.4610     5.5850     0.2530 H     1 <1>   0.0800 
 36 H        0.3600     5.0770    -1.2230 H     1 <1>   0.0800 
 37 H        1.6830     9.2620    -0.1260 H     1 <1>   0.1500 
 38 H        4.1700     8.8900    -0.4090 H     1 <1>   0.2700 
 39 H        5.1340     5.2210     0.1000 H     1 <1>   0.0800 
 40 H        5.7590     6.6800     0.8190 H     1 <1>   0.0800 
 41 H        5.6030     6.5500    -0.9200 H     1 <1>   0.0800 
@<TRIPOS>BOND
  1   1   2  2   
  2   1   3  2   
  3   1   4  am  
  4   1   5  1   
  5   4   6  1   
  6   4   7  1   
  7   5   8  1   
  8   5  22  1   
  9   5  23  1   
 10   6  24  1   
 11   6  25  1   
 12   6  26  1   
 13   7  27  1   
 14   7  28  1   
 15   7  29  1   
 16   8   9  1   
 17   8  10  1   
 18   8  30  1   
 19   9  11  1   
 20   9  12  1   
 21   9  31  1   
 22  10  13  1   
 23  10  32  1   
 24  10  33  1   
 25  11  34  1   
 26  12  13  1   
 27  12  35  1   
 28  12  36  1   
 29  13  14  am  
 30  14  15  2   
 31  14  16  1   
 32  16  17  1   
 33  16  18  2   
 34  17  19  2   
 35  18  20  1   
 36  18  21  1   
 37  19  20  1   
 38  19  37  1   
 39  20  38  1   
 40  21  39  1   
 41  21  40  1   
 42  21  41  1   
@<TRIPOS>SUBSTRUCTURE
  1 ****  13 GROUP 4 **** **** 0

# MOE 2024.06 (io_trps.svl 2023.06)
