@<TRIPOS>MOLECULE
NONAME
51 54 1 0 0 
SMALL
USER_CHARGES


@<TRIPOS>ATOM
  1 O        1.5100     1.5840    -2.4940 O.2   1 <1>  -0.5700 
  2 C        1.9140     1.2440    -1.3950 C.2   1 <1>   0.5440 
  3 N        1.6720     2.0660    -0.3190 N.am  1 <1>  -0.6600 
  4 C        2.6660     0.0240    -1.2610 C.ar  1 <1>   0.0860 
  5 C        0.8820     3.3100    -0.4230 C.3   1 <1>   0.1400 
  6 C        1.9320     1.7100     1.0910 C.3   1 <1>   0.1400 
  7 C        2.0650    -1.1610    -0.8000 C.ar  1 <1>   0.4100 
  8 C        4.0100    -0.0140    -1.5990 C.ar  1 <1>  -0.1500 
  9 C        0.8560     3.8720     0.9940 C.3   1 <1>  -0.1600 
 10 C        1.0460     2.6540     1.8960 C.3   1 <1>  -0.1600 
 11 N        2.7140    -2.3210    -0.6800 N.ar  1 <1>  -0.6200 
 12 N        0.7210    -1.2040    -0.4800 N.pl3 1 <1>  -0.8380 
 13 C        4.6800    -1.2090    -1.4660 C.ar  1 <1>  -0.1500 
 14 C        3.9910    -2.3180    -1.0080 C.ar  1 <1>   0.1600 
 15 C        0.1940    -2.1750     0.5320 C.3   1 <1>   0.2090 
 16 C       -0.2200    -1.2000    -1.6290 C.3   1 <1>   0.2090 
 17 C       -0.6240    -3.1930    -0.2730 C.3   1 <1>   0.4240 
 18 C       -1.2660    -2.2680    -1.3120 C.3   1 <1>  -0.1600 
 19 O        0.2660    -3.9920    -0.9720 O.3   1 <1>  -0.6800 
 20 C       -1.5790    -4.0880     0.5560 C.ar  1 <1>  -0.1440 
 21 C       -1.1480    -4.8530     1.6490 C.ar  1 <1>  -0.1440 
 22 C       -2.9300    -4.1520     0.2120 C.ar  1 <1>  -0.1500 
 23 C       -2.0630    -5.6040     2.3740 C.ar  1 <1>  -0.1500 
 24 C        0.3020    -4.9420     2.1130 C.3   1 <1>  -0.0970 
 25 C       -3.8310    -4.9080     0.9380 C.ar  1 <1>  -0.1500 
 26 C       -3.3990    -5.6320     2.0280 C.ar  1 <1>  -0.1500 
 27 H       -0.1120     3.0650    -0.7550 H     1 <1>   0.0800 
 28 H        1.3380     3.9940    -1.1190 H     1 <1>   0.0800 
 29 H        2.9700     1.8860     1.3130 H     1 <1>   0.0800 
 30 H        1.6840     0.6810     1.2890 H     1 <1>   0.0800 
 31 H        4.5020     0.8730    -1.9600 H     1 <1>   0.1500 
 32 H       -0.0600     4.3970     1.1980 H     1 <1>   0.0800 
 33 H        1.6840     4.5490     1.1150 H     1 <1>   0.0800 
 34 H        1.4870     2.9080     2.8430 H     1 <1>   0.0800 
 35 H        0.0970     2.1760     2.0670 H     1 <1>   0.0800 
 36 H        5.7230    -1.2850    -1.7180 H     1 <1>   0.1500 
 37 H        4.5220    -3.2500    -0.9110 H     1 <1>   0.1500 
 38 H       -0.4540    -1.6530     1.2140 H     1 <1>   0.0800 
 39 H        0.9850    -2.6340     1.0930 H     1 <1>   0.0800 
 40 H        0.3050    -1.4520    -2.5360 H     1 <1>   0.0800 
 41 H       -0.6710    -0.2280    -1.7430 H     1 <1>   0.0800 
 42 H       -1.5850    -2.7990    -2.1900 H     1 <1>   0.0800 
 43 H       -2.1110    -1.7660    -0.8790 H     1 <1>   0.0800 
 44 H        1.0860    -3.4520    -1.0870 H     1 <1>   0.4000 
 45 H       -3.3190    -3.6210    -0.6350 H     1 <1>   0.1500 
 46 H       -1.7390    -6.1840     3.2200 H     1 <1>   0.1500 
 47 H        0.9770    -4.9670     1.2790 H     1 <1>   0.0800 
 48 H        0.4650    -5.8430     2.6750 H     1 <1>   0.0800 
 49 H        0.5400    -4.1070     2.7460 H     1 <1>   0.0800 
 50 H       -4.8680    -4.9340     0.6520 H     1 <1>   0.1500 
 51 H       -4.0940    -6.2210     2.5990 H     1 <1>   0.1500 
@<TRIPOS>BOND
  1   1   2  2   
  2   2   3  am  
  3   2   4  1   
  4   3   5  1   
  5   3   6  1   
  6   4   7  ar  
  7   4   8  ar  
  8   5   9  1   
  9   5  27  1   
 10   5  28  1   
 11   6  10  1   
 12   6  29  1   
 13   6  30  1   
 14   7  11  ar  
 15   7  12  1   
 16   8  13  ar  
 17   8  31  1   
 18   9  10  1   
 19   9  32  1   
 20   9  33  1   
 21  10  34  1   
 22  10  35  1   
 23  11  14  ar  
 24  12  15  1   
 25  12  16  1   
 26  13  14  ar  
 27  13  36  1   
 28  14  37  1   
 29  15  17  1   
 30  15  38  1   
 31  15  39  1   
 32  16  18  1   
 33  16  40  1   
 34  16  41  1   
 35  17  18  1   
 36  17  19  1   
 37  17  20  1   
 38  18  42  1   
 39  18  43  1   
 40  19  44  1   
 41  20  21  ar  
 42  20  22  ar  
 43  21  23  ar  
 44  21  24  1   
 45  22  25  ar  
 46  22  45  1   
 47  23  26  ar  
 48  23  46  1   
 49  24  47  1   
 50  24  48  1   
 51  24  49  1   
 52  25  26  ar  
 53  25  50  1   
 54  26  51  1   
@<TRIPOS>SUBSTRUCTURE
  1 ****  12 GROUP 4 **** **** 0

# MOE 2024.06 (io_trps.svl 2023.06)
