@<TRIPOS>MOLECULE
NONAME
40 42 1 0 0 
SMALL
USER_CHARGES


@<TRIPOS>ATOM
  1 CL      -1.7310    -0.1960    -0.6090 Cl    1 <1>  -0.1230 
  2 C       -1.2320     1.3470     0.0650 C.2   1 <1>   0.1230 
  3 C       -2.0470     2.2690     0.7300 C.2   1 <1>   0.2030 
  4 C        0.0080     1.8590     0.0140 C.2   1 <1>  -0.3020 
  5 N       -1.3120     3.3260     1.0620 N.2   1 <1>  -0.7070 
  6 C       -3.4610     2.0470     0.9960 C.2   1 <1>   0.7160 
  7 N       -0.0670     3.0550     0.6280 N.pl3 1 <1>   0.3000 
  8 O       -3.8200     0.9590     1.4200 O.2   1 <1>  -0.5700 
  9 N       -4.4320     3.0140     0.7770 N.am  1 <1>  -0.6600 
 10 C       -5.8580     2.8170     1.1860 C.3   1 <1>   0.1400 
 11 C       -4.1920     4.2930     0.0560 C.3   1 <1>   0.1400 
 12 C       -6.7930     2.8340    -0.0490 C.3   1 <1>   0.0000 
 13 C       -5.0920     4.3640    -1.1840 C.3   1 <1>  -0.1600 
 14 C       -8.2650     2.6590     0.3610 C.3   1 <1>   0.2000 
 15 C       -6.5740     4.1450    -0.8360 C.3   1 <1>  -0.1600 
 16 C       -6.5630     1.5830    -0.9160 C.3   1 <1>  -0.1600 
 17 O       -8.5650     3.3830     1.5180 O.3   1 <1>  -0.5600 
 18 C       -8.4610     1.1550     0.5750 C.3   1 <1>  -0.1600 
 19 C       -7.3570     0.4630    -0.2370 C.3   1 <1>  -0.1600 
 20 C       -9.9240     3.5270     1.7850 C.3   1 <1>   0.0400 
 21 H        0.9070     1.4540    -0.4120 H     1 <1>   0.1500 
 22 H        0.7160     3.7070     0.7670 H     1 <1>   0.2700 
 23 H       -5.9790     1.8980     1.7300 H     1 <1>   0.0800 
 24 H       -6.1280     3.6170     1.8530 H     1 <1>   0.0800 
 25 H       -4.4150     5.1110     0.7190 H     1 <1>   0.0800 
 26 H       -3.1670     4.3840    -0.2520 H     1 <1>   0.0800 
 27 H       -4.9720     5.3260    -1.6490 H     1 <1>   0.0800 
 28 H       -4.7680     3.6200    -1.8910 H     1 <1>   0.0800 
 29 H       -8.8970     3.0010    -0.4420 H     1 <1>   0.0800 
 30 H       -7.1610     4.1420    -1.7370 H     1 <1>   0.0800 
 31 H       -6.9130     4.9690    -0.2300 H     1 <1>   0.0800 
 32 H       -6.9660     1.7460    -1.9000 H     1 <1>   0.0800 
 33 H       -5.5230     1.3240    -1.0130 H     1 <1>   0.0800 
 34 H       -8.3460     0.9080     1.6170 H     1 <1>   0.0800 
 35 H       -9.4340     0.8490     0.2350 H     1 <1>   0.0800 
 36 H       -6.7080    -0.0830     0.4280 H     1 <1>   0.0800 
 37 H       -7.7620    -0.2190    -0.9630 H     1 <1>   0.0800 
 38 H      -10.0270     4.1140     2.6800 H     1 <1>   0.0800 
 39 H      -10.3660     2.5580     1.9380 H     1 <1>   0.0800 
 40 H      -10.3970     4.0350     0.9630 H     1 <1>   0.0800 
@<TRIPOS>BOND
  1   1   2  1   
  2   2   3  1   
  3   2   4  2   
  4   3   5  2   
  5   3   6  1   
  6   4   7  1   
  7   4  21  1   
  8   5   7  1   
  9   6   8  2   
 10   6   9  am  
 11   7  22  1   
 12   9  10  1   
 13   9  11  1   
 14  10  12  1   
 15  10  23  1   
 16  10  24  1   
 17  11  13  1   
 18  11  25  1   
 19  11  26  1   
 20  12  14  1   
 21  12  15  1   
 22  12  16  1   
 23  13  15  1   
 24  13  27  1   
 25  13  28  1   
 26  14  17  1   
 27  14  18  1   
 28  14  29  1   
 29  15  30  1   
 30  15  31  1   
 31  16  19  1   
 32  16  32  1   
 33  16  33  1   
 34  17  20  1   
 35  18  19  1   
 36  18  34  1   
 37  18  35  1   
 38  19  36  1   
 39  19  37  1   
 40  20  38  1   
 41  20  39  1   
 42  20  40  1   
@<TRIPOS>SUBSTRUCTURE
  1 ****   9 GROUP 4 **** **** 0

# MOE 2024.06 (io_trps.svl 2023.06)
