@<TRIPOS>MOLECULE
NONAME
49 52 1 0 0 
SMALL
USER_CHARGES


@<TRIPOS>ATOM
  1 CL      -3.3260    -0.6710     2.5530 Cl    1 <1>  -0.1770 
  2 C       -3.3350     0.4900     1.2480 C.ar  1 <1>   0.1770 
  3 C       -3.1670     0.0440    -0.0630 C.ar  1 <1>  -0.1440 
  4 C       -3.4930     1.8320     1.5580 C.ar  1 <1>  -0.1500 
  5 C       -3.1330     0.9730    -1.1010 C.ar  1 <1>  -0.1500 
  6 C       -3.0150    -1.4380    -0.3370 C.3   1 <1>   0.4870 
  7 C       -3.4650     2.7270     0.5070 C.ar  1 <1>   0.0830 
  8 C       -3.2890     2.3080    -0.7810 C.ar  1 <1>   0.0830 
  9 N       -4.3500    -2.0810    -0.4660 N.4   1 <1>  -0.9590 
 10 O       -3.5860     4.0570     0.5440 O.3   1 <1>  -0.3630 
 11 O       -3.2940     3.3560    -1.6100 O.3   1 <1>  -0.3620 
 12 C       -4.2980    -3.5910    -0.4750 C.3   1 <1>   0.3430 
 13 C       -5.2370    -1.4880    -1.5040 C.3   1 <1>   0.3430 
 14 C       -3.4750     4.5190    -0.8010 C.3   1 <1>   0.4000 
 15 C       -5.6420    -4.2920    -0.8850 C.3   1 <1>   0.4230 
 16 C       -6.6630    -2.0670    -1.4130 C.3   1 <1>  -0.1600 
 17 N       -5.8560    -5.6420    -0.2440 N.4   1 <1>  -0.9590 
 18 C       -6.8230    -3.3610    -0.5510 C.3   1 <1>  -0.1060 
 19 C       -7.0980    -6.3110    -0.7180 C.3   1 <1>   0.3430 
 20 C       -4.6980    -6.5820    -0.2330 C.3   1 <1>   0.2630 
 21 C       -6.6710    -3.0720     0.9540 C.2   1 <1>   0.9060 
 22 C       -8.1850    -4.0160    -0.9030 C.3   1 <1>  -0.1600 
 23 C       -8.3120    -5.4500    -0.3690 C.3   1 <1>  -0.1600 
 24 O       -6.3570    -1.9330     1.3030 O.co2 1 <1>  -0.9000 
 25 O       -6.5630    -4.0310     1.7250 O.co2 1 <1>  -0.9000 
 26 H       -3.6300     2.1640     2.5710 H     1 <1>   0.1500 
 27 H       -2.9900     0.6940    -2.1300 H     1 <1>   0.1500 
 28 H       -2.4710    -1.8910     0.4770 H     1 <1>   0.0800 
 29 H       -2.4480    -1.5800    -1.2420 H     1 <1>   0.0800 
 30 H       -4.8670    -1.8290     0.4260 H     1 <1>   0.4500 
 31 H       -3.5230    -3.9200    -1.1450 H     1 <1>   0.0800 
 32 H       -4.0490    -3.9150     0.5230 H     1 <1>   0.0800 
 33 H       -5.2940    -0.4190    -1.3710 H     1 <1>   0.0800 
 34 H       -4.8280    -1.6820    -2.4820 H     1 <1>   0.0800 
 35 H       -4.3820     5.0220    -1.0870 H     1 <1>   0.0800 
 36 H       -2.6170     5.1610    -0.8930 H     1 <1>   0.0800 
 37 H       -5.6240    -4.4310    -1.9520 H     1 <1>   0.0800 
 38 H       -7.3080    -1.3040    -1.0100 H     1 <1>   0.0800 
 39 H       -7.0000    -2.2390    -2.4200 H     1 <1>   0.0800 
 40 H       -6.0830    -5.3730     0.7550 H     1 <1>   0.4500 
 41 H       -7.0520    -6.4620    -1.7840 H     1 <1>   0.0800 
 42 H       -7.2030    -7.2720    -0.2400 H     1 <1>   0.0800 
 43 H       -4.4200    -6.8510    -1.2380 H     1 <1>   0.0800 
 44 H       -4.9620    -7.4810     0.3030 H     1 <1>   0.0800 
 45 H       -3.8530    -6.1360     0.2640 H     1 <1>   0.0800 
 46 H       -8.9850    -3.4160    -0.5000 H     1 <1>   0.0800 
 47 H       -8.3130    -4.0480    -1.9710 H     1 <1>   0.0800 
 48 H       -9.1970    -5.9060    -0.7790 H     1 <1>   0.0800 
 49 H       -8.4380    -5.4350     0.7010 H     1 <1>   0.0800 
@<TRIPOS>BOND
  1   1   2  1   
  2   2   3  ar  
  3   2   4  ar  
  4   3   5  ar  
  5   3   6  1   
  6   4   7  ar  
  7   4  26  1   
  8   5   8  ar  
  9   5  27  1   
 10   6   9  1   
 11   6  28  1   
 12   6  29  1   
 13   7   8  ar  
 14   7  10  1   
 15   8  11  1   
 16   9  12  1   
 17   9  13  1   
 18   9  30  1   
 19  10  14  1   
 20  11  14  1   
 21  12  15  1   
 22  12  31  1   
 23  12  32  1   
 24  13  16  1   
 25  13  33  1   
 26  13  34  1   
 27  14  35  1   
 28  14  36  1   
 29  15  17  1   
 30  15  18  1   
 31  15  37  1   
 32  16  18  1   
 33  16  38  1   
 34  16  39  1   
 35  17  19  1   
 36  17  20  1   
 37  17  40  1   
 38  18  21  1   
 39  18  22  1   
 40  19  23  1   
 41  19  41  1   
 42  19  42  1   
 43  20  43  1   
 44  20  44  1   
 45  20  45  1   
 46  21  24  ar  
 47  21  25  ar  
 48  22  23  1   
 49  22  46  1   
 50  22  47  1   
 51  23  48  1   
 52  23  49  1   
@<TRIPOS>SUBSTRUCTURE
  1 ****   9 GROUP 4 **** **** 0

# MOE 2024.06 (io_trps.svl 2023.06)
