@<TRIPOS>MOLECULE
NONAME
56 58 1 0 0 
SMALL
USER_CHARGES


@<TRIPOS>ATOM
  1 O       -0.1340     2.9320    -3.0880 O.2   1 <1>  -0.5700 
  2 C       -0.5430     3.8040    -2.3560 C.2   1 <1>   0.5690 
  3 N       -0.9870     3.5700    -1.0810 N.am  1 <1>  -0.5090 
  4 C       -0.5990     5.2280    -2.8980 C.3   1 <1>   0.1810 
  5 C       -1.7200     4.6230    -0.3110 C.3   1 <1>   0.3640 
  6 C       -0.9070     2.2410    -0.4300 C.3   1 <1>   0.0490 
  7 O       -0.5610     6.1790    -1.8650 O.3   1 <1>  -0.5600 
  8 C       -3.1920     4.2250    -0.1890 C.ar  1 <1>  -0.1440 
  9 C       -1.6040     6.0540    -0.9080 C.3   1 <1>   0.2610 
 10 C       -0.1570     2.1240     0.8600 C.3   1 <1>  -0.2000 
 11 C        0.4010     1.5170    -0.3870 C.3   1 <1>  -0.2000 
 12 C       -3.8490     4.3750     1.0260 C.ar  1 <1>   0.1600 
 13 C       -3.9030     3.7140    -1.2620 C.ar  1 <1>  -0.1500 
 14 C       -1.3980     7.0630     0.2270 C.2   1 <1>   0.5690 
 15 N       -5.1150     4.0570     1.2490 N.ar  1 <1>  -0.6200 
 16 C       -5.2230     3.3830    -1.0460 C.ar  1 <1>  -0.1500 
 17 O       -2.1230     7.0140     1.1920 O.2   1 <1>  -0.5700 
 18 N       -0.3890     7.9690     0.1070 N.am  1 <1>  -0.7300 
 19 C       -5.7720     3.5700     0.2100 C.ar  1 <1>   0.1600 
 20 C        0.0670     9.0180     1.0240 C.3   1 <1>   0.3000 
 21 C        1.3000     9.6850     0.3840 C.3   1 <1>  -0.1600 
 22 C       -1.0470    10.0550     1.1750 C.3   1 <1>  -0.2400 
 23 C        0.4130     8.4020     2.3840 C.3   1 <1>  -0.2400 
 24 C        2.5000     8.7480     0.1220 C.3   1 <1>  -0.0990 
 25 C        3.5830     9.4520    -0.6670 C.2   1 <1>   0.5690 
 26 O        3.5050     9.4660    -1.8700 O.2   1 <1>  -0.5700 
 27 N        4.5970    10.0520     0.0080 N.am  1 <1>  -0.7300 
 28 C        5.7250    10.7800    -0.6250 C.3   1 <1>   0.0600 
 29 H       -1.4980     5.3700    -3.4690 H     1 <1>   0.0800 
 30 H        0.2500     5.4000    -3.5330 H     1 <1>   0.0800 
 31 H       -1.2940     4.6430     0.6780 H     1 <1>   0.0800 
 32 H       -1.8050     1.6590    -0.5620 H     1 <1>   0.1000 
 33 H       -2.5230     6.3100    -1.4040 H     1 <1>   0.0800 
 34 H        0.3530     2.9780     1.2680 H     1 <1>   0.1000 
 35 H       -0.5330     1.4610     1.6200 H     1 <1>   0.1000 
 36 H        0.3960     0.4460    -0.4880 H     1 <1>   0.1000 
 37 H        1.2530     1.9720    -0.8620 H     1 <1>   0.1000 
 38 H       -3.3100     4.7810     1.8660 H     1 <1>   0.1500 
 39 H       -3.4560     3.5680    -2.2300 H     1 <1>   0.1500 
 40 H       -5.8240     2.9800    -1.8400 H     1 <1>   0.1500 
 41 H        0.1460     7.9180    -0.7650 H     1 <1>   0.3700 
 42 H       -6.8030     3.3070     0.3690 H     1 <1>   0.1500 
 43 H        1.0010    10.1290    -0.5510 H     1 <1>   0.0800 
 44 H        1.6290    10.4900     1.0180 H     1 <1>   0.0800 
 45 H       -0.7220    10.8610     1.8070 H     1 <1>   0.0800 
 46 H       -1.9180     9.6120     1.6240 H     1 <1>   0.0800 
 47 H       -1.3180    10.4600     0.2170 H     1 <1>   0.0800 
 48 H        0.8750     9.1370     3.0170 H     1 <1>   0.0800 
 49 H        1.0830     7.5700     2.2710 H     1 <1>   0.0800 
 50 H       -0.4770     8.0570     2.8790 H     1 <1>   0.0800 
 51 H        2.1930     7.8890    -0.4460 H     1 <1>   0.0800 
 52 H        2.9140     8.3970     1.0490 H     1 <1>   0.0800 
 53 H        4.6070    10.0200     1.0290 H     1 <1>   0.3700 
 54 H        5.6280    10.7630    -1.6980 H     1 <1>   0.0800 
 55 H        6.6570    10.3130    -0.3550 H     1 <1>   0.0800 
 56 H        5.7300    11.8040    -0.2940 H     1 <1>   0.0800 
@<TRIPOS>BOND
  1   1   2  2   
  2   2   3  am  
  3   2   4  1   
  4   3   5  1   
  5   3   6  1   
  6   4   7  1   
  7   4  29  1   
  8   4  30  1   
  9   5   8  1   
 10   5   9  1   
 11   5  31  1   
 12   6  10  1   
 13   6  11  1   
 14   6  32  1   
 15   7   9  1   
 16   8  12  ar  
 17   8  13  ar  
 18   9  14  1   
 19   9  33  1   
 20  10  11  1   
 21  10  34  1   
 22  10  35  1   
 23  11  36  1   
 24  11  37  1   
 25  12  15  ar  
 26  12  38  1   
 27  13  16  ar  
 28  13  39  1   
 29  14  17  2   
 30  14  18  am  
 31  15  19  ar  
 32  16  19  ar  
 33  16  40  1   
 34  18  20  1   
 35  18  41  1   
 36  19  42  1   
 37  20  21  1   
 38  20  22  1   
 39  20  23  1   
 40  21  24  1   
 41  21  43  1   
 42  21  44  1   
 43  22  45  1   
 44  22  46  1   
 45  22  47  1   
 46  23  48  1   
 47  23  49  1   
 48  23  50  1   
 49  24  25  1   
 50  24  51  1   
 51  24  52  1   
 52  25  26  2   
 53  25  27  am  
 54  27  28  1   
 55  27  53  1   
 56  28  54  1   
 57  28  55  1   
 58  28  56  1   
@<TRIPOS>SUBSTRUCTURE
  1 ****   9 GROUP 4 **** **** 0

# MOE 2024.06 (io_trps.svl 2023.06)
