@<TRIPOS>MOLECULE
NONAME
55 58 1 0 0 
SMALL
USER_CHARGES


@<TRIPOS>ATOM
  1 CL      -0.0930    -2.9400     2.0290 Cl    1 <1>  -0.1770 
  2 C        1.0910    -1.7880     1.4380 C.ar  1 <1>   0.1770 
  3 C        1.4780    -1.7880     0.1010 C.ar  1 <1>  -0.0230 
  4 C        1.6170    -0.8840     2.3420 C.ar  1 <1>  -0.1500 
  5 N        0.9440    -2.7240    -0.8170 N.pl3 1 <1>   0.5930 
  6 C        2.4050    -0.8360    -0.3150 C.ar  1 <1>  -0.1500 
  7 C        2.5460     0.0490     1.9140 C.ar  1 <1>  -0.1500 
  8 N        0.3170    -2.3750    -1.9660 N.2   1 <1>  -0.7070 
  9 C        0.8920    -4.0720    -0.6710 C.2   1 <1>  -0.3020 
 10 C        2.9360     0.0730     0.5850 C.ar  1 <1>  -0.1500 
 11 C       -0.1220    -3.4720    -2.4890 C.2   1 <1>   0.1390 
 12 C        0.1910    -4.5790    -1.7090 C.2   1 <1>  -0.1810 
 13 C       -0.2250    -6.0060    -1.9810 C.3   1 <1>   0.5240 
 14 N       -0.8630    -6.5180    -0.7320 N.4   1 <1>  -0.9590 
 15 C       -1.1040    -8.0070    -0.7870 C.3   1 <1>   0.3430 
 16 C       -2.1180    -5.7520    -0.4470 C.3   1 <1>   0.3430 
 17 C       -1.8190    -8.5750     0.4830 C.3   1 <1>   0.4230 
 18 C       -2.7380    -6.2460     0.8630 C.3   1 <1>  -0.1600 
 19 N       -2.0450   -10.0880     0.4940 N.4   1 <1>  -0.9590 
 20 C       -3.0890    -7.7590     0.8660 C.3   1 <1>   0.0000 
 21 C       -3.0230   -10.5480     1.5400 C.3   1 <1>   0.3430 
 22 C       -2.4400   -10.6840    -0.8290 C.3   1 <1>   0.2630 
 23 C       -3.5090    -8.1550     2.3110 C.3   1 <1>  -0.1600 
 24 C       -4.3030    -8.0060    -0.0770 C.3   1 <1>   0.1200 
 25 C       -3.0710    -9.5760     2.7200 C.3   1 <1>  -0.1600 
 26 O       -3.9410    -7.9160    -1.4140 O.3   1 <1>  -0.6800 
 27 H        1.3030    -0.9060     3.3710 H     1 <1>   0.1500 
 28 H        2.7080    -0.8030    -1.3490 H     1 <1>   0.1500 
 29 H        2.9610     0.7580     2.6100 H     1 <1>   0.1500 
 30 H        1.3520    -4.5500     0.1740 H     1 <1>   0.1500 
 31 H        3.6530     0.8030     0.2500 H     1 <1>   0.1500 
 32 H       -0.6700    -3.4930    -3.4190 H     1 <1>   0.1500 
 33 H        0.6460    -6.5900    -2.2310 H     1 <1>   0.0800 
 34 H       -0.9210    -6.0430    -2.8040 H     1 <1>   0.0800 
 35 H       -0.1970    -6.2780     0.0150 H     1 <1>   0.4500 
 36 H       -1.7090    -8.2240    -1.6500 H     1 <1>   0.0800 
 37 H       -0.1590    -8.5110    -0.9060 H     1 <1>   0.0800 
 38 H       -1.8980    -4.6990    -0.3580 H     1 <1>   0.0800 
 39 H       -2.8210    -5.8760    -1.2560 H     1 <1>   0.0800 
 40 H       -1.1280    -8.3850     1.2870 H     1 <1>   0.0800 
 41 H       -2.0500    -6.0140     1.6580 H     1 <1>   0.0800 
 42 H       -3.6280    -5.6690     1.0530 H     1 <1>   0.0800 
 43 H       -1.1480   -10.5230     0.7610 H     1 <1>   0.4500 
 44 H       -4.0110   -10.6130     1.1140 H     1 <1>   0.0800 
 45 H       -2.7530   -11.5320     1.8890 H     1 <1>   0.0800 
 46 H       -3.3760   -10.2690    -1.1670 H     1 <1>   0.0800 
 47 H       -2.5580   -11.7520    -0.7360 H     1 <1>   0.0800 
 48 H       -1.6890   -10.4930    -1.5770 H     1 <1>   0.0800 
 49 H       -3.0920    -7.4750     3.0360 H     1 <1>   0.0800 
 50 H       -4.5790    -8.0710     2.4150 H     1 <1>   0.0800 
 51 H       -5.0750    -7.2770     0.1080 H     1 <1>   0.0800 
 52 H       -4.7310    -8.9810     0.0770 H     1 <1>   0.0800 
 53 H       -3.7570    -9.9550     3.4590 H     1 <1>   0.0800 
 54 H       -2.1010    -9.5460     3.1880 H     1 <1>   0.0800 
 55 H       -4.7470    -7.9080    -1.9820 H     1 <1>   0.4000 
@<TRIPOS>BOND
  1   1   2  1   
  2   2   3  ar  
  3   2   4  ar  
  4   3   5  1   
  5   3   6  ar  
  6   4   7  ar  
  7   4  27  1   
  8   5   8  1   
  9   5   9  1   
 10   6  10  ar  
 11   6  28  1   
 12   7  10  ar  
 13   7  29  1   
 14   8  11  2   
 15   9  12  2   
 16   9  30  1   
 17  10  31  1   
 18  11  12  1   
 19  11  32  1   
 20  12  13  1   
 21  13  14  1   
 22  13  33  1   
 23  13  34  1   
 24  14  15  1   
 25  14  16  1   
 26  14  35  1   
 27  15  17  1   
 28  15  36  1   
 29  15  37  1   
 30  16  18  1   
 31  16  38  1   
 32  16  39  1   
 33  17  19  1   
 34  17  20  1   
 35  17  40  1   
 36  18  20  1   
 37  18  41  1   
 38  18  42  1   
 39  19  21  1   
 40  19  22  1   
 41  19  43  1   
 42  20  23  1   
 43  20  24  1   
 44  21  25  1   
 45  21  44  1   
 46  21  45  1   
 47  22  46  1   
 48  22  47  1   
 49  22  48  1   
 50  23  25  1   
 51  23  49  1   
 52  23  50  1   
 53  24  26  1   
 54  24  51  1   
 55  24  52  1   
 56  25  53  1   
 57  25  54  1   
 58  26  55  1   
@<TRIPOS>SUBSTRUCTURE
  1 ****  14 GROUP 4 **** **** 0

# MOE 2024.06 (io_trps.svl 2023.06)
