@<TRIPOS>MOLECULE
NONAME
46 47 1 0 0 
SMALL
USER_CHARGES


@<TRIPOS>ATOM
  1 O       -0.0920     0.9600    -0.6130 O.2   1 <1>  -0.5700 
  2 C       -0.2500     2.1590    -0.6090 C.2   1 <1>   0.5690 
  3 N       -1.0500     2.7930     0.3020 N.am  1 <1>  -0.6600 
  4 C        0.4600     2.9840    -1.6820 C.3   1 <1>   0.1810 
  5 C       -1.2680     4.2770     0.2500 C.3   1 <1>   0.3640 
  6 C       -1.7110     2.0700     1.4270 C.3   1 <1>   0.0600 
  7 O        0.6620     4.3170    -1.2860 O.3   1 <1>  -0.5600 
  8 C       -2.7690     4.6130     0.2570 C.ar  1 <1>  -0.1430 
  9 C       -0.5270     4.9990    -0.9080 C.3   1 <1>   0.2610 
 10 C       -3.7150     4.0670    -0.6190 C.ar  1 <1>  -0.1430 
 11 C       -3.1960     5.5300     1.2100 C.ar  1 <1>  -0.1500 
 12 C       -0.1950     6.4300    -0.4750 C.2   1 <1>   0.5690 
 13 C       -5.0460     4.4420    -0.5070 C.ar  1 <1>  -0.1500 
 14 C       -3.3740     3.0560    -1.7090 C.3   1 <1>  -0.0960 
 15 C       -4.5230     5.8990     1.3100 C.ar  1 <1>  -0.1500 
 16 O       -1.0730     7.2580    -0.4540 O.2   1 <1>  -0.5700 
 17 N        1.0900     6.7100    -0.1160 N.am  1 <1>  -0.7300 
 18 C       -5.4530     5.3520     0.4500 C.ar  1 <1>  -0.1500 
 19 C        1.6840     7.9680     0.3370 C.3   1 <1>   0.3000 
 20 C        1.0050     8.4220     1.6290 C.3   1 <1>  -0.2400 
 21 C        1.5530     9.0220    -0.7620 C.3   1 <1>  -0.2400 
 22 C        3.1600     7.6810     0.6040 C.3   1 <1>  -0.2400 
 23 H       -0.1170     2.9760    -2.5890 H     1 <1>   0.0800 
 24 H        1.4230     2.5510    -1.8800 H     1 <1>   0.0800 
 25 H       -0.8460     4.6650     1.1610 H     1 <1>   0.0800 
 26 H       -1.4510     2.5320     2.3630 H     1 <1>   0.0800 
 27 H       -1.3990     1.0400     1.4530 H     1 <1>   0.0800 
 28 H       -2.7800     2.1000     1.3050 H     1 <1>   0.0800 
 29 H       -1.1620     5.0590    -1.7720 H     1 <1>   0.0800 
 30 H       -2.4910     5.9810     1.8870 H     1 <1>   0.1500 
 31 H       -5.7850     4.0270    -1.1690 H     1 <1>   0.1500 
 32 H       -4.1940     2.9410    -2.3950 H     1 <1>   0.0800 
 33 H       -3.1730     2.0950    -1.2710 H     1 <1>   0.0800 
 34 H       -2.5220     3.3710    -2.2760 H     1 <1>   0.0800 
 35 H       -4.8310     6.6140     2.0540 H     1 <1>   0.1500 
 36 H        1.7670     5.9620    -0.2810 H     1 <1>   0.3700 
 37 H       -6.4880     5.6340     0.5220 H     1 <1>   0.1500 
 38 H        1.4840     9.3060     2.0080 H     1 <1>   0.0800 
 39 H        1.0660     7.6530     2.3770 H     1 <1>   0.0800 
 40 H       -0.0290     8.6570     1.4520 H     1 <1>   0.0800 
 41 H        2.0490     9.9290    -0.4670 H     1 <1>   0.0800 
 42 H        0.5190     9.2540    -0.9430 H     1 <1>   0.0800 
 43 H        1.9970     8.6710    -1.6760 H     1 <1>   0.0800 
 44 H        3.6530     8.5740     0.9450 H     1 <1>   0.0800 
 45 H        3.6500     7.3510    -0.2950 H     1 <1>   0.0800 
 46 H        3.2670     6.9280     1.3640 H     1 <1>   0.0800 
@<TRIPOS>BOND
  1   1   2  2   
  2   2   3  am  
  3   2   4  1   
  4   3   5  1   
  5   3   6  1   
  6   4   7  1   
  7   4  23  1   
  8   4  24  1   
  9   5   8  1   
 10   5   9  1   
 11   5  25  1   
 12   6  26  1   
 13   6  27  1   
 14   6  28  1   
 15   7   9  1   
 16   8  10  ar  
 17   8  11  ar  
 18   9  12  1   
 19   9  29  1   
 20  10  13  ar  
 21  10  14  1   
 22  11  15  ar  
 23  11  30  1   
 24  12  16  2   
 25  12  17  am  
 26  13  18  ar  
 27  13  31  1   
 28  14  32  1   
 29  14  33  1   
 30  14  34  1   
 31  15  18  ar  
 32  15  35  1   
 33  17  19  1   
 34  17  36  1   
 35  18  37  1   
 36  19  20  1   
 37  19  21  1   
 38  19  22  1   
 39  20  38  1   
 40  20  39  1   
 41  20  40  1   
 42  21  41  1   
 43  21  42  1   
 44  21  43  1   
 45  22  44  1   
 46  22  45  1   
 47  22  46  1   
@<TRIPOS>SUBSTRUCTURE
  1 ****   5 GROUP 4 **** **** 0

# MOE 2024.06 (io_trps.svl 2023.06)
