@<TRIPOS>MOLECULE
NONAME
62 65 1 0 0 
SMALL
USER_CHARGES


@<TRIPOS>ATOM
  1 O       -0.4240    -0.8980     1.0000 O.2   1 <1>  -0.5700 
  2 C        0.6080    -0.2700     0.9320 C.2   1 <1>   0.5690 
  3 N        1.4670    -0.3960    -0.1310 N.am  1 <1>  -0.6600 
  4 C        0.9270     0.6800     2.0740 C.3   1 <1>  -0.0990 
  5 C        2.8150     0.2340    -0.1890 C.3   1 <1>   0.1400 
  6 C        1.1300    -1.2890    -1.2710 C.3   1 <1>   0.1400 
  7 C        2.4150     1.0410     2.1720 C.3   1 <1>  -0.1600 
  8 C        2.9410     1.4110     0.7830 C.3   1 <1>  -0.1600 
  9 C        1.5970    -2.7120    -0.9740 C.3   1 <1>  -0.0990 
 10 C        1.0620    -3.6600    -2.0250 C.2   1 <1>   0.5690 
 11 O        1.8290    -3.9870    -2.8990 O.2   1 <1>  -0.5700 
 12 N       -0.2330    -4.1160    -1.9840 N.am  1 <1>  -0.6600 
 13 C       -0.7570    -5.0550    -3.0150 C.3   1 <1>   0.1400 
 14 C       -1.2550    -3.7520    -0.9590 C.3   1 <1>   0.1400 
 15 C       -1.2210    -6.3430    -2.3320 C.3   1 <1>  -0.1600 
 16 C       -1.7130    -5.0230    -0.2430 C.3   1 <1>  -0.1600 
 17 C       -2.2580    -6.0700    -1.2320 C.3   1 <1>   0.4240 
 18 O       -3.3620    -5.5070    -1.9000 O.3   1 <1>  -0.5600 
 19 C       -2.6360    -7.3800    -0.5050 C.ar  1 <1>  -0.1440 
 20 C       -4.5990    -5.5560    -1.2570 C.3   1 <1>   0.1200 
 21 C       -3.9500    -7.8250    -0.4700 C.ar  1 <1>  -0.1440 
 22 C       -1.6620    -8.1350     0.1400 C.ar  1 <1>  -0.1500 
 23 C       -5.0370    -7.0130    -1.1450 C.3   1 <1>  -0.0170 
 24 C       -4.2730    -9.0040     0.1790 C.ar  1 <1>  -0.1500 
 25 C       -1.9720    -9.3190     0.8060 C.ar  1 <1>   0.0820 
 26 C       -3.3030    -9.7640     0.8080 C.ar  1 <1>   0.0820 
 27 O       -1.0140   -10.0350     1.4650 O.3   1 <1>  -0.3620 
 28 O       -3.7580   -10.9070     1.3950 O.3   1 <1>  -0.3620 
 29 C        0.2900    -9.5380     1.6710 C.3   1 <1>   0.0400 
 30 C       -2.9610   -12.0700     1.4330 C.3   1 <1>   0.0400 
 31 H        0.6010     0.2370     2.9970 H     1 <1>   0.0800 
 32 H        0.3510     1.5740     1.9180 H     1 <1>   0.0800 
 33 H        3.0080     0.5820    -1.1900 H     1 <1>   0.0800 
 34 H        3.5510    -0.5130     0.0550 H     1 <1>   0.0800 
 35 H        1.5900    -0.9300    -2.1760 H     1 <1>   0.0800 
 36 H        0.0640    -1.2770    -1.4240 H     1 <1>   0.0800 
 37 H        2.9650     0.1960     2.5520 H     1 <1>   0.0800 
 38 H        2.5470     1.8640     2.8530 H     1 <1>   0.0800 
 39 H        2.3910     2.2510     0.3950 H     1 <1>   0.0800 
 40 H        3.9750     1.7020     0.8510 H     1 <1>   0.0800 
 41 H        1.2700    -3.0280    -0.0020 H     1 <1>   0.0800 
 42 H        2.6700    -2.7460    -0.9910 H     1 <1>   0.0800 
 43 H        0.0010    -5.2860    -3.7440 H     1 <1>   0.0800 
 44 H       -1.5810    -4.5900    -3.5290 H     1 <1>   0.0800 
 45 H       -2.0930    -3.2850    -1.4480 H     1 <1>   0.0800 
 46 H       -0.8700    -3.0570    -0.2370 H     1 <1>   0.0800 
 47 H       -0.3570    -6.8280    -1.9220 H     1 <1>   0.0800 
 48 H       -1.6490    -7.0080    -3.0600 H     1 <1>   0.0800 
 49 H       -2.4580    -4.7820     0.4910 H     1 <1>   0.0800 
 50 H       -0.8720    -5.4290     0.2870 H     1 <1>   0.0800 
 51 H       -5.3010    -4.9960    -1.8500 H     1 <1>   0.0800 
 52 H       -4.5140    -5.1000    -0.2870 H     1 <1>   0.0800 
 53 H       -0.6510    -7.7830     0.1180 H     1 <1>   0.1500 
 54 H       -5.2260    -7.4070    -2.1270 H     1 <1>   0.0800 
 55 H       -5.9480    -7.0650    -0.5770 H     1 <1>   0.0800 
 56 H       -5.2890    -9.3520     0.2010 H     1 <1>   0.1500 
 57 H        0.8220   -10.2430     2.2840 H     1 <1>   0.0800 
 58 H        0.2270    -8.5900     2.1750 H     1 <1>   0.0800 
 59 H        0.7810    -9.4400     0.7190 H     1 <1>   0.0800 
 60 H       -3.6080   -12.9160     1.5720 H     1 <1>   0.0800 
 61 H       -2.2780   -11.9950     2.2590 H     1 <1>   0.0800 
 62 H       -2.4270   -12.1610     0.5030 H     1 <1>   0.0800 
@<TRIPOS>BOND
  1   1   2  2   
  2   2   3  am  
  3   2   4  1   
  4   3   5  1   
  5   3   6  1   
  6   4   7  1   
  7   4  31  1   
  8   4  32  1   
  9   5   8  1   
 10   5  33  1   
 11   5  34  1   
 12   6   9  1   
 13   6  35  1   
 14   6  36  1   
 15   7   8  1   
 16   7  37  1   
 17   7  38  1   
 18   8  39  1   
 19   8  40  1   
 20   9  10  1   
 21   9  41  1   
 22   9  42  1   
 23  10  11  2   
 24  10  12  am  
 25  12  13  1   
 26  12  14  1   
 27  13  15  1   
 28  13  43  1   
 29  13  44  1   
 30  14  16  1   
 31  14  45  1   
 32  14  46  1   
 33  15  17  1   
 34  15  47  1   
 35  15  48  1   
 36  16  17  1   
 37  16  49  1   
 38  16  50  1   
 39  17  18  1   
 40  17  19  1   
 41  18  20  1   
 42  19  21  ar  
 43  19  22  ar  
 44  20  23  1   
 45  20  51  1   
 46  20  52  1   
 47  21  23  1   
 48  21  24  ar  
 49  22  25  ar  
 50  22  53  1   
 51  23  54  1   
 52  23  55  1   
 53  24  26  ar  
 54  24  56  1   
 55  25  26  ar  
 56  25  27  1   
 57  26  28  1   
 58  27  29  1   
 59  28  30  1   
 60  29  57  1   
 61  29  58  1   
 62  29  59  1   
 63  30  60  1   
 64  30  61  1   
 65  30  62  1   
@<TRIPOS>SUBSTRUCTURE
  1 ****  16 GROUP 4 **** **** 0

# MOE 2024.06 (io_trps.svl 2023.06)
