@<TRIPOS>MOLECULE
NONAME
49 52 1 0 0 
SMALL
USER_CHARGES


@<TRIPOS>ATOM
  1 O        3.8940    -1.6220     0.6460 O.2   1 <1>  -0.5700 
  2 C        2.7040    -1.4090     0.4850 C.2   1 <1>   0.5440 
  3 N        2.3760    -0.1720    -0.0080 N.am  1 <1>  -0.6600 
  4 C        1.7090    -2.3670     0.9100 C.ar  1 <1>   0.0860 
  5 C        2.9760     0.3190    -1.2880 C.3   1 <1>   0.1400 
  6 C        1.7320     0.8470     0.8490 C.3   1 <1>   0.1400 
  7 C        0.6640    -2.7680     0.0380 C.ar  1 <1>   0.3100 
  8 C        1.7770    -2.9040     2.1810 C.ar  1 <1>  -0.1500 
  9 C        4.4230     0.8270    -1.1140 C.3   1 <1>   0.3430 
 10 C        2.7860     1.5190     1.7410 C.3   1 <1>  -0.1600 
 11 N        0.6050    -2.2920    -1.2420 N.ar  1 <1>  -0.6200 
 12 C       -0.3090    -3.6860     0.5170 C.ar  1 <1>   0.3100 
 13 C        0.8260    -3.8110     2.6430 C.ar  1 <1>  -0.1500 
 14 N        4.7730     1.0430     0.3260 N.4   1 <1>  -0.9590 
 15 C        3.9870     2.1150     0.9960 C.3   1 <1>   0.3430 
 16 C       -0.3970    -2.7320    -1.9380 C.ar  1 <1>   0.1600 
 17 N       -1.3510    -4.1110    -0.2440 N.ar  1 <1>  -0.6200 
 18 C       -0.2010    -4.1870     1.8210 C.ar  1 <1>  -0.1500 
 19 C        6.2440     1.1470     0.5430 C.3   1 <1>   0.5230 
 20 C       -1.3640    -3.6280    -1.4440 C.ar  1 <1>   0.1600 
 21 C        6.8580     2.4040    -0.0570 C.2   1 <1>  -0.0400 
 22 O        8.1620     2.5350     0.0860 O.3   1 <1>  -0.2800 
 23 C        6.3600     3.4690    -0.7300 C.2   1 <1>  -0.1500 
 24 C        8.5270     3.6640    -0.4830 C.2   1 <1>  -0.0400 
 25 C        7.4560     4.2930    -1.0090 C.2   1 <1>  -0.1500 
 26 C        9.9890     4.0530    -0.4580 C.3   1 <1>  -0.0600 
 27 H        2.3640     1.1050    -1.6940 H     1 <1>   0.0800 
 28 H        2.9720    -0.4840    -2.0060 H     1 <1>   0.0800 
 29 H        0.9830     0.3750     1.4640 H     1 <1>   0.0800 
 30 H        1.2350     1.5780     0.2330 H     1 <1>   0.0800 
 31 H        2.5820    -2.6230     2.8390 H     1 <1>   0.1500 
 32 H        4.5670     1.7290    -1.6830 H     1 <1>   0.0800 
 33 H        5.0820     0.0780    -1.5230 H     1 <1>   0.0800 
 34 H        3.1330     0.8170     2.4790 H     1 <1>   0.0800 
 35 H        2.3000     2.3140     2.2790 H     1 <1>   0.0800 
 36 H        0.9060    -4.2090     3.6420 H     1 <1>   0.1500 
 37 H        4.4700     0.1410     0.7540 H     1 <1>   0.4500 
 38 H        4.6140     2.6270     1.7090 H     1 <1>   0.0800 
 39 H        3.6510     2.8370     0.2710 H     1 <1>   0.0800 
 40 H       -0.5050    -2.3980    -2.9550 H     1 <1>   0.1500 
 41 H       -0.9500    -4.8830     2.1540 H     1 <1>   0.1500 
 42 H        6.7310     0.2880     0.1100 H     1 <1>   0.0800 
 43 H        6.4520     1.1370     1.6000 H     1 <1>   0.0800 
 44 H       -2.1570    -3.9240    -2.1080 H     1 <1>   0.1500 
 45 H        5.3530     3.7020    -1.0250 H     1 <1>   0.1500 
 46 H        7.4220     5.2310    -1.5360 H     1 <1>   0.1500 
 47 H       10.5740     3.3000    -0.9540 H     1 <1>   0.0800 
 48 H       10.3250     4.1410     0.5590 H     1 <1>   0.0800 
 49 H       10.1340     4.9930    -0.9570 H     1 <1>   0.0800 
@<TRIPOS>BOND
  1   1   2  2   
  2   2   3  am  
  3   2   4  1   
  4   3   5  1   
  5   3   6  1   
  6   4   7  ar  
  7   4   8  ar  
  8   5   9  1   
  9   5  27  1   
 10   5  28  1   
 11   6  10  1   
 12   6  29  1   
 13   6  30  1   
 14   7  11  ar  
 15   7  12  ar  
 16   8  13  ar  
 17   8  31  1   
 18   9  14  1   
 19   9  32  1   
 20   9  33  1   
 21  10  15  1   
 22  10  34  1   
 23  10  35  1   
 24  11  16  ar  
 25  12  17  ar  
 26  12  18  ar  
 27  13  18  ar  
 28  13  36  1   
 29  14  15  1   
 30  14  19  1   
 31  14  37  1   
 32  15  38  1   
 33  15  39  1   
 34  16  20  ar  
 35  16  40  1   
 36  17  20  ar  
 37  18  41  1   
 38  19  21  1   
 39  19  42  1   
 40  19  43  1   
 41  20  44  1   
 42  21  22  1   
 43  21  23  2   
 44  22  24  1   
 45  23  25  1   
 46  23  45  1   
 47  24  25  2   
 48  24  26  1   
 49  25  46  1   
 50  26  47  1   
 51  26  48  1   
 52  26  49  1   
@<TRIPOS>SUBSTRUCTURE
  1 ****   3 GROUP 4 **** **** 0

# MOE 2024.06 (io_trps.svl 2023.06)
