@<TRIPOS>MOLECULE
NONAME
54 56 1 0 0 
SMALL
USER_CHARGES


@<TRIPOS>ATOM
  1 O       -1.1320    -0.4430    -1.2200 O.2   1 <1>  -0.5700 
  2 C       -1.3020     0.2280    -0.2200 C.2   1 <1>   0.7160 
  3 N       -1.5780    -0.4010     0.9550 N.am  1 <1>  -0.7300 
  4 C       -1.3350     1.6460    -0.2560 C.2   1 <1>  -0.0860 
  5 C       -2.0690    -1.7940     1.0500 C.3   1 <1>   0.1400 
  6 C       -2.5240     2.3680    -0.1800 C.2   1 <1>   0.3720 
  7 C       -0.3750     2.6040    -0.3030 C.2   1 <1>   0.0870 
  8 C       -3.4240    -1.9510     0.3310 C.3   1 <1>   0.2000 
  9 N       -2.2960     3.6330    -0.1520 N.2   1 <1>  -0.4100 
 10 N       -3.7970     1.7780    -0.1730 N.pl3 1 <1>  -0.8210 
 11 O       -0.9960     3.7560    -0.2300 O.3   1 <1>  -0.0190 
 12 C        1.0630     2.5440    -0.3850 C.ar  1 <1>   0.0530 
 13 O       -4.3170    -0.9540     0.7520 O.3   1 <1>  -0.6800 
 14 C       -4.0550    -3.3340     0.5970 C.3   1 <1>   0.3430 
 15 C       -4.3160     1.6520    -1.5730 C.3   1 <1>   0.2090 
 16 C       -4.8050     2.5360     0.6430 C.3   1 <1>   0.2090 
 17 C        1.7220     1.4810    -1.0040 C.ar  1 <1>  -0.1500 
 18 C        1.8530     3.5590     0.1570 C.ar  1 <1>  -0.1500 
 19 N       -5.5340    -3.2950     0.3540 N.4   1 <1>  -0.9590 
 20 C       -5.7300     1.0430    -1.6000 C.3   1 <1>   0.1200 
 21 C       -6.1980     1.8880     0.5530 C.3   1 <1>   0.1200 
 22 C        3.1020     1.4260    -1.0670 C.ar  1 <1>  -0.1500 
 23 C        3.2340     3.5110     0.0960 C.ar  1 <1>  -0.1500 
 24 C       -6.2710    -4.3060     1.1690 C.3   1 <1>   0.2630 
 25 C       -5.8790    -3.3900    -1.0960 C.3   1 <1>   0.2630 
 26 O       -6.6110     1.7570    -0.7800 O.3   1 <1>  -0.5600 
 27 C        3.8620     2.4410    -0.5160 C.ar  1 <1>  -0.1500 
 28 H       -1.7690     0.1970     1.7640 H     1 <1>   0.3700 
 29 H       -2.1650    -2.0640     2.0880 H     1 <1>   0.0800 
 30 H       -1.3430    -2.4510     0.6000 H     1 <1>   0.0800 
 31 H       -3.2780    -1.8310    -0.7290 H     1 <1>   0.0800 
 32 H       -3.9680    -0.0530     0.5020 H     1 <1>   0.4000 
 33 H       -3.8740    -3.5870     1.6290 H     1 <1>   0.0800 
 34 H       -3.5840    -4.0850    -0.0150 H     1 <1>   0.0800 
 35 H       -3.6500     1.0320    -2.1490 H     1 <1>   0.0800 
 36 H       -4.3450     2.6240    -2.0380 H     1 <1>   0.0800 
 37 H       -4.8750     3.5540     0.2940 H     1 <1>   0.0800 
 38 H       -4.4870     2.5620     1.6710 H     1 <1>   0.0800 
 39 H        1.1540     0.6860    -1.4520 H     1 <1>   0.1500 
 40 H        1.3790     4.3970     0.6370 H     1 <1>   0.1500 
 41 H       -5.7920    -2.3390     0.6780 H     1 <1>   0.4500 
 42 H       -5.7090     0.0210    -1.2680 H     1 <1>   0.0800 
 43 H       -6.1220     1.0730    -2.6010 H     1 <1>   0.0800 
 44 H       -6.9220     2.5020     1.0580 H     1 <1>   0.0800 
 45 H       -6.1950     0.9150     1.0100 H     1 <1>   0.0800 
 46 H        3.5860     0.5940    -1.5490 H     1 <1>   0.1500 
 47 H        3.8210     4.3050     0.5230 H     1 <1>   0.1500 
 48 H       -5.9880    -5.3040     0.8760 H     1 <1>   0.0800 
 49 H       -7.3340    -4.1940     1.0290 H     1 <1>   0.0800 
 50 H       -6.0500    -4.1760     2.2160 H     1 <1>   0.0800 
 51 H       -5.5830    -4.3490    -1.4910 H     1 <1>   0.0800 
 52 H       -5.3750    -2.6160    -1.6510 H     1 <1>   0.0800 
 53 H       -6.9420    -3.2720    -1.2340 H     1 <1>   0.0800 
 54 H        4.9360     2.4000    -0.5650 H     1 <1>   0.1500 
@<TRIPOS>BOND
  1   1   2  2   
  2   2   3  am  
  3   2   4  1   
  4   3   5  1   
  5   3  28  1   
  6   4   6  1   
  7   4   7  2   
  8   5   8  1   
  9   5  29  1   
 10   5  30  1   
 11   6   9  2   
 12   6  10  1   
 13   7  11  1   
 14   7  12  1   
 15   8  13  1   
 16   8  14  1   
 17   8  31  1   
 18   9  11  1   
 19  10  15  1   
 20  10  16  1   
 21  12  17  ar  
 22  12  18  ar  
 23  13  32  1   
 24  14  19  1   
 25  14  33  1   
 26  14  34  1   
 27  15  20  1   
 28  15  35  1   
 29  15  36  1   
 30  16  21  1   
 31  16  37  1   
 32  16  38  1   
 33  17  22  ar  
 34  17  39  1   
 35  18  23  ar  
 36  18  40  1   
 37  19  24  1   
 38  19  25  1   
 39  19  41  1   
 40  20  26  1   
 41  20  42  1   
 42  20  43  1   
 43  21  26  1   
 44  21  44  1   
 45  21  45  1   
 46  22  27  ar  
 47  22  46  1   
 48  23  27  ar  
 49  23  47  1   
 50  24  48  1   
 51  24  49  1   
 52  24  50  1   
 53  25  51  1   
 54  25  52  1   
 55  25  53  1   
 56  27  54  1   
@<TRIPOS>SUBSTRUCTURE
  1 ****   2 GROUP 4 **** **** 0

# MOE 2024.06 (io_trps.svl 2023.06)
