@<TRIPOS>MOLECULE
NONAME
51 53 1 0 0 
SMALL
USER_CHARGES


@<TRIPOS>ATOM
  1 F        1.3620    -1.3490     1.9940 F     1 <1>  -0.1900 
  2 C        0.9390    -2.2080     1.1080 C.ar  1 <1>   0.1900 
  3 C        1.1060    -3.5550     1.3560 C.ar  1 <1>  -0.1500 
  4 C        0.3410    -1.7330    -0.0430 C.ar  1 <1>  -0.1500 
  5 C        0.6500    -4.4640     0.4080 C.ar  1 <1>   0.0830 
  6 C       -0.1110    -2.6430    -0.9840 C.ar  1 <1>  -0.1500 
  7 O        0.7640    -5.8060     0.5720 O.3   1 <1>  -0.3630 
  8 C        0.0400    -4.0070    -0.7620 C.ar  1 <1>  -0.1440 
  9 C        0.9370    -6.3800     1.8530 C.3   1 <1>   0.0400 
 10 C       -0.4700    -5.0070    -1.7870 C.3   1 <1>   0.4870 
 11 N       -1.4640    -5.8860    -1.1360 N.4   1 <1>  -0.9590 
 12 C       -1.7930    -7.1380    -1.8780 C.3   1 <1>   0.3430 
 13 C       -2.6710    -5.1960    -0.6040 C.3   1 <1>   0.3430 
 14 C       -2.4560    -8.1200    -0.8960 C.3   1 <1>   0.2000 
 15 C       -3.3760    -6.1360     0.3700 C.3   1 <1>  -0.1600 
 16 O       -1.5100    -8.3540     0.1000 O.3   1 <1>  -0.6800 
 17 C       -3.7380    -7.5160    -0.2650 C.3   1 <1>  -0.1060 
 18 C       -4.1710    -8.5020     0.8320 C.2   1 <1>   0.9060 
 19 C       -4.8400    -7.3640    -1.3730 C.3   1 <1>  -0.0170 
 20 O       -5.1660    -9.2120     0.6880 O.co2 1 <1>  -0.9000 
 21 O       -3.4210    -8.6290     1.8100 O.co2 1 <1>  -0.9000 
 22 C       -5.8870    -6.2840    -1.1100 C.ar  1 <1>  -0.1430 
 23 C       -5.9450    -5.1450    -1.9020 C.ar  1 <1>  -0.1500 
 24 C       -6.7980    -6.4340    -0.0760 C.ar  1 <1>  -0.1500 
 25 C       -6.8870    -4.1620    -1.6490 C.ar  1 <1>  -0.1500 
 26 C       -7.7400    -5.4520     0.1780 C.ar  1 <1>  -0.1500 
 27 C       -7.7830    -4.3140    -0.6060 C.ar  1 <1>  -0.1500 
 28 H        1.5840    -3.8630     2.2660 H     1 <1>   0.1500 
 29 H        0.2360    -0.6720    -0.1930 H     1 <1>   0.1500 
 30 H       -0.5770    -2.2760    -1.8830 H     1 <1>   0.1500 
 31 H        0.8260    -7.4470     1.7590 H     1 <1>   0.0800 
 32 H        0.1830    -5.9970     2.5180 H     1 <1>   0.0800 
 33 H        1.9230    -6.1480     2.2140 H     1 <1>   0.0800 
 34 H        0.3600    -5.5970    -2.1390 H     1 <1>   0.0800 
 35 H       -0.9150    -4.4960    -2.6240 H     1 <1>   0.0800 
 36 H       -0.9720    -6.2520    -0.2940 H     1 <1>   0.4500 
 37 H       -2.4450    -6.9250    -2.7050 H     1 <1>   0.0800 
 38 H       -0.8940    -7.5940    -2.2570 H     1 <1>   0.0800 
 39 H       -2.3870    -4.2970    -0.0810 H     1 <1>   0.0800 
 40 H       -3.3380    -4.9320    -1.4080 H     1 <1>   0.0800 
 41 H       -2.6770    -9.0630    -1.3690 H     1 <1>   0.0800 
 42 H       -2.7250    -6.2810     1.2160 H     1 <1>   0.0800 
 43 H       -4.2530    -5.6570     0.7650 H     1 <1>   0.0800 
 44 H       -2.0240    -8.6240     0.9280 H     1 <1>   0.4000 
 45 H       -4.3940    -7.1410    -2.3210 H     1 <1>   0.0800 
 46 H       -5.3510    -8.3010    -1.5220 H     1 <1>   0.0800 
 47 H       -5.2670    -5.0150    -2.7240 H     1 <1>   0.1500 
 48 H       -6.7780    -7.3200     0.5390 H     1 <1>   0.1500 
 49 H       -6.9290    -3.2810    -2.2650 H     1 <1>   0.1500 
 50 H       -8.4370    -5.5820     0.9880 H     1 <1>   0.1500 
 51 H       -8.5170    -3.5520    -0.4070 H     1 <1>   0.1500 
@<TRIPOS>BOND
  1   1   2  1   
  2   2   3  ar  
  3   2   4  ar  
  4   3   5  ar  
  5   3  28  1   
  6   4   6  ar  
  7   4  29  1   
  8   5   7  1   
  9   5   8  ar  
 10   6   8  ar  
 11   6  30  1   
 12   7   9  1   
 13   8  10  1   
 14   9  31  1   
 15   9  32  1   
 16   9  33  1   
 17  10  11  1   
 18  10  34  1   
 19  10  35  1   
 20  11  12  1   
 21  11  13  1   
 22  11  36  1   
 23  12  14  1   
 24  12  37  1   
 25  12  38  1   
 26  13  15  1   
 27  13  39  1   
 28  13  40  1   
 29  14  16  1   
 30  14  17  1   
 31  14  41  1   
 32  15  17  1   
 33  15  42  1   
 34  15  43  1   
 35  16  44  1   
 36  17  18  1   
 37  17  19  1   
 38  18  20  ar  
 39  18  21  ar  
 40  19  22  1   
 41  19  45  1   
 42  19  46  1   
 43  22  23  ar  
 44  22  24  ar  
 45  23  25  ar  
 46  23  47  1   
 47  24  26  ar  
 48  24  48  1   
 49  25  27  ar  
 50  25  49  1   
 51  26  27  ar  
 52  26  50  1   
 53  27  51  1   
@<TRIPOS>SUBSTRUCTURE
  1 ****  13 GROUP 4 **** **** 0

# MOE 2024.06 (io_trps.svl 2023.06)
