@<TRIPOS>MOLECULE
NONAME
42 44 1 0 0 
SMALL
USER_CHARGES


@<TRIPOS>ATOM
  1 O        1.2180    -1.1590     1.2380 O.3   1 <1>  -0.5600 
  2 C        0.1250    -2.0190     1.3700 C.3   1 <1>   0.1200 
  3 C        1.4020    -0.5990    -0.0190 C.3   1 <1>   0.1200 
  4 C        0.4660    -3.4220     0.8330 C.3   1 <1>   0.1900 
  5 C        1.7970    -1.6590    -1.0600 C.3   1 <1>  -0.0800 
  6 N        0.2120    -3.6070    -0.6390 N.3   1 <1>  -0.8100 
  7 C        1.9340    -3.7860     1.1650 C.3   1 <1>   0.3430 
  8 C        0.5720    -2.4800    -1.5220 C.3   1 <1>   0.1100 
  9 C        3.0490    -2.4580    -0.6320 C.3   1 <1>   0.3430 
 10 C       -1.1290    -4.1430    -0.9430 C.3   1 <1>   0.2530 
 11 N        2.7580    -3.8180    -0.0850 N.4   1 <1>  -0.9590 
 12 C       -1.2680    -5.5410    -0.3580 C.ar  1 <1>  -0.1440 
 13 C        3.9720    -4.6680     0.0540 C.3   1 <1>   0.2630 
 14 C       -2.1940    -5.8030     0.6420 C.ar  1 <1>  -0.1500 
 15 C       -0.4550    -6.5680    -0.8190 C.ar  1 <1>  -0.1500 
 16 C       -2.2890    -7.0770     1.1780 C.ar  1 <1>   0.0820 
 17 C       -0.5540    -7.8410    -0.2820 C.ar  1 <1>  -0.1500 
 18 O       -3.1770    -7.3410     2.1460 O.3   1 <1>  -0.5330 
 19 C       -1.4710    -8.0950     0.7220 C.ar  1 <1>  -0.1500 
 20 H       -0.0780    -2.0880     2.4240 H     1 <1>   0.0800 
 21 H       -0.7420    -1.6000     0.8880 H     1 <1>   0.0800 
 22 H        0.5020    -0.0780    -0.3020 H     1 <1>   0.0800 
 23 H        2.1890     0.1300     0.0780 H     1 <1>   0.0800 
 24 H       -0.1480    -4.1110     1.3850 H     1 <1>   0.0800 
 25 H        2.0960    -1.0830    -1.9170 H     1 <1>   0.0800 
 26 H        1.9350    -4.7630     1.6190 H     1 <1>   0.0800 
 27 H        2.3430    -3.0900     1.8780 H     1 <1>   0.0800 
 28 H        0.7720    -2.8790    -2.5030 H     1 <1>   0.0800 
 29 H       -0.2730    -1.8170    -1.6180 H     1 <1>   0.0800 
 30 H        3.6020    -1.8860     0.0950 H     1 <1>   0.0800 
 31 H        3.6770    -2.5730    -1.5000 H     1 <1>   0.0800 
 32 H       -1.8880    -3.4880    -0.5500 H     1 <1>   0.0800 
 33 H       -1.2620    -4.2080    -2.0100 H     1 <1>   0.0800 
 34 H        2.0780    -4.2340    -0.7530 H     1 <1>   0.4500 
 35 H        4.6460    -4.2390     0.7780 H     1 <1>   0.0800 
 36 H        4.4820    -4.7470    -0.8920 H     1 <1>   0.0800 
 37 H        3.6980    -5.6580     0.3800 H     1 <1>   0.0800 
 38 H       -2.8380    -5.0230     1.0040 H     1 <1>   0.1500 
 39 H        0.2570    -6.3780    -1.6020 H     1 <1>   0.1500 
 40 H        0.0760    -8.6340    -0.6450 H     1 <1>   0.1500 
 41 H       -3.7650    -6.5950     2.3540 H     1 <1>   0.4500 
 42 H       -1.5610    -9.0780     1.1500 H     1 <1>   0.1500 
@<TRIPOS>BOND
  1   1   2  1   
  2   1   3  1   
  3   2   4  1   
  4   2  20  1   
  5   2  21  1   
  6   3   5  1   
  7   3  22  1   
  8   3  23  1   
  9   4   6  1   
 10   4   7  1   
 11   4  24  1   
 12   5   8  1   
 13   5   9  1   
 14   5  25  1   
 15   6   8  1   
 16   6  10  1   
 17   7  11  1   
 18   7  26  1   
 19   7  27  1   
 20   8  28  1   
 21   8  29  1   
 22   9  11  1   
 23   9  30  1   
 24   9  31  1   
 25  10  12  1   
 26  10  32  1   
 27  10  33  1   
 28  11  13  1   
 29  11  34  1   
 30  12  14  ar  
 31  12  15  ar  
 32  13  35  1   
 33  13  36  1   
 34  13  37  1   
 35  14  16  ar  
 36  14  38  1   
 37  15  17  ar  
 38  15  39  1   
 39  16  18  1   
 40  16  19  ar  
 41  17  19  ar  
 42  17  40  1   
 43  18  41  1   
 44  19  42  1   
@<TRIPOS>SUBSTRUCTURE
  1 ****   6 GROUP 4 **** **** 0

# MOE 2024.06 (io_trps.svl 2023.06)
