@<TRIPOS>MOLECULE
NONAME
60 62 1 0 0 
SMALL
USER_CHARGES


@<TRIPOS>ATOM
  1 O       -0.2910    -0.0580    -0.4400 O.2   1 <1>  -0.5700 
  2 C       -0.2020     1.0540    -0.9180 C.2   1 <1>   0.5440 
  3 N        0.6160     1.1700    -1.9870 N.am  1 <1>  -0.8000 
  4 C       -0.9470     2.1750    -0.3870 C.ar  1 <1>   0.0860 
  5 C       -0.4910     3.5090    -0.4400 C.ar  1 <1>   0.4100 
  6 C       -2.1860     1.9480     0.1950 C.ar  1 <1>  -0.1500 
  7 N       -1.2120     4.5450    -0.0120 N.ar  1 <1>  -0.6200 
  8 N        0.7720     3.8490    -0.9150 N.pl3 1 <1>  -0.8380 
  9 C       -2.9230     3.0160     0.6550 C.ar  1 <1>  -0.1430 
 10 C       -2.3930     4.2940     0.5140 C.ar  1 <1>   0.1670 
 11 C        0.9670     5.0630    -1.7410 C.3   1 <1>   0.2090 
 12 C        1.9540     3.4550    -0.1160 C.3   1 <1>   0.2090 
 13 C       -4.2820     2.7560     1.2930 C.3   1 <1>  -0.0970 
 14 C       -3.1650     5.5140     0.9800 C.3   1 <1>  -0.0970 
 15 C        1.3890     6.2440    -0.8580 C.3   1 <1>  -0.1600 
 16 C        2.3390     4.6080     0.8120 C.3   1 <1>  -0.1600 
 17 C        2.5940     5.9400     0.0650 C.3   1 <1>  -0.0800 
 18 C        2.8720     7.0820     1.0880 C.3   1 <1>   0.4230 
 19 N        3.0240     8.4350     0.4900 N.4   1 <1>  -0.9590 
 20 C        4.1390     6.8430     1.9120 C.3   1 <1>  -0.2400 
 21 C        1.7460     9.2030     0.3180 C.3   1 <1>   0.3430 
 22 C        3.9190     8.5650    -0.7090 C.3   1 <1>   0.3430 
 23 C        2.0380    10.6830    -0.0310 C.3   1 <1>   0.1100 
 24 C        4.1540    10.0550    -1.0610 C.3   1 <1>   0.1100 
 25 N        3.4910    10.9680    -0.1010 N.3   1 <1>  -0.8100 
 26 C        3.7440    12.3760    -0.4390 C.3   1 <1>   0.0300 
 27 H        1.1520     0.3650    -2.3090 H     1 <1>   0.3700 
 28 H        0.8870     2.1010    -2.3150 H     1 <1>   0.3700 
 29 H       -2.5570     0.9400     0.2730 H     1 <1>   0.1500 
 30 H        0.0490     5.3000    -2.2550 H     1 <1>   0.0800 
 31 H        1.7220     4.8650    -2.4820 H     1 <1>   0.0800 
 32 H        2.7690     3.2150    -0.7770 H     1 <1>   0.0800 
 33 H        1.7290     2.5800     0.4710 H     1 <1>   0.0800 
 34 H       -4.4390     1.7030     1.4470 H     1 <1>   0.0800 
 35 H       -5.0650     3.1240     0.6550 H     1 <1>   0.0800 
 36 H       -4.3470     3.2450     2.2480 H     1 <1>   0.0800 
 37 H       -2.7540     6.4050     0.5400 H     1 <1>   0.0800 
 38 H       -3.0990     5.5960     2.0490 H     1 <1>   0.0800 
 39 H       -4.1960     5.4450     0.6890 H     1 <1>   0.0800 
 40 H        0.5400     6.5240    -0.2590 H     1 <1>   0.0800 
 41 H        1.6110     7.0610    -1.5150 H     1 <1>   0.0800 
 42 H        3.2160     4.2990     1.3500 H     1 <1>   0.0800 
 43 H        1.5430     4.7350     1.5260 H     1 <1>   0.0800 
 44 H        3.4650     5.7990    -0.5500 H     1 <1>   0.0800 
 45 H        2.0400     7.1120     1.7760 H     1 <1>   0.0800 
 46 H        3.5180     9.0220     1.1800 H     1 <1>   0.4500 
 47 H        4.9870     6.6600     1.2770 H     1 <1>   0.0800 
 48 H        4.0130     5.9930     2.5560 H     1 <1>   0.0800 
 49 H        4.3450     7.6860     2.5470 H     1 <1>   0.0800 
 50 H        1.1730     9.1670     1.2290 H     1 <1>   0.0800 
 51 H        1.1450     8.7700    -0.4620 H     1 <1>   0.0800 
 52 H        3.4860     8.0630    -1.5570 H     1 <1>   0.0800 
 53 H        4.8710     8.1040    -0.5060 H     1 <1>   0.0800 
 54 H        1.5890    11.3120     0.7200 H     1 <1>   0.0800 
 55 H        1.5720    10.9220    -0.9720 H     1 <1>   0.0800 
 56 H        3.7900    10.2440    -2.0580 H     1 <1>   0.0800 
 57 H        5.2140    10.2470    -1.0640 H     1 <1>   0.0800 
 58 H        3.2890    13.0190     0.2950 H     1 <1>   0.0800 
 59 H        3.3430    12.6140    -1.4100 H     1 <1>   0.0800 
 60 H        4.8040    12.5690    -0.4420 H     1 <1>   0.0800 
@<TRIPOS>BOND
  1   1   2  2   
  2   2   3  am  
  3   2   4  1   
  4   3  27  1   
  5   3  28  1   
  6   4   5  ar  
  7   4   6  ar  
  8   5   7  ar  
  9   5   8  1   
 10   6   9  ar  
 11   6  29  1   
 12   7  10  ar  
 13   8  11  1   
 14   8  12  1   
 15   9  10  ar  
 16   9  13  1   
 17  10  14  1   
 18  11  15  1   
 19  11  30  1   
 20  11  31  1   
 21  12  16  1   
 22  12  32  1   
 23  12  33  1   
 24  13  34  1   
 25  13  35  1   
 26  13  36  1   
 27  14  37  1   
 28  14  38  1   
 29  14  39  1   
 30  15  17  1   
 31  15  40  1   
 32  15  41  1   
 33  16  17  1   
 34  16  42  1   
 35  16  43  1   
 36  17  18  1   
 37  17  44  1   
 38  18  19  1   
 39  18  20  1   
 40  18  45  1   
 41  19  21  1   
 42  19  22  1   
 43  19  46  1   
 44  20  47  1   
 45  20  48  1   
 46  20  49  1   
 47  21  23  1   
 48  21  50  1   
 49  21  51  1   
 50  22  24  1   
 51  22  52  1   
 52  22  53  1   
 53  23  25  1   
 54  23  54  1   
 55  23  55  1   
 56  24  25  1   
 57  24  56  1   
 58  24  57  1   
 59  25  26  1   
 60  26  58  1   
 61  26  59  1   
 62  26  60  1   
@<TRIPOS>SUBSTRUCTURE
  1 ****  15 GROUP 4 **** **** 0

# MOE 2024.06 (io_trps.svl 2023.06)
