@<TRIPOS>MOLECULE
NONAME
38 39 1 0 0 
SMALL
USER_CHARGES


@<TRIPOS>ATOM
  1 CL      -3.5130    -1.9090     3.2050 Cl    1 <1>  -0.1770 
  2 C       -3.2220    -2.0140     1.4860 C.ar  1 <1>   0.1770 
  3 C       -2.7620    -0.9110     0.7820 C.ar  1 <1>  -0.1440 
  4 C       -3.4680    -3.2210     0.8580 C.ar  1 <1>  -0.1500 
  5 C       -2.5460    -1.0400    -0.5810 C.ar  1 <1>  -0.1500 
  6 C       -2.4920     0.4130     1.4830 C.3   1 <1>  -0.0960 
  7 C       -3.2600    -3.3400    -0.5090 C.ar  1 <1>  -0.1430 
  8 C       -2.7910    -2.2440    -1.2210 C.ar  1 <1>  -0.1500 
  9 C       -3.5530    -4.6540    -1.2080 C.3   1 <1>   0.4870 
 10 N       -5.0240    -4.8500    -1.2410 N.4   1 <1>  -0.9590 
 11 C       -5.3880    -6.2440    -1.6170 C.3   1 <1>   0.5230 
 12 C       -5.7780    -3.7840    -1.9790 C.3   1 <1>   0.3430 
 13 C       -5.2260    -7.1230    -0.3800 C.2   1 <1>   0.0070 
 14 C       -7.1950    -3.5560    -1.4140 C.3   1 <1>   0.1200 
 15 N       -4.7780    -6.6910     0.7610 N.2   1 <1>  -0.5650 
 16 N       -5.5520    -8.4380    -0.3640 N.pl3 1 <1>   0.0330 
 17 O       -7.9120    -4.7490    -1.3700 O.3   1 <1>  -0.6800 
 18 C       -4.8100    -7.7770     1.5570 C.2   1 <1>   0.0770 
 19 C       -5.2790    -8.8500     0.8860 C.2   1 <1>  -0.3020 
 20 H       -3.8160    -4.0510     1.4500 H     1 <1>   0.1500 
 21 H       -2.1810    -0.2010    -1.1500 H     1 <1>   0.1500 
 22 H       -1.7410     0.2790     2.2430 H     1 <1>   0.0800 
 23 H       -3.3910     0.7750     1.9480 H     1 <1>   0.0800 
 24 H       -2.1440     1.1560     0.7890 H     1 <1>   0.0800 
 25 H       -2.6070    -2.3120    -2.2810 H     1 <1>   0.1500 
 26 H       -3.0860    -5.4550    -0.6570 H     1 <1>   0.0800 
 27 H       -3.1510    -4.6410    -2.2080 H     1 <1>   0.0800 
 28 H       -5.3090    -4.8230    -0.2470 H     1 <1>   0.4500 
 29 H       -4.7570    -6.5960    -2.4150 H     1 <1>   0.0800 
 30 H       -6.4120    -6.2920    -1.9430 H     1 <1>   0.0800 
 31 H       -5.8460    -4.0360    -3.0240 H     1 <1>   0.0800 
 32 H       -5.2470    -2.8500    -1.9040 H     1 <1>   0.0800 
 33 H       -7.7340    -2.8620    -2.0380 H     1 <1>   0.0800 
 34 H       -7.1390    -3.1560    -0.4160 H     1 <1>   0.0800 
 35 H       -5.9360    -9.0160    -1.1200 H     1 <1>   0.2700 
 36 H       -8.8150    -4.6000    -1.0120 H     1 <1>   0.4000 
 37 H       -4.4920    -7.7330     2.5880 H     1 <1>   0.1500 
 38 H       -5.4300    -9.8600     1.2280 H     1 <1>   0.1500 
@<TRIPOS>BOND
  1   1   2  1   
  2   2   3  ar  
  3   2   4  ar  
  4   3   5  ar  
  5   3   6  1   
  6   4   7  ar  
  7   4  20  1   
  8   5   8  ar  
  9   5  21  1   
 10   6  22  1   
 11   6  23  1   
 12   6  24  1   
 13   7   8  ar  
 14   7   9  1   
 15   8  25  1   
 16   9  10  1   
 17   9  26  1   
 18   9  27  1   
 19  10  11  1   
 20  10  12  1   
 21  10  28  1   
 22  11  13  1   
 23  11  29  1   
 24  11  30  1   
 25  12  14  1   
 26  12  31  1   
 27  12  32  1   
 28  13  15  2   
 29  13  16  1   
 30  14  17  1   
 31  14  33  1   
 32  14  34  1   
 33  15  18  1   
 34  16  19  1   
 35  16  35  1   
 36  17  36  1   
 37  18  19  2   
 38  18  37  1   
 39  19  38  1   
@<TRIPOS>SUBSTRUCTURE
  1 ****  10 GROUP 4 **** **** 0

# MOE 2024.06 (io_trps.svl 2023.06)
