@<TRIPOS>MOLECULE
NONAME
45 47 1 0 0 
SMALL
USER_CHARGES


@<TRIPOS>ATOM
  1 O        0.5840     0.8980     1.9130 O.2   1 <1>  -0.5700 
  2 C        0.6160     1.7190     1.0320 C.2   1 <1>   0.4230 
  3 C        1.8080     2.4580     0.6910 C.ar  1 <1>   0.0860 
  4 C       -0.6810     1.9480     0.2800 C.3   1 <1>  -0.1790 
  5 C        1.8560     3.4000    -0.3410 C.ar  1 <1>   0.1600 
  6 C        2.9970     2.2640     1.3910 C.ar  1 <1>  -0.1500 
  7 N        2.9070     4.1070    -0.7100 N.ar  1 <1>  -0.6200 
  8 C        4.1010     2.9910     1.0250 C.ar  1 <1>  -0.1500 
  9 C        4.0300     3.8990    -0.0290 C.ar  1 <1>   0.4100 
 10 N        5.1400     4.6170    -0.4090 N.pl3 1 <1>  -0.8380 
 11 C        4.9820     5.9830    -0.9730 C.3   1 <1>   0.2090 
 12 C        6.3710     3.9020    -0.8260 C.3   1 <1>   0.2090 
 13 C        6.2000     6.8290    -0.6000 C.3   1 <1>  -0.1600 
 14 C        7.5940     4.7350    -0.4440 C.3   1 <1>  -0.1600 
 15 C        7.5130     6.1530    -1.0350 C.3   1 <1>   0.1000 
 16 C        8.7470     6.9690    -0.6570 C.2   1 <1>   0.2980 
 17 O        9.9020     6.5920    -1.1480 O.3   1 <1>  -0.0190 
 18 N        8.7870     7.9980     0.0930 N.2   1 <1>  -0.5650 
 19 N       10.7460     7.4520    -0.6700 N.2   1 <1>  -0.4100 
 20 C       10.0850     8.2680     0.0540 C.2   1 <1>   0.3350 
 21 C       10.6590     9.4620     0.8210 C.3   1 <1>   0.1010 
 22 C       10.4940    10.7540     0.0080 C.3   1 <1>  -0.2400 
 23 C       12.1350     9.2640     1.2010 C.3   1 <1>  -0.2400 
 24 H       -0.9920     2.9710     0.3810 H     1 <1>   0.0800 
 25 H       -1.4520     1.3180     0.6850 H     1 <1>   0.0800 
 26 H       -0.5540     1.7050    -0.7590 H     1 <1>   0.0800 
 27 H        0.9610     3.5850    -0.9070 H     1 <1>   0.1500 
 28 H        3.0380     1.5580     2.2040 H     1 <1>   0.1500 
 29 H        5.0310     2.8790     1.5480 H     1 <1>   0.1500 
 30 H        4.0900     6.4400    -0.5770 H     1 <1>   0.0800 
 31 H        4.8810     5.9160    -2.0430 H     1 <1>   0.0800 
 32 H        6.3430     3.7520    -1.8920 H     1 <1>   0.0800 
 33 H        6.4220     2.9360    -0.3530 H     1 <1>   0.0800 
 34 H        6.2010     6.9770     0.4660 H     1 <1>   0.0800 
 35 H        6.1170     7.7950    -1.0650 H     1 <1>   0.0800 
 36 H        8.4800     4.2400    -0.8000 H     1 <1>   0.0800 
 37 H        7.6560     4.7930     0.6290 H     1 <1>   0.0800 
 38 H        7.5040     6.0730    -2.1080 H     1 <1>   0.0800 
 39 H       10.0930     9.5600     1.7310 H     1 <1>   0.0800 
 40 H       11.0390    10.6830    -0.9170 H     1 <1>   0.0800 
 41 H       10.8580    11.5980     0.5650 H     1 <1>   0.0800 
 42 H        9.4550    10.9130    -0.2180 H     1 <1>   0.0800 
 43 H       12.7440     9.1840     0.3180 H     1 <1>   0.0800 
 44 H       12.2470     8.3620     1.7760 H     1 <1>   0.0800 
 45 H       12.4860    10.0920     1.7910 H     1 <1>   0.0800 
@<TRIPOS>BOND
  1   1   2  2   
  2   2   3  1   
  3   2   4  1   
  4   3   5  ar  
  5   3   6  ar  
  6   4  24  1   
  7   4  25  1   
  8   4  26  1   
  9   5   7  ar  
 10   5  27  1   
 11   6   8  ar  
 12   6  28  1   
 13   7   9  ar  
 14   8   9  ar  
 15   8  29  1   
 16   9  10  1   
 17  10  11  1   
 18  10  12  1   
 19  11  13  1   
 20  11  30  1   
 21  11  31  1   
 22  12  14  1   
 23  12  32  1   
 24  12  33  1   
 25  13  15  1   
 26  13  34  1   
 27  13  35  1   
 28  14  15  1   
 29  14  36  1   
 30  14  37  1   
 31  15  16  1   
 32  15  38  1   
 33  16  17  1   
 34  16  18  2   
 35  17  19  1   
 36  18  20  1   
 37  19  20  2   
 38  20  21  1   
 39  21  22  1   
 40  21  23  1   
 41  21  39  1   
 42  22  40  1   
 43  22  41  1   
 44  22  42  1   
 45  23  43  1   
 46  23  44  1   
 47  23  45  1   
@<TRIPOS>SUBSTRUCTURE
  1 ****  10 GROUP 4 **** **** 0

# MOE 2024.06 (io_trps.svl 2023.06)
