@<TRIPOS>MOLECULE
NONAME
42 44 1 0 0 
SMALL
USER_CHARGES


@<TRIPOS>ATOM
  1 S       -0.8440     0.6270     1.9780 S.o2  1 <1>   1.4470 
  2 O       -1.5000     1.7300     2.6480 O.2   1 <1>  -0.6500 
  3 O       -0.8240    -0.6640     2.6310 O.2   1 <1>  -0.6500 
  4 N       -1.5820     0.4820     0.4550 N.am  1 <1>  -0.8490 
  5 C        0.8480     1.1320     1.5650 C.ar  1 <1>  -0.0090 
  6 C       -0.9520    -0.4620    -0.4900 C.3   1 <1>   0.1960 
  7 C       -3.0430     0.3740     0.4890 C.3   1 <1>   0.1960 
  8 C        1.0970     2.3650     0.9760 C.ar  1 <1>  -0.1500 
  9 C        1.9320     0.2900     1.7980 C.ar  1 <1>  -0.1500 
 10 C       -1.3810    -1.9170    -0.2740 C.3   1 <1>  -0.1860 
 11 C       -3.5110    -1.0580     0.7600 C.3   1 <1>  -0.1600 
 12 C        2.3760     2.7480     0.6120 C.ar  1 <1>   0.0820 
 13 C        3.2200     0.6640     1.4520 C.ar  1 <1>  -0.1500 
 14 C       -0.8010    -2.7950    -1.3620 C.2   1 <1>   0.9060 
 15 C       -2.9050    -2.0070    -0.2670 C.3   1 <1>   0.2000 
 16 O        2.5290     3.9690     0.0500 O.3   1 <1>  -0.3630 
 17 C        3.4500     1.8890     0.8520 C.ar  1 <1>   0.0820 
 18 O        0.0380    -2.3260    -2.1370 O.co2 1 <1>  -0.9000 
 19 O       -1.2000    -3.9640    -1.4500 O.co2 1 <1>  -0.9000 
 20 O       -3.2750    -3.2930     0.0500 O.3   1 <1>  -0.6800 
 21 C        3.0690     4.0300    -1.2470 C.3   1 <1>   0.1200 
 22 O        4.7270     2.2090     0.5430 O.3   1 <1>  -0.3630 
 23 C        4.5900     3.8700    -1.2070 C.3   1 <1>  -0.1600 
 24 C        5.0310     2.4600    -0.8080 C.3   1 <1>   0.1200 
 25 H       -1.2310    -0.1740    -1.4900 H     1 <1>   0.0800 
 26 H        0.1210    -0.3940    -0.4380 H     1 <1>   0.0800 
 27 H       -3.4470     1.0400     1.2330 H     1 <1>   0.0800 
 28 H       -3.4270     0.6880    -0.4670 H     1 <1>   0.0800 
 29 H        0.2770     3.0380     0.7920 H     1 <1>   0.1500 
 30 H        1.7650    -0.6740     2.2510 H     1 <1>   0.1500 
 31 H       -0.9900    -2.2700     0.6590 H     1 <1>   0.0800 
 32 H       -4.5830    -1.1000     0.6940 H     1 <1>   0.0800 
 33 H       -3.2210    -1.3540     1.7520 H     1 <1>   0.0800 
 34 H        4.0480     0.0060     1.6430 H     1 <1>   0.1500 
 35 H       -3.2860    -1.7920    -1.2520 H     1 <1>   0.0800 
 36 H       -2.6510    -3.8840    -0.4650 H     1 <1>   0.4000 
 37 H        2.6050     3.2660    -1.8490 H     1 <1>   0.0800 
 38 H        2.8120     4.9940    -1.6500 H     1 <1>   0.0800 
 39 H        4.9690     4.0680    -2.1930 H     1 <1>   0.0800 
 40 H        5.0210     4.5960    -0.5410 H     1 <1>   0.0800 
 41 H        6.0970     2.3660    -0.9130 H     1 <1>   0.0800 
 42 H        4.5520     1.7090    -1.4130 H     1 <1>   0.0800 
@<TRIPOS>BOND
  1   1   2  2   
  2   1   3  2   
  3   1   4  am  
  4   1   5  1   
  5   4   6  1   
  6   4   7  1   
  7   5   8  ar  
  8   5   9  ar  
  9   6  10  1   
 10   6  25  1   
 11   6  26  1   
 12   7  11  1   
 13   7  27  1   
 14   7  28  1   
 15   8  12  ar  
 16   8  29  1   
 17   9  13  ar  
 18   9  30  1   
 19  10  14  1   
 20  10  15  1   
 21  10  31  1   
 22  11  15  1   
 23  11  32  1   
 24  11  33  1   
 25  12  16  1   
 26  12  17  ar  
 27  13  17  ar  
 28  13  34  1   
 29  14  18  ar  
 30  14  19  ar  
 31  15  20  1   
 32  15  35  1   
 33  16  21  1   
 34  17  22  1   
 35  20  36  1   
 36  21  23  1   
 37  21  37  1   
 38  21  38  1   
 39  22  24  1   
 40  23  24  1   
 41  23  39  1   
 42  23  40  1   
 43  24  41  1   
 44  24  42  1   
@<TRIPOS>SUBSTRUCTURE
  1 ****   5 GROUP 4 **** **** 0

# MOE 2024.06 (io_trps.svl 2023.06)
