@<TRIPOS>MOLECULE
NONAME
49 51 1 0 0 
SMALL
USER_CHARGES


@<TRIPOS>ATOM
  1 S        0.4740     1.3180    -1.2360 S.3   1 <1>  -0.0800 
  2 C        0.7020     0.6970     0.3930 C.2   1 <1>  -0.1400 
  3 C       -1.1490     1.8620    -0.8490 C.2   1 <1>  -0.1100 
  4 C       -0.4020     0.9070     1.1340 C.2   1 <1>  -0.1500 
  5 C        2.0320     0.0520     0.7410 C.3   1 <1>   0.3200 
  6 C       -1.4570     1.5700     0.4280 C.2   1 <1>  -0.1500 
  7 N        2.0450    -1.3650     0.2830 N.am  1 <1>  -0.6600 
  8 C        1.4900    -2.3330     1.0890 C.2   1 <1>   0.5690 
  9 C        2.5050    -1.5730    -1.1220 C.3   1 <1>   0.1400 
 10 O        1.0250    -2.0440     2.1700 O.2   1 <1>  -0.5700 
 11 C        1.3730    -3.7980     0.6350 C.3   1 <1>   0.2610 
 12 C        3.9230    -2.1740    -1.1750 C.3   1 <1>  -0.0800 
 13 O        2.0180    -4.6860     1.5320 O.3   1 <1>  -0.5600 
 14 C       -0.1250    -4.1440     0.4810 C.3   1 <1>   0.3640 
 15 C        4.9770    -1.2370    -0.5670 C.3   1 <1>  -0.2400 
 16 C        4.2960    -2.4910    -2.6280 C.3   1 <1>  -0.2400 
 17 C        1.9880    -6.0430     1.1440 C.3   1 <1>   0.1810 
 18 N       -0.3400    -5.6060     0.3670 N.am  1 <1>  -0.7300 
 19 C       -0.6800    -3.4440    -0.7530 C.ar  1 <1>  -0.1430 
 20 C        0.5960    -6.5190     0.7120 C.2   1 <1>   0.5690 
 21 C       -0.5100    -3.9760    -2.0250 C.ar  1 <1>   0.1600 
 22 C       -1.3320    -2.2330    -0.6260 C.ar  1 <1>  -0.1500 
 23 O        0.3500    -7.6960     0.6560 O.2   1 <1>  -0.5700 
 24 N       -0.9150    -3.4050    -3.1470 N.ar  1 <1>  -0.6200 
 25 C       -1.7680    -1.6290    -1.7850 C.ar  1 <1>  -0.1500 
 26 C       -1.5360    -2.2460    -3.0010 C.ar  1 <1>   0.1600 
 27 H       -1.7070     2.3510    -1.6280 H     1 <1>   0.1500 
 28 H       -0.5200     0.6150     2.1640 H     1 <1>   0.1500 
 29 H        2.1730     0.0850     1.8080 H     1 <1>   0.0800 
 30 H        2.8390     0.6000     0.2890 H     1 <1>   0.0800 
 31 H       -2.3890     1.7960     0.9170 H     1 <1>   0.1500 
 32 H        1.8100    -2.2140    -1.6350 H     1 <1>   0.0800 
 33 H        2.5030    -0.6340    -1.6480 H     1 <1>   0.0800 
 34 H        1.8500    -3.9240    -0.3150 H     1 <1>   0.0800 
 35 H        3.9350    -3.0980    -0.6240 H     1 <1>   0.0800 
 36 H       -0.6540    -3.7960     1.3530 H     1 <1>   0.0800 
 37 H        4.9780    -0.2860    -1.0700 H     1 <1>   0.0800 
 38 H        5.9570    -1.6720    -0.6540 H     1 <1>   0.0800 
 39 H        4.7790    -1.0770     0.4790 H     1 <1>   0.0800 
 40 H        4.3130    -1.5930    -3.2210 H     1 <1>   0.0800 
 41 H        3.5850    -3.1730    -3.0600 H     1 <1>   0.0800 
 42 H        5.2690    -2.9480    -2.6740 H     1 <1>   0.0800 
 43 H        2.6800    -6.1790     0.3340 H     1 <1>   0.0800 
 44 H        2.3190    -6.6280     1.9830 H     1 <1>   0.0800 
 45 H       -1.2810    -5.9340     0.1410 H     1 <1>   0.3700 
 46 H       -0.0080    -4.9230    -2.1340 H     1 <1>   0.1500 
 47 H       -1.4860    -1.7620     0.3310 H     1 <1>   0.1500 
 48 H       -2.2770    -0.6830    -1.7460 H     1 <1>   0.1500 
 49 H       -1.8790    -1.7610    -3.8990 H     1 <1>   0.1500 
@<TRIPOS>BOND
  1   1   2  1   
  2   1   3  1   
  3   2   4  2   
  4   2   5  1   
  5   3   6  2   
  6   3  27  1   
  7   4   6  1   
  8   4  28  1   
  9   5   7  1   
 10   5  29  1   
 11   5  30  1   
 12   6  31  1   
 13   7   8  am  
 14   7   9  1   
 15   8  10  2   
 16   8  11  1   
 17   9  12  1   
 18   9  32  1   
 19   9  33  1   
 20  11  13  1   
 21  11  14  1   
 22  11  34  1   
 23  12  15  1   
 24  12  16  1   
 25  12  35  1   
 26  13  17  1   
 27  14  18  1   
 28  14  19  1   
 29  14  36  1   
 30  15  37  1   
 31  15  38  1   
 32  15  39  1   
 33  16  40  1   
 34  16  41  1   
 35  16  42  1   
 36  17  20  1   
 37  17  43  1   
 38  17  44  1   
 39  18  20  am  
 40  18  45  1   
 41  19  21  ar  
 42  19  22  ar  
 43  20  23  2   
 44  21  24  ar  
 45  21  46  1   
 46  22  25  ar  
 47  22  47  1   
 48  24  26  ar  
 49  25  26  ar  
 50  25  48  1   
 51  26  49  1   
@<TRIPOS>SUBSTRUCTURE
  1 ****   8 GROUP 4 **** **** 0

# MOE 2024.06 (io_trps.svl 2023.06)
