@<TRIPOS>MOLECULE
NONAME
44 46 1 0 0 
SMALL
USER_CHARGES


@<TRIPOS>ATOM
  1 CL      -0.4660    -1.4050    -2.4510 Cl    1 <1>  -0.1770 
  2 C       -1.6020    -1.6050    -1.1440 C.ar  1 <1>   0.1770 
  3 C       -2.0200    -0.4940    -0.4400 C.ar  1 <1>  -0.1500 
  4 C       -2.0630    -2.8720    -0.8370 C.ar  1 <1>  -0.1500 
  5 C       -2.9190    -0.7000     0.5860 C.ar  1 <1>   0.1900 
  6 C       -2.9800    -3.0750     0.1970 C.ar  1 <1>   0.0860 
  7 F       -3.3320     0.3310     1.2710 F     1 <1>  -0.1900 
  8 C       -3.3990    -1.9530     0.9160 C.ar  1 <1>  -0.1500 
  9 C       -3.4630    -4.4080     0.5130 C.2   1 <1>   0.5440 
 10 O       -2.7170    -5.3650     0.4120 O.2   1 <1>  -0.5700 
 11 N       -4.7610    -4.6410     0.9060 N.am  1 <1>  -0.6600 
 12 C       -5.1310    -5.9390     1.5420 C.3   1 <1>   0.1400 
 13 C       -5.9200    -3.9530     0.2660 C.3   1 <1>   0.1400 
 14 C       -5.6530    -6.8820     0.4370 C.3   1 <1>   0.4230 
 15 C       -6.5340    -4.8860    -0.7940 C.3   1 <1>  -0.1600 
 16 N       -5.9300    -8.2920     0.8740 N.4   1 <1>  -0.9590 
 17 C       -6.9190    -6.2820    -0.2200 C.3   1 <1>  -0.1060 
 18 C       -6.3380    -9.2020    -0.2380 C.3   1 <1>   0.3430 
 19 C       -4.9110    -8.9010     1.7690 C.3   1 <1>   0.2630 
 20 C       -7.9980    -6.1550     0.8720 C.2   1 <1>   0.9060 
 21 C       -7.4450    -7.1960    -1.3660 C.3   1 <1>  -0.1600 
 22 C       -6.5890    -8.4580    -1.5580 C.3   1 <1>  -0.1600 
 23 O       -8.1270    -7.0890     1.6800 O.co2 1 <1>  -0.9000 
 24 O       -8.6880    -5.1400     0.9440 O.co2 1 <1>  -0.9000 
 25 H       -1.6600     0.4890    -0.6800 H     1 <1>   0.1500 
 26 H       -1.7080    -3.7150    -1.4040 H     1 <1>   0.1500 
 27 H       -4.0940    -2.0590     1.7300 H     1 <1>   0.1500 
 28 H       -4.2620    -6.3550     2.0160 H     1 <1>   0.0800 
 29 H       -5.8800    -5.7680     2.2960 H     1 <1>   0.0800 
 30 H       -6.6510    -3.7080     1.0200 H     1 <1>   0.0800 
 31 H       -5.6130    -3.0360    -0.2040 H     1 <1>   0.0800 
 32 H       -4.8770    -6.9210    -0.3090 H     1 <1>   0.0800 
 33 H       -7.4130    -4.4100    -1.1950 H     1 <1>   0.0800 
 34 H       -5.8310    -4.9980    -1.6010 H     1 <1>   0.0800 
 35 H       -6.8160    -8.1370     1.4290 H     1 <1>   0.4500 
 36 H       -5.5780    -9.9480    -0.3990 H     1 <1>   0.0800 
 37 H       -7.2450    -9.7080     0.0520 H     1 <1>   0.0800 
 38 H       -3.9610    -8.9630     1.2630 H     1 <1>   0.0800 
 39 H       -5.2200    -9.8900     2.0620 H     1 <1>   0.0800 
 40 H       -4.7950    -8.3050     2.6590 H     1 <1>   0.0800 
 41 H       -8.4550    -7.5000    -1.1370 H     1 <1>   0.0800 
 42 H       -7.4950    -6.6560    -2.2960 H     1 <1>   0.0800 
 43 H       -5.6430    -8.1920    -1.9990 H     1 <1>   0.0800 
 44 H       -7.0810    -9.1230    -2.2460 H     1 <1>   0.0800 
@<TRIPOS>BOND
  1   1   2  1   
  2   2   3  ar  
  3   2   4  ar  
  4   3   5  ar  
  5   3  25  1   
  6   4   6  ar  
  7   4  26  1   
  8   5   7  1   
  9   5   8  ar  
 10   6   8  ar  
 11   6   9  1   
 12   8  27  1   
 13   9  10  2   
 14   9  11  am  
 15  11  12  1   
 16  11  13  1   
 17  12  14  1   
 18  12  28  1   
 19  12  29  1   
 20  13  15  1   
 21  13  30  1   
 22  13  31  1   
 23  14  16  1   
 24  14  17  1   
 25  14  32  1   
 26  15  17  1   
 27  15  33  1   
 28  15  34  1   
 29  16  18  1   
 30  16  19  1   
 31  16  35  1   
 32  17  20  1   
 33  17  21  1   
 34  18  22  1   
 35  18  36  1   
 36  18  37  1   
 37  19  38  1   
 38  19  39  1   
 39  19  40  1   
 40  20  23  ar  
 41  20  24  ar  
 42  21  22  1   
 43  21  41  1   
 44  21  42  1   
 45  22  43  1   
 46  22  44  1   
@<TRIPOS>SUBSTRUCTURE
  1 ****  11 GROUP 4 **** **** 0

# MOE 2024.06 (io_trps.svl 2023.06)
