@<TRIPOS>MOLECULE
NONAME
48 51 1 0 0 
SMALL
USER_CHARGES


@<TRIPOS>ATOM
  1 S        0.4620     0.0270     0.4720 S.3   1 <1>  -0.3320 
  2 C       -0.9040    -1.1020     0.2980 C.ar  1 <1>   0.7220 
  3 C       -0.3250     1.6920     0.3240 C.3   1 <1>   0.2500 
  4 N       -0.5760    -2.3800     0.3740 N.ar  1 <1>  -0.6200 
  5 N       -2.0940    -0.5500     0.1130 N.ar  1 <1>  -0.6200 
  6 C        0.7330     2.7760     0.4560 C.2   1 <1>  -0.0400 
  7 C       -1.5850    -3.2110     0.2450 C.ar  1 <1>   0.1600 
  8 C       -3.0790    -1.4130    -0.0120 C.ar  1 <1>   0.1600 
  9 O        0.3540     4.0280     0.3400 O.3   1 <1>  -0.2800 
 10 C        2.0630     2.7160     0.6840 C.2   1 <1>  -0.1500 
 11 C       -2.8730    -2.7710     0.0470 C.ar  1 <1>  -0.1500 
 12 C        1.4080     4.8240     0.4870 C.2   1 <1>   0.0550 
 13 C        2.5020     4.0400     0.7060 C.2   1 <1>  -0.1500 
 14 C        1.2680     6.2600     0.3950 C.2   1 <1>   0.7150 
 15 O        0.2000     6.8180     0.5640 O.2   1 <1>  -0.5700 
 16 N        2.3530     7.0520     0.1020 N.am  1 <1>  -0.5100 
 17 C        2.1930     8.4590    -0.4130 C.3   1 <1>   0.2250 
 18 C        3.2850     6.7940    -1.0480 C.3   1 <1>   0.2250 
 19 C        3.6140     8.3160    -1.0220 C.3   1 <1>   0.4720 
 20 N        4.7240     8.6970    -0.0750 N.4   1 <1>  -0.9280 
 21 C        4.7410    10.1680     0.1810 C.3   1 <1>   0.3430 
 22 C        6.0520     8.2090    -0.5510 C.3   1 <1>   0.3430 
 23 C        5.7760    10.4900     1.2610 C.3   1 <1>  -0.1600 
 24 C        7.1150     8.4880     0.5140 C.3   1 <1>  -0.1600 
 25 C        7.1710     9.9760     0.8830 C.3   1 <1>  -0.1600 
 26 H       -1.0590     1.7750     1.1060 H     1 <1>   0.0800 
 27 H       -0.8030     1.7380    -0.6380 H     1 <1>   0.0800 
 28 H       -1.3770    -4.2670     0.2980 H     1 <1>   0.1500 
 29 H       -4.0730    -1.0260    -0.1650 H     1 <1>   0.1500 
 30 H        2.6790     1.8440     0.8260 H     1 <1>   0.1500 
 31 H       -3.6880    -3.4640    -0.0560 H     1 <1>   0.1500 
 32 H        3.5190     4.3400     0.8770 H     1 <1>   0.1500 
 33 H        2.1140     9.1790     0.3820 H     1 <1>   0.0000 
 34 H        1.4110     8.5250    -1.1500 H     1 <1>   0.0000 
 35 H        2.7480     6.4760    -1.9250 H     1 <1>   0.0000 
 36 H        4.1060     6.1550    -0.7760 H     1 <1>   0.0000 
 37 H        3.7310     8.7640    -1.9920 H     1 <1>   0.0000 
 38 H        4.5170     8.2320     0.8200 H     1 <1>   0.4500 
 39 H        3.7710    10.5030     0.5100 H     1 <1>   0.0800 
 40 H        4.9940    10.6940    -0.7260 H     1 <1>   0.0800 
 41 H        6.3200     8.7140    -1.4650 H     1 <1>   0.0800 
 42 H        6.0160     7.1490    -0.7460 H     1 <1>   0.0800 
 43 H        5.4650    10.0570     2.1960 H     1 <1>   0.0800 
 44 H        5.8180    11.5570     1.4010 H     1 <1>   0.0800 
 45 H        8.0760     8.1790     0.1410 H     1 <1>   0.0800 
 46 H        6.9070     7.8990     1.3910 H     1 <1>   0.0800 
 47 H        7.8510    10.1230     1.7070 H     1 <1>   0.0800 
 48 H        7.5480    10.5400     0.0460 H     1 <1>   0.0800 
@<TRIPOS>BOND
  1   1   2  1   
  2   1   3  1   
  3   2   4  ar  
  4   2   5  ar  
  5   3   6  1   
  6   3  26  1   
  7   3  27  1   
  8   4   7  ar  
  9   5   8  ar  
 10   6   9  1   
 11   6  10  2   
 12   7  11  ar  
 13   7  28  1   
 14   8  11  ar  
 15   8  29  1   
 16   9  12  1   
 17  10  13  1   
 18  10  30  1   
 19  11  31  1   
 20  12  13  2   
 21  12  14  1   
 22  13  32  1   
 23  14  15  2   
 24  14  16  am  
 25  16  17  1   
 26  16  18  1   
 27  17  19  1   
 28  17  33  1   
 29  17  34  1   
 30  18  19  1   
 31  18  35  1   
 32  18  36  1   
 33  19  20  1   
 34  19  37  1   
 35  20  21  1   
 36  20  22  1   
 37  20  38  1   
 38  21  23  1   
 39  21  39  1   
 40  21  40  1   
 41  22  24  1   
 42  22  41  1   
 43  22  42  1   
 44  23  25  1   
 45  23  43  1   
 46  23  44  1   
 47  24  25  1   
 48  24  45  1   
 49  24  46  1   
 50  25  47  1   
 51  25  48  1   
@<TRIPOS>SUBSTRUCTURE
  1 ****  12 GROUP 4 **** **** 0

# MOE 2024.06 (io_trps.svl 2023.06)
