@<TRIPOS>MOLECULE
NONAME
51 53 1 0 0 
SMALL
USER_CHARGES


@<TRIPOS>ATOM
  1 O        1.7110    -0.0140    -3.4660 O.2   1 <1>  -0.5700 
  2 C        1.7820    -0.4530    -2.3430 C.2   1 <1>   0.5690 
  3 N        2.2580     0.2800    -1.3130 N.am  1 <1>  -0.7300 
  4 C        1.2960    -1.8780    -2.0530 C.3   1 <1>   0.1710 
  5 C        2.5410     1.7190    -1.3360 C.3   1 <1>   0.2840 
  6 N        0.7820    -2.0840    -0.6650 N.3   1 <1>  -0.8100 
  7 C        3.2360     2.0910    -0.0350 C.ar  1 <1>  -0.1430 
  8 C       -0.4370    -1.3100    -0.3820 C.3   1 <1>   0.1100 
  9 C        0.4510    -3.4870    -0.3760 C.3   1 <1>   0.1100 
 10 C        2.5410     2.0790     1.1720 C.ar  1 <1>   0.0830 
 11 C        4.5780     2.4400    -0.0520 C.ar  1 <1>  -0.1500 
 12 C       -1.0120    -1.9870     0.8550 C.3   1 <1>   0.2000 
 13 C       -0.7830    -3.4700     0.5450 C.3   1 <1>  -0.0800 
 14 O        1.2300     1.7170     1.1460 O.3   1 <1>  -0.3630 
 15 C        3.2020     2.4260     2.3490 C.ar  1 <1>  -0.1500 
 16 C        5.2290     2.7820     1.1210 C.ar  1 <1>  -0.1500 
 17 O       -0.2240    -1.6090     1.9270 O.3   1 <1>  -0.6800 
 18 C       -0.6430    -4.3830     1.7780 C.3   1 <1>   0.0200 
 19 C        0.4810     1.5540     2.3310 C.3   1 <1>   0.0400 
 20 C        4.5400     2.7760     2.3200 C.ar  1 <1>  -0.1500 
 21 C       -0.5550    -5.8560     1.4160 C.2   1 <1>  -0.0400 
 22 O       -0.2330    -6.7120     2.3490 O.3   1 <1>  -0.0190 
 23 C       -0.7440    -6.5460     0.2790 C.2   1 <1>  -0.1500 
 24 N       -0.1930    -7.9320     1.8990 N.2   1 <1>  -0.4100 
 25 C       -0.4980    -7.8630     0.6540 C.2   1 <1>   0.1080 
 26 C       -0.5770    -9.0600    -0.2680 C.3   1 <1>  -0.0590 
 27 H        2.1540    -0.1110    -0.3720 H     1 <1>   0.3700 
 28 H        2.1270    -2.5380    -2.2180 H     1 <1>   0.0800 
 29 H        0.5290    -2.1250    -2.7650 H     1 <1>   0.0800 
 30 H        3.1590     1.9500    -2.1870 H     1 <1>   0.0800 
 31 H        1.6170     2.2630    -1.4260 H     1 <1>   0.0800 
 32 H       -0.2250    -0.2690    -0.2060 H     1 <1>   0.0800 
 33 H       -1.1330    -1.4000    -1.2000 H     1 <1>   0.0800 
 34 H        0.2210    -4.0230    -1.2830 H     1 <1>   0.0800 
 35 H        1.2940    -3.9580     0.1020 H     1 <1>   0.0800 
 36 H        5.1240     2.4450    -0.9790 H     1 <1>   0.1500 
 37 H       -2.0370    -1.7330     1.0600 H     1 <1>   0.0800 
 38 H       -1.6250    -3.8080    -0.0320 H     1 <1>   0.0800 
 39 H        2.6940     2.4310     3.2940 H     1 <1>   0.1500 
 40 H        6.2700     3.0520     1.0990 H     1 <1>   0.1500 
 41 H        0.7040    -1.6550     1.6090 H     1 <1>   0.4000 
 42 H       -1.4860    -4.2390     2.4300 H     1 <1>   0.0800 
 43 H        0.2430    -4.1180     2.3290 H     1 <1>   0.0800 
 44 H       -0.5030     1.2140     2.0610 H     1 <1>   0.0800 
 45 H        0.4150     2.5000     2.8370 H     1 <1>   0.0800 
 46 H        0.9600     0.8160     2.9500 H     1 <1>   0.0800 
 47 H        5.0470     3.0430     3.2310 H     1 <1>   0.1500 
 48 H       -1.0210    -6.2100    -0.7020 H     1 <1>   0.1500 
 49 H       -1.5240    -9.0710    -0.7750 H     1 <1>   0.0800 
 50 H       -0.4760    -9.9670     0.3000 H     1 <1>   0.0800 
 51 H        0.2150    -9.0140    -0.9930 H     1 <1>   0.0800 
@<TRIPOS>BOND
  1   1   2  2   
  2   2   3  am  
  3   2   4  1   
  4   3   5  1   
  5   3  27  1   
  6   4   6  1   
  7   4  28  1   
  8   4  29  1   
  9   5   7  1   
 10   5  30  1   
 11   5  31  1   
 12   6   8  1   
 13   6   9  1   
 14   7  10  ar  
 15   7  11  ar  
 16   8  12  1   
 17   8  32  1   
 18   8  33  1   
 19   9  13  1   
 20   9  34  1   
 21   9  35  1   
 22  10  14  1   
 23  10  15  ar  
 24  11  16  ar  
 25  11  36  1   
 26  12  13  1   
 27  12  17  1   
 28  12  37  1   
 29  13  18  1   
 30  13  38  1   
 31  14  19  1   
 32  15  20  ar  
 33  15  39  1   
 34  16  20  ar  
 35  16  40  1   
 36  17  41  1   
 37  18  21  1   
 38  18  42  1   
 39  18  43  1   
 40  19  44  1   
 41  19  45  1   
 42  19  46  1   
 43  20  47  1   
 44  21  22  1   
 45  21  23  2   
 46  22  24  1   
 47  23  25  1   
 48  23  48  1   
 49  24  25  2   
 50  25  26  1   
 51  26  49  1   
 52  26  50  1   
 53  26  51  1   
@<TRIPOS>SUBSTRUCTURE
  1 ****   6 GROUP 4 **** **** 0

# MOE 2024.06 (io_trps.svl 2023.06)
