@<TRIPOS>MOLECULE
NONAME
43 44 1 0 0 
SMALL
USER_CHARGES


@<TRIPOS>ATOM
  1 S       -0.7060     0.5370    -1.5540 S.o2  1 <1>   1.4470 
  2 O       -1.2560     1.7200    -2.1850 O.2   1 <1>  -0.6500 
  3 O       -0.5910    -0.6630    -2.3550 O.2   1 <1>  -0.6500 
  4 N       -1.7200     0.1980    -0.2330 N.am  1 <1>  -0.8490 
  5 C        0.9040     0.9600    -0.8270 C.ar  1 <1>  -0.0090 
  6 C       -1.2310    -0.8020     0.7350 C.3   1 <1>   0.1960 
  7 C       -3.1310     0.0070    -0.6160 C.3   1 <1>   0.1960 
  8 C        1.8190    -0.0300    -0.4870 C.ar  1 <1>  -0.1500 
  9 C        1.2510     2.2800    -0.5670 C.ar  1 <1>  -0.1500 
 10 C       -1.3390    -2.2370     0.2140 C.3   1 <1>  -0.1860 
 11 C       -3.6830    -1.3870    -0.2840 C.3   1 <1>  -0.1600 
 12 C        3.0410     0.2720     0.0900 C.ar  1 <1>  -0.1440 
 13 C        2.4720     2.6160    -0.0050 C.ar  1 <1>  -0.1440 
 14 C       -1.1110    -3.1180     1.4190 C.2   1 <1>   0.9060 
 15 C       -2.6420    -2.4630    -0.5830 C.3   1 <1>   0.2000 
 16 C        3.3750     1.6050     0.3090 C.ar  1 <1>   0.0820 
 17 C        3.9660    -0.8710     0.4830 C.3   1 <1>  -0.0970 
 18 C        2.8000     4.0770     0.2660 C.3   1 <1>  -0.0970 
 19 O        0.0520    -3.2750     1.7980 O.co2 1 <1>  -0.9000 
 20 O       -2.0790    -3.6020     2.0220 O.co2 1 <1>  -0.9000 
 21 O       -3.2090    -3.6840    -0.2920 O.3   1 <1>  -0.6800 
 22 O        4.5740     1.9260     0.8410 O.3   1 <1>  -0.3630 
 23 C        5.6400     2.0540    -0.0720 C.3   1 <1>   0.0400 
 24 H       -0.2190    -0.5940     1.0340 H     1 <1>   0.0800 
 25 H       -1.8290    -0.7190     1.6290 H     1 <1>   0.0800 
 26 H       -3.7270     0.7490    -0.1120 H     1 <1>   0.0800 
 27 H       -3.2450     0.1740    -1.6750 H     1 <1>   0.0800 
 28 H        1.5610    -1.0610    -0.6680 H     1 <1>   0.1500 
 29 H        0.5450     3.0550    -0.8140 H     1 <1>   0.1500 
 30 H       -0.5170    -2.4260    -0.4480 H     1 <1>   0.0800 
 31 H       -4.5680    -1.5650    -0.8680 H     1 <1>   0.0800 
 32 H       -3.9530    -1.4270     0.7570 H     1 <1>   0.0800 
 33 H       -2.4240    -2.4570    -1.6380 H     1 <1>   0.0800 
 34 H        3.3960    -1.7600     0.6940 H     1 <1>   0.0800 
 35 H        4.5200    -0.6180     1.3690 H     1 <1>   0.0800 
 36 H        4.6530    -1.0810    -0.3150 H     1 <1>   0.0800 
 37 H        1.9190     4.6890     0.2040 H     1 <1>   0.0800 
 38 H        3.5170     4.4290    -0.4540 H     1 <1>   0.0800 
 39 H        3.2170     4.1840     1.2510 H     1 <1>   0.0800 
 40 H       -2.9860    -3.8720     0.6710 H     1 <1>   0.4000 
 41 H        6.5210     2.3300     0.4780 H     1 <1>   0.0800 
 42 H        5.3950     2.8170    -0.7890 H     1 <1>   0.0800 
 43 H        5.7920     1.1120    -0.5670 H     1 <1>   0.0800 
@<TRIPOS>BOND
  1   1   2  2   
  2   1   3  2   
  3   1   4  am  
  4   1   5  1   
  5   4   6  1   
  6   4   7  1   
  7   5   8  ar  
  8   5   9  ar  
  9   6  10  1   
 10   6  24  1   
 11   6  25  1   
 12   7  11  1   
 13   7  26  1   
 14   7  27  1   
 15   8  12  ar  
 16   8  28  1   
 17   9  13  ar  
 18   9  29  1   
 19  10  14  1   
 20  10  15  1   
 21  10  30  1   
 22  11  15  1   
 23  11  31  1   
 24  11  32  1   
 25  12  16  ar  
 26  12  17  1   
 27  13  16  ar  
 28  13  18  1   
 29  14  19  ar  
 30  14  20  ar  
 31  15  21  1   
 32  15  33  1   
 33  16  22  1   
 34  17  34  1   
 35  17  35  1   
 36  17  36  1   
 37  18  37  1   
 38  18  38  1   
 39  18  39  1   
 40  21  40  1   
 41  22  23  1   
 42  23  41  1   
 43  23  42  1   
 44  23  43  1   
@<TRIPOS>SUBSTRUCTURE
  1 ****   5 GROUP 4 **** **** 0

# MOE 2024.06 (io_trps.svl 2023.06)
