@<TRIPOS>MOLECULE
NONAME
44 46 1 0 0 
SMALL
USER_CHARGES


@<TRIPOS>ATOM
  1 O        1.3860    -0.2510     1.9820 O.3   1 <1>  -0.0190 
  2 N        2.5210     0.3770     1.9500 N.2   1 <1>  -0.4100 
  3 C        1.1540    -0.5570     0.7300 C.2   1 <1>   0.3170 
  4 C        2.8950     0.4250     0.7310 C.2   1 <1>   0.3350 
  5 N        2.0420    -0.1740    -0.0990 N.2   1 <1>  -0.5650 
  6 C       -0.1260    -1.3140     0.4100 C.3   1 <1>   0.1610 
  7 C        4.1960     1.0720     0.2400 C.3   1 <1>   0.3900 
  8 C       -0.1950    -2.7370     1.0250 C.3   1 <1>   0.0000 
  9 C       -0.1890    -2.0020    -0.9820 C.3   1 <1>   0.0000 
 10 N        4.0190     2.4390    -0.3680 N.pl3 1 <1>  -0.8380 
 11 C       -0.9110    -3.1790    -0.2770 C.3   1 <1>   0.0000 
 12 C        5.0750     3.3290    -0.3370 C.ar  1 <1>   0.4100 
 13 C        2.9810     2.5470    -1.4300 C.3   1 <1>   0.1290 
 14 N        6.2940     2.8280    -0.2460 N.ar  1 <1>  -0.6200 
 15 C        4.8720     4.6860    -0.4020 C.ar  1 <1>  -0.1500 
 16 C        7.2680     3.7160    -0.2320 C.ar  1 <1>   0.4700 
 17 C        5.9650     5.5190    -0.3850 C.ar  1 <1>   0.4100 
 18 N        7.1890     5.0300    -0.2970 N.ar  1 <1>  -0.6200 
 19 N        5.8160     6.8910    -0.4700 N.pl3 1 <1>  -0.8380 
 20 C        6.7890     7.7880     0.2060 C.3   1 <1>   0.2090 
 21 C        5.1140     7.4620    -1.6500 C.3   1 <1>   0.1290 
 22 C        6.0370     8.8930     0.9410 C.3   1 <1>  -0.2400 
 23 H       -1.0150    -0.7430     0.6190 H     1 <1>   0.0000 
 24 H        4.6540     0.4240    -0.4850 H     1 <1>   0.0800 
 25 H        4.8630     1.1470     1.0810 H     1 <1>   0.0800 
 26 H       -0.8110    -2.8010     1.9050 H     1 <1>   0.0000 
 27 H        0.7730    -3.1950     1.1410 H     1 <1>   0.0000 
 28 H        0.7750    -2.2900    -1.3670 H     1 <1>   0.0000 
 29 H       -0.8010    -1.4830    -1.6980 H     1 <1>   0.0000 
 30 H       -1.9780    -3.0450    -0.2310 H     1 <1>   0.0000 
 31 H       -0.6110    -4.1500    -0.6310 H     1 <1>   0.0000 
 32 H        2.0090     2.6310    -0.9770 H     1 <1>   0.0800 
 33 H        3.0020     1.6710    -2.0560 H     1 <1>   0.0800 
 34 H        3.1560     3.4110    -2.0480 H     1 <1>   0.0800 
 35 H        3.8850     5.0910    -0.4510 H     1 <1>   0.1500 
 36 H        8.2640     3.3150    -0.1580 H     1 <1>   0.1500 
 37 H        7.4650     8.2060    -0.5200 H     1 <1>   0.0800 
 38 H        7.3690     7.2290     0.9220 H     1 <1>   0.0800 
 39 H        4.7710     6.6760    -2.3010 H     1 <1>   0.0800 
 40 H        5.7820     8.0970    -2.2050 H     1 <1>   0.0800 
 41 H        4.2670     8.0380    -1.3230 H     1 <1>   0.0800 
 42 H        5.5080     9.5200     0.2480 H     1 <1>   0.0800 
 43 H        6.7350     9.5010     1.4870 H     1 <1>   0.0800 
 44 H        5.3420     8.4590     1.6370 H     1 <1>   0.0800 
@<TRIPOS>BOND
  1   1   2  1   
  2   1   3  1   
  3   2   4  2   
  4   3   5  2   
  5   3   6  1   
  6   4   5  1   
  7   4   7  1   
  8   6   8  1   
  9   6   9  1   
 10   6  23  1   
 11   7  10  1   
 12   7  24  1   
 13   7  25  1   
 14   8  11  1   
 15   8  26  1   
 16   8  27  1   
 17   9  11  1   
 18   9  28  1   
 19   9  29  1   
 20  10  12  1   
 21  10  13  1   
 22  11  30  1   
 23  11  31  1   
 24  12  14  ar  
 25  12  15  ar  
 26  13  32  1   
 27  13  33  1   
 28  13  34  1   
 29  14  16  ar  
 30  15  17  ar  
 31  15  35  1   
 32  16  18  ar  
 33  16  36  1   
 34  17  18  ar  
 35  17  19  1   
 36  19  20  1   
 37  19  21  1   
 38  20  22  1   
 39  20  37  1   
 40  20  38  1   
 41  21  39  1   
 42  21  40  1   
 43  21  41  1   
 44  22  42  1   
 45  22  43  1   
 46  22  44  1   
@<TRIPOS>SUBSTRUCTURE
  1 ****  10 GROUP 4 **** **** 0

# MOE 2024.06 (io_trps.svl 2023.06)
