@<TRIPOS>MOLECULE
NONAME
39 40 1 0 0 
SMALL
USER_CHARGES


@<TRIPOS>ATOM
  1 S        0.7470     0.0080     0.3510 S.o2  1 <1>   1.3330 
  2 O        2.0680     0.3650    -0.1200 O.2   1 <1>  -0.6500 
  3 O        0.4920    -0.0270     1.7710 O.2   1 <1>  -0.6500 
  4 N        0.2550    -1.4440    -0.3670 N.am  1 <1>  -0.8490 
  5 C       -0.3470     1.2350    -0.3640 C.3   1 <1>  -0.0550 
  6 C       -0.8690    -2.0850     0.3270 C.3   1 <1>   0.1160 
  7 C        1.3580    -2.4010    -0.5070 C.3   1 <1>   0.1160 
  8 C       -0.1330     2.6350     0.2480 C.3   1 <1>  -0.0800 
  9 C       -0.9200     3.7280    -0.4820 C.3   1 <1>   0.2000 
 10 C        1.3220     3.1140     0.2100 C.3   1 <1>   0.3430 
 11 O       -2.0180     4.0900     0.2820 O.3   1 <1>  -0.6800 
 12 C        0.0420     4.9130    -0.6500 C.3   1 <1>   0.3430 
 13 N        1.2410     4.5960     0.1840 N.4   1 <1>  -0.9590 
 14 C        2.5030     5.2400    -0.2780 C.3   1 <1>   0.5230 
 15 C        2.4420     6.7240     0.0050 C.2   1 <1>  -0.1400 
 16 S        1.5810     7.7590    -1.1050 S.3   1 <1>  -0.0800 
 17 C        2.9560     7.4850     0.9850 C.2   1 <1>   0.0770 
 18 C        2.0010     9.1350    -0.1080 C.2   1 <1>   0.2280 
 19 N        2.6940     8.8410     0.9180 N.2   1 <1>  -0.5650 
 20 H       -0.1810     1.2660    -1.4240 H     1 <1>   0.0800 
 21 H       -1.3660     0.9390    -0.2020 H     1 <1>   0.0800 
 22 H       -1.1910    -2.9570    -0.2180 H     1 <1>   0.0800 
 23 H       -1.7010    -1.4050     0.3980 H     1 <1>   0.0800 
 24 H       -0.5790    -2.3820     1.3220 H     1 <1>   0.0800 
 25 H        1.0140    -3.2990    -0.9920 H     1 <1>   0.0800 
 26 H        1.7620    -2.6540     0.4590 H     1 <1>   0.0800 
 27 H        2.1430    -1.9760    -1.1100 H     1 <1>   0.0800 
 28 H       -0.4230     2.5950     1.2850 H     1 <1>   0.0800 
 29 H       -1.2850     3.4120    -1.4450 H     1 <1>   0.0800 
 30 H        1.7950     2.7560    -0.6920 H     1 <1>   0.0800 
 31 H        1.8790     2.7550     1.0620 H     1 <1>   0.0800 
 32 H       -1.8220     4.1660     1.2370 H     1 <1>   0.4000 
 33 H       -0.4230     5.8380    -0.3500 H     1 <1>   0.0800 
 34 H        0.3300     4.9820    -1.6860 H     1 <1>   0.0800 
 35 H        1.0570     4.9350     1.1390 H     1 <1>   0.4500 
 36 H        3.3380     4.8200     0.2600 H     1 <1>   0.0800 
 37 H        2.6580     5.0690    -1.3310 H     1 <1>   0.0800 
 38 H        3.5520     7.1440     1.8160 H     1 <1>   0.1500 
 39 H        1.6510    10.1030    -0.4240 H     1 <1>   0.1500 
@<TRIPOS>BOND
  1   1   2  2   
  2   1   3  2   
  3   1   4  am  
  4   1   5  1   
  5   4   6  1   
  6   4   7  1   
  7   5   8  1   
  8   5  20  1   
  9   5  21  1   
 10   6  22  1   
 11   6  23  1   
 12   6  24  1   
 13   7  25  1   
 14   7  26  1   
 15   7  27  1   
 16   8   9  1   
 17   8  10  1   
 18   8  28  1   
 19   9  11  1   
 20   9  12  1   
 21   9  29  1   
 22  10  13  1   
 23  10  30  1   
 24  10  31  1   
 25  11  32  1   
 26  12  13  1   
 27  12  33  1   
 28  12  34  1   
 29  13  14  1   
 30  13  35  1   
 31  14  15  1   
 32  14  36  1   
 33  14  37  1   
 34  15  16  1   
 35  15  17  2   
 36  16  18  1   
 37  17  19  1   
 38  17  38  1   
 39  18  19  2   
 40  18  39  1   
@<TRIPOS>SUBSTRUCTURE
  1 ****  10 GROUP 4 **** **** 0

# MOE 2024.06 (io_trps.svl 2023.06)
