@<TRIPOS>MOLECULE
NONAME
44 46 1 0 0 
SMALL
USER_CHARGES


@<TRIPOS>ATOM
  1 F       -1.9320     3.2120    -1.4800 F     1 <1>  -0.3400 
  2 C       -1.3760     3.9970    -0.5620 C.3   1 <1>   1.1640 
  3 F       -1.7490     3.4830     0.6050 F     1 <1>  -0.3400 
  4 F       -1.9940     5.1670    -0.6910 F     1 <1>  -0.3400 
  5 C        0.1440     4.0930    -0.7360 C.ar  1 <1>  -0.1440 
  6 C        0.8720     4.9380     0.1290 C.ar  1 <1>   0.3100 
  7 C        0.7970     3.3740    -1.7140 C.ar  1 <1>  -0.1500 
  8 N        0.2230     5.5550     1.1490 N.ar  1 <1>  -0.6200 
  9 C        2.2650     5.1010    -0.0750 C.ar  1 <1>   0.0000 
 10 C        2.1800     3.4680    -1.8620 C.ar  1 <1>  -0.1500 
 11 C        0.9180     6.3120     1.9440 C.ar  1 <1>   0.1600 
 12 C        2.9670     6.0330     0.7370 C.ar  1 <1>   0.1000 
 13 C        2.8940     4.3050    -1.0540 C.ar  1 <1>  -0.1500 
 14 C        2.2720     6.5740     1.7860 C.ar  1 <1>  -0.1500 
 15 N        4.2740     6.4420     0.4830 N.pl3 1 <1>  -0.8380 
 16 C        4.7190     6.8840    -0.8790 C.3   1 <1>   0.3890 
 17 C        5.3220     6.4270     1.5410 C.3   1 <1>   0.1290 
 18 C        5.2680     8.3040    -0.9030 C.2   1 <1>   0.0070 
 19 N        6.4060     8.5990    -1.4370 N.2   1 <1>  -0.3380 
 20 N        4.6610     9.3960    -0.4150 N.pl3 1 <1>   0.0480 
 21 N        6.5750     9.9140    -1.3070 N.2   1 <1>  -0.3380 
 22 C        5.5330    10.3640    -0.7000 C.2   1 <1>   0.0370 
 23 C        3.3880     9.5690     0.3160 C.3   1 <1>   0.0960 
 24 C        2.1810     9.2000    -0.5420 C.3   1 <1>   0.1200 
 25 O        1.0430     9.4290     0.2220 O.3   1 <1>  -0.5600 
 26 C       -0.1280     8.9290    -0.3430 C.3   1 <1>   0.0400 
 27 H        0.2680     2.7150    -2.3840 H     1 <1>   0.1500 
 28 H        2.6710     2.8730    -2.6140 H     1 <1>   0.1500 
 29 H        0.4050     6.7790     2.7680 H     1 <1>   0.1500 
 30 H        3.9620     4.3530    -1.1560 H     1 <1>   0.1500 
 31 H        2.7530     7.2320     2.4810 H     1 <1>   0.1500 
 32 H        3.8960     6.8250    -1.5680 H     1 <1>   0.0800 
 33 H        5.4850     6.2140    -1.2280 H     1 <1>   0.0800 
 34 H        4.9460     5.9540     2.4320 H     1 <1>   0.0800 
 35 H        5.6230     7.4340     1.7760 H     1 <1>   0.0800 
 36 H        6.1810     5.8780     1.1960 H     1 <1>   0.0800 
 37 H        5.3750    11.3950    -0.4440 H     1 <1>   0.1500 
 38 H        3.3020    10.5970     0.6190 H     1 <1>   0.0800 
 39 H        3.4160     8.9550     1.1930 H     1 <1>   0.0800 
 40 H        2.2080     8.1590    -0.8120 H     1 <1>   0.0800 
 41 H        2.1300     9.8160    -1.4230 H     1 <1>   0.0800 
 42 H       -0.9450     9.1570     0.3190 H     1 <1>   0.0800 
 43 H       -0.0450     7.8610    -0.4530 H     1 <1>   0.0800 
 44 H       -0.2930     9.3970    -1.2980 H     1 <1>   0.0800 
@<TRIPOS>BOND
  1   1   2  1   
  2   2   3  1   
  3   2   4  1   
  4   2   5  1   
  5   5   6  ar  
  6   5   7  ar  
  7   6   8  ar  
  8   6   9  ar  
  9   7  10  ar  
 10   7  27  1   
 11   8  11  ar  
 12   9  12  ar  
 13   9  13  ar  
 14  10  13  ar  
 15  10  28  1   
 16  11  14  ar  
 17  11  29  1   
 18  12  14  ar  
 19  12  15  1   
 20  13  30  1   
 21  14  31  1   
 22  15  16  1   
 23  15  17  1   
 24  16  18  1   
 25  16  32  1   
 26  16  33  1   
 27  17  34  1   
 28  17  35  1   
 29  17  36  1   
 30  18  19  2   
 31  18  20  1   
 32  19  21  1   
 33  20  22  1   
 34  20  23  1   
 35  21  22  2   
 36  22  37  1   
 37  23  24  1   
 38  23  38  1   
 39  23  39  1   
 40  24  25  1   
 41  24  40  1   
 42  24  41  1   
 43  25  26  1   
 44  26  42  1   
 45  26  43  1   
 46  26  44  1   
@<TRIPOS>SUBSTRUCTURE
  1 ****  12 GROUP 4 **** **** 0

# MOE 2024.06 (io_trps.svl 2023.06)
