@<TRIPOS>MOLECULE
NONAME
36 37 1 0 0 
SMALL
USER_CHARGES


@<TRIPOS>ATOM
  1 O       -2.7650    -2.3460     0.8870 O.2   1 <1>  -0.5700 
  2 C       -2.2920    -1.5260     0.1210 C.2   1 <1>   0.7800 
  3 O       -1.0290    -1.6070    -0.2900 O.3   1 <1>  -0.4300 
  4 N       -3.0310    -0.4980    -0.3810 N.am  1 <1>  -0.6600 
  5 C        0.0210    -2.3270     0.3040 C.3   1 <1>   0.2800 
  6 C       -2.3640     0.8960    -0.9980 C.3   1 <1>   0.1140 
  7 C       -4.5250    -0.2400     0.0550 C.3   1 <1>   0.2200 
  8 C        1.2730    -1.8950    -0.4590 C.3   1 <1>  -0.2400 
  9 C       -0.2010    -3.8320     0.1230 C.3   1 <1>  -0.2400 
 10 C        0.1620    -1.9250     1.7760 C.3   1 <1>  -0.2400 
 11 C       -0.9890     1.3280    -0.4290 C.2   1 <1>   0.9060 
 12 C       -3.4980     2.0760    -0.7920 C.3   1 <1>  -0.0800 
 13 C       -5.6510     0.9330     0.3040 C.3   1 <1>   0.2000 
 14 C       -4.0400     0.9340    -0.3630 C.3   1 <1>  -0.1600 
 15 O       -0.0610     1.5460    -1.2200 O.co2 1 <1>  -0.9000 
 16 O       -0.8600     1.5210     0.7900 O.co2 1 <1>  -0.9000 
 17 C       -5.0460     2.3590    -0.3300 C.3   1 <1>  -0.1600 
 18 O       -5.8980     1.1100     1.6660 O.3   1 <1>  -0.6800 
 19 H       -2.2050     0.7440    -2.0520 H     1 <1>   0.0800 
 20 H       -5.0580    -0.8820    -0.6290 H     1 <1>   0.0800 
 21 H        2.1450    -2.3820    -0.0650 H     1 <1>   0.0800 
 22 H        1.4030    -0.8290    -0.3690 H     1 <1>   0.0800 
 23 H        1.1780    -2.1410    -1.5010 H     1 <1>   0.0800 
 24 H        0.6640    -4.3720     0.4590 H     1 <1>   0.0800 
 25 H       -0.3690    -4.0580    -0.9150 H     1 <1>   0.0800 
 26 H       -1.0430    -4.1680     0.6990 H     1 <1>   0.0800 
 27 H        1.0510    -2.3580     2.1960 H     1 <1>   0.0800 
 28 H       -0.6780    -2.2630     2.3530 H     1 <1>   0.0800 
 29 H        0.2320    -0.8530     1.8550 H     1 <1>   0.0800 
 30 H       -2.9740     2.7570    -0.1330 H     1 <1>   0.0800 
 31 H       -6.5900     0.6700    -0.1540 H     1 <1>   0.0800 
 32 H       -4.4150     0.6990    -1.4520 H     1 <1>   0.0800 
 33 H       -3.6070     1.1540     0.7160 H     1 <1>   0.0800 
 34 H       -5.6310     2.6550    -1.1880 H     1 <1>   0.0800 
 35 H       -5.1000     3.1560     0.3940 H     1 <1>   0.0800 
 36 H       -5.0430     1.2220     2.1300 H     1 <1>   0.4000 
@<TRIPOS>BOND
  1   1   2  2   
  2   2   3  1   
  3   2   4  am  
  4   3   5  1   
  5   4   6  1   
  6   4   7  1   
  7   5   8  1   
  8   5   9  1   
  9   5  10  1   
 10   6  11  1   
 11   6  12  1   
 12   6  19  1   
 13   7  13  1   
 14   7  14  1   
 15   7  20  1   
 16   8  21  1   
 17   8  22  1   
 18   8  23  1   
 19   9  24  1   
 20   9  25  1   
 21   9  26  1   
 22  10  27  1   
 23  10  28  1   
 24  10  29  1   
 25  11  15  ar  
 26  11  16  ar  
 27  12  14  1   
 28  12  17  1   
 29  12  30  1   
 30  13  17  1   
 31  13  18  1   
 32  13  31  1   
 33  14  32  1   
 34  14  33  1   
 35  17  34  1   
 36  17  35  1   
 37  18  36  1   
@<TRIPOS>SUBSTRUCTURE
  1 ****   4 GROUP 4 **** **** 0

# MOE 2024.06 (io_trps.svl 2023.06)
