@<TRIPOS>MOLECULE
NONAME
42 44 1 0 0 
SMALL
USER_CHARGES


@<TRIPOS>ATOM
  1 S        0.2560     0.3880    -0.0440 S.3   1 <1>  -0.0800 
  2 C        0.7600     2.0720    -0.2420 C.2   1 <1>   0.0410 
  3 C        1.8790    -0.2090    -0.3320 C.2   1 <1>  -0.1100 
  4 C       -0.2220     3.1200    -0.1060 C.2   1 <1>   0.2880 
  5 C        2.0900     2.0950    -0.5090 C.2   1 <1>  -0.1500 
  6 C        2.7210     0.8150    -0.5600 C.2   1 <1>  -0.1500 
  7 N       -1.5000     2.9300     0.1120 N.2   1 <1>  -0.7070 
  8 C        0.0530     4.4800    -0.1890 C.2   1 <1>  -0.1500 
  9 N       -2.0460     4.1480     0.1640 N.pl3 1 <1>   0.3140 
 10 C       -1.1270     5.1350    -0.0100 C.2   1 <1>  -0.2370 
 11 C       -3.4940     4.2870     0.4010 C.3   1 <1>   0.0160 
 12 C       -1.4120     6.5420     0.0070 C.2   1 <1>   0.7150 
 13 O       -2.5500     6.9610    -0.0870 O.2   1 <1>  -0.5700 
 14 N       -0.3600     7.4100     0.1430 N.am  1 <1>  -0.4940 
 15 C       -0.3290     8.8270     0.1150 C.2   1 <1>  -0.0880 
 16 N        0.7690     9.5890     0.3740 N.pl3 1 <1>   0.3140 
 17 C       -1.3250     9.6990    -0.1690 C.2   1 <1>  -0.1500 
 18 N        0.5000    10.9080     0.2610 N.2   1 <1>  -0.7070 
 19 C        2.1140     9.1220     0.7650 C.3   1 <1>   0.0960 
 20 C       -0.7520    10.9600    -0.0630 C.2   1 <1>   0.1080 
 21 C        2.9040     8.6270    -0.4560 C.3   1 <1>  -0.1600 
 22 C       -1.4740    12.2670    -0.2920 C.3   1 <1>  -0.0590 
 23 C        4.2810     8.0910    -0.0490 C.3   1 <1>  -0.2400 
 24 H        2.0290    -1.2740    -0.3000 H     1 <1>   0.1500 
 25 H        2.6640     2.9870    -0.6780 H     1 <1>   0.1500 
 26 H        3.7730     0.7200    -0.7650 H     1 <1>   0.1500 
 27 H        1.0290     4.8900    -0.3710 H     1 <1>   0.1500 
 28 H       -3.9210     3.3160     0.5700 H     1 <1>   0.0800 
 29 H       -3.9510     4.7350    -0.4610 H     1 <1>   0.0800 
 30 H       -3.6560     4.9070     1.2620 H     1 <1>   0.0800 
 31 H        0.5290     6.9400     0.2890 H     1 <1>   0.3700 
 32 H       -2.3460     9.4840    -0.4260 H     1 <1>   0.1500 
 33 H        2.0060     8.3400     1.4930 H     1 <1>   0.0800 
 34 H        2.6310     9.9450     1.2260 H     1 <1>   0.0800 
 35 H        3.0320     9.4470    -1.1430 H     1 <1>   0.0800 
 36 H        2.3560     7.8490    -0.9580 H     1 <1>   0.0800 
 37 H       -2.5020    12.0890    -0.5460 H     1 <1>   0.0800 
 38 H       -0.9990    12.8020    -1.0930 H     1 <1>   0.0800 
 39 H       -1.4280    12.8620     0.6020 H     1 <1>   0.0800 
 40 H        4.8580     8.8640     0.4290 H     1 <1>   0.0800 
 41 H        4.8180     7.7590    -0.9210 H     1 <1>   0.0800 
 42 H        4.1840     7.2620     0.6290 H     1 <1>   0.0800 
@<TRIPOS>BOND
  1   1   2  1   
  2   1   3  1   
  3   2   4  1   
  4   2   5  2   
  5   3   6  2   
  6   3  24  1   
  7   4   7  2   
  8   4   8  1   
  9   5   6  1   
 10   5  25  1   
 11   6  26  1   
 12   7   9  1   
 13   8  10  2   
 14   8  27  1   
 15   9  10  1   
 16   9  11  1   
 17  10  12  1   
 18  11  28  1   
 19  11  29  1   
 20  11  30  1   
 21  12  13  2   
 22  12  14  am  
 23  14  15  1   
 24  14  31  1   
 25  15  16  1   
 26  15  17  2   
 27  16  18  1   
 28  16  19  1   
 29  17  20  1   
 30  17  32  1   
 31  18  20  2   
 32  19  21  1   
 33  19  33  1   
 34  19  34  1   
 35  20  22  1   
 36  21  23  1   
 37  21  35  1   
 38  21  36  1   
 39  22  37  1   
 40  22  38  1   
 41  22  39  1   
 42  23  40  1   
 43  23  41  1   
 44  23  42  1   
@<TRIPOS>SUBSTRUCTURE
  1 ****  14 GROUP 4 **** **** 0

# MOE 2024.06 (io_trps.svl 2023.06)
