@<TRIPOS>MOLECULE
NONAME
47 49 1 0 0 
SMALL
USER_CHARGES


@<TRIPOS>ATOM
  1 S       -0.3390    -1.6200    -2.0590 S.3   1 <1>  -0.2860 
  2 C       -1.3140    -2.7690    -1.0820 C.2   1 <1>   0.2420 
  3 C        1.3790    -2.2730    -1.8870 C.3   1 <1>  -0.0100 
  4 N       -0.7930    -3.7770    -0.4670 N.2   1 <1>  -0.5650 
  5 N       -2.6530    -2.6290    -0.9500 N.pl3 1 <1>   0.0480 
  6 C       -1.8660    -4.3480     0.1150 C.2   1 <1>   0.0770 
  7 C       -3.0100    -3.6760    -0.1700 C.2   1 <1>  -0.3320 
  8 C       -3.5090    -1.5740    -1.5300 C.3   1 <1>   0.0160 
  9 C       -4.4370    -3.9540     0.2600 C.3   1 <1>   0.3200 
 10 N       -4.5410    -5.3450     0.7150 N.am  1 <1>  -0.7300 
 11 C       -5.3360    -5.7530     1.7310 C.2   1 <1>   0.5690 
 12 O       -6.0470    -4.9900     2.3350 O.2   1 <1>  -0.5700 
 13 C       -5.3480    -7.2200     2.1070 C.3   1 <1>  -0.0990 
 14 C       -6.3730    -8.0050     1.2740 C.3   1 <1>  -0.1600 
 15 C       -6.4450    -9.4710     1.7120 C.3   1 <1>   0.1400 
 16 N       -7.4010   -10.2060     0.8480 N.am  1 <1>  -0.4200 
 17 C       -6.9850   -10.7840    -0.3310 C.2   1 <1>   0.5440 
 18 C       -8.7190   -10.3030     1.2220 C.2   1 <1>   0.4500 
 19 O       -5.8180   -10.6890    -0.6770 O.2   1 <1>  -0.5700 
 20 C       -7.9600   -11.4820    -1.1210 C.ar  1 <1>   0.0860 
 21 N       -9.6230   -10.9100     0.5510 N.2   1 <1>  -0.6290 
 22 C       -9.2740   -11.5190    -0.6380 C.ar  1 <1>   0.1790 
 23 C       -7.6680   -12.1170    -2.3320 C.ar  1 <1>  -0.1500 
 24 C      -10.2530   -12.1820    -1.3700 C.ar  1 <1>  -0.1500 
 25 C       -8.6500   -12.7700    -3.0470 C.ar  1 <1>  -0.1500 
 26 C       -9.9500   -12.8030    -2.5640 C.ar  1 <1>  -0.1500 
 27 H        2.0350    -1.6320    -2.4470 H     1 <1>   0.0800 
 28 H        1.3870    -3.2760    -2.2760 H     1 <1>   0.0800 
 29 H        1.6260    -2.2680    -0.8410 H     1 <1>   0.0800 
 30 H       -1.7540    -5.2280     0.7250 H     1 <1>   0.1500 
 31 H       -2.9520    -0.6580    -1.6070 H     1 <1>   0.0800 
 32 H       -4.3630    -1.4090    -0.9000 H     1 <1>   0.0800 
 33 H       -3.8310    -1.8790    -2.5080 H     1 <1>   0.0800 
 34 H       -5.1080    -3.8150    -0.5710 H     1 <1>   0.0800 
 35 H       -4.7230    -3.2790     1.0500 H     1 <1>   0.0800 
 36 H       -3.9840    -6.0120     0.1810 H     1 <1>   0.3700 
 37 H       -5.5930    -7.2940     3.1520 H     1 <1>   0.0800 
 38 H       -4.3640    -7.6290     1.9670 H     1 <1>   0.0800 
 39 H       -6.0930    -7.9560     0.2360 H     1 <1>   0.0800 
 40 H       -7.3420    -7.5480     1.3890 H     1 <1>   0.0800 
 41 H       -6.7640    -9.5350     2.7380 H     1 <1>   0.0800 
 42 H       -5.4710    -9.9260     1.6390 H     1 <1>   0.0800 
 43 H       -8.9870    -9.8260     2.1480 H     1 <1>   0.0600 
 44 H       -6.6570   -12.0890    -2.7040 H     1 <1>   0.1500 
 45 H      -11.2570   -12.2000    -0.9850 H     1 <1>   0.1500 
 46 H       -8.4120   -13.2550    -3.9790 H     1 <1>   0.1500 
 47 H      -10.7170   -13.3130    -3.1210 H     1 <1>   0.1500 
@<TRIPOS>BOND
  1   1   2  1   
  2   1   3  1   
  3   2   4  2   
  4   2   5  1   
  5   3  27  1   
  6   3  28  1   
  7   3  29  1   
  8   4   6  1   
  9   5   7  1   
 10   5   8  1   
 11   6   7  2   
 12   6  30  1   
 13   7   9  1   
 14   8  31  1   
 15   8  32  1   
 16   8  33  1   
 17   9  10  1   
 18   9  34  1   
 19   9  35  1   
 20  10  11  am  
 21  10  36  1   
 22  11  12  2   
 23  11  13  1   
 24  13  14  1   
 25  13  37  1   
 26  13  38  1   
 27  14  15  1   
 28  14  39  1   
 29  14  40  1   
 30  15  16  1   
 31  15  41  1   
 32  15  42  1   
 33  16  17  am  
 34  16  18  1   
 35  17  19  2   
 36  17  20  1   
 37  18  21  2   
 38  18  43  1   
 39  20  22  ar  
 40  20  23  ar  
 41  21  22  1   
 42  22  24  ar  
 43  23  25  ar  
 44  23  44  1   
 45  24  26  ar  
 46  24  45  1   
 47  25  26  ar  
 48  25  46  1   
 49  26  47  1   
@<TRIPOS>SUBSTRUCTURE
  1 ****  14 GROUP 4 **** **** 0

# MOE 2024.06 (io_trps.svl 2023.06)
