@<TRIPOS>MOLECULE
NONAME
46 49 1 0 0 
SMALL
USER_CHARGES


@<TRIPOS>ATOM
  1 S        1.5920    -5.5890    -2.7340 S.3   1 <1>  -0.0800 
  2 C        0.6370    -4.2360    -2.1730 C.2   1 <1>   0.1980 
  3 C        1.6550    -6.1880    -1.1030 C.2   1 <1>  -0.1100 
  4 N        0.4010    -4.2420    -0.9220 N.2   1 <1>  -0.5650 
  5 C        0.2000    -3.2240    -3.2070 C.3   1 <1>  -0.0600 
  6 C        0.9770    -5.3470    -0.3050 C.2   1 <1>   0.0460 
  7 C        0.7720    -5.5110     1.1960 C.3   1 <1>   0.5240 
  8 N       -0.6310    -5.9430     1.4540 N.4   1 <1>  -0.9590 
  9 C       -1.6660    -4.9240     1.0920 C.3   1 <1>   0.3430 
 10 C       -0.9790    -6.4420     2.8070 C.3   1 <1>   0.3430 
 11 C       -2.8530    -5.1740     2.0380 C.3   1 <1>   0.2000 
 12 C       -2.5140    -6.4510     2.8200 C.3   1 <1>  -0.0800 
 13 O       -2.9590    -4.1210     2.9390 O.3   1 <1>  -0.6800 
 14 C       -3.1250    -7.7420     2.2010 C.3   1 <1>  -0.0160 
 15 C       -2.3390    -8.2640     0.9970 C.ar  1 <1>  -0.1440 
 16 C       -2.5110    -7.7660    -0.3180 C.ar  1 <1>   0.0000 
 17 C       -1.3590    -9.1950     1.1940 C.ar  1 <1>  -0.1500 
 18 C       -1.5410    -8.1250    -1.2840 C.ar  1 <1>   0.3100 
 19 C       -3.5700    -6.9240    -0.7290 C.ar  1 <1>  -0.1500 
 20 C       -0.4930    -9.5380     0.1500 C.ar  1 <1>   0.1600 
 21 N       -0.5330    -8.9930    -1.0220 N.ar  1 <1>  -0.6200 
 22 C       -1.6100    -7.5560    -2.5650 C.ar  1 <1>  -0.1500 
 23 C       -3.6170    -6.3940    -1.9890 C.ar  1 <1>  -0.1500 
 24 C       -2.6190    -6.7010    -2.9160 C.ar  1 <1>  -0.1500 
 25 H        2.1880    -7.1080    -0.9360 H     1 <1>   0.1500 
 26 H       -0.3700    -2.4430    -2.7380 H     1 <1>   0.0800 
 27 H       -0.4080    -3.7030    -3.9520 H     1 <1>   0.0800 
 28 H        1.0620    -2.7910    -3.6790 H     1 <1>   0.0800 
 29 H        0.9810    -4.5780     1.6920 H     1 <1>   0.0800 
 30 H        1.4560    -6.2590     1.5610 H     1 <1>   0.0800 
 31 H       -0.7930    -6.7270     0.7970 H     1 <1>   0.4500 
 32 H       -1.2920    -3.9220     1.2230 H     1 <1>   0.0800 
 33 H       -1.9610    -5.0520     0.0630 H     1 <1>   0.0800 
 34 H       -0.5720    -7.4240     2.9890 H     1 <1>   0.0800 
 35 H       -0.6140    -5.7580     3.5550 H     1 <1>   0.0800 
 36 H       -3.7890    -5.2320     1.5110 H     1 <1>   0.0800 
 37 H       -2.8800    -6.3750     3.8300 H     1 <1>   0.0800 
 38 H       -2.1480    -3.9660     3.4590 H     1 <1>   0.4000 
 39 H       -4.1610    -7.5920     1.9550 H     1 <1>   0.0800 
 40 H       -3.1170    -8.5070     2.9600 H     1 <1>   0.0800 
 41 H       -1.2060    -9.6710     2.1470 H     1 <1>   0.1500 
 42 H       -4.3710    -6.7000    -0.0490 H     1 <1>   0.1500 
 43 H        0.2650   -10.2810     0.3390 H     1 <1>   0.1500 
 44 H       -0.8430    -7.8210    -3.2700 H     1 <1>   0.1500 
 45 H       -4.4240    -5.7460    -2.2910 H     1 <1>   0.1500 
 46 H       -2.6620    -6.2730    -3.9040 H     1 <1>   0.1500 
@<TRIPOS>BOND
  1   1   2  1   
  2   1   3  1   
  3   2   4  2   
  4   2   5  1   
  5   3   6  2   
  6   3  25  1   
  7   4   6  1   
  8   5  26  1   
  9   5  27  1   
 10   5  28  1   
 11   6   7  1   
 12   7   8  1   
 13   7  29  1   
 14   7  30  1   
 15   8   9  1   
 16   8  10  1   
 17   8  31  1   
 18   9  11  1   
 19   9  32  1   
 20   9  33  1   
 21  10  12  1   
 22  10  34  1   
 23  10  35  1   
 24  11  12  1   
 25  11  13  1   
 26  11  36  1   
 27  12  14  1   
 28  12  37  1   
 29  13  38  1   
 30  14  15  1   
 31  14  39  1   
 32  14  40  1   
 33  15  16  ar  
 34  15  17  ar  
 35  16  18  ar  
 36  16  19  ar  
 37  17  20  ar  
 38  17  41  1   
 39  18  21  ar  
 40  18  22  ar  
 41  19  23  ar  
 42  19  42  1   
 43  20  21  ar  
 44  20  43  1   
 45  22  24  ar  
 46  22  44  1   
 47  23  24  ar  
 48  23  45  1   
 49  24  46  1   
@<TRIPOS>SUBSTRUCTURE
  1 ****   8 GROUP 4 **** **** 0

# MOE 2024.06 (io_trps.svl 2023.06)
