@<TRIPOS>MOLECULE
NONAME
44 47 1 0 0 
SMALL
USER_CHARGES


@<TRIPOS>ATOM
  1 S        0.1490    -0.0760     0.1570 S.3   1 <1>  -0.0800 
  2 C        0.4720     1.6370     0.0270 C.ar  1 <1>   0.0400 
  3 C       -1.5600     0.2460    -0.1150 C.2   1 <1>   0.1980 
  4 C       -0.7250     2.2840    -0.2080 C.ar  1 <1>   0.2270 
  5 C        1.6800     2.2990     0.1280 C.ar  1 <1>  -0.1500 
  6 N       -1.8520     1.4700    -0.2800 N.2   1 <1>  -0.5650 
  7 C       -2.4870    -0.9470    -0.1240 C.3   1 <1>  -0.0600 
  8 C       -0.7150     3.6610    -0.3470 C.ar  1 <1>  -0.1500 
  9 C        1.6680     3.6750    -0.0120 C.ar  1 <1>  -0.1500 
 10 C        0.4750     4.3830    -0.2420 C.ar  1 <1>   0.0860 
 11 C        0.4650     5.8270    -0.3660 C.2   1 <1>   0.5440 
 12 O       -0.2720     6.3690    -1.1660 O.2   1 <1>  -0.5700 
 13 N        1.2910     6.5810     0.4340 N.am  1 <1>  -0.4940 
 14 C        1.3970     7.9900     0.5170 C.2   1 <1>  -0.0880 
 15 N        2.5630     8.6890     0.4480 N.pl3 1 <1>   0.3140 
 16 C        0.4130     8.9050     0.6880 C.2   1 <1>  -0.1810 
 17 N        2.3470    10.0210     0.5930 N.2   1 <1>  -0.7070 
 18 C        3.9180     8.1190     0.1950 C.3   1 <1>   0.1760 
 19 C        1.0620    10.1330     0.7250 C.2   1 <1>   0.1390 
 20 C       -1.0840     8.6920     0.8140 C.3   1 <1>  -0.0590 
 21 C        4.8930     8.3480     1.3510 C.3   1 <1>  -0.1600 
 22 C        4.6260     8.7380    -1.0100 C.3   1 <1>  -0.1600 
 23 C        6.2900     8.2610     0.7260 C.3   1 <1>  -0.1600 
 24 C        6.1070     8.4270    -0.7890 C.3   1 <1>  -0.1600 
 25 H        2.5900     1.7500     0.3040 H     1 <1>   0.1500 
 26 H       -2.2000    -1.6270    -0.9040 H     1 <1>   0.0800 
 27 H       -3.4960    -0.6200    -0.2990 H     1 <1>   0.0800 
 28 H       -2.4420    -1.4510     0.8240 H     1 <1>   0.0800 
 29 H       -1.6430     4.1690    -0.5370 H     1 <1>   0.1500 
 30 H        2.5990     4.2100     0.0460 H     1 <1>   0.1500 
 31 H        1.8220     6.0590     1.1290 H     1 <1>   0.3700 
 32 H        3.8260     7.0630     0.0230 H     1 <1>   0.0800 
 33 H        0.5650    11.0790     0.8510 H     1 <1>   0.1500 
 34 H       -1.2950     7.6800     1.1060 H     1 <1>   0.0800 
 35 H       -1.5550     8.8790    -0.1340 H     1 <1>   0.0800 
 36 H       -1.4950     9.3580     1.5510 H     1 <1>   0.0800 
 37 H        4.7600     7.6260     2.1360 H     1 <1>   0.0800 
 38 H        4.7510     9.3390     1.7480 H     1 <1>   0.0800 
 39 H        4.4890     9.8070    -1.0040 H     1 <1>   0.0800 
 40 H        4.2620     8.3360    -1.9390 H     1 <1>   0.0800 
 41 H        6.7380     7.3040     0.9370 H     1 <1>   0.0800 
 42 H        6.9260     9.0340     1.1240 H     1 <1>   0.0800 
 43 H        6.7300     9.2140    -1.1790 H     1 <1>   0.0800 
 44 H        6.3630     7.5060    -1.2850 H     1 <1>   0.0800 
@<TRIPOS>BOND
  1   1   2  1   
  2   1   3  1   
  3   2   4  ar  
  4   2   5  ar  
  5   3   6  2   
  6   3   7  1   
  7   4   6  1   
  8   4   8  ar  
  9   5   9  ar  
 10   5  25  1   
 11   7  26  1   
 12   7  27  1   
 13   7  28  1   
 14   8  10  ar  
 15   8  29  1   
 16   9  10  ar  
 17   9  30  1   
 18  10  11  1   
 19  11  12  2   
 20  11  13  am  
 21  13  14  1   
 22  13  31  1   
 23  14  15  1   
 24  14  16  2   
 25  15  17  1   
 26  15  18  1   
 27  16  19  1   
 28  16  20  1   
 29  17  19  2   
 30  18  21  1   
 31  18  22  1   
 32  18  32  1   
 33  19  33  1   
 34  20  34  1   
 35  20  35  1   
 36  20  36  1   
 37  21  23  1   
 38  21  37  1   
 39  21  38  1   
 40  22  24  1   
 41  22  39  1   
 42  22  40  1   
 43  23  24  1   
 44  23  41  1   
 45  23  42  1   
 46  24  43  1   
 47  24  44  1   
@<TRIPOS>SUBSTRUCTURE
  1 ****  11 GROUP 4 **** **** 0

# MOE 2024.06 (io_trps.svl 2023.06)
