@<TRIPOS>MOLECULE
NONAME
43 44 1 0 0 
SMALL
USER_CHARGES


@<TRIPOS>ATOM
  1 CL      -0.1770     0.5540    -1.1280 Cl    1 <1>  -0.1770 
  2 C       -1.8130     0.8720    -0.6160 C.ar  1 <1>   0.1770 
  3 C       -2.6270    -0.1790    -0.2400 C.ar  1 <1>  -0.1500 
  4 C       -2.2770     2.1730    -0.5890 C.ar  1 <1>  -0.1500 
  5 C       -3.9230     0.0800     0.1680 C.ar  1 <1>  -0.1500 
  6 C       -3.5760     2.4200    -0.1810 C.ar  1 <1>  -0.1500 
  7 C       -4.4290     1.3820     0.2040 C.ar  1 <1>   0.0530 
  8 C       -5.7750     1.6670     0.6360 C.2   1 <1>   0.0870 
  9 O       -6.0000     2.7340     1.3620 O.3   1 <1>  -0.0190 
 10 C       -6.9740     1.0400     0.4740 C.2   1 <1>  -0.0860 
 11 N       -7.2530     2.8670     1.7050 N.2   1 <1>  -0.4100 
 12 C       -7.8570     1.8690     1.1780 C.2   1 <1>   0.3720 
 13 C       -7.3240    -0.1590    -0.2250 C.2   1 <1>   0.7160 
 14 N       -9.2280     1.7170     1.3360 N.pl3 1 <1>  -0.8520 
 15 O       -6.6020    -0.6360    -1.0780 O.2   1 <1>  -0.5700 
 16 N       -8.4970    -0.7880     0.0610 N.am  1 <1>  -0.7300 
 17 C      -10.0270     2.1220     0.1460 C.3   1 <1>   0.2090 
 18 C       -9.0470    -1.9800    -0.6110 C.3   1 <1>   0.1400 
 19 C      -11.3840     1.4170     0.1560 C.3   1 <1>   0.1200 
 20 C       -9.7900    -2.8300     0.4190 C.3   1 <1>  -0.1600 
 21 O      -12.0990     1.8160    -0.9690 O.3   1 <1>  -0.5600 
 22 C      -10.4000    -4.0790    -0.2270 C.3   1 <1>  -0.2400 
 23 C      -13.3580     1.2350    -1.0750 C.3   1 <1>   0.0400 
 24 H       -2.2480    -1.1850    -0.2690 H     1 <1>   0.1500 
 25 H       -1.6270     2.9770    -0.8850 H     1 <1>   0.1500 
 26 H       -4.5520    -0.7410     0.4630 H     1 <1>   0.1500 
 27 H       -3.9400     3.4320    -0.1600 H     1 <1>   0.1500 
 28 H       -9.4990     2.3210     2.1210 H     1 <1>   0.4000 
 29 H       -9.1070    -0.2970     0.7250 H     1 <1>   0.3700 
 30 H       -9.5030     1.8610    -0.7580 H     1 <1>   0.0800 
 31 H      -10.1770     3.1880     0.1630 H     1 <1>   0.0800 
 32 H       -8.2480    -2.5500    -1.0560 H     1 <1>   0.0800 
 33 H       -9.7200    -1.6670    -1.3920 H     1 <1>   0.0800 
 34 H      -11.9420     1.6920     1.0340 H     1 <1>   0.0800 
 35 H      -11.2490     0.3500     0.1150 H     1 <1>   0.0800 
 36 H      -10.5760    -2.2480     0.8680 H     1 <1>   0.0800 
 37 H       -9.1020    -3.1340     1.1890 H     1 <1>   0.0800 
 38 H      -11.1050    -3.8030    -0.9930 H     1 <1>   0.0800 
 39 H      -10.9140    -4.6640     0.5160 H     1 <1>   0.0800 
 40 H       -9.6300    -4.6880    -0.6680 H     1 <1>   0.0800 
 41 H      -13.8240     1.6080    -1.9710 H     1 <1>   0.0800 
 42 H      -13.9510     1.5080    -0.2190 H     1 <1>   0.0800 
 43 H      -13.2530     0.1660    -1.1400 H     1 <1>   0.0800 
@<TRIPOS>BOND
  1   1   2  1   
  2   2   3  ar  
  3   2   4  ar  
  4   3   5  ar  
  5   3  24  1   
  6   4   6  ar  
  7   4  25  1   
  8   5   7  ar  
  9   5  26  1   
 10   6   7  ar  
 11   6  27  1   
 12   7   8  1   
 13   8   9  1   
 14   8  10  2   
 15   9  11  1   
 16  10  12  1   
 17  10  13  1   
 18  11  12  2   
 19  12  14  1   
 20  13  15  2   
 21  13  16  am  
 22  14  17  1   
 23  14  28  1   
 24  16  18  1   
 25  16  29  1   
 26  17  19  1   
 27  17  30  1   
 28  17  31  1   
 29  18  20  1   
 30  18  32  1   
 31  18  33  1   
 32  19  21  1   
 33  19  34  1   
 34  19  35  1   
 35  20  22  1   
 36  20  36  1   
 37  20  37  1   
 38  21  23  1   
 39  22  38  1   
 40  22  39  1   
 41  22  40  1   
 42  23  41  1   
 43  23  42  1   
 44  23  43  1   
@<TRIPOS>SUBSTRUCTURE
  1 ****  10 GROUP 4 **** **** 0

# MOE 2024.06 (io_trps.svl 2023.06)
