@<TRIPOS>MOLECULE
NONAME
53 55 1 0 0 
SMALL
USER_CHARGES


@<TRIPOS>ATOM
  1 O       -1.1200    -1.9630     0.2120 O.co2 1 <1>  -0.9000 
  2 C       -0.7660    -2.7540    -0.6710 C.2   1 <1>   1.0330 
  3 O       -1.6760    -3.3320    -1.3020 O.co2 1 <1>  -0.9000 
  4 C        0.5700    -3.2520    -0.7370 C.2   1 <1>  -0.2330 
  5 C        0.8010    -4.6220    -0.7210 C.2   1 <1>   0.3720 
  6 C        1.8240    -2.7250    -0.7420 C.2   1 <1>   0.0870 
  7 N        2.0450    -4.9110    -0.6990 N.2   1 <1>  -0.4100 
  8 N       -0.2300    -5.5440    -0.7140 N.pl3 1 <1>  -0.8520 
  9 O        2.6530    -3.7500    -0.7200 O.3   1 <1>  -0.0190 
 10 C        2.3470    -1.3750    -0.7630 C.ar  1 <1>   0.0530 
 11 C       -0.8380    -5.6700     0.6450 C.3   1 <1>   0.2090 
 12 C        1.5180    -0.2510    -0.7840 C.ar  1 <1>  -0.1500 
 13 C        3.7250    -1.1400    -0.7670 C.ar  1 <1>  -0.1500 
 14 C       -2.3010    -6.2630     0.6620 C.3   1 <1>   0.5030 
 15 C        2.0330     1.0320    -0.8070 C.ar  1 <1>  -0.1500 
 16 C        4.2470     0.1400    -0.7910 C.ar  1 <1>  -0.1500 
 17 N       -3.1770    -5.4020     1.5610 N.4   1 <1>  -0.9590 
 18 C       -2.2190    -7.7000     1.2160 C.3   1 <1>  -0.1600 
 19 C       -2.9570    -6.3810    -0.7450 C.3   1 <1>  -0.1600 
 20 C        3.4000     1.2320    -0.8110 C.ar  1 <1>  -0.1500 
 21 C       -4.5480    -5.9190     1.8850 C.3   1 <1>   0.2630 
 22 C       -3.3210    -3.9840     1.0450 C.3   1 <1>   0.2630 
 23 C       -1.3150    -8.6120     0.3640 C.3   1 <1>   0.3430 
 24 C       -2.4920    -7.5810    -1.5860 C.3   1 <1>   0.3430 
 25 N       -1.2260    -8.1490    -1.0520 N.4   1 <1>  -0.9590 
 26 C       -0.6600    -9.1980    -1.9530 C.3   1 <1>   0.2630 
 27 H       -0.9420    -5.0160    -1.2730 H     1 <1>   0.4000 
 28 H       -0.8320    -4.7040     1.1180 H     1 <1>   0.0800 
 29 H       -0.1810    -6.2810     1.2390 H     1 <1>   0.0800 
 30 H        0.4510    -0.3700    -0.7780 H     1 <1>   0.1500 
 31 H        4.4030    -1.9750    -0.7520 H     1 <1>   0.1500 
 32 H        1.3630     1.8740    -0.8200 H     1 <1>   0.1500 
 33 H        5.3130     0.2860    -0.7940 H     1 <1>   0.1500 
 34 H       -2.6780    -5.3000     2.4570 H     1 <1>   0.4500 
 35 H       -3.1950    -8.1510     1.2300 H     1 <1>   0.0800 
 36 H       -1.8480    -7.6980     2.2260 H     1 <1>   0.0800 
 37 H       -2.7950    -5.4900    -1.3200 H     1 <1>   0.0800 
 38 H       -4.0220    -6.4790    -0.6600 H     1 <1>   0.0800 
 39 H        3.8010     2.2300    -0.8290 H     1 <1>   0.1500 
 40 H       -5.1490    -5.9890     0.9930 H     1 <1>   0.0800 
 41 H       -5.0430    -5.2460     2.5690 H     1 <1>   0.0800 
 42 H       -4.4930    -6.8890     2.3500 H     1 <1>   0.0800 
 43 H       -3.6210    -3.9680     0.0090 H     1 <1>   0.0800 
 44 H       -2.3890    -3.4550     1.1270 H     1 <1>   0.0800 
 45 H       -4.0510    -3.4380     1.6200 H     1 <1>   0.0800 
 46 H       -1.6990    -9.6200     0.3980 H     1 <1>   0.0800 
 47 H       -0.3210    -8.6270     0.7840 H     1 <1>   0.0800 
 48 H       -2.3510    -7.2630    -2.6080 H     1 <1>   0.0800 
 49 H       -3.2540    -8.3440    -1.5770 H     1 <1>   0.0800 
 50 H       -0.5440    -7.3490    -1.0750 H     1 <1>   0.4500 
 51 H       -1.3170   -10.0500    -2.0020 H     1 <1>   0.0800 
 52 H        0.3030    -9.5210    -1.5900 H     1 <1>   0.0800 
 53 H       -0.5300    -8.8030    -2.9480 H     1 <1>   0.0800 
@<TRIPOS>BOND
  1   1   2  ar  
  2   2   3  ar  
  3   2   4  1   
  4   4   5  1   
  5   4   6  2   
  6   5   7  2   
  7   5   8  1   
  8   6   9  1   
  9   6  10  1   
 10   7   9  1   
 11   8  11  1   
 12   8  27  1   
 13  10  12  ar  
 14  10  13  ar  
 15  11  14  1   
 16  11  28  1   
 17  11  29  1   
 18  12  15  ar  
 19  12  30  1   
 20  13  16  ar  
 21  13  31  1   
 22  14  17  1   
 23  14  18  1   
 24  14  19  1   
 25  15  20  ar  
 26  15  32  1   
 27  16  20  ar  
 28  16  33  1   
 29  17  21  1   
 30  17  22  1   
 31  17  34  1   
 32  18  23  1   
 33  18  35  1   
 34  18  36  1   
 35  19  24  1   
 36  19  37  1   
 37  19  38  1   
 38  20  39  1   
 39  21  40  1   
 40  21  41  1   
 41  21  42  1   
 42  22  43  1   
 43  22  44  1   
 44  22  45  1   
 45  23  25  1   
 46  23  46  1   
 47  23  47  1   
 48  24  25  1   
 49  24  48  1   
 50  24  49  1   
 51  25  26  1   
 52  25  50  1   
 53  26  51  1   
 54  26  52  1   
 55  26  53  1   
@<TRIPOS>SUBSTRUCTURE
  1 ****   5 GROUP 4 **** **** 0

# MOE 2024.06 (io_trps.svl 2023.06)
