@<TRIPOS>MOLECULE
NONAME
53 55 1 0 0 
SMALL
USER_CHARGES


@<TRIPOS>ATOM
  1 O        4.0280    -1.1260     1.8850 O.2   1 <1>  -0.5700 
  2 C        3.6020    -1.4670     0.7950 C.2   1 <1>   0.5440 
  3 N        4.2570    -0.9640    -0.3040 N.am  1 <1>  -0.6600 
  4 C        2.4160    -2.2920     0.6750 C.ar  1 <1>   0.0860 
  5 C        5.7510    -0.8400    -0.2860 C.3   1 <1>   0.1400 
  6 C        3.5530    -0.0470    -1.2370 C.3   1 <1>   0.1400 
  7 C        2.1730    -3.0430    -0.4750 C.ar  1 <1>   0.1600 
  8 C        1.4700    -2.3750     1.6890 C.ar  1 <1>  -0.1500 
  9 C        6.2400     0.5500     0.1670 C.3   1 <1>   0.3430 
 10 C        3.1600     1.2470    -0.5070 C.3   1 <1>  -0.1600 
 11 N        1.1140    -3.8030    -0.6970 N.ar  1 <1>  -0.6200 
 12 C        0.3620    -3.1690     1.4830 C.ar  1 <1>  -0.1500 
 13 N        5.2000     1.2830     0.9550 N.4   1 <1>  -0.9590 
 14 C        4.3210     2.0780     0.0560 C.3   1 <1>   0.3430 
 15 C        0.2310    -3.8510     0.2870 C.ar  1 <1>   0.1600 
 16 C        5.8430     2.1350     2.0020 C.3   1 <1>   0.5240 
 17 C        6.5380     3.3580     1.3970 C.2   1 <1>   0.0460 
 18 N        7.4440     3.2430     0.4010 N.2   1 <1>  -0.5650 
 19 C        6.3680     4.6560     1.7350 C.2   1 <1>  -0.3020 
 20 C        7.8120     4.4610     0.1640 C.2   1 <1>   0.0060 
 21 N        7.1890     5.3700     0.9440 N.pl3 1 <1>   0.0330 
 22 C        8.8430     4.8510    -0.8810 C.3   1 <1>   0.0200 
 23 C       10.1510     5.3090    -0.2230 C.3   1 <1>  -0.1600 
 24 C       11.2080     5.6790    -1.2720 C.3   1 <1>  -0.1600 
 25 C       12.5090     6.1330    -0.6040 C.3   1 <1>  -0.2400 
 26 H        6.1480    -1.0630    -1.2610 H     1 <1>   0.0800 
 27 H        6.1500    -1.5760     0.3910 H     1 <1>   0.0800 
 28 H        2.6640    -0.5280    -1.6120 H     1 <1>   0.0800 
 29 H        4.1840     0.1760    -2.0810 H     1 <1>   0.0800 
 30 H        2.9050    -3.0130    -1.2630 H     1 <1>   0.1500 
 31 H        1.6020    -1.8350     2.6110 H     1 <1>   0.1500 
 32 H        6.5190     1.1350    -0.6940 H     1 <1>   0.0800 
 33 H        7.1320     0.4210     0.7590 H     1 <1>   0.0800 
 34 H        2.4700     1.0200     0.2850 H     1 <1>   0.0800 
 35 H        2.6260     1.8680    -1.2040 H     1 <1>   0.0800 
 36 H       -0.3950    -3.2620     2.2410 H     1 <1>   0.1500 
 37 H        4.6380     0.5400     1.4200 H     1 <1>   0.4500 
 38 H        3.9050     2.9080     0.6050 H     1 <1>   0.0800 
 39 H        4.9100     2.4880    -0.7490 H     1 <1>   0.0800 
 40 H       -0.6390    -4.4680     0.1320 H     1 <1>   0.1500 
 41 H        6.5700     1.5540     2.5450 H     1 <1>   0.0800 
 42 H        5.0970     2.4720     2.7020 H     1 <1>   0.0800 
 43 H        5.7340     5.1100     2.4770 H     1 <1>   0.1500 
 44 H        7.3340     6.3860     0.9360 H     1 <1>   0.2700 
 45 H        8.4460     5.6340    -1.5010 H     1 <1>   0.0800 
 46 H        9.0400     3.9990    -1.5090 H     1 <1>   0.0800 
 47 H       10.5260     4.5130     0.3980 H     1 <1>   0.0800 
 48 H        9.9610     6.1610     0.4060 H     1 <1>   0.0800 
 49 H       10.8390     6.4720    -1.9000 H     1 <1>   0.0800 
 50 H       11.4140     4.8270    -1.8970 H     1 <1>   0.0800 
 51 H       12.3370     7.0020     0.0080 H     1 <1>   0.0800 
 52 H       13.2390     6.3830    -1.3530 H     1 <1>   0.0800 
 53 H       12.9090     5.3480     0.0140 H     1 <1>   0.0800 
@<TRIPOS>BOND
  1   1   2  2   
  2   2   3  am  
  3   2   4  1   
  4   3   5  1   
  5   3   6  1   
  6   4   7  ar  
  7   4   8  ar  
  8   5   9  1   
  9   5  26  1   
 10   5  27  1   
 11   6  10  1   
 12   6  28  1   
 13   6  29  1   
 14   7  11  ar  
 15   7  30  1   
 16   8  12  ar  
 17   8  31  1   
 18   9  13  1   
 19   9  32  1   
 20   9  33  1   
 21  10  14  1   
 22  10  34  1   
 23  10  35  1   
 24  11  15  ar  
 25  12  15  ar  
 26  12  36  1   
 27  13  14  1   
 28  13  16  1   
 29  13  37  1   
 30  14  38  1   
 31  14  39  1   
 32  15  40  1   
 33  16  17  1   
 34  16  41  1   
 35  16  42  1   
 36  17  18  1   
 37  17  19  2   
 38  18  20  2   
 39  19  21  1   
 40  19  43  1   
 41  20  21  1   
 42  20  22  1   
 43  21  44  1   
 44  22  23  1   
 45  22  45  1   
 46  22  46  1   
 47  23  24  1   
 48  23  47  1   
 49  23  48  1   
 50  24  25  1   
 51  24  49  1   
 52  24  50  1   
 53  25  51  1   
 54  25  52  1   
 55  25  53  1   
@<TRIPOS>SUBSTRUCTURE
  1 ****  13 GROUP 4 **** **** 0

# MOE 2024.06 (io_trps.svl 2023.06)
