@<TRIPOS>MOLECULE
NONAME
50 52 1 0 0 
SMALL
USER_CHARGES


@<TRIPOS>ATOM
  1 O        1.3780     1.6080    -1.3880 O.3   1 <1>  -0.0190 
  2 N        2.2250     0.6320    -1.2640 N.2   1 <1>  -0.4100 
  3 C        0.7910     1.8900    -0.2550 C.2   1 <1>  -0.0400 
  4 C        2.1670     0.2590    -0.0350 C.2   1 <1>   0.1080 
  5 C        1.2570     1.0400     0.6730 C.2   1 <1>  -0.1500 
  6 C       -0.2000     3.0350    -0.1830 C.3   1 <1>   0.0200 
  7 C        2.9800    -0.8750     0.5490 C.3   1 <1>  -0.0590 
  8 C        0.3660     4.2760    -0.9010 C.3   1 <1>  -0.0800 
  9 C       -0.4120     5.5760    -0.7150 C.3   1 <1>   0.2000 
 10 C        1.7940     4.6230    -0.4650 C.3   1 <1>   0.3430 
 11 O       -0.6990     5.7520     0.6440 O.3   1 <1>  -0.5600 
 12 C        0.6320     6.6190    -1.1100 C.3   1 <1>   0.3430 
 13 N        1.9360     6.1100    -0.5680 N.4   1 <1>  -0.9590 
 14 C       -2.0580     5.7810     0.9630 C.3   1 <1>   0.0400 
 15 C        2.2240     6.6890     0.7780 C.3   1 <1>   0.4860 
 16 C        2.3760     8.1920     0.6660 C.ar  1 <1>  -0.1430 
 17 C        3.5330     8.7460     0.1390 C.ar  1 <1>   0.1600 
 18 C        1.3640     9.0340     1.0880 C.ar  1 <1>  -0.1500 
 19 N        3.7470    10.0370    -0.0220 N.ar  1 <1>  -0.6200 
 20 C        1.5770    10.3860     0.9350 C.ar  1 <1>  -0.1500 
 21 C        2.7640    10.8390     0.3810 C.ar  1 <1>   0.3930 
 22 O        2.9080    12.1720     0.2520 O.3   1 <1>  -0.3630 
 23 C        4.0930    12.7280    -0.2770 C.3   1 <1>   0.1200 
 24 C        3.9450    14.2470    -0.2840 C.3   1 <1>  -0.2400 
 25 H        1.0180     0.9480     1.7170 H     1 <1>   0.1500 
 26 H       -1.1210     2.7350    -0.6510 H     1 <1>   0.0800 
 27 H       -0.4030     3.2440     0.8530 H     1 <1>   0.0800 
 28 H        3.5450    -0.5270     1.3940 H     1 <1>   0.0800 
 29 H        3.6600    -1.2590    -0.1900 H     1 <1>   0.0800 
 30 H        2.3260    -1.6680     0.8620 H     1 <1>   0.0800 
 31 H        0.4020     4.0580    -1.9550 H     1 <1>   0.0800 
 32 H       -1.3080     5.6370    -1.3120 H     1 <1>   0.0800 
 33 H        2.5100     4.1130    -1.0910 H     1 <1>   0.0800 
 34 H        1.9410     4.3050     0.5550 H     1 <1>   0.0800 
 35 H        0.3730     7.5940    -0.7310 H     1 <1>   0.0800 
 36 H        0.6870     6.6670    -2.1850 H     1 <1>   0.0800 
 37 H        2.6980     6.3650    -1.2080 H     1 <1>   0.4500 
 38 H       -2.1530     5.8940     2.0300 H     1 <1>   0.0800 
 39 H       -2.5210     4.8580     0.6570 H     1 <1>   0.0800 
 40 H       -2.5250     6.6180     0.4710 H     1 <1>   0.0800 
 41 H        1.4180     6.4590     1.4570 H     1 <1>   0.0800 
 42 H        3.1320     6.2660     1.1770 H     1 <1>   0.0800 
 43 H        4.3360     8.0980    -0.1730 H     1 <1>   0.1500 
 44 H        0.4470     8.6660     1.5190 H     1 <1>   0.1500 
 45 H        0.8390    11.1060     1.2390 H     1 <1>   0.1500 
 46 H        4.9180    12.4240     0.3450 H     1 <1>   0.0800 
 47 H        4.2310    12.3500    -1.2760 H     1 <1>   0.0800 
 48 H        3.7970    14.6080     0.7180 H     1 <1>   0.0800 
 49 H        3.1110    14.5340    -0.8990 H     1 <1>   0.0800 
 50 H        4.8370    14.6960    -0.6830 H     1 <1>   0.0800 
@<TRIPOS>BOND
  1   1   2  1   
  2   1   3  1   
  3   2   4  2   
  4   3   5  2   
  5   3   6  1   
  6   4   5  1   
  7   4   7  1   
  8   5  25  1   
  9   6   8  1   
 10   6  26  1   
 11   6  27  1   
 12   7  28  1   
 13   7  29  1   
 14   7  30  1   
 15   8   9  1   
 16   8  10  1   
 17   8  31  1   
 18   9  11  1   
 19   9  12  1   
 20   9  32  1   
 21  10  13  1   
 22  10  33  1   
 23  10  34  1   
 24  11  14  1   
 25  12  13  1   
 26  12  35  1   
 27  12  36  1   
 28  13  15  1   
 29  13  37  1   
 30  14  38  1   
 31  14  39  1   
 32  14  40  1   
 33  15  16  1   
 34  15  41  1   
 35  15  42  1   
 36  16  17  ar  
 37  16  18  ar  
 38  17  19  ar  
 39  17  43  1   
 40  18  20  ar  
 41  18  44  1   
 42  19  21  ar  
 43  20  21  ar  
 44  20  45  1   
 45  21  22  1   
 46  22  23  1   
 47  23  24  1   
 48  23  46  1   
 49  23  47  1   
 50  24  48  1   
 51  24  49  1   
 52  24  50  1   
@<TRIPOS>SUBSTRUCTURE
  1 ****  13 GROUP 4 **** **** 0

# MOE 2024.06 (io_trps.svl 2023.06)
