@<TRIPOS>MOLECULE
NONAME
54 57 1 0 0 
SMALL
USER_CHARGES


@<TRIPOS>ATOM
  1 F        2.3250    -0.2070     2.6450 F     1 <1>  -0.1900 
  2 C        2.5480     0.8390     1.8750 C.ar  1 <1>   0.1900 
  3 C        3.0400     0.7150     0.5740 C.ar  1 <1>   0.4100 
  4 C        2.2770     2.0830     2.3730 C.ar  1 <1>   0.1600 
  5 N        3.2190     1.8060    -0.1510 N.ar  1 <1>  -0.6200 
  6 N        3.3540    -0.4980    -0.0380 N.pl3 1 <1>  -0.8380 
  7 N        2.4640     3.1730     1.6540 N.ar  1 <1>  -0.6200 
  8 C        2.9170     2.9590     0.4220 C.ar  1 <1>   0.7200 
  9 C        3.8360    -1.6880     0.7020 C.3   1 <1>   0.2090 
 10 C        3.7530    -0.5770    -1.4640 C.3   1 <1>   0.2090 
 11 N        3.1160     4.0320    -0.3790 N.pl3 1 <1>  -0.8690 
 12 C        4.7230    -2.4380    -0.2850 C.3   1 <1>  -0.1600 
 13 C        4.2140    -2.0150    -1.6590 C.3   1 <1>  -0.1600 
 14 C        3.2830     5.4140     0.0880 C.3   1 <1>   0.2890 
 15 C        2.8140     6.3630    -1.0120 C.3   1 <1>  -0.1600 
 16 C        4.7530     5.6560     0.4290 C.3   1 <1>  -0.1600 
 17 C        3.0470     7.8180    -0.6020 C.3   1 <1>   0.1400 
 18 C        4.9850     7.1140     0.8280 C.3   1 <1>   0.1400 
 19 N        4.4820     8.0150    -0.2480 N.am  1 <1>  -0.6600 
 20 C        5.2920     8.8770    -0.9640 C.2   1 <1>   0.5440 
 21 O        4.8720     9.3650    -1.9960 O.2   1 <1>  -0.5700 
 22 C        6.6360     9.2060    -0.5260 C.ar  1 <1>   0.0860 
 23 C        7.7360     8.9460    -1.3390 C.ar  1 <1>  -0.1500 
 24 C        6.8750     9.7900     0.7170 C.ar  1 <1>  -0.1500 
 25 C        9.0230     9.2370    -0.9230 C.ar  1 <1>  -0.1500 
 26 C        8.1600    10.0830     1.1380 C.ar  1 <1>  -0.1500 
 27 C        9.2430     9.8040     0.3210 C.ar  1 <1>  -0.1430 
 28 C       10.6540    10.1270     0.7780 C.3   1 <1>  -0.0970 
 29 H        1.8990     2.1880     3.3740 H     1 <1>   0.1500 
 30 H        2.9900    -2.2930     0.9810 H     1 <1>   0.0800 
 31 H        4.3880    -1.4050     1.5830 H     1 <1>   0.0800 
 32 H        4.5680     0.1040    -1.6460 H     1 <1>   0.0800 
 33 H        2.9250    -0.3300    -2.1060 H     1 <1>   0.0800 
 34 H        3.6110     3.7860    -1.2330 H     1 <1>   0.4000 
 35 H        4.6730    -3.5020    -0.1370 H     1 <1>   0.0800 
 36 H        5.7390    -2.1110    -0.1560 H     1 <1>   0.0800 
 37 H        4.9680    -2.0920    -2.4210 H     1 <1>   0.0800 
 38 H        3.3660    -2.6150    -1.9380 H     1 <1>   0.0800 
 39 H        2.6800     5.5790     0.9670 H     1 <1>   0.0800 
 40 H        1.7650     6.2100    -1.1940 H     1 <1>   0.0800 
 41 H        3.3510     6.1720    -1.9240 H     1 <1>   0.0800 
 42 H        5.3710     5.4260    -0.4200 H     1 <1>   0.0800 
 43 H        5.0390     5.0170     1.2450 H     1 <1>   0.0800 
 44 H        2.4400     8.0600     0.2530 H     1 <1>   0.0800 
 45 H        2.7550     8.4710    -1.4070 H     1 <1>   0.0800 
 46 H        6.0350     7.2640     1.0030 H     1 <1>   0.0800 
 47 H        4.4580     7.3330     1.7420 H     1 <1>   0.0800 
 48 H        7.5700     8.5120    -2.3090 H     1 <1>   0.1500 
 49 H        6.0390    10.0160     1.3550 H     1 <1>   0.1500 
 50 H        9.8530     9.0240    -1.5740 H     1 <1>   0.1500 
 51 H        8.3140    10.5330     2.1030 H     1 <1>   0.1500 
 52 H       11.3540     9.4270     0.3580 H     1 <1>   0.0800 
 53 H       10.7250    10.0750     1.8500 H     1 <1>   0.0800 
 54 H       10.9210    11.1190     0.4600 H     1 <1>   0.0800 
@<TRIPOS>BOND
  1   1   2  1   
  2   2   3  ar  
  3   2   4  ar  
  4   3   5  ar  
  5   3   6  1   
  6   4   7  ar  
  7   4  29  1   
  8   5   8  ar  
  9   6   9  1   
 10   6  10  1   
 11   7   8  ar  
 12   8  11  1   
 13   9  12  1   
 14   9  30  1   
 15   9  31  1   
 16  10  13  1   
 17  10  32  1   
 18  10  33  1   
 19  11  14  1   
 20  11  34  1   
 21  12  13  1   
 22  12  35  1   
 23  12  36  1   
 24  13  37  1   
 25  13  38  1   
 26  14  15  1   
 27  14  16  1   
 28  14  39  1   
 29  15  17  1   
 30  15  40  1   
 31  15  41  1   
 32  16  18  1   
 33  16  42  1   
 34  16  43  1   
 35  17  19  1   
 36  17  44  1   
 37  17  45  1   
 38  18  19  1   
 39  18  46  1   
 40  18  47  1   
 41  19  20  am  
 42  20  21  2   
 43  20  22  1   
 44  22  23  ar  
 45  22  24  ar  
 46  23  25  ar  
 47  23  48  1   
 48  24  26  ar  
 49  24  49  1   
 50  25  27  ar  
 51  25  50  1   
 52  26  27  ar  
 53  26  51  1   
 54  27  28  1   
 55  28  52  1   
 56  28  53  1   
 57  28  54  1   
@<TRIPOS>SUBSTRUCTURE
  1 ****  16 GROUP 4 **** **** 0

# MOE 2024.06 (io_trps.svl 2023.06)
