@<TRIPOS>MOLECULE
NONAME
47 49 1 0 0 
SMALL
USER_CHARGES


@<TRIPOS>ATOM
  1 O       -0.7670     0.1230    -2.9850 O.2   1 <1>  -0.5700 
  2 C       -1.1440     0.9110    -2.1470 C.2   1 <1>   0.5690 
  3 N       -1.8930     0.4970    -1.0760 N.am  1 <1>  -0.6600 
  4 C       -0.7890     2.3870    -2.3630 C.3   1 <1>   0.1810 
  5 C       -2.3850     1.3530     0.0340 C.3   1 <1>   0.1400 
  6 C       -2.2010    -0.9290    -0.8140 C.3   1 <1>   0.1400 
  7 O       -0.2900     3.0050    -1.2040 O.3   1 <1>  -0.5600 
  8 C       -3.2420     0.4210     0.8880 C.3   1 <1>   0.2000 
  9 C       -2.6820    -0.9760     0.6370 C.3   1 <1>  -0.0800 
 10 C        0.1400     4.3160    -1.3850 C.3   1 <1>   0.2640 
 11 O       -3.1640     0.7390     2.2340 O.3   1 <1>  -0.6800 
 12 C       -3.6960    -2.0950     0.9160 C.3   1 <1>   0.0210 
 13 C        0.5090     4.8990    -0.0290 C.ar  1 <1>  -0.1440 
 14 C       -3.1320    -3.4490     0.5320 C.2   1 <1>   0.1080 
 15 C        1.3890     4.2270     0.8050 C.ar  1 <1>  -0.1500 
 16 C       -0.0250     6.1110     0.3860 C.ar  1 <1>  -0.1500 
 17 N       -2.0780    -3.9570     1.0920 N.2   1 <1>  -0.7070 
 18 C       -3.6560    -4.2810    -0.4510 C.2   1 <1>  -0.1500 
 19 C        1.7350     4.7570     2.0360 C.ar  1 <1>  -0.1500 
 20 C        0.3190     6.6430     1.6170 C.ar  1 <1>  -0.1500 
 21 N       -1.9000    -5.1390     0.4740 N.pl3 1 <1>   0.3000 
 22 C       -2.8430    -5.3580    -0.4660 C.2   1 <1>  -0.3320 
 23 C        1.2000     5.9670     2.4420 C.ar  1 <1>  -0.1500 
 24 C       -2.9090    -6.6000    -1.3350 C.3   1 <1>  -0.0600 
 25 H       -1.6700     2.9140    -2.6790 H     1 <1>   0.0800 
 26 H       -0.0390     2.4510    -3.1310 H     1 <1>   0.0800 
 27 H       -1.5440     1.7190     0.5970 H     1 <1>   0.0800 
 28 H       -2.9650     2.1760    -0.3470 H     1 <1>   0.0800 
 29 H       -2.9740    -1.2490    -1.4910 H     1 <1>   0.0800 
 30 H       -1.3280    -1.5450    -0.9570 H     1 <1>   0.0800 
 31 H       -4.2720     0.4930     0.5820 H     1 <1>   0.0800 
 32 H       -1.8110    -1.1310     1.2510 H     1 <1>   0.0800 
 33 H        1.0000     4.3110    -2.0330 H     1 <1>   0.0800 
 34 H       -0.6550     4.8830    -1.8370 H     1 <1>   0.0800 
 35 H       -2.2450     0.6310     2.5510 H     1 <1>   0.4000 
 36 H       -4.6020    -1.9190     0.3660 H     1 <1>   0.0800 
 37 H       -3.9370    -2.1070     1.9640 H     1 <1>   0.0800 
 38 H        1.8020     3.2820     0.4950 H     1 <1>   0.1500 
 39 H       -0.7120     6.6470    -0.2450 H     1 <1>   0.1500 
 40 H       -4.5230    -4.0830    -1.0560 H     1 <1>   0.1500 
 41 H        2.4180     4.2280     2.6760 H     1 <1>   0.1500 
 42 H       -0.0990     7.5820     1.9330 H     1 <1>   0.1500 
 43 H       -1.1260    -5.7690     0.7150 H     1 <1>   0.2700 
 44 H        1.4680     6.3800     3.3990 H     1 <1>   0.1500 
 45 H       -3.7490    -6.5390    -2.0040 H     1 <1>   0.0800 
 46 H       -3.0230    -7.4770    -0.7220 H     1 <1>   0.0800 
 47 H       -2.0110    -6.6930    -1.9200 H     1 <1>   0.0800 
@<TRIPOS>BOND
  1   1   2  2   
  2   2   3  am  
  3   2   4  1   
  4   3   5  1   
  5   3   6  1   
  6   4   7  1   
  7   4  25  1   
  8   4  26  1   
  9   5   8  1   
 10   5  27  1   
 11   5  28  1   
 12   6   9  1   
 13   6  29  1   
 14   6  30  1   
 15   7  10  1   
 16   8   9  1   
 17   8  11  1   
 18   8  31  1   
 19   9  12  1   
 20   9  32  1   
 21  10  13  1   
 22  10  33  1   
 23  10  34  1   
 24  11  35  1   
 25  12  14  1   
 26  12  36  1   
 27  12  37  1   
 28  13  15  ar  
 29  13  16  ar  
 30  14  17  2   
 31  14  18  1   
 32  15  19  ar  
 33  15  38  1   
 34  16  20  ar  
 35  16  39  1   
 36  17  21  1   
 37  18  22  2   
 38  18  40  1   
 39  19  23  ar  
 40  19  41  1   
 41  20  23  ar  
 42  20  42  1   
 43  21  22  1   
 44  21  43  1   
 45  22  24  1   
 46  23  44  1   
 47  24  45  1   
 48  24  46  1   
 49  24  47  1   
@<TRIPOS>SUBSTRUCTURE
  1 ****   3 GROUP 4 **** **** 0

# MOE 2024.06 (io_trps.svl 2023.06)
