@<TRIPOS>MOLECULE
NONAME
54 57 1 0 0 
SMALL
USER_CHARGES


@<TRIPOS>ATOM
  1 O       -1.3160     0.1740     0.2670 O.2   1 <1>  -0.5700 
  2 C       -1.9850     0.9670    -0.3720 C.2   1 <1>   0.5440 
  3 N       -3.0410     0.4520    -1.0960 N.am  1 <1>  -0.6600 
  4 C       -1.6940     2.3890    -0.3280 C.ar  1 <1>   0.0860 
  5 C       -3.0520    -0.9970    -1.4230 C.3   1 <1>   0.1400 
  6 C       -4.3990     1.0470    -0.9760 C.3   1 <1>   0.1400 
  7 C       -1.9420     3.2290    -1.4140 C.ar  1 <1>  -0.1500 
  8 C       -1.1440     2.9810     0.8080 C.ar  1 <1>  -0.1500 
  9 C       -3.7660    -1.7570    -0.2830 C.3   1 <1>   0.4230 
 10 C       -5.1480     0.3110     0.1450 C.3   1 <1>  -0.1600 
 11 C       -1.6740     4.5840    -1.3600 C.ar  1 <1>  -0.1500 
 12 C       -0.8740     4.3350     0.8620 C.ar  1 <1>  -0.1500 
 13 N       -3.6570    -3.2720    -0.3840 N.4   1 <1>  -0.9590 
 14 C       -5.2170    -1.2330    -0.0530 C.3   1 <1>   0.0000 
 15 C       -1.1340     5.1800    -0.2180 C.ar  1 <1>   0.0540 
 16 C       -4.6610    -4.0130     0.4460 C.3   1 <1>   0.3430 
 17 C       -3.6290    -3.8280    -1.7760 C.3   1 <1>   0.2630 
 18 C       -5.7950    -1.8770     1.2430 C.3   1 <1>  -0.1600 
 19 C       -6.1120    -1.5810    -1.2770 C.3   1 <1>   0.1200 
 20 C       -0.8530     6.6040    -0.1500 C.2   1 <1>   0.4620 
 21 C       -5.0920    -3.1850     1.6550 C.3   1 <1>  -0.1600 
 22 O       -7.3470    -0.9590    -1.2030 O.3   1 <1>  -0.6800 
 23 N       -1.0850     7.4390    -1.1730 N.2   1 <1>  -0.2270 
 24 N       -0.3610     7.2110     0.8820 N.2   1 <1>  -0.7070 
 25 N       -0.7350     8.5980    -0.7870 N.2   1 <1>  -0.4180 
 26 N       -0.3010     8.4460     0.4480 N.pl3 1 <1>   0.5800 
 27 C        0.1960     9.5540     1.2660 C.3   1 <1>   0.0160 
 28 H       -3.5440    -1.1360    -2.3680 H     1 <1>   0.0800 
 29 H       -2.0370    -1.3460    -1.5140 H     1 <1>   0.0800 
 30 H       -4.3350     2.0950    -0.7350 H     1 <1>   0.0800 
 31 H       -4.9250     0.9540    -1.9120 H     1 <1>   0.0800 
 32 H       -2.3490     2.8110    -2.3180 H     1 <1>   0.1500 
 33 H       -0.9230     2.3620     1.6620 H     1 <1>   0.1500 
 34 H       -3.2240    -1.4790     0.6080 H     1 <1>   0.0800 
 35 H       -4.6380     0.5370     1.0670 H     1 <1>   0.0800 
 36 H       -6.1350     0.7290     0.2340 H     1 <1>   0.0800 
 37 H       -1.8840     5.1920    -2.2230 H     1 <1>   0.1500 
 38 H       -0.4500     4.7510     1.7600 H     1 <1>   0.1500 
 39 H       -2.7370    -3.4780     0.0350 H     1 <1>   0.4500 
 40 H       -5.5340    -4.2320    -0.1460 H     1 <1>   0.0800 
 41 H       -4.2410    -4.9510     0.7770 H     1 <1>   0.0800 
 42 H       -4.5480    -3.6030    -2.2920 H     1 <1>   0.0800 
 43 H       -3.5050    -4.8980    -1.7480 H     1 <1>   0.0800 
 44 H       -2.8070    -3.4090    -2.3350 H     1 <1>   0.0800 
 45 H       -5.7130    -1.1960     2.0740 H     1 <1>   0.0800 
 46 H       -6.8460    -2.0700     1.1220 H     1 <1>   0.0800 
 47 H       -6.2890    -2.6390    -1.3480 H     1 <1>   0.0800 
 48 H       -5.6650    -1.2490    -2.1970 H     1 <1>   0.0800 
 49 H       -5.7620    -3.7680     2.2640 H     1 <1>   0.0800 
 50 H       -4.2270    -2.9670     2.2600 H     1 <1>   0.0800 
 51 H       -7.8590    -1.2430    -0.4210 H     1 <1>   0.4000 
 52 H        1.0150     9.2060     1.8660 H     1 <1>   0.0800 
 53 H       -0.5980     9.9020     1.8980 H     1 <1>   0.0800 
 54 H        0.5270    10.3480     0.6230 H     1 <1>   0.0800 
@<TRIPOS>BOND
  1   1   2  2   
  2   2   3  am  
  3   2   4  1   
  4   3   5  1   
  5   3   6  1   
  6   4   7  ar  
  7   4   8  ar  
  8   5   9  1   
  9   5  28  1   
 10   5  29  1   
 11   6  10  1   
 12   6  30  1   
 13   6  31  1   
 14   7  11  ar  
 15   7  32  1   
 16   8  12  ar  
 17   8  33  1   
 18   9  13  1   
 19   9  14  1   
 20   9  34  1   
 21  10  14  1   
 22  10  35  1   
 23  10  36  1   
 24  11  15  ar  
 25  11  37  1   
 26  12  15  ar  
 27  12  38  1   
 28  13  16  1   
 29  13  17  1   
 30  13  39  1   
 31  14  18  1   
 32  14  19  1   
 33  15  20  1   
 34  16  21  1   
 35  16  40  1   
 36  16  41  1   
 37  17  42  1   
 38  17  43  1   
 39  17  44  1   
 40  18  21  1   
 41  18  45  1   
 42  18  46  1   
 43  19  22  1   
 44  19  47  1   
 45  19  48  1   
 46  20  23  1   
 47  20  24  2   
 48  21  49  1   
 49  21  50  1   
 50  22  51  1   
 51  23  25  2   
 52  24  26  1   
 53  25  26  1   
 54  26  27  1   
 55  27  52  1   
 56  27  53  1   
 57  27  54  1   
@<TRIPOS>SUBSTRUCTURE
  1 ****   4 GROUP 4 **** **** 0

# MOE 2024.06 (io_trps.svl 2023.06)
