@<TRIPOS>MOLECULE
Untitled Document
56 59 1 0 0 
SMALL
USER_CHARGES


@<TRIPOS>ATOM
  1 CL       0.6430    -0.3260     1.6790 Cl    1 <1>  -0.1770 
  2 C        1.9860     0.4320     0.8480 C.ar  1 <1>   0.1770 
  3 C        2.9000    -0.3320     0.1330 C.ar  1 <1>   0.0000 
  4 C        2.1200     1.8060     0.9230 C.ar  1 <1>   0.1600 
  5 C        2.8290    -1.7680     0.0030 C.ar  1 <1>   0.3100 
  6 C        3.9150     0.4010    -0.4570 C.ar  1 <1>  -0.1500 
  7 N        3.0930     2.5020     0.3510 N.ar  1 <1>  -0.6200 
  8 N        3.8860    -2.4640     0.4200 N.ar  1 <1>  -0.6200 
  9 C        1.7050    -2.3680    -0.5580 C.ar  1 <1>  -0.1500 
 10 C        3.9710     1.7820    -0.3220 C.ar  1 <1>   0.4100 
 11 C        3.8200    -3.7800     0.2940 C.ar  1 <1>   0.4100 
 12 C        1.6390    -3.7370    -0.6910 C.ar  1 <1>  -0.1500 
 13 N        4.9620     2.5240    -0.8870 N.pl3 1 <1>  -0.8690 
 14 N        4.8960    -4.5120     0.7320 N.pl3 1 <1>  -0.8690 
 15 C        2.7280    -4.4480    -0.2490 C.ar  1 <1>  -0.1500 
 16 C        6.3330     2.3280    -0.4200 C.3   1 <1>   0.2890 
 17 C        6.2000    -3.8980     1.0370 C.3   1 <1>   0.3530 
 18 C        6.8100     3.6270     0.2390 C.3   1 <1>  -0.1600 
 19 C        7.2040     1.9630    -1.6280 C.3   1 <1>  -0.1600 
 20 C        7.2800    -4.9220     0.7350 C.ar  1 <1>  -0.1430 
 21 C        8.3050     3.5700     0.6020 C.3   1 <1>  -0.1600 
 22 C        8.6990     1.9120    -1.2650 C.3   1 <1>  -0.1600 
 23 C        7.8000    -5.7160     1.7460 C.ar  1 <1>  -0.1500 
 24 C        7.7520    -5.0760    -0.5640 C.ar  1 <1>  -0.1500 
 25 C        9.1540     3.2310    -0.6280 C.3   1 <1>   0.4230 
 26 C        8.7820    -6.6370     1.4330 C.ar  1 <1>   0.1900 
 27 C        8.7380    -6.0070    -0.8580 C.ar  1 <1>  -0.1500 
 28 N       10.5600     3.1100    -0.2230 N.4   1 <1>  -0.8530 
 29 F        9.2720    -7.3830     2.3870 F     1 <1>  -0.1900 
 30 C        9.2640    -6.7980     0.1480 C.ar  1 <1>  -0.1500 
 31 H        1.3880     2.3580     1.4860 H     1 <1>   0.1500 
 32 H        4.6700    -0.1010    -1.0310 H     1 <1>   0.1500 
 33 H        0.8850    -1.7570    -0.8890 H     1 <1>   0.1500 
 34 H        0.7780    -4.2230    -1.1170 H     1 <1>   0.1500 
 35 H        4.6830     3.5070    -0.8270 H     1 <1>   0.4000 
 36 H        4.9940    -5.4570     0.3600 H     1 <1>   0.4000 
 37 H        2.7440    -5.5190    -0.3130 H     1 <1>   0.1500 
 38 H        6.3640     1.5270     0.3030 H     1 <1>   0.0800 
 39 H        6.2240    -3.6110     2.0740 H     1 <1>   0.0800 
 40 H        6.3540    -3.0190     0.4340 H     1 <1>   0.0800 
 41 H        6.2300     3.7980     1.1310 H     1 <1>   0.0800 
 42 H        6.6400     4.4520    -0.4330 H     1 <1>   0.0800 
 43 H        7.0480     2.6910    -2.4060 H     1 <1>   0.0800 
 44 H        6.8920     1.0050    -2.0060 H     1 <1>   0.0800 
 45 H        8.4410     2.8230     1.3670 H     1 <1>   0.0800 
 46 H        8.5960     4.5270     1.0000 H     1 <1>   0.0800 
 47 H        9.2620     1.7210    -2.1620 H     1 <1>   0.0800 
 48 H        8.8550     1.0950    -0.5810 H     1 <1>   0.0800 
 49 H        7.4530    -5.6320     2.7610 H     1 <1>   0.1500 
 50 H        7.3450    -4.4690    -1.3550 H     1 <1>   0.1500 
 51 H        9.0490     4.0240    -1.3540 H     1 <1>   0.0800 
 52 H        9.0930    -6.1140    -1.8690 H     1 <1>   0.1500 
 53 H       10.6740     2.3470     0.4520 H     1 <1>   0.4500 
 54 H       10.8860     3.9790     0.2120 H     1 <1>   0.4500 
 55 H       11.1540     2.9140    -1.0360 H     1 <1>   0.4500 
 56 H       10.0290    -7.5260    -0.0540 H     1 <1>   0.1500 
@<TRIPOS>BOND
  1   1   2  1   
  2   2   3  ar  
  3   2   4  ar  
  4   3   5  1   
  5   3   6  ar  
  6   4   7  ar  
  7   4  31  1   
  8   5   8  ar  
  9   5   9  ar  
 10   6  10  ar  
 11   6  32  1   
 12   7  10  ar  
 13   8  11  ar  
 14   9  12  ar  
 15   9  33  1   
 16  10  13  1   
 17  11  14  1   
 18  11  15  ar  
 19  12  15  ar  
 20  12  34  1   
 21  13  16  1   
 22  13  35  1   
 23  14  17  1   
 24  14  36  1   
 25  15  37  1   
 26  16  18  1   
 27  16  19  1   
 28  16  38  1   
 29  17  20  1   
 30  17  39  1   
 31  17  40  1   
 32  18  21  1   
 33  18  41  1   
 34  18  42  1   
 35  19  22  1   
 36  19  43  1   
 37  19  44  1   
 38  20  23  ar  
 39  20  24  ar  
 40  21  25  1   
 41  21  45  1   
 42  21  46  1   
 43  22  25  1   
 44  22  47  1   
 45  22  48  1   
 46  23  26  ar  
 47  23  49  1   
 48  24  27  ar  
 49  24  50  1   
 50  25  28  1   
 51  25  51  1   
 52  26  29  1   
 53  26  30  ar  
 54  27  30  ar  
 55  27  52  1   
 56  28  53  1   
 57  28  54  1   
 58  28  55  1   
 59  30  56  1   
@<TRIPOS>SUBSTRUCTURE
  1 ****   8 GROUP 4 **** **** 0

# MOE 2024.06 (io_trps.svl 2023.06)
