@<TRIPOS>MOLECULE
NONAME
43 46 1 0 0 
SMALL
USER_CHARGES


@<TRIPOS>ATOM
  1 O       -1.0940    -0.7370     1.1840 O.2   1 <1>  -0.5700 
  2 C       -2.1600    -1.1210     0.7140 C.2   1 <1>   0.4690 
  3 C       -2.7060    -0.5690    -0.4940 C.ar  1 <1>   0.0860 
  4 C       -2.8830    -2.1520     1.3550 C.2   1 <1>  -0.1360 
  5 C       -3.9600    -1.0200    -0.9500 C.ar  1 <1>   0.1000 
  6 C       -2.0090     0.3890    -1.2420 C.ar  1 <1>  -0.1500 
  7 C       -4.1050    -2.5500     0.9270 C.2   1 <1>  -0.0380 
  8 N       -4.6990    -1.9320    -0.1650 N.pl3 1 <1>  -0.5690 
  9 C       -4.4190    -0.5420    -2.1860 C.ar  1 <1>  -0.1500 
 10 C       -2.5030     0.8690    -2.4320 C.ar  1 <1>  -0.1500 
 11 C       -4.8170    -3.6900     1.6480 C.3   1 <1>  -0.1020 
 12 C       -6.1670    -2.1630    -0.4630 C.3   1 <1>   0.2700 
 13 C       -3.7120     0.3910    -2.9110 C.ar  1 <1>  -0.1500 
 14 C       -6.4640    -3.3810    -1.3550 C.2   1 <1>   0.5690 
 15 O       -5.9720    -3.4170    -2.4630 O.2   1 <1>  -0.5700 
 16 N       -7.2960    -4.3780    -0.9260 N.am  1 <1>  -0.6600 
 17 C       -8.1300    -4.3600     0.3100 C.3   1 <1>   0.2350 
 18 C       -7.1380    -5.7690    -1.4360 C.3   1 <1>   0.2350 
 19 C       -8.6540    -5.7670     0.4990 C.3   1 <1>  -0.2420 
 20 C       -8.0300    -6.6370    -0.5670 C.3   1 <1>  -0.2420 
 21 C       -8.9750    -6.0200     1.9760 C.2   1 <1>   0.9470 
 22 C       -9.5180    -6.4100    -0.5550 C.3   1 <1>  -0.2000 
 23 C       -7.4820    -8.0620    -0.4790 C.2   1 <1>   0.9470 
 24 O       -8.1590    -5.6430     2.8300 O.co2 1 <1>  -0.9000 
 25 O      -10.1040    -6.4090     2.3010 O.co2 1 <1>  -0.9000 
 26 O       -8.1330    -8.9920    -0.9750 O.co2 1 <1>  -0.9000 
 27 O       -6.3310    -8.2330    -0.0570 O.co2 1 <1>  -0.9000 
 28 H       -2.4040    -2.6020     2.2020 H     1 <1>   0.1500 
 29 H       -1.0620     0.7460    -0.8730 H     1 <1>   0.1500 
 30 H       -5.3350    -0.9110    -2.6070 H     1 <1>   0.1500 
 31 H       -1.9540     1.6040    -2.9960 H     1 <1>   0.1500 
 32 H       -5.1110    -4.4570     0.9530 H     1 <1>   0.0800 
 33 H       -5.6830    -3.3330     2.1740 H     1 <1>   0.0800 
 34 H       -4.1690    -4.1510     2.3710 H     1 <1>   0.0800 
 35 H       -6.6900    -2.2490     0.4660 H     1 <1>   0.0800 
 36 H       -6.5780    -1.2950    -0.9390 H     1 <1>   0.0800 
 37 H       -4.0910     0.7460    -3.8540 H     1 <1>   0.1500 
 38 H       -7.5270    -4.0830     1.1540 H     1 <1>   0.0800 
 39 H       -8.9490    -3.6720     0.2100 H     1 <1>   0.0800 
 40 H       -7.4310    -5.8330    -2.4690 H     1 <1>   0.0800 
 41 H       -6.1080    -6.0690    -1.3370 H     1 <1>   0.0800 
 42 H       -9.9670    -5.8030    -1.3180 H     1 <1>   0.1000 
 43 H      -10.1440    -7.2350    -0.2600 H     1 <1>   0.1000 
@<TRIPOS>BOND
  1   1   2  2   
  2   2   3  1   
  3   2   4  1   
  4   3   5  ar  
  5   3   6  ar  
  6   4   7  2   
  7   4  28  1   
  8   5   8  1   
  9   5   9  ar  
 10   6  10  ar  
 11   6  29  1   
 12   7   8  1   
 13   7  11  1   
 14   8  12  1   
 15   9  13  ar  
 16   9  30  1   
 17  10  13  ar  
 18  10  31  1   
 19  11  32  1   
 20  11  33  1   
 21  11  34  1   
 22  12  14  1   
 23  12  35  1   
 24  12  36  1   
 25  13  37  1   
 26  14  15  2   
 27  14  16  am  
 28  16  17  1   
 29  16  18  1   
 30  17  19  1   
 31  17  38  1   
 32  17  39  1   
 33  18  20  1   
 34  18  40  1   
 35  18  41  1   
 36  19  20  1   
 37  19  21  1   
 38  19  22  1   
 39  20  22  1   
 40  20  23  1   
 41  21  24  ar  
 42  21  25  ar  
 43  22  42  1   
 44  22  43  1   
 45  23  26  ar  
 46  23  27  ar  
@<TRIPOS>SUBSTRUCTURE
  1 ****  14 GROUP 4 **** **** 0

# MOE 2024.06 (io_trps.svl 2023.06)
