@<TRIPOS>MOLECULE
NONAME
44 46 1 0 0 
SMALL
USER_CHARGES


@<TRIPOS>ATOM
  1 O       -1.9480     0.6340    -1.8860 O.2   1 <1>  -0.5700 
  2 C       -1.9450     0.8010    -0.6920 C.2   1 <1>   0.5690 
  3 N       -1.9710    -0.2350     0.1780 N.am  1 <1>  -0.7300 
  4 C       -1.9070     2.2080    -0.1430 C.3   1 <1>  -0.0990 
  5 C       -1.9600    -1.6660    -0.2040 C.3   1 <1>   0.2200 
  6 C       -0.4680     2.7300    -0.0770 C.3   1 <1>  -0.0170 
  7 C       -3.3240    -2.3070     0.0160 C.3   1 <1>  -0.0800 
  8 C       -1.1280    -2.4310     0.8160 C.3   1 <1>   0.1200 
  9 C       -0.4390     4.1220     0.5290 C.ar  1 <1>  -0.1440 
 10 C       -3.2960    -2.6830     1.5030 C.3   1 <1>   0.1200 
 11 C       -4.5410    -1.4620    -0.4040 C.3   1 <1>  -0.0170 
 12 O       -1.9660    -2.5700     1.9220 O.3   1 <1>  -0.5600 
 13 C       -0.2160     4.3290     1.8750 C.ar  1 <1>  -0.1500 
 14 C       -0.6390     5.2520    -0.2370 C.ar  1 <1>  -0.1500 
 15 C       -5.8320    -2.2440    -0.2250 C.ar  1 <1>  -0.1440 
 16 C       -0.2060     5.6200     2.3760 C.ar  1 <1>   0.1600 
 17 C       -0.6090     6.5000     0.3630 C.ar  1 <1>   0.1600 
 18 C       -6.6440    -2.0800     0.8790 C.ar  1 <1>  -0.1500 
 19 C       -6.2580    -3.1630    -1.1630 C.ar  1 <1>  -0.1500 
 20 N       -0.3990     6.7110     1.6520 N.ar  1 <1>  -0.6200 
 21 C       -7.8050    -2.8260     0.9920 C.ar  1 <1>   0.1600 
 22 C       -7.4380    -3.8580    -0.9540 C.ar  1 <1>   0.1600 
 23 N       -8.2210    -3.7140     0.1030 N.ar  1 <1>  -0.6200 
 24 H       -1.9890    -0.0820     1.1880 H     1 <1>   0.3700 
 25 H       -2.4920     2.8430    -0.7830 H     1 <1>   0.0800 
 26 H       -2.3480     2.2260     0.8360 H     1 <1>   0.0800 
 27 H       -1.5960    -1.7920    -1.2100 H     1 <1>   0.0800 
 28 H       -0.0490     2.7560    -1.0690 H     1 <1>   0.0800 
 29 H        0.1350     2.0630     0.5150 H     1 <1>   0.0800 
 30 H       -3.3470    -3.2250    -0.5450 H     1 <1>   0.0800 
 31 H       -0.2310    -1.9110     1.1000 H     1 <1>   0.0800 
 32 H       -0.8870    -3.4160     0.4550 H     1 <1>   0.0800 
 33 H       -3.6290    -3.6950     1.6630 H     1 <1>   0.0800 
 34 H       -3.8840    -2.0080     2.0990 H     1 <1>   0.0800 
 35 H       -4.4370    -1.1760    -1.4370 H     1 <1>   0.0800 
 36 H       -4.5900    -0.5570     0.1760 H     1 <1>   0.0800 
 37 H       -0.0500     3.5010     2.5400 H     1 <1>   0.1500 
 38 H       -0.8180     5.1730    -1.2940 H     1 <1>   0.1500 
 39 H       -0.0310     5.7640     3.4290 H     1 <1>   0.1500 
 40 H       -0.7670     7.3700    -0.2510 H     1 <1>   0.1500 
 41 H       -6.3870    -1.3800     1.6530 H     1 <1>   0.1500 
 42 H       -5.6850    -3.3440    -2.0530 H     1 <1>   0.1500 
 43 H       -8.4260    -2.6860     1.8600 H     1 <1>   0.1500 
 44 H       -7.7540    -4.5710    -1.6970 H     1 <1>   0.1500 
@<TRIPOS>BOND
  1   1   2  2   
  2   2   3  am  
  3   2   4  1   
  4   3   5  1   
  5   3  24  1   
  6   4   6  1   
  7   4  25  1   
  8   4  26  1   
  9   5   7  1   
 10   5   8  1   
 11   5  27  1   
 12   6   9  1   
 13   6  28  1   
 14   6  29  1   
 15   7  10  1   
 16   7  11  1   
 17   7  30  1   
 18   8  12  1   
 19   8  31  1   
 20   8  32  1   
 21   9  13  ar  
 22   9  14  ar  
 23  10  12  1   
 24  10  33  1   
 25  10  34  1   
 26  11  15  1   
 27  11  35  1   
 28  11  36  1   
 29  13  16  ar  
 30  13  37  1   
 31  14  17  ar  
 32  14  38  1   
 33  15  18  ar  
 34  15  19  ar  
 35  16  20  ar  
 36  16  39  1   
 37  17  20  ar  
 38  17  40  1   
 39  18  21  ar  
 40  18  41  1   
 41  19  22  ar  
 42  19  42  1   
 43  21  23  ar  
 44  21  43  1   
 45  22  23  ar  
 46  22  44  1   
@<TRIPOS>SUBSTRUCTURE
  1 ****   3 GROUP 4 **** **** 0

# MOE 2024.06 (io_trps.svl 2023.06)
