@<TRIPOS>MOLECULE
NONAME
41 42 1 0 0 
SMALL
USER_CHARGES


@<TRIPOS>ATOM
  1 CL       1.8190     0.2310     3.1530 Cl    1 <1>  -0.1770 
  2 C        2.1850    -0.7150     1.7340 C.ar  1 <1>   0.1770 
  3 C        2.1490    -2.0940     1.8150 C.ar  1 <1>  -0.1500 
  4 C        2.5020    -0.0620     0.5550 C.ar  1 <1>  -0.1500 
  5 C        2.4280    -2.8770     0.6940 C.ar  1 <1>   0.0860 
  6 C        2.7930    -0.8150    -0.5700 C.ar  1 <1>  -0.1500 
  7 C        2.7540    -2.1960    -0.4790 C.ar  1 <1>   0.1900 
  8 C        2.3850    -4.3180     0.7760 C.2   1 <1>   0.5440 
  9 F        3.0410    -2.8760    -1.5550 F     1 <1>  -0.1900 
 10 O        3.1790    -4.8940     1.4930 O.2   1 <1>  -0.5700 
 11 N        1.4410    -5.0590     0.1040 N.am  1 <1>  -0.6600 
 12 C        0.3130    -4.5120    -0.6900 C.3   1 <1>   0.1400 
 13 C        1.3480    -6.5360     0.2110 C.3   1 <1>   0.1400 
 14 C       -0.4380    -5.7420    -1.1960 C.3   1 <1>   0.2000 
 15 C       -0.0770    -6.8700    -0.2340 C.3   1 <1>  -0.0800 
 16 O       -1.8090    -5.5430    -1.2000 O.3   1 <1>  -0.6800 
 17 C       -0.2330    -8.2580    -0.8790 C.3   1 <1>  -0.0550 
 18 S        0.0680    -9.6050     0.2620 S.o2  1 <1>   1.3330 
 19 O       -0.9000    -9.4990     1.3300 O.2   1 <1>  -0.6500 
 20 O        1.4790    -9.6520     0.5730 O.2   1 <1>  -0.6500 
 21 N       -0.3060   -10.9770    -0.6660 N.am  1 <1>  -0.8490 
 22 C       -0.7900   -12.0890     0.1580 C.3   1 <1>   0.1160 
 23 C        0.8040   -11.4300    -1.5110 C.3   1 <1>   0.1160 
 24 H        1.9090    -2.5700     2.7500 H     1 <1>   0.1500 
 25 H        2.5210     1.0130     0.5250 H     1 <1>   0.1500 
 26 H        3.0500    -0.3430    -1.5020 H     1 <1>   0.1500 
 27 H       -0.3120    -3.9110    -0.0530 H     1 <1>   0.0800 
 28 H        0.6770    -3.9290    -1.5170 H     1 <1>   0.0800 
 29 H        2.0790    -6.9780    -0.4450 H     1 <1>   0.0800 
 30 H        1.5370    -6.8630     1.2210 H     1 <1>   0.0800 
 31 H       -0.1250    -5.9660    -2.2020 H     1 <1>   0.0800 
 32 H       -0.7050    -6.8100     0.6390 H     1 <1>   0.0800 
 33 H       -2.1420    -5.4210    -0.2890 H     1 <1>   0.4000 
 34 H        0.4320    -8.3400    -1.7160 H     1 <1>   0.0800 
 35 H       -1.2370    -8.3470    -1.2500 H     1 <1>   0.0800 
 36 H       -1.0330   -12.9350    -0.4610 H     1 <1>   0.0800 
 37 H       -1.6810   -11.7950     0.6880 H     1 <1>   0.0800 
 38 H       -0.0400   -12.3770     0.8770 H     1 <1>   0.0800 
 39 H        0.4820   -12.2430    -2.1390 H     1 <1>   0.0800 
 40 H        1.6300   -11.7620    -0.9030 H     1 <1>   0.0800 
 41 H        1.1420   -10.6270    -2.1420 H     1 <1>   0.0800 
@<TRIPOS>BOND
  1   1   2  1   
  2   2   3  ar  
  3   2   4  ar  
  4   3   5  ar  
  5   3  24  1   
  6   4   6  ar  
  7   4  25  1   
  8   5   7  ar  
  9   5   8  1   
 10   6   7  ar  
 11   6  26  1   
 12   7   9  1   
 13   8  10  2   
 14   8  11  am  
 15  11  12  1   
 16  11  13  1   
 17  12  14  1   
 18  12  27  1   
 19  12  28  1   
 20  13  15  1   
 21  13  29  1   
 22  13  30  1   
 23  14  15  1   
 24  14  16  1   
 25  14  31  1   
 26  15  17  1   
 27  15  32  1   
 28  16  33  1   
 29  17  18  1   
 30  17  34  1   
 31  17  35  1   
 32  18  19  2   
 33  18  20  2   
 34  18  21  am  
 35  21  22  1   
 36  21  23  1   
 37  22  36  1   
 38  22  37  1   
 39  22  38  1   
 40  23  39  1   
 41  23  40  1   
 42  23  41  1   
@<TRIPOS>SUBSTRUCTURE
  1 ****  11 GROUP 4 **** **** 0

# MOE 2024.06 (io_trps.svl 2023.06)
