@<TRIPOS>MOLECULE
NONAME
49 51 1 0 0 
SMALL
USER_CHARGES


@<TRIPOS>ATOM
  1 O       -2.0120     0.8070    -2.4320 O.2   1 <1>  -0.5700 
  2 C       -2.3350     1.0010    -1.2750 C.2   1 <1>   0.5440 
  3 N       -1.7180     2.0210    -0.5740 N.am  1 <1>  -0.6600 
  4 C       -3.3380     0.1510    -0.6770 C.ar  1 <1>   0.0860 
  5 C       -1.6410     2.0720     0.9130 C.3   1 <1>   0.0600 
  6 C       -0.8880     3.0450    -1.2690 C.3   1 <1>   0.0600 
  7 C       -3.2970    -1.2270    -0.8690 C.ar  1 <1>   0.1600 
  8 C       -4.3830     0.6440     0.0990 C.ar  1 <1>  -0.1500 
  9 N       -4.1410    -2.1090    -0.3630 N.ar  1 <1>  -0.6200 
 10 C       -5.2730    -0.2580     0.6310 C.ar  1 <1>  -0.1500 
 11 C       -5.1230    -1.6200     0.3860 C.ar  1 <1>   0.4100 
 12 N       -6.0220    -2.4970     0.9280 N.pl3 1 <1>  -0.8690 
 13 C       -6.2240    -3.8610     0.3900 C.3   1 <1>   0.2890 
 14 C       -7.7020    -4.2740     0.5420 C.3   1 <1>   0.0630 
 15 C       -5.3120    -4.8510     1.1250 C.3   1 <1>  -0.1600 
 16 C       -8.6680    -3.2820    -0.1090 C.ar  1 <1>  -0.1430 
 17 C       -7.9210    -5.6930    -0.0080 C.3   1 <1>  -0.1600 
 18 C       -5.5230    -6.2820     0.6050 C.3   1 <1>  -0.1600 
 19 C       -9.7550    -2.8080     0.6120 C.ar  1 <1>  -0.1500 
 20 C       -8.4800    -2.8370    -1.4110 C.ar  1 <1>  -0.1500 
 21 C       -6.9980    -6.7050     0.6890 C.3   1 <1>  -0.1600 
 22 C      -10.6350    -1.9020     0.0460 C.ar  1 <1>  -0.1500 
 23 C       -9.3590    -1.9310    -1.9780 C.ar  1 <1>  -0.1500 
 24 C      -10.4370    -1.4620    -1.2500 C.ar  1 <1>  -0.1500 
 25 H       -0.6240     2.2430     1.2190 H     1 <1>   0.0800 
 26 H       -1.9700     1.1440     1.3470 H     1 <1>   0.0800 
 27 H       -2.2580     2.8730     1.2810 H     1 <1>   0.0800 
 28 H       -1.0680     4.0150    -0.8410 H     1 <1>   0.0800 
 29 H       -1.1330     3.0830    -2.3170 H     1 <1>   0.0800 
 30 H        0.1540     2.7960    -1.1670 H     1 <1>   0.0800 
 31 H       -2.5040    -1.6150    -1.4860 H     1 <1>   0.1500 
 32 H       -4.4850     1.7010     0.2680 H     1 <1>   0.1500 
 33 H       -6.0930     0.0740     1.2380 H     1 <1>   0.1500 
 34 H       -6.9200    -2.0770     1.1750 H     1 <1>   0.4000 
 35 H       -5.9650    -3.8710    -0.6550 H     1 <1>   0.0800 
 36 H       -7.9110    -4.3070     1.5970 H     1 <1>   0.0800 
 37 H       -4.2860    -4.5650     0.9730 H     1 <1>   0.0800 
 38 H       -5.5210    -4.8130     2.1800 H     1 <1>   0.0800 
 39 H       -8.9480    -5.9800     0.1410 H     1 <1>   0.0800 
 40 H       -7.7290    -5.7010    -1.0670 H     1 <1>   0.0800 
 41 H       -5.1970    -6.3350    -0.4200 H     1 <1>   0.0800 
 42 H       -4.9180    -6.9650     1.1760 H     1 <1>   0.0800 
 43 H       -9.9260    -3.1420     1.6210 H     1 <1>   0.1500 
 44 H       -7.6470    -3.1880    -1.9930 H     1 <1>   0.1500 
 45 H       -7.2820    -6.7890     1.7250 H     1 <1>   0.0800 
 46 H       -7.1200    -7.6750     0.2380 H     1 <1>   0.0800 
 47 H      -11.4750    -1.5410     0.6130 H     1 <1>   0.1500 
 48 H       -9.2010    -1.5910    -2.9870 H     1 <1>   0.1500 
 49 H      -11.1210    -0.7580    -1.6920 H     1 <1>   0.1500 
@<TRIPOS>BOND
  1   1   2  2   
  2   2   3  am  
  3   2   4  1   
  4   3   5  1   
  5   3   6  1   
  6   4   7  ar  
  7   4   8  ar  
  8   5  25  1   
  9   5  26  1   
 10   5  27  1   
 11   6  28  1   
 12   6  29  1   
 13   6  30  1   
 14   7   9  ar  
 15   7  31  1   
 16   8  10  ar  
 17   8  32  1   
 18   9  11  ar  
 19  10  11  ar  
 20  10  33  1   
 21  11  12  1   
 22  12  13  1   
 23  12  34  1   
 24  13  14  1   
 25  13  15  1   
 26  13  35  1   
 27  14  16  1   
 28  14  17  1   
 29  14  36  1   
 30  15  18  1   
 31  15  37  1   
 32  15  38  1   
 33  16  19  ar  
 34  16  20  ar  
 35  17  21  1   
 36  17  39  1   
 37  17  40  1   
 38  18  21  1   
 39  18  41  1   
 40  18  42  1   
 41  19  22  ar  
 42  19  43  1   
 43  20  23  ar  
 44  20  44  1   
 45  21  45  1   
 46  21  46  1   
 47  22  24  ar  
 48  22  47  1   
 49  23  24  ar  
 50  23  48  1   
 51  24  49  1   
@<TRIPOS>SUBSTRUCTURE
  1 ****  11 GROUP 4 **** **** 0

# MOE 2024.06 (io_trps.svl 2023.06)
