@<TRIPOS>MOLECULE
NONAME
46 47 1 0 0 
SMALL
USER_CHARGES


@<TRIPOS>ATOM
  1 O       -1.4050    -2.8730     1.6280 O.3   1 <1>  -0.3630 
  2 C       -2.2110    -2.3650     0.6650 C.ar  1 <1>   0.0830 
  3 C       -0.6920    -2.0360     2.5130 C.3   1 <1>   0.0400 
  4 C       -2.4420    -1.0050     0.4810 C.ar  1 <1>  -0.1500 
  5 C       -2.8280    -3.2860    -0.1650 C.ar  1 <1>  -0.1500 
  6 C       -3.2920    -0.5810    -0.5350 C.ar  1 <1>   0.0830 
  7 C       -3.6810    -2.8690    -1.1750 C.ar  1 <1>  -0.1430 
  8 O       -3.5780     0.7190    -0.7910 O.3   1 <1>  -0.3630 
  9 C       -3.9030    -1.5140    -1.3570 C.ar  1 <1>  -0.1500 
 10 C       -4.3710    -3.8860    -2.0590 C.3   1 <1>   0.4860 
 11 C       -2.9960     1.7640    -0.0430 C.3   1 <1>   0.0400 
 12 N       -5.3450    -4.6260    -1.2270 N.4   1 <1>  -0.9590 
 13 C       -5.7800    -5.9050    -1.8420 C.3   1 <1>   0.5240 
 14 C       -6.4590    -3.7720    -0.7040 C.3   1 <1>   0.3430 
 15 C       -5.6320    -6.9730    -0.7650 C.2   1 <1>   0.0460 
 16 C       -7.1390    -4.3790     0.5320 C.3   1 <1>   0.1200 
 17 N       -4.6750    -6.8440     0.1810 N.2   1 <1>  -0.5650 
 18 C       -6.3550    -8.0970    -0.5640 C.2   1 <1>  -0.3020 
 19 O       -8.2120    -3.5700     0.8650 O.3   1 <1>  -0.6800 
 20 C       -4.8270    -7.8900     0.9250 C.2   1 <1>   0.0060 
 21 N       -5.8340    -8.6960     0.5240 N.pl3 1 <1>   0.0330 
 22 C       -3.9640    -8.1990     2.1310 C.3   1 <1>  -0.0600 
 23 H       -0.1140    -2.6610     3.1700 H     1 <1>   0.0800 
 24 H       -1.3920    -1.4550     3.0850 H     1 <1>   0.0800 
 25 H       -0.0370    -1.4020     1.9420 H     1 <1>   0.0800 
 26 H       -1.9680    -0.2890     1.1200 H     1 <1>   0.1500 
 27 H       -2.6240    -4.3310     0.0020 H     1 <1>   0.1500 
 28 H       -4.5540    -1.1510    -2.1340 H     1 <1>   0.1500 
 29 H       -3.6310    -4.5630    -2.4560 H     1 <1>   0.0800 
 30 H       -4.8690    -3.3940    -2.8780 H     1 <1>   0.0800 
 31 H       -3.3610     2.6980    -0.4330 H     1 <1>   0.0800 
 32 H       -1.9270     1.7180    -0.1490 H     1 <1>   0.0800 
 33 H       -3.2880     1.6620     0.9880 H     1 <1>   0.0800 
 34 H       -4.8080    -4.9630    -0.4040 H     1 <1>   0.4500 
 35 H       -5.1340    -6.1620    -2.6650 H     1 <1>   0.0800 
 36 H       -6.7970    -5.8500    -2.1900 H     1 <1>   0.0800 
 37 H       -7.1960    -3.6220    -1.4750 H     1 <1>   0.0800 
 38 H       -6.0690    -2.8080    -0.4180 H     1 <1>   0.0800 
 39 H       -6.4600    -4.4040     1.3670 H     1 <1>   0.0800 
 40 H       -7.5230    -5.3640     0.3330 H     1 <1>   0.0800 
 41 H       -7.1860    -8.5060    -1.1130 H     1 <1>   0.1500 
 42 H       -8.6370    -3.8640     1.6990 H     1 <1>   0.4000 
 43 H       -6.1260    -9.5770     0.9600 H     1 <1>   0.2700 
 44 H       -3.2360    -7.4190     2.2720 H     1 <1>   0.0800 
 45 H       -3.4440    -9.1280     1.9850 H     1 <1>   0.0800 
 46 H       -4.5700    -8.2670     3.0150 H     1 <1>   0.0800 
@<TRIPOS>BOND
  1   1   2  1   
  2   1   3  1   
  3   2   4  ar  
  4   2   5  ar  
  5   3  23  1   
  6   3  24  1   
  7   3  25  1   
  8   4   6  ar  
  9   4  26  1   
 10   5   7  ar  
 11   5  27  1   
 12   6   8  1   
 13   6   9  ar  
 14   7   9  ar  
 15   7  10  1   
 16   8  11  1   
 17   9  28  1   
 18  10  12  1   
 19  10  29  1   
 20  10  30  1   
 21  11  31  1   
 22  11  32  1   
 23  11  33  1   
 24  12  13  1   
 25  12  14  1   
 26  12  34  1   
 27  13  15  1   
 28  13  35  1   
 29  13  36  1   
 30  14  16  1   
 31  14  37  1   
 32  14  38  1   
 33  15  17  1   
 34  15  18  2   
 35  16  19  1   
 36  16  39  1   
 37  16  40  1   
 38  17  20  2   
 39  18  21  1   
 40  18  41  1   
 41  19  42  1   
 42  20  21  1   
 43  20  22  1   
 44  21  43  1   
 45  22  44  1   
 46  22  45  1   
 47  22  46  1   
@<TRIPOS>SUBSTRUCTURE
  1 ****   5 GROUP 4 **** **** 0

# MOE 2024.06 (io_trps.svl 2023.06)
