@<TRIPOS>MOLECULE
NONAME
44 46 1 0 0 
SMALL
USER_CHARGES


@<TRIPOS>ATOM
  1 S        0.8860    -0.9290    -0.6040 S.o2  1 <1>   1.3330 
  2 O        0.4330    -1.4420    -1.8760 O.2   1 <1>  -0.6500 
  3 O        2.2860    -1.0260    -0.2540 O.2   1 <1>  -0.6500 
  4 N       -0.0100    -1.7310     0.5980 N.am  1 <1>  -0.8490 
  5 C        0.3600     0.7850    -0.4470 C.3   1 <1>  -0.0550 
  6 C       -1.3690    -2.0880     0.1730 C.3   1 <1>   0.1160 
  7 C        0.6770    -2.9250     1.1010 C.3   1 <1>   0.1160 
  8 C        1.0020     1.6340     0.6750 C.3   1 <1>  -0.0800 
  9 C        2.4950     1.8970     0.4680 C.3   1 <1>   0.2890 
 10 C        0.9180     1.0750     2.1020 C.3   1 <1>   0.1200 
 11 N        2.7060     3.3600     0.3260 N.pl3 1 <1>  -0.8530 
 12 C        3.1210     1.3800     1.7630 C.3   1 <1>   0.1200 
 13 O        2.1080     1.4520     2.7130 O.3   1 <1>  -0.5600 
 14 C        2.8560     3.9660    -0.9280 C.2   1 <1>   0.2710 
 15 N        2.5700     3.3880    -2.0410 N.2   1 <1>  -0.3380 
 16 N        3.3040     5.2120    -1.1740 N.pl3 1 <1>   0.5930 
 17 N        2.8560     4.2720    -2.9940 N.2   1 <1>   0.0000 
 18 N        3.2990     5.3650    -2.4970 N.2   1 <1>  -0.4180 
 19 C        3.7260     6.2090    -0.2490 C.ar  1 <1>  -0.0230 
 20 C        4.9240     6.8920    -0.4420 C.ar  1 <1>  -0.1500 
 21 C        2.9530     6.5190     0.8680 C.ar  1 <1>  -0.1500 
 22 C        5.3440     7.8500     0.4630 C.ar  1 <1>  -0.1500 
 23 C        3.3740     7.4770     1.7740 C.ar  1 <1>  -0.1500 
 24 C        4.5710     8.1410     1.5730 C.ar  1 <1>  -0.1500 
 25 H        0.5730     1.2810    -1.3750 H     1 <1>   0.0800 
 26 H       -0.7040     0.8080    -0.3260 H     1 <1>   0.0800 
 27 H       -1.9190    -2.5030     1.0010 H     1 <1>   0.0800 
 28 H       -1.3370    -2.8140    -0.6240 H     1 <1>   0.0800 
 29 H       -1.8920    -1.2150    -0.1780 H     1 <1>   0.0800 
 30 H        0.0880    -3.4020     1.8650 H     1 <1>   0.0800 
 31 H        1.6260    -2.6510     1.5330 H     1 <1>   0.0800 
 32 H        0.8520    -3.6220     0.2990 H     1 <1>   0.0800 
 33 H        0.4830     2.5760     0.6820 H     1 <1>   0.0800 
 34 H        2.9110     1.3810    -0.3820 H     1 <1>   0.0800 
 35 H        0.8740     0.0030     2.1330 H     1 <1>   0.0800 
 36 H        0.0940     1.4890     2.6570 H     1 <1>   0.0800 
 37 H        3.1060     3.8070     1.1600 H     1 <1>   0.4000 
 38 H        3.9660     1.9620     2.0850 H     1 <1>   0.0800 
 39 H        3.4040     0.3470     1.6600 H     1 <1>   0.0800 
 40 H        5.5310     6.6750    -1.3050 H     1 <1>   0.1500 
 41 H        2.0150     6.0160     1.0330 H     1 <1>   0.1500 
 42 H        6.2730     8.3700     0.3050 H     1 <1>   0.1500 
 43 H        2.7700     7.7080     2.6350 H     1 <1>   0.1500 
 44 H        4.8980     8.8870     2.2770 H     1 <1>   0.1500 
@<TRIPOS>BOND
  1   1   2  2   
  2   1   3  2   
  3   1   4  am  
  4   1   5  1   
  5   4   6  1   
  6   4   7  1   
  7   5   8  1   
  8   5  25  1   
  9   5  26  1   
 10   6  27  1   
 11   6  28  1   
 12   6  29  1   
 13   7  30  1   
 14   7  31  1   
 15   7  32  1   
 16   8   9  1   
 17   8  10  1   
 18   8  33  1   
 19   9  11  1   
 20   9  12  1   
 21   9  34  1   
 22  10  13  1   
 23  10  35  1   
 24  10  36  1   
 25  11  14  1   
 26  11  37  1   
 27  12  13  1   
 28  12  38  1   
 29  12  39  1   
 30  14  15  2   
 31  14  16  1   
 32  15  17  1   
 33  16  18  1   
 34  16  19  1   
 35  17  18  2   
 36  19  20  ar  
 37  19  21  ar  
 38  20  22  ar  
 39  20  40  1   
 40  21  23  ar  
 41  21  41  1   
 42  22  24  ar  
 43  22  42  1   
 44  23  24  ar  
 45  23  43  1   
 46  24  44  1   
@<TRIPOS>SUBSTRUCTURE
  1 ****  11 GROUP 4 **** **** 0

# MOE 2024.06 (io_trps.svl 2023.06)
