@<TRIPOS>MOLECULE
NONAME
47 50 1 0 0 
SMALL
USER_CHARGES


@<TRIPOS>ATOM
  1 O        1.3610     1.6390    -0.1050 O.2   1 <1>  -0.5700 
  2 C        2.3120     0.8970    -0.2230 C.2   1 <1>   0.5440 
  3 N        3.5300     1.3500    -0.5840 N.am  1 <1>  -0.7300 
  4 C        2.3700    -0.5220    -0.0360 C.ar  1 <1>   0.0860 
  5 C        4.5160     0.2530    -0.7000 C.3   1 <1>   0.3640 
  6 C        3.6580    -0.9470    -0.3170 C.ar  1 <1>  -0.1440 
  7 C        1.4050    -1.4460     0.3460 C.ar  1 <1>  -0.1500 
  8 C        5.6610     0.4660     0.2860 C.3   1 <1>  -0.0990 
  9 C        4.0040    -2.2840    -0.2310 C.ar  1 <1>  -0.1500 
 10 C        1.7450    -2.7850     0.4390 C.ar  1 <1>  -0.1500 
 11 C        6.3240     1.7910     0.0130 C.2   1 <1>   0.5690 
 12 C        3.0380    -3.2020     0.1510 C.ar  1 <1>  -0.1500 
 13 O        7.2260     1.8210    -0.7850 O.2   1 <1>  -0.5700 
 14 N        5.8280     2.8900     0.6550 N.am  1 <1>  -0.4940 
 15 C        6.0270     4.2670     0.4020 C.2   1 <1>  -0.0880 
 16 N        7.2040     4.9250     0.1790 N.pl3 1 <1>   0.3140 
 17 C        5.0440     5.1980     0.3520 C.2   1 <1>  -0.1810 
 18 N        6.9760     6.2540    -0.0130 N.2   1 <1>  -0.7070 
 19 C        8.5840     4.3390     0.2300 C.3   1 <1>   0.1760 
 20 C        5.6940     6.3960     0.0890 C.2   1 <1>   0.1390 
 21 C        3.5430     5.0360     0.5250 C.3   1 <1>  -0.0590 
 22 C        9.5660     5.2080     1.0280 C.3   1 <1>  -0.1600 
 23 C        9.2160     4.2650    -1.1620 C.3   1 <1>  -0.1600 
 24 C       10.2400     6.1490     0.0210 C.3   1 <1>  -0.1600 
 25 C        9.9120     5.6100    -1.3760 C.3   1 <1>  -0.1600 
 26 H        3.6550     2.2470    -1.0600 H     1 <1>   0.3700 
 27 H        4.8720     0.1750    -1.7150 H     1 <1>   0.0800 
 28 H        0.4060    -1.1080     0.5630 H     1 <1>   0.1500 
 29 H        6.3850    -0.3190     0.1670 H     1 <1>   0.0800 
 30 H        5.2950     0.4320     1.2950 H     1 <1>   0.0800 
 31 H        5.0050    -2.6130    -0.4540 H     1 <1>   0.1500 
 32 H        1.0030    -3.5080     0.7340 H     1 <1>   0.1500 
 33 H        3.2900    -4.2470     0.2240 H     1 <1>   0.1500 
 34 H        4.9980     2.7010     1.2200 H     1 <1>   0.3700 
 35 H        8.5200     3.3640     0.6740 H     1 <1>   0.0800 
 36 H        5.1990     7.3470    -0.0190 H     1 <1>   0.1500 
 37 H        3.2820     4.0140     0.7310 H     1 <1>   0.0800 
 38 H        3.0370     5.3420    -0.3720 H     1 <1>   0.0800 
 39 H        3.2010     5.6470     1.3410 H     1 <1>   0.0800 
 40 H       10.3170     4.5690     1.4570 H     1 <1>   0.0800 
 41 H        9.0750     5.7460     1.8210 H     1 <1>   0.0800 
 42 H        8.4880     4.0520    -1.9260 H     1 <1>   0.0800 
 43 H        9.9540     3.4840    -1.1620 H     1 <1>   0.0800 
 44 H       11.3030     6.1820     0.1850 H     1 <1>   0.0800 
 45 H        9.8390     7.1440     0.1240 H     1 <1>   0.0800 
 46 H        9.2290     6.2870    -1.8620 H     1 <1>   0.0800 
 47 H       10.7930     5.5070    -1.9850 H     1 <1>   0.0800 
@<TRIPOS>BOND
  1   1   2  2   
  2   2   3  am  
  3   2   4  1   
  4   3   5  1   
  5   3  26  1   
  6   4   6  ar  
  7   4   7  ar  
  8   5   6  1   
  9   5   8  1   
 10   5  27  1   
 11   6   9  ar  
 12   7  10  ar  
 13   7  28  1   
 14   8  11  1   
 15   8  29  1   
 16   8  30  1   
 17   9  12  ar  
 18   9  31  1   
 19  10  12  ar  
 20  10  32  1   
 21  11  13  2   
 22  11  14  am  
 23  12  33  1   
 24  14  15  1   
 25  14  34  1   
 26  15  16  1   
 27  15  17  2   
 28  16  18  1   
 29  16  19  1   
 30  17  20  1   
 31  17  21  1   
 32  18  20  2   
 33  19  22  1   
 34  19  23  1   
 35  19  35  1   
 36  20  36  1   
 37  21  37  1   
 38  21  38  1   
 39  21  39  1   
 40  22  24  1   
 41  22  40  1   
 42  22  41  1   
 43  23  25  1   
 44  23  42  1   
 45  23  43  1   
 46  24  25  1   
 47  24  44  1   
 48  24  45  1   
 49  25  46  1   
 50  25  47  1   
@<TRIPOS>SUBSTRUCTURE
  1 ****  14 GROUP 4 **** **** 0

# MOE 2024.06 (io_trps.svl 2023.06)
