@<TRIPOS>MOLECULE
NONAME
46 47 1 0 0 
SMALL
USER_CHARGES


@<TRIPOS>ATOM
  1 O       -0.4520     0.5190     1.1830 O.2   1 <1>  -0.5700 
  2 C       -1.4150     1.1170     0.7430 C.2   1 <1>   0.5690 
  3 N       -2.2540     0.4720    -0.1480 N.am  1 <1>  -0.6600 
  4 C       -1.6430     2.5800     1.2520 C.3   1 <1>   0.3410 
  5 C       -1.9600    -0.9530    -0.5440 C.3   1 <1>   0.1400 
  6 C       -3.4360     1.0610    -0.8470 C.3   1 <1>   0.1400 
  7 O       -1.9030     3.4940     0.1860 O.3   1 <1>  -0.3630 
  8 C       -2.8800     2.6420     2.1630 C.3   1 <1>  -0.2400 
  9 C       -0.4490     3.1260     2.0700 C.3   1 <1>  -0.2400 
 10 C       -3.1710    -1.7190    -1.1170 C.3   1 <1>   0.2000 
 11 C       -4.7090     0.2500    -0.5560 C.3   1 <1>  -0.1600 
 12 C       -0.9040     3.9140    -0.6380 C.ar  1 <1>   0.0820 
 13 O       -3.2820    -1.4880    -2.4800 O.3   1 <1>  -0.6800 
 14 C       -4.4740    -1.2780    -0.4410 C.3   1 <1>  -0.1860 
 15 C       -0.4540     5.2340    -0.5560 C.ar  1 <1>   0.0820 
 16 C       -0.3550     3.0470    -1.5720 C.ar  1 <1>  -0.1500 
 17 C       -5.6420    -2.0920    -0.9620 C.2   1 <1>   0.9060 
 18 O       -1.0330     6.0540     0.3680 O.3   1 <1>  -0.3630 
 19 C        0.5630     5.6580    -1.4080 C.ar  1 <1>  -0.1500 
 20 C        0.6560     3.4800    -2.4120 C.ar  1 <1>  -0.1500 
 21 O       -6.3690    -2.6720    -0.1530 O.co2 1 <1>  -0.9000 
 22 O       -5.8160    -2.1560    -2.1870 O.co2 1 <1>  -0.9000 
 23 C       -0.6590     7.4070     0.4920 C.3   1 <1>   0.0400 
 24 C        1.1140     4.7820    -2.3290 C.ar  1 <1>  -0.1500 
 25 H       -1.1550    -0.9710    -1.2560 H     1 <1>   0.0800 
 26 H       -1.6330    -1.4800     0.3340 H     1 <1>   0.0800 
 27 H       -3.6050     2.0850    -0.5800 H     1 <1>   0.0800 
 28 H       -3.2420     1.0380    -1.9060 H     1 <1>   0.0800 
 29 H       -2.7390     1.9980     3.0120 H     1 <1>   0.0800 
 30 H       -3.7590     2.3140     1.6420 H     1 <1>   0.0800 
 31 H       -3.0360     3.6460     2.5130 H     1 <1>   0.0800 
 32 H       -0.3120     2.5360     2.9580 H     1 <1>   0.0800 
 33 H       -0.6220     4.1470     2.3600 H     1 <1>   0.0800 
 34 H        0.4590     3.0660     1.4980 H     1 <1>   0.0800 
 35 H       -3.0290    -2.7790    -0.9910 H     1 <1>   0.0800 
 36 H       -5.1650     0.6010     0.3520 H     1 <1>   0.0800 
 37 H       -5.4060     0.4420    -1.3530 H     1 <1>   0.0800 
 38 H       -4.2270    -1.7340    -2.7120 H     1 <1>   0.4000 
 39 H       -4.3770    -1.5140     0.6020 H     1 <1>   0.0800 
 40 H       -0.7110     2.0380    -1.6560 H     1 <1>   0.1500 
 41 H        0.9400     6.6610    -1.3720 H     1 <1>   0.1500 
 42 H        1.0810     2.8010    -3.1310 H     1 <1>   0.1500 
 43 H       -1.2590     7.8480     1.2670 H     1 <1>   0.0800 
 44 H       -0.8440     7.9070    -0.4420 H     1 <1>   0.0800 
 45 H        0.3810     7.4580     0.7610 H     1 <1>   0.0800 
 46 H        1.9010     5.1150    -2.9840 H     1 <1>   0.1500 
@<TRIPOS>BOND
  1   1   2  2   
  2   2   3  am  
  3   2   4  1   
  4   3   5  1   
  5   3   6  1   
  6   4   7  1   
  7   4   8  1   
  8   4   9  1   
  9   5  10  1   
 10   5  25  1   
 11   5  26  1   
 12   6  11  1   
 13   6  27  1   
 14   6  28  1   
 15   7  12  1   
 16   8  29  1   
 17   8  30  1   
 18   8  31  1   
 19   9  32  1   
 20   9  33  1   
 21   9  34  1   
 22  10  13  1   
 23  10  14  1   
 24  10  35  1   
 25  11  14  1   
 26  11  36  1   
 27  11  37  1   
 28  12  15  ar  
 29  12  16  ar  
 30  13  38  1   
 31  14  17  1   
 32  14  39  1   
 33  15  18  1   
 34  15  19  ar  
 35  16  20  ar  
 36  16  40  1   
 37  17  21  ar  
 38  17  22  ar  
 39  18  23  1   
 40  19  24  ar  
 41  19  41  1   
 42  20  24  ar  
 43  20  42  1   
 44  23  43  1   
 45  23  44  1   
 46  23  45  1   
 47  24  46  1   
@<TRIPOS>SUBSTRUCTURE
  1 ****   3 GROUP 4 **** **** 0

# MOE 2024.06 (io_trps.svl 2023.06)
