@<TRIPOS>MOLECULE
NONAME
54 56 1 0 0 
SMALL
USER_CHARGES


@<TRIPOS>ATOM
  1 O       -0.0010    -0.1080    -0.2750 O.2   1 <1>  -0.5700 
  2 C        1.0080    -0.6940     0.0740 C.2   1 <1>   0.5440 
  3 N        2.0810     0.0130     0.5550 N.am  1 <1>  -0.4930 
  4 C        1.0800    -2.1370    -0.0080 C.ar  1 <1>   0.0860 
  5 C        2.2640     1.4120     0.6990 C.2   1 <1>   0.0630 
  6 C       -0.0580    -2.9230     0.1860 C.ar  1 <1>  -0.1500 
  7 C        2.2760    -2.8080    -0.2780 C.ar  1 <1>  -0.1500 
  8 C        1.3940     2.3790     1.2140 C.2   1 <1>   0.1080 
  9 C        3.3860     2.0940     0.3800 C.2   1 <1>  -0.3320 
 10 C       -0.0170    -4.3040     0.1360 C.ar  1 <1>  -0.1430 
 11 C        2.3280    -4.1860    -0.3300 C.ar  1 <1>  -0.1500 
 12 N        1.9250     3.5620     1.2170 N.2   1 <1>  -0.7070 
 13 C       -0.0040     2.1440     1.7390 C.3   1 <1>  -0.0590 
 14 N        3.1520     3.3940     0.6950 N.pl3 1 <1>   0.3140 
 15 C        4.6850     1.5820    -0.2260 C.3   1 <1>  -0.0600 
 16 C        1.1890    -4.9550    -0.1210 C.ar  1 <1>   0.1000 
 17 C       -1.2900    -5.1080     0.3600 C.3   1 <1>  -0.0970 
 18 C        4.0610     4.5450     0.5170 C.3   1 <1>   0.0960 
 19 N        1.2600    -6.3380    -0.1780 N.pl3 1 <1>  -0.8380 
 20 C        3.8860     5.1730    -0.8730 C.3   1 <1>  -0.1600 
 21 C        1.4100    -6.9640    -1.5220 C.3   1 <1>   0.2090 
 22 C        2.0460    -7.0450     0.8730 C.3   1 <1>   0.2090 
 23 C        4.8360     6.3590    -1.0750 C.3   1 <1>  -0.2400 
 24 C        1.1840    -8.4850    -1.4430 C.3   1 <1>   0.1200 
 25 C        1.7830    -8.5600     0.8220 C.3   1 <1>   0.1200 
 26 O        2.0060    -9.0660    -0.4660 O.3   1 <1>  -0.5600 
 27 H        2.8890    -0.5370     0.8310 H     1 <1>   0.3700 
 28 H       -0.9910    -2.4220     0.3800 H     1 <1>   0.1500 
 29 H        3.1740    -2.2480    -0.4620 H     1 <1>   0.1500 
 30 H        3.2560    -4.6840    -0.5400 H     1 <1>   0.1500 
 31 H       -0.0720     1.1730     2.1920 H     1 <1>   0.0800 
 32 H       -0.7040     2.2040     0.9260 H     1 <1>   0.0800 
 33 H       -0.2500     2.8910     2.4700 H     1 <1>   0.0800 
 34 H        4.6180     0.5300    -0.4340 H     1 <1>   0.0800 
 35 H        5.5020     1.7450     0.4540 H     1 <1>   0.0800 
 36 H        4.8890     2.0930    -1.1490 H     1 <1>   0.0800 
 37 H       -2.1280    -4.4660     0.5620 H     1 <1>   0.0800 
 38 H       -1.1560    -5.7740     1.1930 H     1 <1>   0.0800 
 39 H       -1.5060    -5.6930    -0.5150 H     1 <1>   0.0800 
 40 H        5.0720     4.2130     0.6580 H     1 <1>   0.0800 
 41 H        3.8300     5.2690     1.2770 H     1 <1>   0.0800 
 42 H        2.8690     5.5110    -0.9780 H     1 <1>   0.0800 
 43 H        4.0760     4.4330    -1.6310 H     1 <1>   0.0800 
 44 H        2.3980    -6.7720    -1.9010 H     1 <1>   0.0800 
 45 H        0.6980    -6.5280    -2.2000 H     1 <1>   0.0800 
 46 H        1.7700    -6.6620     1.8410 H     1 <1>   0.0800 
 47 H        3.0950    -6.8630     0.7250 H     1 <1>   0.0800 
 48 H        4.6460     7.1220    -0.3400 H     1 <1>   0.0800 
 49 H        4.6890     6.7840    -2.0520 H     1 <1>   0.0800 
 50 H        5.8610     6.0420    -0.9920 H     1 <1>   0.0800 
 51 H        1.4180    -8.9440    -2.3860 H     1 <1>   0.0800 
 52 H        0.1580    -8.6960    -1.1990 H     1 <1>   0.0800 
 53 H        0.7660    -8.7720     1.1040 H     1 <1>   0.0800 
 54 H        2.4430    -9.0750     1.4970 H     1 <1>   0.0800 
@<TRIPOS>BOND
  1   1   2  2   
  2   2   3  am  
  3   2   4  1   
  4   3   5  1   
  5   3  27  1   
  6   4   6  ar  
  7   4   7  ar  
  8   5   8  1   
  9   5   9  2   
 10   6  10  ar  
 11   6  28  1   
 12   7  11  ar  
 13   7  29  1   
 14   8  12  2   
 15   8  13  1   
 16   9  14  1   
 17   9  15  1   
 18  10  16  ar  
 19  10  17  1   
 20  11  16  ar  
 21  11  30  1   
 22  12  14  1   
 23  13  31  1   
 24  13  32  1   
 25  13  33  1   
 26  14  18  1   
 27  15  34  1   
 28  15  35  1   
 29  15  36  1   
 30  16  19  1   
 31  17  37  1   
 32  17  38  1   
 33  17  39  1   
 34  18  20  1   
 35  18  40  1   
 36  18  41  1   
 37  19  21  1   
 38  19  22  1   
 39  20  23  1   
 40  20  42  1   
 41  20  43  1   
 42  21  24  1   
 43  21  44  1   
 44  21  45  1   
 45  22  25  1   
 46  22  46  1   
 47  22  47  1   
 48  23  48  1   
 49  23  49  1   
 50  23  50  1   
 51  24  26  1   
 52  24  51  1   
 53  24  52  1   
 54  25  26  1   
 55  25  53  1   
 56  25  54  1   
@<TRIPOS>SUBSTRUCTURE
  1 ****   4 GROUP 4 **** **** 0

# MOE 2024.06 (io_trps.svl 2023.06)
