@<TRIPOS>MOLECULE
NONAME
50 52 1 0 0 
SMALL
USER_CHARGES


@<TRIPOS>ATOM
  1 O        0.4120     0.7190     0.4450 O.2   1 <1>  -0.5700 
  2 C        1.0160     1.7560     0.2720 C.2   1 <1>   0.6900 
  3 N        0.4170     2.9480    -0.0220 N.am  1 <1>  -0.4200 
  4 N        2.3700     1.8870     0.3630 N.am  1 <1>  -0.6600 
  5 C        1.3620     3.9220    -0.1140 C.2   1 <1>   0.5690 
  6 C       -1.0410     3.1210    -0.2130 C.3   1 <1>   0.0600 
  7 C        2.7380     3.3140     0.1670 C.3   1 <1>   0.2810 
  8 C        3.3040     0.8790     0.9300 C.3   1 <1>   0.0600 
  9 O        1.1730     5.0780    -0.4100 O.2   1 <1>  -0.5700 
 10 C        3.7070     3.4770    -1.0100 C.3   1 <1>  -0.0990 
 11 C        4.4560     4.7930    -0.9530 C.2   1 <1>   0.5690 
 12 O        5.6580     4.7370    -0.8540 O.2   1 <1>  -0.5700 
 13 N        3.7540     5.9670    -1.0190 N.am  1 <1>  -0.4940 
 14 C        4.1100     7.3340    -1.1640 C.2   1 <1>  -0.0880 
 15 N        5.2630     7.9990    -0.8450 N.pl3 1 <1>   0.3140 
 16 C        3.2770     8.2670    -1.6830 C.2   1 <1>  -0.1500 
 17 N        5.1770     9.3120    -1.1760 N.2   1 <1>  -0.7070 
 18 C        6.5030     7.4820    -0.2100 C.3   1 <1>   0.1760 
 19 C        3.9880     9.4570    -1.6690 C.2   1 <1>   0.1390 
 20 C        7.0970     8.4680     0.8100 C.3   1 <1>  -0.1600 
 21 C        7.5430     7.1670    -1.2950 C.3   1 <1>  -0.1600 
 22 C        8.3840     7.9060     1.4060 C.3   1 <1>   0.3430 
 23 C        8.8080     6.6050    -0.6640 C.3   1 <1>   0.3430 
 24 N        9.3540     7.5940     0.3140 N.4   1 <1>  -0.9590 
 25 C       10.6570     7.1230     0.8730 C.3   1 <1>   0.2630 
 26 H       -1.3690     2.5160    -1.0400 H     1 <1>   0.0800 
 27 H       -1.2710     4.1530    -0.4130 H     1 <1>   0.0800 
 28 H       -1.5590     2.8080     0.6770 H     1 <1>   0.0800 
 29 H        3.1480     3.7110     1.0790 H     1 <1>   0.0800 
 30 H        2.7670    -0.0220     1.1750 H     1 <1>   0.0800 
 31 H        3.7620     1.2630     1.8250 H     1 <1>   0.0800 
 32 H        4.0680     0.6390     0.2110 H     1 <1>   0.0800 
 33 H        3.1780     3.4100    -1.9430 H     1 <1>   0.0800 
 34 H        4.4340     2.6860    -0.9850 H     1 <1>   0.0800 
 35 H        2.7300     5.8370    -1.0470 H     1 <1>   0.3700 
 36 H        2.2720     8.1410    -2.0440 H     1 <1>   0.1500 
 37 H        6.2460     6.5970     0.3340 H     1 <1>   0.0800 
 38 H        3.6040    10.3990    -2.0250 H     1 <1>   0.1500 
 39 H        6.3860     8.6360     1.5990 H     1 <1>   0.0800 
 40 H        7.3100     9.4160     0.3470 H     1 <1>   0.0800 
 41 H        7.7780     8.0560    -1.8550 H     1 <1>   0.0800 
 42 H        7.1460     6.4430    -1.9840 H     1 <1>   0.0800 
 43 H        8.1620     7.0090     1.9630 H     1 <1>   0.0800 
 44 H        8.8100     8.6290     2.0830 H     1 <1>   0.0800 
 45 H        9.5350     6.4050    -1.4360 H     1 <1>   0.0800 
 46 H        8.5780     5.6760    -0.1650 H     1 <1>   0.0800 
 47 H        9.5190     8.4700    -0.2050 H     1 <1>   0.4500 
 48 H       10.5200     6.2040     1.4200 H     1 <1>   0.0800 
 49 H       11.0680     7.8640     1.5390 H     1 <1>   0.0800 
 50 H       11.3640     6.9480     0.0780 H     1 <1>   0.0800 
@<TRIPOS>BOND
  1   1   2  2   
  2   2   3  am  
  3   2   4  am  
  4   3   5  am  
  5   3   6  1   
  6   4   7  1   
  7   4   8  1   
  8   5   7  1   
  9   5   9  2   
 10   6  26  1   
 11   6  27  1   
 12   6  28  1   
 13   7  10  1   
 14   7  29  1   
 15   8  30  1   
 16   8  31  1   
 17   8  32  1   
 18  10  11  1   
 19  10  33  1   
 20  10  34  1   
 21  11  12  2   
 22  11  13  am  
 23  13  14  1   
 24  13  35  1   
 25  14  15  1   
 26  14  16  2   
 27  15  17  1   
 28  15  18  1   
 29  16  19  1   
 30  16  36  1   
 31  17  19  2   
 32  18  20  1   
 33  18  21  1   
 34  18  37  1   
 35  19  38  1   
 36  20  22  1   
 37  20  39  1   
 38  20  40  1   
 39  21  23  1   
 40  21  41  1   
 41  21  42  1   
 42  22  24  1   
 43  22  43  1   
 44  22  44  1   
 45  23  24  1   
 46  23  45  1   
 47  23  46  1   
 48  24  25  1   
 49  24  47  1   
 50  25  48  1   
 51  25  49  1   
 52  25  50  1   
@<TRIPOS>SUBSTRUCTURE
  1 ****  11 GROUP 4 **** **** 0

# MOE 2024.06 (io_trps.svl 2023.06)
