@<TRIPOS>MOLECULE
NONAME
49 51 1 0 0 
SMALL
USER_CHARGES


@<TRIPOS>ATOM
  1 CL       0.0650    -0.6670     0.6360 Cl    1 <1>  -0.1770 
  2 C       -0.2130    -2.3880     0.5730 C.ar  1 <1>   0.1770 
  3 C       -0.0620    -3.0560    -0.6280 C.ar  1 <1>  -0.1500 
  4 C       -0.5810    -3.0580     1.7240 C.ar  1 <1>  -0.1500 
  5 C       -0.2830    -4.4220    -0.6750 C.ar  1 <1>  -0.1500 
  6 C       -0.8010    -4.4250     1.6710 C.ar  1 <1>  -0.1500 
  7 C       -0.6530    -5.1110     0.4730 C.ar  1 <1>  -0.1440 
  8 C       -0.8960    -6.6110     0.4090 C.3   1 <1>  -0.0160 
  9 C       -2.3140    -6.9000    -0.0820 C.3   1 <1>   0.1400 
 10 N       -2.5390    -8.3610    -0.1350 N.am  1 <1>  -0.7300 
 11 C       -2.4990    -9.1330    -1.2520 C.2   1 <1>   0.5690 
 12 O       -2.2340    -8.6780    -2.3390 O.2   1 <1>  -0.5700 
 13 C       -2.7910   -10.6310    -1.1130 C.3   1 <1>   0.1710 
 14 N       -3.6430   -10.9940     0.0600 N.3   1 <1>  -0.8100 
 15 C       -5.0280   -10.5290    -0.0910 C.3   1 <1>   0.1100 
 16 C       -3.7450   -12.4500     0.2310 C.3   1 <1>   0.1100 
 17 C       -5.8020   -11.3570     0.9280 C.3   1 <1>   0.2000 
 18 C       -5.1270   -12.7280     0.8530 C.3   1 <1>  -0.0800 
 19 O       -5.5420   -10.8300     2.1780 O.3   1 <1>  -0.6800 
 20 C       -5.9600   -13.7140     0.0130 C.3   1 <1>  -0.0170 
 21 C       -5.2920   -15.0760    -0.0840 C.ar  1 <1>   0.1670 
 22 N       -4.6110   -15.3280    -1.1910 N.ar  1 <1>  -0.6200 
 23 C       -5.4130   -15.9830     0.9680 C.ar  1 <1>   0.1600 
 24 C       -4.0680   -16.5340    -1.1770 C.ar  1 <1>   0.1600 
 25 N       -4.8670   -17.1870     0.9850 N.ar  1 <1>  -0.6200 
 26 C       -4.1920   -17.4330    -0.1240 C.ar  1 <1>   0.1600 
 27 H        0.2250    -2.5120    -1.5100 H     1 <1>   0.1500 
 28 H       -0.6910    -2.5160     2.6450 H     1 <1>   0.1500 
 29 H       -0.1680    -4.9480    -1.6080 H     1 <1>   0.1500 
 30 H       -1.0870    -4.9500     2.5660 H     1 <1>   0.1500 
 31 H       -0.7540    -7.0450     1.3830 H     1 <1>   0.0800 
 32 H       -0.1890    -7.0590    -0.2670 H     1 <1>   0.0800 
 33 H       -2.4460    -6.4780    -1.0640 H     1 <1>   0.0800 
 34 H       -3.0340    -6.4500     0.5790 H     1 <1>   0.0800 
 35 H       -2.8090    -8.8380     0.7310 H     1 <1>   0.3700 
 36 H       -1.8440   -11.1310    -1.0230 H     1 <1>   0.0800 
 37 H       -3.2560   -10.9720    -2.0220 H     1 <1>   0.0800 
 38 H       -5.1250    -9.4730     0.0950 H     1 <1>   0.0800 
 39 H       -5.3890   -10.7520    -1.0810 H     1 <1>   0.0800 
 40 H       -3.6580   -12.9380    -0.7260 H     1 <1>   0.0800 
 41 H       -2.9540   -12.8030     0.8710 H     1 <1>   0.0800 
 42 H       -6.8660   -11.3650     0.7670 H     1 <1>   0.0800 
 43 H       -5.0080   -13.1420     1.8400 H     1 <1>   0.0800 
 44 H       -4.5720   -10.7040     2.2300 H     1 <1>   0.4000 
 45 H       -6.1090   -13.3210    -0.9780 H     1 <1>   0.0800 
 46 H       -6.9300   -13.8340     0.4620 H     1 <1>   0.0800 
 47 H       -5.9850   -15.6980     1.8330 H     1 <1>   0.1500 
 48 H       -3.4970   -16.8270    -2.0400 H     1 <1>   0.1500 
 49 H       -3.7120   -18.3920    -0.2040 H     1 <1>   0.1500 
@<TRIPOS>BOND
  1   1   2  1   
  2   2   3  ar  
  3   2   4  ar  
  4   3   5  ar  
  5   3  27  1   
  6   4   6  ar  
  7   4  28  1   
  8   5   7  ar  
  9   5  29  1   
 10   6   7  ar  
 11   6  30  1   
 12   7   8  1   
 13   8   9  1   
 14   8  31  1   
 15   8  32  1   
 16   9  10  1   
 17   9  33  1   
 18   9  34  1   
 19  10  11  am  
 20  10  35  1   
 21  11  12  2   
 22  11  13  1   
 23  13  14  1   
 24  13  36  1   
 25  13  37  1   
 26  14  15  1   
 27  14  16  1   
 28  15  17  1   
 29  15  38  1   
 30  15  39  1   
 31  16  18  1   
 32  16  40  1   
 33  16  41  1   
 34  17  18  1   
 35  17  19  1   
 36  17  42  1   
 37  18  20  1   
 38  18  43  1   
 39  19  44  1   
 40  20  21  1   
 41  20  45  1   
 42  20  46  1   
 43  21  22  ar  
 44  21  23  ar  
 45  22  24  ar  
 46  23  25  ar  
 47  23  47  1   
 48  24  26  ar  
 49  24  48  1   
 50  25  26  ar  
 51  26  49  1   
@<TRIPOS>SUBSTRUCTURE
  1 ****  14 GROUP 4 **** **** 0

# MOE 2024.06 (io_trps.svl 2023.06)
