@<TRIPOS>MOLECULE
NONAME
54 58 1 0 0 
SMALL
USER_CHARGES


@<TRIPOS>ATOM
  1 O       -2.6430     0.5550    -1.9200 O.2   1 <1>  -0.5700 
  2 C       -2.4340     1.0410    -0.8250 C.2   1 <1>   0.5440 
  3 N       -2.6000     0.2120     0.2630 N.am  1 <1>  -0.6600 
  4 C       -2.1190     2.4510    -0.6770 C.ar  1 <1>   0.0860 
  5 C       -3.5700     0.5780     1.3370 C.3   1 <1>   0.1400 
  6 C       -2.4430    -1.2600     0.0850 C.3   1 <1>   0.1400 
  7 C       -2.5670     3.3920    -1.6040 C.ar  1 <1>  -0.1500 
  8 C       -1.3670     2.9290     0.3970 C.ar  1 <1>  -0.1500 
  9 C       -4.9510    -0.0840     1.0930 C.3   1 <1>   0.4230 
 10 C       -3.8090    -1.8970    -0.2190 C.3   1 <1>   0.3430 
 11 C       -2.2990     4.7390    -1.4540 C.ar  1 <1>  -0.1500 
 12 C       -1.1000     4.2770     0.5480 C.ar  1 <1>  -0.1500 
 13 N       -4.8360    -1.5810     0.8480 N.4   1 <1>  -0.9590 
 14 C       -5.6990     0.6130    -0.0690 C.3   1 <1>   0.1200 
 15 C       -1.5650     5.2110    -0.3710 C.ar  1 <1>   0.0000 
 16 C       -6.1940    -2.1470     0.5320 C.3   1 <1>   0.5180 
 17 O       -6.9470     0.0140    -0.2640 O.3   1 <1>  -0.5600 
 18 C       -1.2930     6.6200    -0.2100 C.ar  1 <1>   0.0000 
 19 C       -6.0700    -3.6600     0.2620 C.3   1 <1>  -0.1950 
 20 C       -6.8930    -1.3460    -0.5940 C.3   1 <1>   0.1200 
 21 C        0.0140     7.0940    -0.1290 C.ar  1 <1>  -0.1500 
 22 C       -2.3300     7.5460    -0.1280 C.ar  1 <1>  -0.1500 
 23 C       -5.7840    -4.2700    -1.0810 C.3   1 <1>  -0.2000 
 24 C       -7.1320    -4.4500    -0.4430 C.3   1 <1>  -0.2000 
 25 C        0.2770     8.4430     0.0280 C.ar  1 <1>  -0.1500 
 26 C       -2.0730     8.8960     0.0290 C.ar  1 <1>  -0.1500 
 27 C       -0.7680     9.3470     0.1080 C.ar  1 <1>  -0.1500 
 28 H       -3.1790     0.2580     2.2870 H     1 <1>   0.0800 
 29 H       -3.6900     1.6470     1.3830 H     1 <1>   0.0800 
 30 H       -1.7670    -1.4590    -0.7310 H     1 <1>   0.0800 
 31 H       -2.0170    -1.6920     0.9740 H     1 <1>   0.0800 
 32 H       -3.1320     3.0570    -2.4580 H     1 <1>   0.1500 
 33 H       -0.9800     2.2350     1.1220 H     1 <1>   0.1500 
 34 H       -5.5440     0.0790     1.9780 H     1 <1>   0.0800 
 35 H       -3.6820    -2.9640    -0.3070 H     1 <1>   0.0800 
 36 H       -4.1450    -1.5260    -1.1740 H     1 <1>   0.0800 
 37 H       -2.6560     5.4410    -2.1880 H     1 <1>   0.1500 
 38 H       -0.5220     4.6200     1.3890 H     1 <1>   0.1500 
 39 H       -4.5230    -2.0230     1.7170 H     1 <1>   0.4500 
 40 H       -5.1450     0.5600    -0.9910 H     1 <1>   0.0800 
 41 H       -5.8700     1.6490     0.1640 H     1 <1>   0.0800 
 42 H       -6.8160    -2.0370     1.4060 H     1 <1>   0.0800 
 43 H       -5.6550    -4.1600     1.1210 H     1 <1>   0.1000 
 44 H       -7.9070    -1.6840    -0.7150 H     1 <1>   0.0800 
 45 H       -6.3820    -1.4530    -1.5350 H     1 <1>   0.0800 
 46 H        0.8310     6.3980    -0.1960 H     1 <1>   0.1500 
 47 H       -3.3470     7.2010    -0.1850 H     1 <1>   0.1500 
 48 H       -5.7440    -3.6750    -1.9780 H     1 <1>   0.1000 
 49 H       -5.1430    -5.1340    -1.1440 H     1 <1>   0.1000 
 50 H       -7.3880    -5.4280    -0.0670 H     1 <1>   0.1000 
 51 H       -7.9750    -3.9740    -0.9140 H     1 <1>   0.1000 
 52 H        1.2940     8.7920     0.0880 H     1 <1>   0.1500 
 53 H       -2.8870     9.5970     0.0900 H     1 <1>   0.1500 
 54 H       -0.5650    10.3970     0.2300 H     1 <1>   0.1500 
@<TRIPOS>BOND
  1   1   2  2   
  2   2   3  am  
  3   2   4  1   
  4   3   5  1   
  5   3   6  1   
  6   4   7  ar  
  7   4   8  ar  
  8   5   9  1   
  9   5  28  1   
 10   5  29  1   
 11   6  10  1   
 12   6  30  1   
 13   6  31  1   
 14   7  11  ar  
 15   7  32  1   
 16   8  12  ar  
 17   8  33  1   
 18   9  13  1   
 19   9  14  1   
 20   9  34  1   
 21  10  13  1   
 22  10  35  1   
 23  10  36  1   
 24  11  15  ar  
 25  11  37  1   
 26  12  15  ar  
 27  12  38  1   
 28  13  16  1   
 29  13  39  1   
 30  14  17  1   
 31  14  40  1   
 32  14  41  1   
 33  15  18  1   
 34  16  19  1   
 35  16  20  1   
 36  16  42  1   
 37  17  20  1   
 38  18  21  ar  
 39  18  22  ar  
 40  19  23  1   
 41  19  24  1   
 42  19  43  1   
 43  20  44  1   
 44  20  45  1   
 45  21  25  ar  
 46  21  46  1   
 47  22  26  ar  
 48  22  47  1   
 49  23  24  1   
 50  23  48  1   
 51  23  49  1   
 52  24  50  1   
 53  24  51  1   
 54  25  27  ar  
 55  25  52  1   
 56  26  27  ar  
 57  26  53  1   
 58  27  54  1   
@<TRIPOS>SUBSTRUCTURE
  1 ****   4 GROUP 4 **** **** 0

# MOE 2024.06 (io_trps.svl 2023.06)
