@<TRIPOS>MOLECULE
NONAME
45 47 1 0 0 
SMALL
USER_CHARGES


@<TRIPOS>ATOM
  1 O       -0.1440     0.8270     2.4920 O.3   1 <1>  -0.5600 
  2 C        0.8930     0.8500     1.5590 C.3   1 <1>   0.1200 
  3 C       -1.3770     0.8410     1.8330 C.3   1 <1>   0.1200 
  4 C        0.3510     1.6620     0.3900 C.3   1 <1>   0.2890 
  5 C       -1.0900     1.1680     0.3620 C.3   1 <1>  -0.0800 
  6 N        0.4150     3.1030     0.7510 N.pl3 1 <1>  -0.8690 
  7 C       -2.1130     2.1170    -0.2870 C.3   1 <1>  -0.0170 
  8 C        0.7130     4.1440    -0.0380 C.ar  1 <1>   0.4100 
  9 C       -3.4900     1.4740    -0.3480 C.ar  1 <1>  -0.1430 
 10 N        0.9180     3.8790    -1.3310 N.ar  1 <1>  -0.6200 
 11 C        0.8010     5.4560     0.4680 C.ar  1 <1>  -0.1430 
 12 C       -3.8220     0.5640    -1.3310 C.ar  1 <1>  -0.1500 
 13 C       -4.4770     1.7640     0.5720 C.ar  1 <1>  -0.1500 
 14 C        1.2180     4.8650    -2.1160 C.ar  1 <1>   0.5280 
 15 C        1.1360     6.4640    -0.4000 C.ar  1 <1>   0.2180 
 16 C        0.5180     5.6920     1.9570 C.3   1 <1>  -0.0970 
 17 C       -5.0870    -0.0010    -1.3430 C.ar  1 <1>   0.1600 
 18 C       -5.7110     1.1430     0.4700 C.ar  1 <1>   0.1600 
 19 N        1.3340     6.1380    -1.6940 N.ar  1 <1>  -0.1790 
 20 C        1.4510     4.5680    -3.5830 C.3   1 <1>  -0.0970 
 21 C        1.3020     7.9290    -0.0150 C.3   1 <1>  -0.0970 
 22 N       -6.0390     0.2660    -0.4640 N.ar  1 <1>  -0.6200 
 23 H        1.7720     1.2880     2.0000 H     1 <1>   0.0800 
 24 H        1.0960    -0.1640     1.2620 H     1 <1>   0.0800 
 25 H       -1.8440    -0.1230     1.9430 H     1 <1>   0.0800 
 26 H       -1.9870     1.5950     2.3000 H     1 <1>   0.0800 
 27 H        0.8810     1.4600    -0.5240 H     1 <1>   0.0800 
 28 H       -1.1060     0.2380    -0.1800 H     1 <1>   0.0800 
 29 H        0.2300     3.2340     1.7510 H     1 <1>   0.4000 
 30 H       -1.7910     2.3610    -1.2840 H     1 <1>   0.0800 
 31 H       -2.1750     3.0370     0.2670 H     1 <1>   0.0800 
 32 H       -3.1110     0.2860    -2.0870 H     1 <1>   0.1500 
 33 H       -4.3020     2.4650     1.3670 H     1 <1>   0.1500 
 34 H        0.4280     6.7320     2.2070 H     1 <1>   0.0800 
 35 H        1.3090     5.2680     2.5520 H     1 <1>   0.0800 
 36 H       -0.4080     5.2200     2.2370 H     1 <1>   0.0800 
 37 H       -5.3280    -0.7090    -2.1170 H     1 <1>   0.1500 
 38 H       -6.4690     1.3810     1.1970 H     1 <1>   0.1500 
 39 H        1.5770     6.8580    -2.3740 H     1 <1>   0.4570 
 40 H        1.3080     3.5190    -3.7740 H     1 <1>   0.0800 
 41 H        2.4570     4.8250    -3.8620 H     1 <1>   0.0800 
 42 H        0.7570     5.1170    -4.1930 H     1 <1>   0.0800 
 43 H        1.7690     8.0200     0.9490 H     1 <1>   0.0800 
 44 H        0.3400     8.4110     0.0210 H     1 <1>   0.0800 
 45 H        1.9230     8.4520    -0.7200 H     1 <1>   0.0800 
@<TRIPOS>BOND
  1   1   2  1   
  2   1   3  1   
  3   2   4  1   
  4   2  23  1   
  5   2  24  1   
  6   3   5  1   
  7   3  25  1   
  8   3  26  1   
  9   4   5  1   
 10   4   6  1   
 11   4  27  1   
 12   5   7  1   
 13   5  28  1   
 14   6   8  1   
 15   6  29  1   
 16   7   9  1   
 17   7  30  1   
 18   7  31  1   
 19   8  10  ar  
 20   8  11  ar  
 21   9  12  ar  
 22   9  13  ar  
 23  10  14  ar  
 24  11  15  ar  
 25  11  16  1   
 26  12  17  ar  
 27  12  32  1   
 28  13  18  ar  
 29  13  33  1   
 30  14  19  ar  
 31  14  20  1   
 32  15  19  ar  
 33  15  21  1   
 34  16  34  1   
 35  16  35  1   
 36  16  36  1   
 37  17  22  ar  
 38  17  37  1   
 39  18  22  ar  
 40  18  38  1   
 41  19  39  1   
 42  20  40  1   
 43  20  41  1   
 44  20  42  1   
 45  21  43  1   
 46  21  44  1   
 47  21  45  1   
@<TRIPOS>SUBSTRUCTURE
  1 ****   7 GROUP 4 **** **** 0

# MOE 2024.06 (io_trps.svl 2023.06)
