@<TRIPOS>MOLECULE
NONAME
57 59 1 0 0 
SMALL
USER_CHARGES


@<TRIPOS>ATOM
  1 O        2.5510     1.7080    -0.6350 O.3   1 <1>  -0.0190 
  2 N        3.3910     0.8320    -0.1770 N.2   1 <1>  -0.4100 
  3 C        1.3600     1.5600    -0.1200 C.2   1 <1>  -0.0400 
  4 C        2.7250     0.0880     0.6330 C.2   1 <1>   0.1080 
  5 C        1.4010     0.5110     0.7140 C.2   1 <1>  -0.1500 
  6 C        0.2450     2.5110    -0.5100 C.3   1 <1>   0.0200 
  7 C        3.3100    -1.0840     1.3900 C.3   1 <1>  -0.0590 
  8 C        0.5550     3.9420    -0.0350 C.3   1 <1>  -0.0800 
  9 C       -0.4980     4.9580    -0.4550 C.3   1 <1>   0.2000 
 10 C        1.8470     4.5170    -0.6150 C.3   1 <1>   0.3430 
 11 O       -1.5690     4.9320     0.4230 O.3   1 <1>  -0.6800 
 12 C        0.2260     6.3070    -0.4480 C.3   1 <1>   0.3430 
 13 N        1.6900     6.0000    -0.6010 N.4   1 <1>  -0.9590 
 14 C        2.5270     6.6480     0.4430 C.3   1 <1>   0.4810 
 15 C        2.6270     8.1280     0.1200 C.2   1 <1>  -0.1670 
 16 C        1.5030     8.9170     0.5710 C.ar  1 <1>   0.0280 
 17 C        3.6770     8.6530    -0.5370 C.2   1 <1>  -0.2880 
 18 C        1.0640     8.8770     1.8930 C.ar  1 <1>  -0.1500 
 19 C        0.8080     9.7250    -0.3240 C.ar  1 <1>  -0.1500 
 20 C        4.9090     7.9340    -1.0760 C.3   1 <1>  -0.0220 
 21 C       -0.0490     9.5920     2.2960 C.ar  1 <1>  -0.1500 
 22 C       -0.3050    10.4420     0.0750 C.ar  1 <1>  -0.1500 
 23 C        6.1400     8.1550    -0.1810 C.3   1 <1>  -0.0800 
 24 C       -0.7390    10.3710     1.3860 C.ar  1 <1>  -0.1500 
 25 C        6.5530     9.6320    -0.1220 C.3   1 <1>  -0.2400 
 26 C        7.3190     7.3140    -0.6870 C.3   1 <1>  -0.2400 
 27 H        0.6280     0.0720     1.3180 H     1 <1>   0.1500 
 28 H        0.1190     2.4830    -1.5790 H     1 <1>   0.0800 
 29 H       -0.6760     2.1770    -0.0620 H     1 <1>   0.0800 
 30 H        3.1890    -0.9370     2.4470 H     1 <1>   0.0800 
 31 H        4.3580    -1.1790     1.1690 H     1 <1>   0.0800 
 32 H        2.8120    -1.9900     1.0990 H     1 <1>   0.0800 
 33 H        0.6560     3.9410     1.0360 H     1 <1>   0.0800 
 34 H       -0.8740     4.7550    -1.4450 H     1 <1>   0.0800 
 35 H        1.9600     4.1770    -1.6320 H     1 <1>   0.0800 
 36 H        2.7070     4.1940    -0.0480 H     1 <1>   0.0800 
 37 H       -1.2990     4.9800     1.3630 H     1 <1>   0.4000 
 38 H        0.0450     6.8060     0.4900 H     1 <1>   0.0800 
 39 H       -0.1240     6.9310    -1.2540 H     1 <1>   0.0800 
 40 H        2.0180     6.3940    -1.4940 H     1 <1>   0.4500 
 41 H        2.1040     6.4980     1.4230 H     1 <1>   0.0800 
 42 H        3.5160     6.2200     0.4350 H     1 <1>   0.0800 
 43 H        3.7250     9.7130    -0.7360 H     1 <1>   0.1500 
 44 H        1.5990     8.2980     2.6240 H     1 <1>   0.1500 
 45 H        1.1410     9.7960    -1.3450 H     1 <1>   0.1500 
 46 H        4.7240     6.8790    -1.1570 H     1 <1>   0.0800 
 47 H        5.1170     8.2930    -2.0700 H     1 <1>   0.0800 
 48 H       -0.3780     9.5530     3.3210 H     1 <1>   0.1500 
 49 H       -0.8330    11.0610    -0.6310 H     1 <1>   0.1500 
 50 H        5.9020     7.8310     0.8190 H     1 <1>   0.0800 
 51 H       -1.6050    10.9300     1.6990 H     1 <1>   0.1500 
 52 H        6.7600    10.0110    -1.1070 H     1 <1>   0.0800 
 53 H        7.4390     9.7470     0.4790 H     1 <1>   0.0800 
 54 H        5.7780    10.2300     0.3220 H     1 <1>   0.0800 
 55 H        7.5990     7.6110    -1.6830 H     1 <1>   0.0800 
 56 H        7.0660     6.2690    -0.6980 H     1 <1>   0.0800 
 57 H        8.1720     7.4430    -0.0440 H     1 <1>   0.0800 
@<TRIPOS>BOND
  1   1   2  1   
  2   1   3  1   
  3   2   4  2   
  4   3   5  2   
  5   3   6  1   
  6   4   5  1   
  7   4   7  1   
  8   5  27  1   
  9   6   8  1   
 10   6  28  1   
 11   6  29  1   
 12   7  30  1   
 13   7  31  1   
 14   7  32  1   
 15   8   9  1   
 16   8  10  1   
 17   8  33  1   
 18   9  11  1   
 19   9  12  1   
 20   9  34  1   
 21  10  13  1   
 22  10  35  1   
 23  10  36  1   
 24  11  37  1   
 25  12  13  1   
 26  12  38  1   
 27  12  39  1   
 28  13  14  1   
 29  13  40  1   
 30  14  15  1   
 31  14  41  1   
 32  14  42  1   
 33  15  16  1   
 34  15  17  2   
 35  16  18  ar  
 36  16  19  ar  
 37  17  20  1   
 38  17  43  1   
 39  18  21  ar  
 40  18  44  1   
 41  19  22  ar  
 42  19  45  1   
 43  20  23  1   
 44  20  46  1   
 45  20  47  1   
 46  21  24  ar  
 47  21  48  1   
 48  22  24  ar  
 49  22  49  1   
 50  23  25  1   
 51  23  26  1   
 52  23  50  1   
 53  24  51  1   
 54  25  52  1   
 55  25  53  1   
 56  25  54  1   
 57  26  55  1   
 58  26  56  1   
 59  26  57  1   
@<TRIPOS>SUBSTRUCTURE
  1 ****  13 GROUP 4 **** **** 0

# MOE 2024.06 (io_trps.svl 2023.06)
