@<TRIPOS>MOLECULE
NONAME
53 56 1 0 0 
SMALL
USER_CHARGES


@<TRIPOS>ATOM
  1 O        0.5710    -0.6160    -1.6520 O.3   1 <1>  -0.6800 
  2 C        1.9300    -0.4770    -1.3920 C.3   1 <1>   0.2000 
  3 C        2.4150    -1.5810    -0.4640 C.3   1 <1>  -0.0800 
  4 C        2.2280     0.8050    -0.6230 C.3   1 <1>   0.2090 
  5 C        3.6480    -0.9680     0.2060 C.3   1 <1>   0.2090 
  6 C        2.7060    -2.9090    -1.1800 C.3   1 <1>  -0.0170 
  7 N        3.4630     0.5110     0.1560 N.pl3 1 <1>  -0.8380 
  8 C        3.2080    -3.9580    -0.2030 C.ar  1 <1>   0.1660 
  9 C        4.5760     1.2610    -0.1520 C.ar  1 <1>   0.4100 
 10 N        4.4910    -4.0560    -0.0380 N.ar  1 <1>  -0.6200 
 11 C        2.2740    -4.7560     0.4770 C.ar  1 <1>  -0.1500 
 12 N        5.0320     1.1170    -1.3820 N.ar  1 <1>  -0.6200 
 13 C        5.1930     2.1220     0.7540 C.ar  1 <1>  -0.1430 
 14 C        4.9480    -4.9820     0.8440 C.ar  1 <1>   0.3100 
 15 C        2.7040    -5.6940     1.3650 C.ar  1 <1>  -0.1500 
 16 C        6.1000     1.8180    -1.6930 C.ar  1 <1>   0.4770 
 17 C        6.2970     2.7940     0.2930 C.ar  1 <1>   0.1600 
 18 C        4.7340     2.3720     2.1960 C.3   1 <1>   0.0630 
 19 C        4.0860    -5.8300     1.5730 C.ar  1 <1>   0.0000 
 20 C        6.3320    -5.1040     1.0440 C.ar  1 <1>  -0.1500 
 21 N        6.7700     2.6570    -0.9290 N.ar  1 <1>  -0.6200 
 22 C        6.6160     1.6430    -3.1000 C.3   1 <1>  -0.0970 
 23 C        4.8090     1.1100     3.0610 C.3   1 <1>  -0.2400 
 24 C        3.3380     3.0020     2.2560 C.3   1 <1>  -0.2400 
 25 C        4.6420    -6.7640     2.4700 C.ar  1 <1>  -0.1500 
 26 C        6.8530    -6.0180     1.9210 C.ar  1 <1>  -0.1500 
 27 C        5.9970    -6.8580     2.6410 C.ar  1 <1>  -0.1500 
 28 H        0.4120    -1.3880    -2.2270 H     1 <1>   0.4000 
 29 H        2.4720    -0.4690    -2.3230 H     1 <1>   0.0800 
 30 H        1.6800    -1.7370     0.3070 H     1 <1>   0.0800 
 31 H        1.4280     1.0260     0.0610 H     1 <1>   0.0800 
 32 H        2.3760     1.6330    -1.2950 H     1 <1>   0.0800 
 33 H        4.5430    -1.2430    -0.3280 H     1 <1>   0.0800 
 34 H        3.7390    -1.3070     1.2230 H     1 <1>   0.0800 
 35 H        3.4490    -2.7560    -1.9440 H     1 <1>   0.0800 
 36 H        1.8140    -3.2690    -1.6590 H     1 <1>   0.0800 
 37 H        1.2250    -4.6150     0.2890 H     1 <1>   0.1500 
 38 H        2.0190    -6.3240     1.9050 H     1 <1>   0.1500 
 39 H        6.8240     3.4750     0.9380 H     1 <1>   0.1500 
 40 H        5.4090     3.0840     2.6380 H     1 <1>   0.0800 
 41 H        6.9720    -4.4490     0.4810 H     1 <1>   0.1500 
 42 H        7.6600     1.8930    -3.1470 H     1 <1>   0.0800 
 43 H        6.0680     2.2870    -3.7600 H     1 <1>   0.0800 
 44 H        6.4890     0.6230    -3.4120 H     1 <1>   0.0800 
 45 H        4.0580     0.4010     2.7650 H     1 <1>   0.0800 
 46 H        4.6490     1.3580     4.0950 H     1 <1>   0.0800 
 47 H        5.7760     0.6500     2.9610 H     1 <1>   0.0800 
 48 H        2.5910     2.3060     1.9210 H     1 <1>   0.0800 
 49 H        3.3000     3.8740     1.6280 H     1 <1>   0.0800 
 50 H        3.1030     3.2920     3.2640 H     1 <1>   0.0800 
 51 H        3.9790    -7.4070     3.0210 H     1 <1>   0.1500 
 52 H        7.9170    -6.1010     2.0640 H     1 <1>   0.1500 
 53 H        6.4200    -7.5720     3.3260 H     1 <1>   0.1500 
@<TRIPOS>BOND
  1   1   2  1   
  2   1  28  1   
  3   2   3  1   
  4   2   4  1   
  5   2  29  1   
  6   3   5  1   
  7   3   6  1   
  8   3  30  1   
  9   4   7  1   
 10   4  31  1   
 11   4  32  1   
 12   5   7  1   
 13   5  33  1   
 14   5  34  1   
 15   6   8  1   
 16   6  35  1   
 17   6  36  1   
 18   7   9  1   
 19   8  10  ar  
 20   8  11  ar  
 21   9  12  ar  
 22   9  13  ar  
 23  10  14  ar  
 24  11  15  ar  
 25  11  37  1   
 26  12  16  ar  
 27  13  17  ar  
 28  13  18  1   
 29  14  19  ar  
 30  14  20  ar  
 31  15  19  ar  
 32  15  38  1   
 33  16  21  ar  
 34  16  22  1   
 35  17  21  ar  
 36  17  39  1   
 37  18  23  1   
 38  18  24  1   
 39  18  40  1   
 40  19  25  ar  
 41  20  26  ar  
 42  20  41  1   
 43  22  42  1   
 44  22  43  1   
 45  22  44  1   
 46  23  45  1   
 47  23  46  1   
 48  23  47  1   
 49  24  48  1   
 50  24  49  1   
 51  24  50  1   
 52  25  27  ar  
 53  25  51  1   
 54  26  27  ar  
 55  26  52  1   
 56  27  53  1   
@<TRIPOS>SUBSTRUCTURE
  1 ****   5 GROUP 4 **** **** 0

# MOE 2024.06 (io_trps.svl 2023.06)
