@<TRIPOS>MOLECULE
NONAME
48 50 1 0 0 
SMALL
USER_CHARGES


@<TRIPOS>ATOM
  1 S        0.3130     0.2360    -1.0610 S.o2  1 <1>   1.3330 
  2 O       -0.7870     1.1160    -1.3870 O.2   1 <1>  -0.6500 
  3 O        0.4420    -1.0280    -1.7510 O.2   1 <1>  -0.6500 
  4 N        0.2100    -0.0930     0.6020 N.am  1 <1>  -0.8490 
  5 C        1.8580     1.1280    -1.2410 C.3   1 <1>  -0.0550 
  6 C       -0.1310     1.0850     1.4090 C.3   1 <1>   0.1160 
  7 C       -0.7330    -1.1780     0.8840 C.3   1 <1>   0.1160 
  8 C        3.1260     0.2770    -1.0030 C.3   1 <1>  -0.0800 
  9 C        4.4390     1.0170    -1.2120 C.3   1 <1>   0.2200 
 10 C        3.2840    -0.2740     0.4190 C.3   1 <1>   0.1200 
 11 N        4.3700     2.3600    -0.5910 N.am  1 <1>  -0.7300 
 12 C        5.3900     0.1430    -0.4060 C.3   1 <1>   0.1200 
 13 O        4.6540    -0.3020     0.6940 O.3   1 <1>  -0.5600 
 14 C        4.1750     3.5380    -1.2480 C.2   1 <1>   0.6160 
 15 O        4.2740     3.5300    -2.4610 O.2   1 <1>  -0.5700 
 16 C        3.8590     4.7570    -0.5510 C.2   1 <1>   0.0290 
 17 C        3.1560     4.7010     0.7050 C.2   1 <1>   0.6160 
 18 C        4.1980     5.9920    -1.0600 C.2   1 <1>  -0.1500 
 19 O        2.7630     3.6690     1.2380 O.2   1 <1>  -0.5700 
 20 N        2.8790     5.8710     1.3670 N.am  1 <1>  -0.5390 
 21 C        3.8740     7.1570    -0.3410 C.2   1 <1>  -0.1380 
 22 C        3.2330     7.0780     0.8400 C.2   1 <1>  -0.0290 
 23 C        4.1660     8.5870    -0.7210 C.3   1 <1>  -0.0220 
 24 C        2.9780     8.4230     1.4630 C.3   1 <1>  -0.0220 
 25 C        3.4390     9.4070     0.3670 C.3   1 <1>  -0.1600 
 26 H        1.9080     1.5180    -2.2390 H     1 <1>   0.0800 
 27 H        1.8480     1.9660    -0.5760 H     1 <1>   0.0800 
 28 H       -0.1270     0.8300     2.4550 H     1 <1>   0.0800 
 29 H       -1.1080     1.4560     1.1440 H     1 <1>   0.0800 
 30 H        0.5900     1.8690     1.2550 H     1 <1>   0.0800 
 31 H       -0.7610    -1.3830     1.9400 H     1 <1>   0.0800 
 32 H       -0.4250    -2.0760     0.3750 H     1 <1>   0.0800 
 33 H       -1.7220    -0.9110     0.5470 H     1 <1>   0.0800 
 34 H        3.1040    -0.5630    -1.6750 H     1 <1>   0.0800 
 35 H        4.7260     1.0850    -2.2480 H     1 <1>   0.0800 
 36 H        2.8830    -1.2690     0.5140 H     1 <1>   0.0800 
 37 H        2.8250     0.3730     1.1470 H     1 <1>   0.0800 
 38 H        4.1690     2.3360     0.4180 H     1 <1>   0.3700 
 39 H        6.2610     0.6770    -0.0690 H     1 <1>   0.0800 
 40 H        5.6840    -0.7220    -0.9740 H     1 <1>   0.0800 
 41 H        4.7100     6.0840    -2.0040 H     1 <1>   0.1500 
 42 H        2.3890     5.7750     2.2570 H     1 <1>   0.3700 
 43 H        5.2270     8.7640    -0.6920 H     1 <1>   0.0800 
 44 H        3.7840     8.8130    -1.7010 H     1 <1>   0.0800 
 45 H        1.9350     8.5550     1.6920 H     1 <1>   0.0800 
 46 H        3.5690     8.5330     2.3560 H     1 <1>   0.0800 
 47 H        2.5760     9.8810    -0.0670 H     1 <1>   0.0800 
 48 H        4.0830    10.1670     0.7740 H     1 <1>   0.0800 
@<TRIPOS>BOND
  1   1   2  2   
  2   1   3  2   
  3   1   4  am  
  4   1   5  1   
  5   4   6  1   
  6   4   7  1   
  7   5   8  1   
  8   5  26  1   
  9   5  27  1   
 10   6  28  1   
 11   6  29  1   
 12   6  30  1   
 13   7  31  1   
 14   7  32  1   
 15   7  33  1   
 16   8   9  1   
 17   8  10  1   
 18   8  34  1   
 19   9  11  1   
 20   9  12  1   
 21   9  35  1   
 22  10  13  1   
 23  10  36  1   
 24  10  37  1   
 25  11  14  am  
 26  11  38  1   
 27  12  13  1   
 28  12  39  1   
 29  12  40  1   
 30  14  15  2   
 31  14  16  1   
 32  16  17  1   
 33  16  18  2   
 34  17  19  2   
 35  17  20  am  
 36  18  21  1   
 37  18  41  1   
 38  20  22  1   
 39  20  42  1   
 40  21  22  2   
 41  21  23  1   
 42  22  24  1   
 43  23  25  1   
 44  23  43  1   
 45  23  44  1   
 46  24  25  1   
 47  24  45  1   
 48  24  46  1   
 49  25  47  1   
 50  25  48  1   
@<TRIPOS>SUBSTRUCTURE
  1 ****  19 GROUP 4 **** **** 0

# MOE 2024.06 (io_trps.svl 2023.06)
