@<TRIPOS>MOLECULE
NONAME
56 57 1 0 0 
SMALL
USER_CHARGES


@<TRIPOS>ATOM
  1 O        1.0500     3.6610    -2.5080 O.2   1 <1>  -0.5700 
  2 C        0.2420     4.2220    -1.8050 C.2   1 <1>   0.5690 
  3 N       -0.5240     3.5510    -0.8920 N.am  1 <1>  -0.6600 
  4 C        0.1000     5.7370    -1.9440 C.3   1 <1>   0.1810 
  5 C       -1.5280     4.2670    -0.0410 C.3   1 <1>   0.3640 
  6 C       -0.4270     2.0780    -0.6890 C.3   1 <1>   0.0600 
  7 O       -1.1550     6.2270    -1.5210 O.3   1 <1>  -0.5600 
  8 C       -2.9370     3.6620    -0.1790 C.ar  1 <1>  -0.1430 
  9 C       -1.5540     5.8140    -0.2190 C.3   1 <1>   0.2610 
 10 C       -3.6400     3.5050    -1.3780 C.ar  1 <1>  -0.1430 
 11 C       -3.5420     3.2540     1.0060 C.ar  1 <1>  -0.1500 
 12 C       -0.7670     6.5600     0.8720 C.2   1 <1>   0.5690 
 13 C       -4.9110     2.9470    -1.3570 C.ar  1 <1>  -0.1500 
 14 C       -3.0910     3.9170    -2.7390 C.3   1 <1>  -0.0960 
 15 C       -4.8080     2.7000     1.0150 C.ar  1 <1>  -0.1500 
 16 O       -0.6810     6.0860     1.9810 O.2   1 <1>  -0.5700 
 17 N       -0.2170     7.7660     0.5510 N.am  1 <1>  -0.7300 
 18 C       -5.4950     2.5450    -0.1710 C.ar  1 <1>  -0.1500 
 19 C        0.5540     8.7040     1.3770 C.3   1 <1>   0.3000 
 20 C        0.9790     9.8770     0.4730 C.3   1 <1>  -0.1600 
 21 C       -0.3510     9.2340     2.4910 C.3   1 <1>  -0.2400 
 22 C        1.7740     7.9920     1.9710 C.3   1 <1>  -0.2400 
 23 C        1.8900     9.5010    -0.7160 C.3   1 <1>  -0.0990 
 24 C        2.0970    10.6810    -1.6410 C.2   1 <1>   0.5690 
 25 O        1.3370    10.8300    -2.5650 O.2   1 <1>  -0.5700 
 26 N        3.1230    11.5340    -1.3910 N.am  1 <1>  -0.7300 
 27 C        3.4470    12.7370    -2.2000 C.3   1 <1>   0.0600 
 28 H        0.2190     6.0070    -2.9780 H     1 <1>   0.0800 
 29 H        0.8730     6.2170    -1.3740 H     1 <1>   0.0800 
 30 H       -1.2280     4.0680     0.9710 H     1 <1>   0.0800 
 31 H       -0.2580     1.8610     0.3500 H     1 <1>   0.0800 
 32 H        0.3860     1.6670    -1.2630 H     1 <1>   0.0800 
 33 H       -1.3420     1.6050    -1.0050 H     1 <1>   0.0800 
 34 H       -2.5730     6.1330    -0.1050 H     1 <1>   0.0800 
 35 H       -3.0320     3.3650     1.9480 H     1 <1>   0.1500 
 36 H       -5.4630     2.8190    -2.2710 H     1 <1>   0.1500 
 37 H       -3.7850     3.6790    -3.5240 H     1 <1>   0.0800 
 38 H       -2.1760     3.3970    -2.9520 H     1 <1>   0.0800 
 39 H       -2.9200     4.9750    -2.7690 H     1 <1>   0.0800 
 40 H       -5.2570     2.3910     1.9430 H     1 <1>   0.1500 
 41 H       -0.4090     8.1120    -0.3930 H     1 <1>   0.3700 
 42 H       -6.4810     2.1150    -0.1730 H     1 <1>   0.1500 
 43 H        0.0930    10.3550     0.0910 H     1 <1>   0.0800 
 44 H        1.4910    10.6090     1.0730 H     1 <1>   0.0800 
 45 H        0.1740     9.9600     3.0830 H     1 <1>   0.0800 
 46 H       -0.6580     8.4360     3.1430 H     1 <1>   0.0800 
 47 H       -1.2270     9.7000     2.0770 H     1 <1>   0.0800 
 48 H        2.4160     8.7020     2.4590 H     1 <1>   0.0800 
 49 H        2.3350     7.4840     1.2090 H     1 <1>   0.0800 
 50 H        1.4690     7.2690     2.7060 H     1 <1>   0.0800 
 51 H        1.4490     8.7100    -1.2940 H     1 <1>   0.0800 
 52 H        2.8470     9.1610    -0.3680 H     1 <1>   0.0800 
 53 H        3.7340    11.3600    -0.5920 H     1 <1>   0.3700 
 54 H        2.7490    12.8400    -3.0150 H     1 <1>   0.0800 
 55 H        4.4400    12.6470    -2.6050 H     1 <1>   0.0800 
 56 H        3.3920    13.6170    -1.5840 H     1 <1>   0.0800 
@<TRIPOS>BOND
  1   1   2  2   
  2   2   3  am  
  3   2   4  1   
  4   3   5  1   
  5   3   6  1   
  6   4   7  1   
  7   4  28  1   
  8   4  29  1   
  9   5   8  1   
 10   5   9  1   
 11   5  30  1   
 12   6  31  1   
 13   6  32  1   
 14   6  33  1   
 15   7   9  1   
 16   8  10  ar  
 17   8  11  ar  
 18   9  12  1   
 19   9  34  1   
 20  10  13  ar  
 21  10  14  1   
 22  11  15  ar  
 23  11  35  1   
 24  12  16  2   
 25  12  17  am  
 26  13  18  ar  
 27  13  36  1   
 28  14  37  1   
 29  14  38  1   
 30  14  39  1   
 31  15  18  ar  
 32  15  40  1   
 33  17  19  1   
 34  17  41  1   
 35  18  42  1   
 36  19  20  1   
 37  19  21  1   
 38  19  22  1   
 39  20  23  1   
 40  20  43  1   
 41  20  44  1   
 42  21  45  1   
 43  21  46  1   
 44  21  47  1   
 45  22  48  1   
 46  22  49  1   
 47  22  50  1   
 48  23  24  1   
 49  23  51  1   
 50  23  52  1   
 51  24  25  2   
 52  24  26  am  
 53  26  27  1   
 54  26  53  1   
 55  27  54  1   
 56  27  55  1   
 57  27  56  1   
@<TRIPOS>SUBSTRUCTURE
  1 ****   9 GROUP 4 **** **** 0

# MOE 2024.06 (io_trps.svl 2023.06)
