@<TRIPOS>MOLECULE
NONAME
46 47 1 0 0 
SMALL
USER_CHARGES


@<TRIPOS>ATOM
  1 O       -1.0340    -0.0040     1.4310 O.2   1 <1>  -0.5700 
  2 C       -1.8090     0.6770     0.8070 C.2   1 <1>   0.5690 
  3 N       -3.0210     0.1980     0.4200 N.am  1 <1>  -0.7300 
  4 C       -1.4170     2.1070     0.4440 C.3   1 <1>  -0.0190 
  5 C       -3.5460    -1.1430     0.7820 C.3   1 <1>   0.1400 
  6 C       -2.4210     3.1400     0.9940 C.3   1 <1>  -0.1600 
  7 C       -1.2070     2.2780    -1.0810 C.3   1 <1>  -0.1600 
  8 C       -2.8050    -2.2350     0.0070 C.3   1 <1>   0.0960 
  9 C       -1.9500     4.5910     0.7610 C.3   1 <1>   0.2000 
 10 C       -1.3380     3.7350    -1.5660 C.3   1 <1>  -0.1600 
 11 N       -3.4090    -3.5460     0.3070 N.pl3 1 <1>   0.0480 
 12 O       -3.0930     5.3830     0.5480 O.3   1 <1>  -0.5600 
 13 C       -0.9970     4.7320    -0.4560 C.3   1 <1>   0.2000 
 14 C       -4.4310    -4.1690    -0.3170 C.2   1 <1>  -0.3320 
 15 C       -3.0630    -4.3720     1.3170 C.2   1 <1>   0.0360 
 16 C       -3.7330     5.8190     1.7070 C.3   1 <1>   0.0400 
 17 O       -1.1120     6.0050    -0.9770 O.3   1 <1>  -0.6800 
 18 C       -4.6330    -5.3270     0.3560 C.2   1 <1>   0.0460 
 19 C       -5.1460    -3.6010    -1.5350 C.3   1 <1>  -0.0600 
 20 N       -3.7740    -5.4490     1.3820 N.2   1 <1>  -0.5650 
 21 C       -5.6410    -6.4280     0.1120 C.3   1 <1>  -0.0590 
 22 H       -3.6570     0.8120    -0.0930 H     1 <1>   0.3700 
 23 H       -0.4730     2.2960     0.9260 H     1 <1>   0.0800 
 24 H       -3.4080    -1.2990     1.8390 H     1 <1>   0.0800 
 25 H       -4.5980    -1.1830     0.5600 H     1 <1>   0.0800 
 26 H       -2.5550     2.9790     2.0490 H     1 <1>   0.0800 
 27 H       -3.3680     2.9940     0.5050 H     1 <1>   0.0800 
 28 H       -0.2250     1.9080    -1.3260 H     1 <1>   0.0800 
 29 H       -1.9140     1.6780    -1.6270 H     1 <1>   0.0800 
 30 H       -1.7710    -2.2570     0.2990 H     1 <1>   0.0800 
 31 H       -2.8690    -2.0540    -1.0490 H     1 <1>   0.0800 
 32 H       -1.4270     4.9570     1.6280 H     1 <1>   0.0800 
 33 H       -2.3530     3.9100    -1.8800 H     1 <1>   0.0800 
 34 H       -0.6910     3.8940    -2.4120 H     1 <1>   0.0800 
 35 H        0.0250     4.5910    -0.1510 H     1 <1>   0.0800 
 36 H       -2.2660    -4.1360     1.9990 H     1 <1>   0.1500 
 37 H       -4.5870     6.4060     1.4160 H     1 <1>   0.0800 
 38 H       -3.0540     6.4290     2.2790 H     1 <1>   0.0800 
 39 H       -4.0570     4.9700     2.2820 H     1 <1>   0.0800 
 40 H       -2.0390     6.2840    -0.8010 H     1 <1>   0.4000 
 41 H       -5.9300    -4.2590    -1.8600 H     1 <1>   0.0800 
 42 H       -4.4510    -3.4800    -2.3470 H     1 <1>   0.0800 
 43 H       -5.5820    -2.6480    -1.2990 H     1 <1>   0.0800 
 44 H       -6.2610    -6.2080    -0.7340 H     1 <1>   0.0800 
 45 H       -6.2610    -6.5420     0.9820 H     1 <1>   0.0800 
 46 H       -5.1210    -7.3510    -0.0660 H     1 <1>   0.0800 
@<TRIPOS>BOND
  1   1   2  2   
  2   2   3  am  
  3   2   4  1   
  4   3   5  1   
  5   3  22  1   
  6   4   6  1   
  7   4   7  1   
  8   4  23  1   
  9   5   8  1   
 10   5  24  1   
 11   5  25  1   
 12   6   9  1   
 13   6  26  1   
 14   6  27  1   
 15   7  10  1   
 16   7  28  1   
 17   7  29  1   
 18   8  11  1   
 19   8  30  1   
 20   8  31  1   
 21   9  12  1   
 22   9  13  1   
 23   9  32  1   
 24  10  13  1   
 25  10  33  1   
 26  10  34  1   
 27  11  14  1   
 28  11  15  1   
 29  12  16  1   
 30  13  17  1   
 31  13  35  1   
 32  14  18  2   
 33  14  19  1   
 34  15  20  2   
 35  15  36  1   
 36  16  37  1   
 37  16  38  1   
 38  16  39  1   
 39  17  40  1   
 40  18  20  1   
 41  18  21  1   
 42  19  41  1   
 43  19  42  1   
 44  19  43  1   
 45  21  44  1   
 46  21  45  1   
 47  21  46  1   
@<TRIPOS>SUBSTRUCTURE
  1 ****   3 GROUP 4 **** **** 0

# MOE 2024.06 (io_trps.svl 2023.06)
