@<TRIPOS>MOLECULE
NONAME
50 52 1 0 0 
SMALL
USER_CHARGES


@<TRIPOS>ATOM
  1 O       -2.6920    -1.9820     2.0350 O.2   1 <1>  -0.5700 
  2 C       -2.4000    -1.4510     0.9800 C.2   1 <1>   0.7150 
  3 N       -1.7510    -0.2450     1.0030 N.am  1 <1>  -0.7300 
  4 C       -2.7420    -2.0730    -0.2820 C.2   1 <1>   0.0550 
  5 C       -1.3480     0.5010     2.2250 C.3   1 <1>   0.0600 
  6 O       -3.1790    -3.3280    -0.3170 O.3   1 <1>  -0.2800 
  7 C       -2.7200    -1.6000    -1.5610 C.2   1 <1>  -0.1500 
  8 C       -3.4470    -3.6640    -1.5580 C.2   1 <1>  -0.0400 
  9 C       -3.1810    -2.6300    -2.3850 C.2   1 <1>  -0.1500 
 10 C       -3.9910    -5.0580    -1.8160 C.3   1 <1>   0.5230 
 11 N       -5.0230    -5.3880    -0.7850 N.4   1 <1>  -0.9590 
 12 C       -5.4980    -6.8090    -0.7740 C.3   1 <1>   0.4230 
 13 C       -6.1400    -4.3970    -0.8330 C.3   1 <1>   0.3430 
 14 C       -6.4360    -7.0010     0.4310 C.3   1 <1>  -0.1600 
 15 C       -4.2930    -7.7780    -0.7720 C.3   1 <1>  -0.1600 
 16 C       -7.0360    -4.5630     0.3890 C.3   1 <1>  -0.1600 
 17 C       -7.5850    -5.9860     0.4760 C.3   1 <1>  -0.1600 
 18 C       -4.6120    -9.2860    -0.6330 C.3   1 <1>  -0.0170 
 19 C       -4.9960    -9.7470     0.7690 C.ar  1 <1>   0.1670 
 20 N       -4.3080    -9.2300     1.7750 N.ar  1 <1>  -0.6200 
 21 C       -6.0210   -10.6700     0.9260 C.ar  1 <1>  -0.1500 
 22 C       -4.6500    -9.6500     2.9840 C.ar  1 <1>   0.1600 
 23 C       -6.3710   -11.0930     2.1900 C.ar  1 <1>  -0.1500 
 24 C       -5.6580   -10.5620     3.2430 C.ar  1 <1>  -0.1500 
 25 H       -1.4660     0.1710     0.1170 H     1 <1>   0.3700 
 26 H       -1.6900    -0.0080     3.1110 H     1 <1>   0.0800 
 27 H       -1.7760     1.4880     2.2070 H     1 <1>   0.0800 
 28 H       -0.2750     0.5800     2.2660 H     1 <1>   0.0800 
 29 H       -2.4210    -0.6250    -1.9030 H     1 <1>   0.1500 
 30 H       -3.2860    -2.5640    -3.4560 H     1 <1>   0.1500 
 31 H       -3.1670    -5.7480    -1.7450 H     1 <1>   0.0800 
 32 H       -4.4090    -5.1180    -2.8070 H     1 <1>   0.0800 
 33 H       -4.5500    -5.2240     0.1170 H     1 <1>   0.4500 
 34 H       -6.0730    -6.9880    -1.6680 H     1 <1>   0.0800 
 35 H       -6.7210    -4.5410    -1.7300 H     1 <1>   0.0800 
 36 H       -5.7480    -3.3920    -0.8390 H     1 <1>   0.0800 
 37 H       -5.8660    -6.9410     1.3430 H     1 <1>   0.0800 
 38 H       -6.8790    -7.9790     0.3920 H     1 <1>   0.0800 
 39 H       -3.6040    -7.4960     0.0050 H     1 <1>   0.0800 
 40 H       -3.7810    -7.6850    -1.7110 H     1 <1>   0.0800 
 41 H       -7.8540    -3.8660     0.3260 H     1 <1>   0.0800 
 42 H       -6.4770    -4.3240     1.2780 H     1 <1>   0.0800 
 43 H       -8.1420    -6.1080     1.3910 H     1 <1>   0.0800 
 44 H       -8.2580    -6.1660    -0.3450 H     1 <1>   0.0800 
 45 H       -3.7290    -9.8390    -0.9010 H     1 <1>   0.0800 
 46 H       -5.3800    -9.5600    -1.3350 H     1 <1>   0.0800 
 47 H       -6.5420   -11.0630     0.0730 H     1 <1>   0.1500 
 48 H       -4.0960    -9.2470     3.8150 H     1 <1>   0.1500 
 49 H       -7.1610   -11.8080     2.3490 H     1 <1>   0.1500 
 50 H       -5.8770   -10.8530     4.2540 H     1 <1>   0.1500 
@<TRIPOS>BOND
  1   1   2  2   
  2   2   3  am  
  3   2   4  1   
  4   3   5  1   
  5   3  25  1   
  6   4   6  1   
  7   4   7  2   
  8   5  26  1   
  9   5  27  1   
 10   5  28  1   
 11   6   8  1   
 12   7   9  1   
 13   7  29  1   
 14   8   9  2   
 15   8  10  1   
 16   9  30  1   
 17  10  11  1   
 18  10  31  1   
 19  10  32  1   
 20  11  12  1   
 21  11  13  1   
 22  11  33  1   
 23  12  14  1   
 24  12  15  1   
 25  12  34  1   
 26  13  16  1   
 27  13  35  1   
 28  13  36  1   
 29  14  17  1   
 30  14  37  1   
 31  14  38  1   
 32  15  18  1   
 33  15  39  1   
 34  15  40  1   
 35  16  17  1   
 36  16  41  1   
 37  16  42  1   
 38  17  43  1   
 39  17  44  1   
 40  18  19  1   
 41  18  45  1   
 42  18  46  1   
 43  19  20  ar  
 44  19  21  ar  
 45  20  22  ar  
 46  21  23  ar  
 47  21  47  1   
 48  22  24  ar  
 49  22  48  1   
 50  23  24  ar  
 51  23  49  1   
 52  24  50  1   
@<TRIPOS>SUBSTRUCTURE
  1 ****  11 GROUP 4 **** **** 0

# MOE 2024.06 (io_trps.svl 2023.06)
