@<TRIPOS>MOLECULE
NONAME
50 52 1 0 0 
SMALL
USER_CHARGES


@<TRIPOS>ATOM
  1 F        0.6070    -0.7170    -0.9240 F     1 <1>  -0.1900 
  2 C        0.4290    -2.0110    -0.8270 C.ar  1 <1>   0.1900 
  3 C       -0.1070    -2.6000     0.3230 C.ar  1 <1>   0.0820 
  4 C        0.7990    -2.7620    -1.9270 C.ar  1 <1>  -0.1500 
  5 O       -0.5040    -1.9660     1.4610 O.3   1 <1>  -0.3630 
  6 C       -0.2620    -3.9790     0.3280 C.ar  1 <1>  -0.1500 
  7 C        0.6360    -4.1360    -1.8960 C.ar  1 <1>  -0.1500 
  8 C       -0.4370    -0.5680     1.6340 C.3   1 <1>   0.0400 
  9 C        0.1040    -4.7510    -0.7700 C.ar  1 <1>  -0.1430 
 10 C       -0.0750    -6.2600    -0.7470 C.3   1 <1>   0.4870 
 11 N       -1.5060    -6.6160    -0.5640 N.4   1 <1>  -0.9590 
 12 C       -1.7830    -8.1010    -0.5170 C.3   1 <1>   0.3430 
 13 C       -2.4760    -5.8490    -1.3920 C.3   1 <1>   0.3430 
 14 C       -3.3100    -8.4730    -0.5340 C.3   1 <1>   0.4230 
 15 C       -3.9080    -6.0620    -0.8600 C.3   1 <1>  -0.1600 
 16 N       -3.6440    -9.7580     0.1860 N.4   1 <1>  -0.9590 
 17 C       -4.1160    -7.3060     0.0670 C.3   1 <1>  -0.1060 
 18 C       -5.0870   -10.1100     0.0920 C.3   1 <1>   0.3430 
 19 C       -2.7730   -10.9370    -0.0890 C.3   1 <1>   0.2630 
 20 C       -3.4990    -7.0970     1.4650 C.2   1 <1>   0.9060 
 21 C       -5.6340    -7.6250     0.1240 C.3   1 <1>  -0.1600 
 22 C       -5.9300    -9.0050     0.7270 C.3   1 <1>  -0.1600 
 23 O       -3.3930    -8.0770     2.2080 O.co2 1 <1>  -0.9000 
 24 O       -2.8520    -6.0700     1.6780 O.co2 1 <1>  -0.9000 
 25 H        1.2100    -2.2710    -2.7910 H     1 <1>   0.1500 
 26 H       -0.6800    -4.4330     1.2140 H     1 <1>   0.1500 
 27 H        0.9320    -4.7130    -2.7570 H     1 <1>   0.1500 
 28 H       -0.8160    -0.3350     2.6120 H     1 <1>   0.0800 
 29 H       -1.0450    -0.0920     0.8850 H     1 <1>   0.0800 
 30 H        0.5890    -0.2540     1.5570 H     1 <1>   0.0800 
 31 H        0.5070    -6.6690     0.0640 H     1 <1>   0.0800 
 32 H        0.2910    -6.6750    -1.6710 H     1 <1>   0.0800 
 33 H       -1.7380    -6.2600     0.4060 H     1 <1>   0.4500 
 34 H       -1.3010    -8.5840    -1.3490 H     1 <1>   0.0800 
 35 H       -1.3590    -8.4860     0.3970 H     1 <1>   0.0800 
 36 H       -2.2480    -4.7940    -1.3550 H     1 <1>   0.0800 
 37 H       -2.4110    -6.1700    -2.4180 H     1 <1>   0.0800 
 38 H       -3.6070    -8.5840    -1.5630 H     1 <1>   0.0800 
 39 H       -4.2010    -5.1760    -0.3190 H     1 <1>   0.0800 
 40 H       -4.5580    -6.1120    -1.7160 H     1 <1>   0.0800 
 41 H       -3.5200    -9.4720     1.2000 H     1 <1>   0.4500 
 42 H       -5.3680   -10.2380    -0.9410 H     1 <1>   0.0800 
 43 H       -5.2740   -11.0350     0.6140 H     1 <1>   0.0800 
 44 H       -2.8530   -11.2310    -1.1230 H     1 <1>   0.0800 
 45 H       -3.0750   -11.7670     0.5290 H     1 <1>   0.0800 
 46 H       -1.7450   -10.7090     0.1380 H     1 <1>   0.0800 
 47 H       -6.1380    -6.8680     0.7040 H     1 <1>   0.0800 
 48 H       -6.0520    -7.6020    -0.8680 H     1 <1>   0.0800 
 49 H       -6.9720    -9.2370     0.5930 H     1 <1>   0.0800 
 50 H       -5.7490    -8.9890     1.7890 H     1 <1>   0.0800 
@<TRIPOS>BOND
  1   1   2  1   
  2   2   3  ar  
  3   2   4  ar  
  4   3   5  1   
  5   3   6  ar  
  6   4   7  ar  
  7   4  25  1   
  8   5   8  1   
  9   6   9  ar  
 10   6  26  1   
 11   7   9  ar  
 12   7  27  1   
 13   8  28  1   
 14   8  29  1   
 15   8  30  1   
 16   9  10  1   
 17  10  11  1   
 18  10  31  1   
 19  10  32  1   
 20  11  12  1   
 21  11  13  1   
 22  11  33  1   
 23  12  14  1   
 24  12  34  1   
 25  12  35  1   
 26  13  15  1   
 27  13  36  1   
 28  13  37  1   
 29  14  16  1   
 30  14  17  1   
 31  14  38  1   
 32  15  17  1   
 33  15  39  1   
 34  15  40  1   
 35  16  18  1   
 36  16  19  1   
 37  16  41  1   
 38  17  20  1   
 39  17  21  1   
 40  18  22  1   
 41  18  42  1   
 42  18  43  1   
 43  19  44  1   
 44  19  45  1   
 45  19  46  1   
 46  20  23  ar  
 47  20  24  ar  
 48  21  22  1   
 49  21  47  1   
 50  21  48  1   
 51  22  49  1   
 52  22  50  1   
@<TRIPOS>SUBSTRUCTURE
  1 ****  11 GROUP 4 **** **** 0

# MOE 2024.06 (io_trps.svl 2023.06)
