@<TRIPOS>MOLECULE
NONAME
56 59 1 0 0 
SMALL
USER_CHARGES


@<TRIPOS>ATOM
  1 O       -2.5990     0.2730    -1.8720 O.2   1 <1>  -0.5700 
  2 C       -3.1500     1.0050    -1.0700 C.2   1 <1>   0.6160 
  3 N       -3.4810     2.2710    -1.4390 N.am  1 <1>  -0.5470 
  4 C       -3.5460     0.5530     0.2250 C.2   1 <1>  -0.1240 
  5 C       -4.1950     3.1390    -0.6180 C.ar  1 <1>   0.1170 
  6 C       -4.2260     1.3750     1.0670 C.2   1 <1>  -0.1780 
  7 C       -3.1520    -0.8670     0.5840 C.3   1 <1>   0.4810 
  8 C       -4.5820     2.7010     0.6610 C.ar  1 <1>   0.0280 
  9 C       -4.5280     4.4230    -1.0400 C.ar  1 <1>  -0.1500 
 10 N       -3.7050    -1.8680    -0.3900 N.4   1 <1>  -0.9590 
 11 C       -5.2950     3.5760     1.4830 C.ar  1 <1>  -0.1500 
 12 C       -5.2350     5.2700    -0.2140 C.ar  1 <1>  -0.1500 
 13 C       -5.1880    -2.0540    -0.5090 C.3   1 <1>   0.4230 
 14 C       -3.0380    -3.1880    -0.1850 C.3   1 <1>   0.2630 
 15 C       -5.6190     4.8450     1.0520 C.ar  1 <1>  -0.1500 
 16 C       -5.7880    -1.1770    -1.5990 C.3   1 <1>  -0.1600 
 17 C       -6.0190    -1.7570     0.7430 C.3   1 <1>  -0.1600 
 18 C       -7.2840    -1.1010    -1.2780 C.3   1 <1>  -0.0800 
 19 C       -7.4090    -1.3240     0.2370 C.3   1 <1>  -0.0800 
 20 C       -7.8880     0.2790    -1.5680 C.3   1 <1>  -0.1600 
 21 C       -7.9210     0.0050     0.8270 C.3   1 <1>  -0.1600 
 22 C       -7.6950     1.0510    -0.2640 C.3   1 <1>   0.4230 
 23 N       -8.5580     2.2600    -0.1160 N.4   1 <1>  -0.9590 
 24 C      -10.0330     2.0270    -0.2710 C.3   1 <1>   0.2630 
 25 C       -8.1110     3.3380    -1.0510 C.3   1 <1>   0.2630 
 26 H       -3.1180     2.5840    -2.3420 H     1 <1>   0.3700 
 27 H       -4.5150     1.0760     2.0600 H     1 <1>   0.1500 
 28 H       -3.4840    -1.1020     1.5810 H     1 <1>   0.0800 
 29 H       -2.0750    -0.9250     0.5740 H     1 <1>   0.0800 
 30 H       -4.2190     4.7600    -2.0150 H     1 <1>   0.1500 
 31 H       -3.3810    -1.5100    -1.3110 H     1 <1>   0.4500 
 32 H       -5.5780     3.2640     2.4740 H     1 <1>   0.1500 
 33 H       -5.4780     6.2690    -0.5390 H     1 <1>   0.1500 
 34 H       -5.3910    -3.0750    -0.7950 H     1 <1>   0.0800 
 35 H       -3.3160    -3.6070     0.7690 H     1 <1>   0.0800 
 36 H       -1.9650    -3.0750    -0.2140 H     1 <1>   0.0800 
 37 H       -3.3260    -3.8780    -0.9620 H     1 <1>   0.0800 
 38 H       -6.1550     5.5210     1.6980 H     1 <1>   0.1500 
 39 H       -5.3720    -0.1930    -1.5760 H     1 <1>   0.0800 
 40 H       -5.6270    -1.6040    -2.5740 H     1 <1>   0.0800 
 41 H       -6.1040    -2.6430     1.3480 H     1 <1>   0.0800 
 42 H       -5.6000    -0.9770     1.3410 H     1 <1>   0.0800 
 43 H       -7.8110    -1.8730    -1.8170 H     1 <1>   0.0800 
 44 H       -8.1240    -2.1080     0.4320 H     1 <1>   0.0800 
 45 H       -8.9310     0.1420    -1.7860 H     1 <1>   0.0800 
 46 H       -7.4100     0.7600    -2.4030 H     1 <1>   0.0800 
 47 H       -7.4230     0.2740     1.7410 H     1 <1>   0.0800 
 48 H       -8.9700    -0.1100     1.0290 H     1 <1>   0.0800 
 49 H       -6.6610     1.3530    -0.2150 H     1 <1>   0.0800 
 50 H       -8.4040     2.6100     0.8410 H     1 <1>   0.4500 
 51 H      -10.2610     1.6960    -1.2710 H     1 <1>   0.0800 
 52 H      -10.5750     2.9400    -0.0850 H     1 <1>   0.0800 
 53 H      -10.3780     1.2820     0.4260 H     1 <1>   0.0800 
 54 H       -8.2680     3.0370    -2.0740 H     1 <1>   0.0800 
 55 H       -7.0620     3.5430    -0.9110 H     1 <1>   0.0800 
 56 H       -8.6630     4.2450    -0.8700 H     1 <1>   0.0800 
@<TRIPOS>BOND
  1   1   2  2   
  2   2   3  am  
  3   2   4  1   
  4   3   5  1   
  5   3  26  1   
  6   4   6  2   
  7   4   7  1   
  8   5   8  ar  
  9   5   9  ar  
 10   6   8  1   
 11   6  27  1   
 12   7  10  1   
 13   7  28  1   
 14   7  29  1   
 15   8  11  ar  
 16   9  12  ar  
 17   9  30  1   
 18  10  13  1   
 19  10  14  1   
 20  10  31  1   
 21  11  15  ar  
 22  11  32  1   
 23  12  15  ar  
 24  12  33  1   
 25  13  16  1   
 26  13  17  1   
 27  13  34  1   
 28  14  35  1   
 29  14  36  1   
 30  14  37  1   
 31  15  38  1   
 32  16  18  1   
 33  16  39  1   
 34  16  40  1   
 35  17  19  1   
 36  17  41  1   
 37  17  42  1   
 38  18  19  1   
 39  18  20  1   
 40  18  43  1   
 41  19  21  1   
 42  19  44  1   
 43  20  22  1   
 44  20  45  1   
 45  20  46  1   
 46  21  22  1   
 47  21  47  1   
 48  21  48  1   
 49  22  23  1   
 50  22  49  1   
 51  23  24  1   
 52  23  25  1   
 53  23  50  1   
 54  24  51  1   
 55  24  52  1   
 56  24  53  1   
 57  25  54  1   
 58  25  55  1   
 59  25  56  1   
@<TRIPOS>SUBSTRUCTURE
  1 ****   6 GROUP 4 **** **** 0

# MOE 2024.06 (io_trps.svl 2023.06)
