@<TRIPOS>MOLECULE
NONAME
53 55 1 0 0 
SMALL
USER_CHARGES


@<TRIPOS>ATOM
  1 S       -0.3780     0.0170    -0.1620 S.3   1 <1>  -0.3320 
  2 C       -0.0060    -1.7180    -0.4610 C.ar  1 <1>   0.1020 
  3 C       -0.3260     0.8720    -1.7990 C.3   1 <1>  -0.0100 
  4 C        0.0250    -2.5500     0.6340 C.ar  1 <1>  -0.1500 
  5 C        0.2400    -2.2100    -1.7390 C.ar  1 <1>  -0.1500 
  6 C        0.3040    -3.9030     0.4730 C.ar  1 <1>   0.1170 
  7 C        0.5180    -3.5500    -1.9060 C.ar  1 <1>  -0.1500 
  8 N        0.3440    -4.7650     1.5640 N.am  1 <1>  -0.5470 
  9 C        0.5540    -4.4200    -0.8120 C.ar  1 <1>   0.0280 
 10 C        0.6030    -6.0950     1.4500 C.2   1 <1>   0.6160 
 11 C        0.8370    -5.8180    -0.9430 C.2   1 <1>  -0.1780 
 12 O        0.6060    -6.7850     2.4530 O.2   1 <1>  -0.5700 
 13 C        0.8530    -6.6270     0.1490 C.2   1 <1>  -0.1240 
 14 C        1.1630    -8.1100     0.0840 C.3   1 <1>   0.4810 
 15 N       -0.0670    -8.9390    -0.0490 N.4   1 <1>  -0.9590 
 16 C       -0.9230    -8.5980    -1.2280 C.3   1 <1>   0.3430 
 17 C       -0.8790    -9.0210     1.2020 C.3   1 <1>   0.3430 
 18 C       -1.9030    -9.7580    -1.4460 C.3   1 <1>   0.2000 
 19 C       -1.9240   -10.1280     1.0500 C.3   1 <1>  -0.1600 
 20 O       -1.1120   -10.8950    -1.6200 O.3   1 <1>  -0.6800 
 21 C       -2.8210    -9.9490    -0.2130 C.3   1 <1>  -0.1060 
 22 C       -3.6240   -11.2300    -0.5100 C.2   1 <1>   0.9060 
 23 C       -3.7420    -8.6910    -0.0590 C.3   1 <1>  -0.1600 
 24 O       -4.8070   -11.1650    -0.8440 O.co2 1 <1>  -0.9000 
 25 O       -3.0000   -12.3010    -0.5160 O.co2 1 <1>  -0.9000 
 26 C       -4.6880    -8.7040     1.1560 C.3   1 <1>  -0.1600 
 27 C       -5.6320    -7.4990     1.1240 C.3   1 <1>  -0.2400 
 28 H       -0.5390     1.9120    -1.6270 H     1 <1>   0.0800 
 29 H       -1.0750     0.4300    -2.4300 H     1 <1>   0.0800 
 30 H        0.6600     0.7480    -2.2080 H     1 <1>   0.0800 
 31 H       -0.1670    -2.1470     1.6110 H     1 <1>   0.1500 
 32 H        0.2180    -1.5600    -2.5930 H     1 <1>   0.1500 
 33 H        0.7120    -3.9310    -2.8940 H     1 <1>   0.1500 
 34 H        0.2000    -4.4110     2.5110 H     1 <1>   0.3700 
 35 H        1.0400    -6.1820    -1.9360 H     1 <1>   0.1500 
 36 H        1.7060    -8.4020     0.9700 H     1 <1>   0.0800 
 37 H        1.8000    -8.2920    -0.7660 H     1 <1>   0.0800 
 38 H        0.1950    -9.9200    -0.2600 H     1 <1>   0.4500 
 39 H       -1.4530    -7.6770    -1.0600 H     1 <1>   0.0800 
 40 H       -0.3190    -8.4910    -2.1120 H     1 <1>   0.0800 
 41 H       -0.2430    -9.2400     2.0440 H     1 <1>   0.0800 
 42 H       -1.3690    -8.0780     1.3880 H     1 <1>   0.0800 
 43 H       -2.4910    -9.6190    -2.3380 H     1 <1>   0.0800 
 44 H       -1.4040   -11.0690     0.9990 H     1 <1>   0.0800 
 45 H       -2.5280   -10.1840     1.9360 H     1 <1>   0.0800 
 46 H       -1.6900   -11.6870    -1.3720 H     1 <1>   0.4000 
 47 H       -3.1630    -7.7890     0.0000 H     1 <1>   0.0800 
 48 H       -4.3500    -8.6170    -0.9460 H     1 <1>   0.0800 
 49 H       -5.2780    -9.6060     1.1490 H     1 <1>   0.0800 
 50 H       -4.1330    -8.6760     2.0760 H     1 <1>   0.0800 
 51 H       -6.2360    -7.5260     0.2330 H     1 <1>   0.0800 
 52 H       -5.0780    -6.5780     1.1450 H     1 <1>   0.0800 
 53 H       -6.2880    -7.5270     1.9760 H     1 <1>   0.0800 
@<TRIPOS>BOND
  1   1   2  1   
  2   1   3  1   
  3   2   4  ar  
  4   2   5  ar  
  5   3  28  1   
  6   3  29  1   
  7   3  30  1   
  8   4   6  ar  
  9   4  31  1   
 10   5   7  ar  
 11   5  32  1   
 12   6   8  1   
 13   6   9  ar  
 14   7   9  ar  
 15   7  33  1   
 16   8  10  am  
 17   8  34  1   
 18   9  11  1   
 19  10  12  2   
 20  10  13  1   
 21  11  13  2   
 22  11  35  1   
 23  13  14  1   
 24  14  15  1   
 25  14  36  1   
 26  14  37  1   
 27  15  16  1   
 28  15  17  1   
 29  15  38  1   
 30  16  18  1   
 31  16  39  1   
 32  16  40  1   
 33  17  19  1   
 34  17  41  1   
 35  17  42  1   
 36  18  20  1   
 37  18  21  1   
 38  18  43  1   
 39  19  21  1   
 40  19  44  1   
 41  19  45  1   
 42  20  46  1   
 43  21  22  1   
 44  21  23  1   
 45  22  24  ar  
 46  22  25  ar  
 47  23  26  1   
 48  23  47  1   
 49  23  48  1   
 50  26  27  1   
 51  26  49  1   
 52  26  50  1   
 53  27  51  1   
 54  27  52  1   
 55  27  53  1   
@<TRIPOS>SUBSTRUCTURE
  1 ****  13 GROUP 4 **** **** 0

# MOE 2024.06 (io_trps.svl 2023.06)
