@<TRIPOS>MOLECULE
NONAME
38 39 1 0 0 
SMALL
USER_CHARGES


@<TRIPOS>ATOM
  1 S       -0.1750     0.3720    -0.6540 S.o2  1 <1>   1.3330 
  2 O       -0.7320    -0.9540    -0.8030 O.2   1 <1>  -0.6500 
  3 O       -0.1720     1.2530    -1.8000 O.2   1 <1>  -0.6500 
  4 N        1.4100     0.2010    -0.0650 N.am  1 <1>  -0.8490 
  5 C       -1.0580     1.1470     0.7120 C.3   1 <1>  -0.0550 
  6 C        2.4160     0.9620    -0.8150 C.3   1 <1>   0.1160 
  7 C        1.8420    -1.1880     0.1120 C.3   1 <1>   0.1160 
  8 C       -0.8440     2.6500     1.0170 C.3   1 <1>  -0.0800 
  9 C       -1.1930     3.5870    -0.1480 C.3   1 <1>   0.2000 
 10 C        0.5730     3.0440     1.4640 C.3   1 <1>   0.2090 
 11 O       -1.9280     4.6400     0.3750 O.3   1 <1>  -0.6800 
 12 C        0.1400     4.1490    -0.6430 C.3   1 <1>   0.2090 
 13 N        1.0240     4.1300     0.5490 N.pl3 1 <1>  -0.8380 
 14 C        2.3670     4.4620     0.4350 C.ar  1 <1>   0.4100 
 15 N        3.2440     3.6880     1.0680 N.ar  1 <1>  -0.6200 
 16 C        2.7540     5.5740    -0.3130 C.ar  1 <1>  -0.1500 
 17 C        4.5170     4.0230     0.9500 C.ar  1 <1>   0.1600 
 18 C        4.0820     5.9100    -0.4340 C.ar  1 <1>  -0.1500 
 19 C        4.9860     5.1020     0.2230 C.ar  1 <1>  -0.1500 
 20 H       -2.1060     1.0180     0.5230 H     1 <1>   0.0800 
 21 H       -0.8410     0.5910     1.6030 H     1 <1>   0.0800 
 22 H        3.3710     0.9050    -0.3220 H     1 <1>   0.0800 
 23 H        2.1350     1.9990    -0.8700 H     1 <1>   0.0800 
 24 H        2.5060     0.5780    -1.8180 H     1 <1>   0.0800 
 25 H        2.8230    -1.2190     0.5520 H     1 <1>   0.0800 
 26 H        1.8620    -1.6960    -0.8380 H     1 <1>   0.0800 
 27 H        1.1600    -1.7060     0.7650 H     1 <1>   0.0800 
 28 H       -1.5030     2.8630     1.8410 H     1 <1>   0.0800 
 29 H       -1.7720     3.1270    -0.9310 H     1 <1>   0.0800 
 30 H        1.2470     2.2080     1.4300 H     1 <1>   0.0800 
 31 H        0.5590     3.4210     2.4720 H     1 <1>   0.0800 
 32 H       -1.3350     5.1550     0.9610 H     1 <1>   0.4000 
 33 H        0.0150     5.1430    -1.0340 H     1 <1>   0.0800 
 34 H        0.5600     3.5230    -1.4080 H     1 <1>   0.0800 
 35 H        2.0050     6.1750    -0.7890 H     1 <1>   0.1500 
 36 H        5.2290     3.4020     1.4650 H     1 <1>   0.1500 
 37 H        4.4020     6.7630    -1.0070 H     1 <1>   0.1500 
 38 H        6.0400     5.3080     0.1750 H     1 <1>   0.1500 
@<TRIPOS>BOND
  1   1   2  2   
  2   1   3  2   
  3   1   4  am  
  4   1   5  1   
  5   4   6  1   
  6   4   7  1   
  7   5   8  1   
  8   5  20  1   
  9   5  21  1   
 10   6  22  1   
 11   6  23  1   
 12   6  24  1   
 13   7  25  1   
 14   7  26  1   
 15   7  27  1   
 16   8   9  1   
 17   8  10  1   
 18   8  28  1   
 19   9  11  1   
 20   9  12  1   
 21   9  29  1   
 22  10  13  1   
 23  10  30  1   
 24  10  31  1   
 25  11  32  1   
 26  12  13  1   
 27  12  33  1   
 28  12  34  1   
 29  13  14  1   
 30  14  15  ar  
 31  14  16  ar  
 32  15  17  ar  
 33  16  18  ar  
 34  16  35  1   
 35  17  19  ar  
 36  17  36  1   
 37  18  19  ar  
 38  18  37  1   
 39  19  38  1   
@<TRIPOS>SUBSTRUCTURE
  1 ****  13 GROUP 4 **** **** 0

# MOE 2024.06 (io_trps.svl 2023.06)
