@<TRIPOS>MOLECULE
NONAME
62 65 1 0 0 
SMALL
USER_CHARGES


@<TRIPOS>ATOM
  1 F       -1.1470     0.0200     0.8180 F     1 <1>  -0.1900 
  2 C       -2.0910     0.8980     0.5940 C.ar  1 <1>   0.1900 
  3 C       -1.8430     1.9350    -0.2840 C.ar  1 <1>  -0.1500 
  4 C       -3.3000     0.7560     1.2440 C.ar  1 <1>  -0.1500 
  5 C       -2.8360     2.8720    -0.5280 C.ar  1 <1>  -0.1440 
  6 C       -4.2880     1.6900     0.9970 C.ar  1 <1>  -0.1500 
  7 C       -4.0750     2.7480     0.1170 C.ar  1 <1>   0.1000 
  8 C       -2.5400     4.0100    -1.4950 C.3   1 <1>  -0.0960 
  9 N       -5.1230     3.6440    -0.0770 N.pl3 1 <1>  -0.8380 
 10 C       -5.8430     3.6640    -1.3580 C.3   1 <1>   0.2090 
 11 C       -5.1750     4.8740     0.7260 C.3   1 <1>   0.2090 
 12 C       -7.3190     3.8930    -1.0460 C.3   1 <1>  -0.1600 
 13 C       -6.6380     5.1270     1.0750 C.3   1 <1>  -0.1600 
 14 C       -7.5310     5.1520    -0.1820 C.3   1 <1>   0.4230 
 15 N       -8.9760     5.2650     0.2160 N.4   1 <1>  -0.9590 
 16 C       -9.9040     5.2800    -0.9600 C.3   1 <1>   0.3430 
 17 C       -9.2510     6.4670     1.0680 C.3   1 <1>   0.3430 
 18 C      -11.3570     5.2330    -0.4980 C.3   1 <1>  -0.1600 
 19 C      -10.6890     6.4430     1.5730 C.3   1 <1>  -0.1600 
 20 C      -11.6880     6.4240     0.4120 C.3   1 <1>   0.2800 
 21 O      -11.4080     7.5740    -0.3530 O.3   1 <1>  -0.5600 
 22 C      -13.1490     6.3990     0.9580 C.3   1 <1>   0.2000 
 23 C      -12.4310     8.5050    -0.5870 C.3   1 <1>   0.1200 
 24 O      -13.4350     5.1740     1.5690 O.3   1 <1>  -0.6800 
 25 C      -14.2300     6.7970    -0.0930 C.3   1 <1>   0.2800 
 26 C      -13.6600     7.7760    -1.1340 C.3   1 <1>  -0.1600 
 27 O      -15.2160     7.4670     0.6020 O.3   1 <1>  -0.6800 
 28 C      -14.9500     5.6310    -0.7860 C.3   1 <1>  -0.2400 
 29 H       -0.8820     1.9970    -0.7620 H     1 <1>   0.1500 
 30 H       -3.4580    -0.0640     1.9210 H     1 <1>   0.1500 
 31 H       -5.2420     1.6070     1.4840 H     1 <1>   0.1500 
 32 H       -1.4910     4.0520    -1.7290 H     1 <1>   0.0800 
 33 H       -2.8230     4.9500    -1.0610 H     1 <1>   0.0800 
 34 H       -3.0860     3.8630    -2.4080 H     1 <1>   0.0800 
 35 H       -5.4560     4.4530    -1.9800 H     1 <1>   0.0800 
 36 H       -5.7060     2.7230    -1.8670 H     1 <1>   0.0800 
 37 H       -4.5890     4.7500     1.6220 H     1 <1>   0.0800 
 38 H       -4.7680     5.6940     0.1590 H     1 <1>   0.0800 
 39 H       -7.6870     3.0230    -0.5320 H     1 <1>   0.0800 
 40 H       -7.8230     3.9800    -1.9890 H     1 <1>   0.0800 
 41 H       -6.6740     6.0650     1.5940 H     1 <1>   0.0800 
 42 H       -6.9590     4.3470     1.7420 H     1 <1>   0.0800 
 43 H       -7.2580     6.0130    -0.7700 H     1 <1>   0.0800 
 44 H       -9.1980     4.4320     0.7750 H     1 <1>   0.4500 
 45 H       -9.7460     6.1780    -1.5370 H     1 <1>   0.0800 
 46 H       -9.7250     4.4300    -1.5950 H     1 <1>   0.0800 
 47 H       -8.5940     6.4870     1.9200 H     1 <1>   0.0800 
 48 H       -9.0930     7.3650     0.4920 H     1 <1>   0.0800 
 49 H      -11.5390     4.3050     0.0140 H     1 <1>   0.0800 
 50 H      -11.9910     5.2520    -1.3630 H     1 <1>   0.0800 
 51 H      -10.8640     7.3150     2.1780 H     1 <1>   0.0800 
 52 H      -10.8350     5.5830     2.2030 H     1 <1>   0.0800 
 53 H      -13.1880     7.1330     1.7460 H     1 <1>   0.0800 
 54 H      -12.6560     9.0200     0.3330 H     1 <1>   0.0800 
 55 H      -12.0660     9.2200    -1.3040 H     1 <1>   0.0800 
 56 H      -14.3460     5.2150     1.9300 H     1 <1>   0.4000 
 57 H      -13.3550     7.2450    -2.0180 H     1 <1>   0.0800 
 58 H      -14.4060     8.4890    -1.4340 H     1 <1>   0.0800 
 59 H      -15.9700     7.6540     0.0100 H     1 <1>   0.4000 
 60 H      -14.2470     4.9980    -1.2920 H     1 <1>   0.0800 
 61 H      -15.6500     5.9960    -1.5160 H     1 <1>   0.0800 
 62 H      -15.4810     5.0280    -0.0710 H     1 <1>   0.0800 
@<TRIPOS>BOND
  1   1   2  1   
  2   2   3  ar  
  3   2   4  ar  
  4   3   5  ar  
  5   3  29  1   
  6   4   6  ar  
  7   4  30  1   
  8   5   7  ar  
  9   5   8  1   
 10   6   7  ar  
 11   6  31  1   
 12   7   9  1   
 13   8  32  1   
 14   8  33  1   
 15   8  34  1   
 16   9  10  1   
 17   9  11  1   
 18  10  12  1   
 19  10  35  1   
 20  10  36  1   
 21  11  13  1   
 22  11  37  1   
 23  11  38  1   
 24  12  14  1   
 25  12  39  1   
 26  12  40  1   
 27  13  14  1   
 28  13  41  1   
 29  13  42  1   
 30  14  15  1   
 31  14  43  1   
 32  15  16  1   
 33  15  17  1   
 34  15  44  1   
 35  16  18  1   
 36  16  45  1   
 37  16  46  1   
 38  17  19  1   
 39  17  47  1   
 40  17  48  1   
 41  18  20  1   
 42  18  49  1   
 43  18  50  1   
 44  19  20  1   
 45  19  51  1   
 46  19  52  1   
 47  20  21  1   
 48  20  22  1   
 49  21  23  1   
 50  22  24  1   
 51  22  25  1   
 52  22  53  1   
 53  23  26  1   
 54  23  54  1   
 55  23  55  1   
 56  24  56  1   
 57  25  26  1   
 58  25  27  1   
 59  25  28  1   
 60  26  57  1   
 61  26  58  1   
 62  27  59  1   
 63  28  60  1   
 64  28  61  1   
 65  28  62  1   
@<TRIPOS>SUBSTRUCTURE
  1 ****  14 GROUP 4 **** **** 0

# MOE 2024.06 (io_trps.svl 2023.06)
