@<TRIPOS>MOLECULE
NONAME
33 34 1 0 0 
SMALL
USER_CHARGES


@<TRIPOS>ATOM
  1 S       -0.8140     0.4830     1.3990 S.o2  1 <1>   1.5000 
  2 O       -0.8830    -0.6700     2.2720 O.2   1 <1>  -0.6500 
  3 O       -1.5180     1.6940     1.7690 O.2   1 <1>  -0.6500 
  4 N       -1.3240     0.0220    -0.1510 N.am  1 <1>  -0.8490 
  5 C        0.9320     0.8810     1.1400 C.2   1 <1>  -0.0220 
  6 C       -0.8420    -1.3140    -0.5940 C.3   1 <1>   0.1960 
  7 C       -2.7530     0.2260    -0.4070 C.3   1 <1>   0.1960 
  8 S        1.3440     2.0830    -0.0810 S.3   1 <1>  -0.0800 
  9 C        2.0650     0.4260     1.7150 C.2   1 <1>  -0.1500 
 10 C       -1.9300    -2.4050    -0.7410 C.3   1 <1>   0.2000 
 11 C       -3.6280    -0.8120     0.3160 C.3   1 <1>  -0.1600 
 12 C        3.0610     1.9150     0.2380 C.2   1 <1>  -0.1400 
 13 C        3.2690     1.0070     1.2070 C.2   1 <1>  -0.1500 
 14 O       -2.4960    -2.3250    -2.0050 O.3   1 <1>  -0.6800 
 15 C       -3.0410    -2.2470     0.3030 C.3   1 <1>  -0.1860 
 16 C        4.0040     2.7730    -0.5790 C.3   1 <1>  -0.0600 
 17 C       -4.0960    -3.3200     0.1180 C.2   1 <1>   0.9060 
 18 O       -4.3620    -4.0690     1.0590 O.co2 1 <1>  -0.9000 
 19 O       -4.6390    -3.4250    -0.9920 O.co2 1 <1>  -0.9000 
 20 H       -0.3460    -1.2060    -1.5430 H     1 <1>   0.0800 
 21 H       -0.1060    -1.6770     0.1020 H     1 <1>   0.0800 
 22 H       -3.0490     1.2210    -0.1220 H     1 <1>   0.0800 
 23 H       -2.9210     0.1400    -1.4680 H     1 <1>   0.0800 
 24 H        2.0970    -0.3160     2.4950 H     1 <1>   0.1500 
 25 H       -1.4870    -3.3840    -0.6610 H     1 <1>   0.0800 
 26 H       -3.7900    -0.5060     1.3340 H     1 <1>   0.0800 
 27 H       -4.5910    -0.8180    -0.1660 H     1 <1>   0.0800 
 28 H        4.2300     0.7150     1.5950 H     1 <1>   0.1500 
 29 H       -3.3960    -2.7670    -1.9250 H     1 <1>   0.4000 
 30 H       -2.5950    -2.4240     1.2640 H     1 <1>   0.0800 
 31 H        5.0220     2.5830    -0.2930 H     1 <1>   0.0800 
 32 H        3.7840     3.8130    -0.4190 H     1 <1>   0.0800 
 33 H        3.8880     2.5490    -1.6250 H     1 <1>   0.0800 
@<TRIPOS>BOND
  1   1   2  2   
  2   1   3  2   
  3   1   4  am  
  4   1   5  1   
  5   4   6  1   
  6   4   7  1   
  7   5   8  1   
  8   5   9  2   
  9   6  10  1   
 10   6  20  1   
 11   6  21  1   
 12   7  11  1   
 13   7  22  1   
 14   7  23  1   
 15   8  12  1   
 16   9  13  1   
 17   9  24  1   
 18  10  14  1   
 19  10  15  1   
 20  10  25  1   
 21  11  15  1   
 22  11  26  1   
 23  11  27  1   
 24  12  13  2   
 25  12  16  1   
 26  13  28  1   
 27  14  29  1   
 28  15  17  1   
 29  15  30  1   
 30  16  31  1   
 31  16  32  1   
 32  16  33  1   
 33  17  18  ar  
 34  17  19  ar  
@<TRIPOS>SUBSTRUCTURE
  1 ****   4 GROUP 4 **** **** 0

# MOE 2024.06 (io_trps.svl 2023.06)
