@<TRIPOS>MOLECULE
NONAME
51 54 1 0 0 
SMALL
USER_CHARGES


@<TRIPOS>ATOM
  1 S       -0.4760     0.2300    -0.7070 S.o2  1 <1>   1.5010 
  2 O        0.0690    -0.8260    -1.5320 O.2   1 <1>  -0.6500 
  3 O       -1.4220     1.1520    -1.3000 O.2   1 <1>  -0.6500 
  4 N       -1.2340    -0.5030     0.6320 N.am  1 <1>  -0.8490 
  5 C        0.8680     1.1590     0.0440 C.2   1 <1>  -0.0630 
  6 C       -1.2090    -1.9840     0.6080 C.3   1 <1>   0.1960 
  7 C       -2.6260    -0.0580     0.8610 C.3   1 <1>   0.1960 
  8 C        1.3480     0.9550     1.3310 C.2   1 <1>   0.1390 
  9 C        1.6590     2.1520    -0.4370 C.2   1 <1>  -0.3020 
 10 C       -2.2390    -2.5870    -0.3790 C.3   1 <1>   0.3440 
 11 C       -3.6320    -0.7040    -0.1250 C.3   1 <1>   0.2950 
 12 N        2.3350     1.7420     1.6330 N.2   1 <1>  -0.7070 
 13 N        2.5300     2.4870     0.5330 N.pl3 1 <1>   0.3140 
 14 O       -3.5210    -2.0980    -0.0830 O.3   1 <1>  -0.5600 
 15 C       -2.2340    -4.1090    -0.2820 C.ar  1 <1>  -0.1440 
 16 C       -5.0770    -0.3490     0.2360 C.3   1 <1>  -0.1950 
 17 C        3.5810     3.5220     0.4620 C.3   1 <1>   0.0960 
 18 C       -3.0400    -4.7830     0.6260 C.ar  1 <1>  -0.1500 
 19 C       -1.3920    -4.8400    -1.1080 C.ar  1 <1>  -0.1500 
 20 C       -6.1690    -0.4180    -0.7840 C.3   1 <1>  -0.2000 
 21 C       -5.7040     0.9140    -0.2650 C.3   1 <1>  -0.2000 
 22 C        4.8280     2.9910    -0.2590 C.3   1 <1>  -0.1600 
 23 C       -3.0030    -6.1650     0.7080 C.ar  1 <1>  -0.1500 
 24 C       -1.3550    -6.2220    -1.0280 C.ar  1 <1>  -0.1500 
 25 C        5.9250     4.0590    -0.3360 C.3   1 <1>  -0.2400 
 26 C       -2.1600    -6.8850    -0.1190 C.ar  1 <1>  -0.1500 
 27 H       -0.2230    -2.3400     0.3640 H     1 <1>   0.0800 
 28 H       -1.4380    -2.3540     1.5920 H     1 <1>   0.0800 
 29 H       -2.9170    -0.3290     1.8620 H     1 <1>   0.0800 
 30 H       -2.6920     1.0150     0.7970 H     1 <1>   0.0800 
 31 H        0.9490     0.2240     2.0160 H     1 <1>   0.1500 
 32 H        1.6430     2.6230    -1.4020 H     1 <1>   0.1500 
 33 H       -2.0040    -2.3020    -1.3900 H     1 <1>   0.0800 
 34 H       -3.4310    -0.3830    -1.1330 H     1 <1>   0.0800 
 35 H       -5.3280    -0.6550     1.2370 H     1 <1>   0.1000 
 36 H        3.1850     4.3760    -0.0540 H     1 <1>   0.0800 
 37 H        3.8330     3.8130     1.4660 H     1 <1>   0.0800 
 38 H       -3.7030    -4.2330     1.2710 H     1 <1>   0.1500 
 39 H       -0.7600    -4.3370    -1.8200 H     1 <1>   0.1500 
 40 H       -5.9170    -0.7050    -1.7910 H     1 <1>   0.1000 
 41 H       -7.1310    -0.7930    -0.4790 H     1 <1>   0.1000 
 42 H       -6.3570     1.4670     0.3890 H     1 <1>   0.1000 
 43 H       -5.1500     1.5540    -0.9310 H     1 <1>   0.1000 
 44 H        5.2060     2.1350     0.2740 H     1 <1>   0.0800 
 45 H        4.5660     2.6830    -1.2570 H     1 <1>   0.0800 
 46 H       -3.6330    -6.6770     1.4130 H     1 <1>   0.1500 
 47 H       -0.7010    -6.7810    -1.6740 H     1 <1>   0.1500 
 48 H        6.2210     4.3670     0.6530 H     1 <1>   0.0800 
 49 H        5.5790     4.9210    -0.8800 H     1 <1>   0.0800 
 50 H        6.7890     3.6620    -0.8400 H     1 <1>   0.0800 
 51 H       -2.1320    -7.9590    -0.0570 H     1 <1>   0.1500 
@<TRIPOS>BOND
  1   1   2  2   
  2   1   3  2   
  3   1   4  am  
  4   1   5  1   
  5   4   6  1   
  6   4   7  1   
  7   5   8  1   
  8   5   9  2   
  9   6  10  1   
 10   6  27  1   
 11   6  28  1   
 12   7  11  1   
 13   7  29  1   
 14   7  30  1   
 15   8  12  2   
 16   8  31  1   
 17   9  13  1   
 18   9  32  1   
 19  10  14  1   
 20  10  15  1   
 21  10  33  1   
 22  11  14  1   
 23  11  16  1   
 24  11  34  1   
 25  12  13  1   
 26  13  17  1   
 27  15  18  ar  
 28  15  19  ar  
 29  16  20  1   
 30  16  21  1   
 31  16  35  1   
 32  17  22  1   
 33  17  36  1   
 34  17  37  1   
 35  18  23  ar  
 36  18  38  1   
 37  19  24  ar  
 38  19  39  1   
 39  20  21  1   
 40  20  40  1   
 41  20  41  1   
 42  21  42  1   
 43  21  43  1   
 44  22  25  1   
 45  22  44  1   
 46  22  45  1   
 47  23  26  ar  
 48  23  46  1   
 49  24  26  ar  
 50  24  47  1   
 51  25  48  1   
 52  25  49  1   
 53  25  50  1   
 54  26  51  1   
@<TRIPOS>SUBSTRUCTURE
  1 ****   4 GROUP 4 **** **** 0

# MOE 2024.06 (io_trps.svl 2023.06)
