@<TRIPOS>MOLECULE
NONAME
52 53 1 0 0 
SMALL
USER_CHARGES


@<TRIPOS>ATOM
  1 S        0.4110    -0.1500     1.1210 S.o2  1 <1>   1.4470 
  2 O        0.0300     1.0170     1.8880 O.2   1 <1>  -0.6500 
  3 O        1.1500    -1.2060     1.7810 O.2   1 <1>  -0.6500 
  4 N        1.2740     0.3500    -0.2640 N.am  1 <1>  -0.8490 
  5 C       -1.1120    -0.9310     0.4750 C.ar  1 <1>  -0.0090 
  6 C        0.9070     1.6180    -0.9620 C.3   1 <1>   0.3560 
  7 C        2.6780    -0.1460    -0.2950 C.3   1 <1>   0.3390 
  8 C       -1.1210    -1.9740    -0.4570 C.ar  1 <1>  -0.1440 
  9 C       -2.3410    -0.4700     0.9360 C.ar  1 <1>  -0.1500 
 10 C        1.1280     2.9440    -0.1660 C.3   1 <1>   0.1200 
 11 C       -0.5780     1.5540    -1.3460 C.3   1 <1>  -0.2400 
 12 C        1.6700     1.7040    -2.2970 C.3   1 <1>  -0.2400 
 13 C        3.7240     0.6660     0.4780 C.ar  1 <1>   0.1670 
 14 C       -2.3230    -2.4950    -0.9130 C.ar  1 <1>  -0.1500 
 15 C        0.1620    -2.5840    -1.0090 C.3   1 <1>  -0.0960 
 16 C       -3.5470    -0.9910     0.4830 C.ar  1 <1>   0.0830 
 17 O        2.4580     3.2080     0.1280 O.3   1 <1>  -0.6800 
 18 N        3.4370     1.0490     1.7170 N.ar  1 <1>  -0.6200 
 19 C        4.9270     0.9670    -0.1490 C.ar  1 <1>  -0.1500 
 20 C       -3.5350    -2.0120    -0.4560 C.ar  1 <1>  -0.1430 
 21 O       -4.7550    -0.5450     0.9180 O.3   1 <1>  -0.3630 
 22 C        4.3720     1.7360     2.3530 C.ar  1 <1>   0.1600 
 23 C        5.8910     1.6910     0.5200 C.ar  1 <1>  -0.1500 
 24 C       -4.8370    -2.6050    -0.9770 C.3   1 <1>  -0.0970 
 25 C       -4.8690     0.4330     1.9280 C.3   1 <1>   0.0400 
 26 C        5.5960     2.0800     1.8080 C.ar  1 <1>  -0.1500 
 27 H        2.9950    -0.2270    -1.3170 H     1 <1>   0.0800 
 28 H        2.7180    -1.1530     0.0790 H     1 <1>   0.0800 
 29 H       -2.3390     0.3180     1.6650 H     1 <1>   0.1500 
 30 H        0.5750     2.9650     0.7520 H     1 <1>   0.0800 
 31 H        0.7820     3.7690    -0.7620 H     1 <1>   0.0800 
 32 H       -1.2070     1.6520    -0.4810 H     1 <1>   0.0800 
 33 H       -0.8040     0.6360    -1.8580 H     1 <1>   0.0800 
 34 H       -0.8310     2.3670    -2.0020 H     1 <1>   0.0800 
 35 H        2.7210     1.8590    -2.1360 H     1 <1>   0.0800 
 36 H        1.3220     2.5440    -2.8700 H     1 <1>   0.0800 
 37 H        1.5180     0.8150    -2.8820 H     1 <1>   0.0800 
 38 H       -2.3190    -3.2920    -1.6360 H     1 <1>   0.1500 
 39 H        0.8370    -2.8310    -0.2100 H     1 <1>   0.0800 
 40 H        0.6380    -1.8960    -1.6820 H     1 <1>   0.0800 
 41 H       -0.0440    -3.4900    -1.5490 H     1 <1>   0.0800 
 42 H        2.7940     2.5060     0.7460 H     1 <1>   0.4000 
 43 H        5.1160     0.6430    -1.1550 H     1 <1>   0.1500 
 44 H        4.1470     2.0440     3.3600 H     1 <1>   0.1500 
 45 H        6.8310     1.9410     0.0590 H     1 <1>   0.1500 
 46 H       -4.6540    -3.3770    -1.7010 H     1 <1>   0.0800 
 47 H       -5.4280    -1.8340    -1.4390 H     1 <1>   0.0800 
 48 H       -5.3970    -3.0240    -0.1610 H     1 <1>   0.0800 
 49 H       -5.9140     0.5940     2.1210 H     1 <1>   0.0800 
 50 H       -4.4160     1.3460     1.5840 H     1 <1>   0.0800 
 51 H       -4.3840     0.0730     2.8190 H     1 <1>   0.0800 
 52 H        6.3030     2.6460     2.3860 H     1 <1>   0.1500 
@<TRIPOS>BOND
  1   1   2  2   
  2   1   3  2   
  3   1   4  am  
  4   1   5  1   
  5   4   6  1   
  6   4   7  1   
  7   5   8  ar  
  8   5   9  ar  
  9   6  10  1   
 10   6  11  1   
 11   6  12  1   
 12   7  13  1   
 13   7  27  1   
 14   7  28  1   
 15   8  14  ar  
 16   8  15  1   
 17   9  16  ar  
 18   9  29  1   
 19  10  17  1   
 20  10  30  1   
 21  10  31  1   
 22  11  32  1   
 23  11  33  1   
 24  11  34  1   
 25  12  35  1   
 26  12  36  1   
 27  12  37  1   
 28  13  18  ar  
 29  13  19  ar  
 30  14  20  ar  
 31  14  38  1   
 32  15  39  1   
 33  15  40  1   
 34  15  41  1   
 35  16  20  ar  
 36  16  21  1   
 37  17  42  1   
 38  18  22  ar  
 39  19  23  ar  
 40  19  43  1   
 41  20  24  1   
 42  21  25  1   
 43  22  26  ar  
 44  22  44  1   
 45  23  26  ar  
 46  23  45  1   
 47  24  46  1   
 48  24  47  1   
 49  24  48  1   
 50  25  49  1   
 51  25  50  1   
 52  25  51  1   
 53  26  52  1   
@<TRIPOS>SUBSTRUCTURE
  1 ****   1 GROUP 4 **** **** 0

# MOE 2024.06 (io_trps.svl 2023.06)
