@<TRIPOS>MOLECULE
NONAME
54 57 1 0 0 
SMALL
USER_CHARGES


@<TRIPOS>ATOM
  1 O       -0.4420     0.3930     0.5790 O.3   1 <1>  -0.2800 
  2 C        0.7610    -0.1270     0.4050 C.2   1 <1>   0.4250 
  3 C       -1.2240    -0.5770     0.9490 C.2   1 <1>  -0.0400 
  4 N        0.7870    -1.4060     0.6420 N.2   1 <1>  -0.5650 
  5 C        1.8640     0.7150    -0.0140 C.ar  1 <1>   0.0530 
  6 C       -0.4820    -1.6920     0.9970 C.2   1 <1>   0.0460 
  7 C       -2.6840    -0.2740     1.2210 C.3   1 <1>  -0.0600 
  8 C        3.1610     0.2070    -0.1130 C.ar  1 <1>  -0.1500 
  9 C        1.6790     2.0600    -0.3380 C.ar  1 <1>  -0.1500 
 10 C       -0.8800    -3.1160     1.3470 C.3   1 <1>   0.5240 
 11 C        4.2260     0.9940    -0.5170 C.ar  1 <1>  -0.1440 
 12 C        2.7340     2.8550    -0.7420 C.ar  1 <1>  -0.1500 
 13 N       -0.3300    -4.0180     0.2980 N.4   1 <1>  -0.9590 
 14 C        4.0070     2.3230    -0.8330 C.ar  1 <1>  -0.1500 
 15 C        5.6270     0.4170    -0.6150 C.3   1 <1>  -0.0970 
 16 C       -1.0730    -3.8510    -0.9840 C.3   1 <1>   0.3430 
 17 C       -0.4410    -5.4550     0.6870 C.3   1 <1>   0.3430 
 18 C       -2.1370    -4.9510    -0.9730 C.3   1 <1>   0.2000 
 19 C       -1.4260    -6.1190    -0.2920 C.3   1 <1>  -0.0800 
 20 O       -3.1890    -4.5450    -0.1550 O.3   1 <1>  -0.6800 
 21 C       -0.6900    -7.0070    -1.3150 C.3   1 <1>   0.0210 
 22 C       -0.0480    -8.2040    -0.6420 C.2   1 <1>   0.1080 
 23 N        0.9400    -8.0970     0.1910 N.2   1 <1>  -0.7070 
 24 C       -0.4320    -9.5270    -0.8370 C.2   1 <1>  -0.1500 
 25 N        1.2240    -9.3680     0.5470 N.pl3 1 <1>   0.3000 
 26 C        0.4020   -10.2480    -0.0600 C.2   1 <1>  -0.3320 
 27 C        0.4680   -11.7520     0.1400 C.3   1 <1>  -0.0600 
 28 H       -3.2170    -1.1640     1.5020 H     1 <1>   0.0800 
 29 H       -3.1400     0.1400     0.3390 H     1 <1>   0.0800 
 30 H       -2.7630     0.4450     2.0160 H     1 <1>   0.0800 
 31 H        3.3340    -0.8240     0.1370 H     1 <1>   0.1500 
 32 H        0.6960     2.4920    -0.2740 H     1 <1>   0.1500 
 33 H       -1.9510    -3.2050     1.4070 H     1 <1>   0.0800 
 34 H       -0.4520    -3.3660     2.3040 H     1 <1>   0.0800 
 35 H        2.5670     3.8900    -0.9870 H     1 <1>   0.1500 
 36 H        0.6490    -3.7120     0.1770 H     1 <1>   0.4500 
 37 H        4.8260     2.9470    -1.1470 H     1 <1>   0.1500 
 38 H        6.0710     0.6850    -1.5570 H     1 <1>   0.0800 
 39 H        5.6080    -0.6550    -0.5410 H     1 <1>   0.0800 
 40 H        6.2370     0.8070     0.1800 H     1 <1>   0.0800 
 41 H       -1.5150    -2.8720    -1.0800 H     1 <1>   0.0800 
 42 H       -0.4010    -4.0170    -1.8090 H     1 <1>   0.0800 
 43 H        0.5270    -5.9230     0.6410 H     1 <1>   0.0800 
 44 H       -0.8150    -5.5440     1.6940 H     1 <1>   0.0800 
 45 H       -2.5230    -5.1710    -1.9540 H     1 <1>   0.0800 
 46 H       -2.1210    -6.7410     0.2450 H     1 <1>   0.0800 
 47 H       -3.9490    -5.1630    -0.2280 H     1 <1>   0.4000 
 48 H        0.0780    -6.4530    -1.8240 H     1 <1>   0.0800 
 49 H       -1.3860    -7.3650    -2.0540 H     1 <1>   0.0800 
 50 H       -1.2220    -9.8790    -1.4760 H     1 <1>   0.1500 
 51 H        1.9830    -9.6040     1.1990 H     1 <1>   0.2700 
 52 H       -0.2870   -12.2380    -0.4520 H     1 <1>   0.0800 
 53 H        0.3040   -12.0000     1.1740 H     1 <1>   0.0800 
 54 H        1.4300   -12.1260    -0.1620 H     1 <1>   0.0800 
@<TRIPOS>BOND
  1   1   2  1   
  2   1   3  1   
  3   2   4  2   
  4   2   5  1   
  5   3   6  2   
  6   3   7  1   
  7   4   6  1   
  8   5   8  ar  
  9   5   9  ar  
 10   6  10  1   
 11   7  28  1   
 12   7  29  1   
 13   7  30  1   
 14   8  11  ar  
 15   8  31  1   
 16   9  12  ar  
 17   9  32  1   
 18  10  13  1   
 19  10  33  1   
 20  10  34  1   
 21  11  14  ar  
 22  11  15  1   
 23  12  14  ar  
 24  12  35  1   
 25  13  16  1   
 26  13  17  1   
 27  13  36  1   
 28  14  37  1   
 29  15  38  1   
 30  15  39  1   
 31  15  40  1   
 32  16  18  1   
 33  16  41  1   
 34  16  42  1   
 35  17  19  1   
 36  17  43  1   
 37  17  44  1   
 38  18  19  1   
 39  18  20  1   
 40  18  45  1   
 41  19  21  1   
 42  19  46  1   
 43  20  47  1   
 44  21  22  1   
 45  21  48  1   
 46  21  49  1   
 47  22  23  2   
 48  22  24  1   
 49  23  25  1   
 50  24  26  2   
 51  24  50  1   
 52  25  26  1   
 53  25  51  1   
 54  26  27  1   
 55  27  52  1   
 56  27  53  1   
 57  27  54  1   
@<TRIPOS>SUBSTRUCTURE
  1 ****  13 GROUP 4 **** **** 0

# MOE 2024.06 (io_trps.svl 2023.06)
