@<TRIPOS>MOLECULE
NONAME
49 52 1 0 0 
SMALL
USER_CHARGES


@<TRIPOS>ATOM
  1 O       -0.0970     0.6530    -0.9940 O.2   1 <1>  -0.5700 
  2 C       -0.6010     1.5360    -0.3400 C.2   1 <1>   0.5690 
  3 N       -1.9200     1.4760     0.0430 N.am  1 <1>  -0.6600 
  4 C        0.2500     2.7460     0.0360 C.3   1 <1>  -0.0990 
  5 C       -2.6920     2.5920     0.6800 C.3   1 <1>   0.1400 
  6 C       -2.7390     0.2530    -0.2020 C.3   1 <1>   0.1400 
  7 C        1.7710     2.5540    -0.1190 C.3   1 <1>  -0.0800 
  8 C       -3.9060     2.9880    -0.1830 C.3   1 <1>   0.1430 
  9 C       -3.9610     0.5990    -1.0630 C.3   1 <1>  -0.1600 
 10 C        2.3640     1.5200     0.8380 C.3   1 <1>  -0.1600 
 11 C        2.5620     3.8220     0.1970 C.3   1 <1>  -0.1600 
 12 C       -4.6620     4.0900     0.5350 C.ar  1 <1>   0.1670 
 13 C       -4.7830     1.7460    -0.4500 C.3   1 <1>  -0.1600 
 14 C       -3.4710     3.6840    -1.5030 C.3   1 <1>  -0.1600 
 15 C        3.8490     1.8770     0.9450 C.3   1 <1>  -0.1600 
 16 C        3.9810     3.3340     0.4880 C.3   1 <1>  -0.1600 
 17 N       -5.3920     3.9350     1.6140 N.ar  1 <1>  -0.6200 
 18 C       -4.4790     5.3000    -0.0680 C.ar  1 <1>  -0.1440 
 19 C       -3.5760     5.2010    -1.2720 C.3   1 <1>  -0.0170 
 20 C       -5.9380     5.0550     2.0620 C.ar  1 <1>   0.7200 
 21 C       -5.1050     6.3920     0.4830 C.ar  1 <1>   0.1600 
 22 N       -5.8500     6.2780     1.5590 N.ar  1 <1>  -0.6200 
 23 N       -6.6960     4.9320     3.1520 N.pl3 1 <1>  -0.9000 
 24 H        0.0490     3.0040     1.0590 H     1 <1>   0.0800 
 25 H       -0.0580     3.5660    -0.5860 H     1 <1>   0.0800 
 26 H       -2.0780     3.4600     0.8340 H     1 <1>   0.0800 
 27 H       -3.0390     2.2640     1.6450 H     1 <1>   0.0800 
 28 H       -3.0620    -0.1430     0.7450 H     1 <1>   0.0800 
 29 H       -2.1560    -0.5070    -0.6940 H     1 <1>   0.0800 
 30 H        1.9960     2.2560    -1.1300 H     1 <1>   0.0800 
 31 H       -4.5800    -0.2760    -1.1590 H     1 <1>   0.0800 
 32 H       -3.6240     0.8660    -2.0490 H     1 <1>   0.0800 
 33 H        2.2190     0.5160     0.4780 H     1 <1>   0.0800 
 34 H        1.9080     1.6130     1.8080 H     1 <1>   0.0800 
 35 H        2.1650     4.2910     1.0810 H     1 <1>   0.0800 
 36 H        2.5390     4.5250    -0.6180 H     1 <1>   0.0800 
 37 H       -5.6040     2.0020    -1.0960 H     1 <1>   0.0800 
 38 H       -5.2020     1.4100     0.4830 H     1 <1>   0.0800 
 39 H       -4.1580     3.4200    -2.2880 H     1 <1>   0.0800 
 40 H       -2.4840     3.3960    -1.8170 H     1 <1>   0.0800 
 41 H        4.4250     1.2400     0.2950 H     1 <1>   0.0800 
 42 H        4.1980     1.7490     1.9550 H     1 <1>   0.0800 
 43 H        4.4560     3.9430     1.2370 H     1 <1>   0.0800 
 44 H        4.5680     3.3720    -0.4140 H     1 <1>   0.0800 
 45 H       -3.9960     5.7030    -2.1270 H     1 <1>   0.0800 
 46 H       -2.6120     5.6190    -1.0390 H     1 <1>   0.0800 
 47 H       -4.9930     7.3670     0.0390 H     1 <1>   0.1500 
 48 H       -7.3450     5.6970     3.3120 H     1 <1>   0.4000 
 49 H       -7.0350     3.9940     3.3400 H     1 <1>   0.4000 
@<TRIPOS>BOND
  1   1   2  2   
  2   2   3  am  
  3   2   4  1   
  4   3   5  1   
  5   3   6  1   
  6   4   7  1   
  7   4  24  1   
  8   4  25  1   
  9   5   8  1   
 10   5  26  1   
 11   5  27  1   
 12   6   9  1   
 13   6  28  1   
 14   6  29  1   
 15   7  10  1   
 16   7  11  1   
 17   7  30  1   
 18   8  12  1   
 19   8  13  1   
 20   8  14  1   
 21   9  13  1   
 22   9  31  1   
 23   9  32  1   
 24  10  15  1   
 25  10  33  1   
 26  10  34  1   
 27  11  16  1   
 28  11  35  1   
 29  11  36  1   
 30  12  17  ar  
 31  12  18  ar  
 32  13  37  1   
 33  13  38  1   
 34  14  19  1   
 35  14  39  1   
 36  14  40  1   
 37  15  16  1   
 38  15  41  1   
 39  15  42  1   
 40  16  43  1   
 41  16  44  1   
 42  17  20  ar  
 43  18  19  1   
 44  18  21  ar  
 45  19  45  1   
 46  19  46  1   
 47  20  22  ar  
 48  20  23  1   
 49  21  22  ar  
 50  21  47  1   
 51  23  48  1   
 52  23  49  1   
@<TRIPOS>SUBSTRUCTURE
  1 ****   5 GROUP 4 **** **** 0

# MOE 2024.06 (io_trps.svl 2023.06)
