@<TRIPOS>MOLECULE
NONAME
44 47 1 0 0 
SMALL
USER_CHARGES


@<TRIPOS>ATOM
  1 S        0.0010     0.3140     1.8920 S.o2  1 <1>   1.4470 
  2 O        0.5120    -0.6990     2.7860 O.2   1 <1>  -0.6500 
  3 O       -0.5200     1.5550     2.4220 O.2   1 <1>  -0.6500 
  4 N        1.3220     0.7740     0.9260 N.am  1 <1>  -0.8490 
  5 C       -1.1830    -0.3790     0.7080 C.ar  1 <1>  -0.0090 
  6 C        2.2790     1.5700     1.7340 C.3   1 <1>   0.1960 
  7 C        2.0000    -0.3830     0.3170 C.3   1 <1>   0.1960 
  8 C       -1.2500    -1.7390     0.4730 C.ar  1 <1>  -0.1500 
  9 C       -2.0350     0.4710    -0.0240 C.ar  1 <1>  -0.1500 
 10 C        3.3890     2.3140     0.9350 C.3   1 <1>   0.4230 
 11 C        2.9760     0.0340    -0.8030 C.3   1 <1>  -0.0800 
 12 C       -2.1280    -2.2450    -0.4800 C.ar  1 <1>   0.2270 
 13 C       -2.9170    -0.0140    -0.9630 C.ar  1 <1>  -0.1500 
 14 N        3.0510     2.6080    -0.5170 N.4   1 <1>  -0.9590 
 15 C        4.7650     1.6280     1.0780 C.3   1 <1>   0.1200 
 16 C        4.4550    -0.1690    -0.4410 C.3   1 <1>   0.1200 
 17 C        2.6650     1.4270    -1.3710 C.3   1 <1>   0.3430 
 18 N       -2.3270    -3.5320    -0.8710 N.2   1 <1>  -0.5650 
 19 C       -2.9510    -1.3900    -1.1860 C.ar  1 <1>  -0.1520 
 20 C        1.9450     3.6150    -0.5760 C.3   1 <1>   0.2630 
 21 O        4.7120     0.2560     0.8550 O.3   1 <1>  -0.5600 
 22 C       -3.2450    -3.4520    -1.7710 C.2   1 <1>   0.0360 
 23 N       -3.6730    -2.1880    -2.0130 N.pl3 1 <1>   0.0330 
 24 H        1.7360     2.3330     2.2660 H     1 <1>   0.0800 
 25 H        2.7270     0.9430     2.4880 H     1 <1>   0.0800 
 26 H        2.5030    -0.9670     1.0730 H     1 <1>   0.0800 
 27 H        1.2600    -1.0260    -0.1290 H     1 <1>   0.0800 
 28 H       -0.6340    -2.4370     1.0120 H     1 <1>   0.1500 
 29 H       -1.9940     1.5310     0.1690 H     1 <1>   0.1500 
 30 H        3.5120     3.2660     1.4240 H     1 <1>   0.0800 
 31 H        2.7950    -0.6480    -1.6140 H     1 <1>   0.0800 
 32 H       -3.5690     0.6430    -1.5130 H     1 <1>   0.1500 
 33 H        3.8880     3.0280    -0.9390 H     1 <1>   0.4500 
 34 H        5.1090     1.7530     2.0910 H     1 <1>   0.0800 
 35 H        5.4990     2.0660     0.4250 H     1 <1>   0.0800 
 36 H        5.1190     0.3350    -1.1240 H     1 <1>   0.0800 
 37 H        4.6860    -1.2210    -0.4660 H     1 <1>   0.0800 
 38 H        1.6030     1.4610    -1.5510 H     1 <1>   0.0800 
 39 H        3.1490     1.5220    -2.3290 H     1 <1>   0.0800 
 40 H        1.0480     3.2040    -0.1400 H     1 <1>   0.0800 
 41 H        1.7370     3.8860    -1.5990 H     1 <1>   0.0800 
 42 H        2.2150     4.5060    -0.0330 H     1 <1>   0.0800 
 43 H       -3.6530    -4.2980    -2.2970 H     1 <1>   0.1500 
 44 H       -4.3950    -1.8940    -2.6760 H     1 <1>   0.2700 
@<TRIPOS>BOND
  1   1   2  2   
  2   1   3  2   
  3   1   4  am  
  4   1   5  1   
  5   4   6  1   
  6   4   7  1   
  7   5   8  ar  
  8   5   9  ar  
  9   6  10  1   
 10   6  24  1   
 11   6  25  1   
 12   7  11  1   
 13   7  26  1   
 14   7  27  1   
 15   8  12  ar  
 16   8  28  1   
 17   9  13  ar  
 18   9  29  1   
 19  10  14  1   
 20  10  15  1   
 21  10  30  1   
 22  11  16  1   
 23  11  17  1   
 24  11  31  1   
 25  12  18  1   
 26  12  19  ar  
 27  13  19  ar  
 28  13  32  1   
 29  14  17  1   
 30  14  20  1   
 31  14  33  1   
 32  15  21  1   
 33  15  34  1   
 34  15  35  1   
 35  16  21  1   
 36  16  36  1   
 37  16  37  1   
 38  17  38  1   
 39  17  39  1   
 40  18  22  2   
 41  19  23  1   
 42  20  40  1   
 43  20  41  1   
 44  20  42  1   
 45  22  23  1   
 46  22  43  1   
 47  23  44  1   
@<TRIPOS>SUBSTRUCTURE
  1 ****   4 GROUP 4 **** **** 0

# MOE 2024.06 (io_trps.svl 2023.06)
