@<TRIPOS>MOLECULE
NONAME
46 49 1 0 0 
SMALL
USER_CHARGES


@<TRIPOS>ATOM
  1 S        0.5940     0.5200    -0.7840 S.3   1 <1>  -0.3320 
  2 C        0.4920    -1.2780    -0.8870 C.ar  1 <1>   0.1020 
  3 C        2.3590     0.9690    -0.4640 C.3   1 <1>   0.1500 
  4 C        1.6140    -2.0910    -0.9540 C.ar  1 <1>  -0.1500 
  5 C       -0.7780    -1.8250    -0.9040 C.ar  1 <1>  -0.1500 
  6 C        2.7010     0.6270     0.9870 C.3   1 <1>  -0.1600 
  7 C        2.5160     2.4670    -0.7110 C.3   1 <1>  -0.1600 
  8 C        1.4610    -3.4670    -1.0280 C.ar  1 <1>  -0.1430 
  9 C       -0.9300    -3.1980    -0.9810 C.ar  1 <1>  -0.1500 
 10 C        4.1030     1.1320     1.3310 C.3   1 <1>   0.1100 
 11 C        3.9200     2.9310    -0.3180 C.3   1 <1>   0.1100 
 12 C        0.1870    -4.0140    -1.0420 C.ar  1 <1>  -0.1500 
 13 C        2.6770    -4.3740    -1.1010 C.3   1 <1>  -0.0970 
 14 N        4.1960     2.5800     1.0880 N.3   1 <1>  -0.8100 
 15 C        5.5040     3.1030     1.5610 C.3   1 <1>   0.2900 
 16 C        5.6020     4.6270     1.6290 C.2   1 <1>   0.2980 
 17 O        5.7800     5.3240     0.5550 O.3   1 <1>  -0.2800 
 18 N        5.5620     5.3600     2.6760 N.2   1 <1>  -0.3380 
 19 C        5.8340     6.5570     0.9670 C.2   1 <1>   0.4780 
 20 N        5.7100     6.6140     2.2540 N.2   1 <1>  -0.3380 
 21 C        6.0120     7.6480     0.0460 C.2   1 <1>   0.1400 
 22 O        6.1380     7.4320    -1.2610 O.3   1 <1>  -0.2800 
 23 C        6.0860     8.9900     0.2700 C.2   1 <1>  -0.1500 
 24 C        6.2880     8.5900    -1.8680 C.2   1 <1>  -0.0100 
 25 C        6.2640     9.5990    -0.9730 C.2   1 <1>  -0.1500 
 26 H        2.9690     0.4200    -1.1570 H     1 <1>   0.0800 
 27 H        2.5990    -1.6730    -0.9540 H     1 <1>   0.1500 
 28 H       -1.6360    -1.1790    -0.8560 H     1 <1>   0.1500 
 29 H        2.6510    -0.4340     1.1430 H     1 <1>   0.0800 
 30 H        1.9920     1.0950     1.6470 H     1 <1>   0.0800 
 31 H        1.7960     3.0120    -0.1270 H     1 <1>   0.0800 
 32 H        2.3410     2.6840    -1.7490 H     1 <1>   0.0800 
 33 H       -1.9160    -3.6300    -0.9930 H     1 <1>   0.1500 
 34 H        4.8370     0.6120     0.7380 H     1 <1>   0.0800 
 35 H        4.2970     0.9280     2.3710 H     1 <1>   0.0800 
 36 H        3.9650     3.9980    -0.4480 H     1 <1>   0.0800 
 37 H        4.6540     2.4770    -0.9620 H     1 <1>   0.0800 
 38 H        0.0590    -5.0810    -1.1030 H     1 <1>   0.1500 
 39 H        3.5360    -3.8940    -0.6680 H     1 <1>   0.0800 
 40 H        2.8920    -4.6110    -2.1280 H     1 <1>   0.0800 
 41 H        2.4940    -5.2870    -0.5650 H     1 <1>   0.0800 
 42 H        6.2930     2.7330     0.9310 H     1 <1>   0.0800 
 43 H        5.6800     2.7350     2.5570 H     1 <1>   0.0800 
 44 H        6.0200     9.4960     1.2170 H     1 <1>   0.1500 
 45 H        6.4050     8.6070    -2.9380 H     1 <1>   0.1500 
 46 H        6.3600    10.6570    -1.1480 H     1 <1>   0.1500 
@<TRIPOS>BOND
  1   1   2  1   
  2   1   3  1   
  3   2   4  ar  
  4   2   5  ar  
  5   3   6  1   
  6   3   7  1   
  7   3  26  1   
  8   4   8  ar  
  9   4  27  1   
 10   5   9  ar  
 11   5  28  1   
 12   6  10  1   
 13   6  29  1   
 14   6  30  1   
 15   7  11  1   
 16   7  31  1   
 17   7  32  1   
 18   8  12  ar  
 19   8  13  1   
 20   9  12  ar  
 21   9  33  1   
 22  10  14  1   
 23  10  34  1   
 24  10  35  1   
 25  11  14  1   
 26  11  36  1   
 27  11  37  1   
 28  12  38  1   
 29  13  39  1   
 30  13  40  1   
 31  13  41  1   
 32  14  15  1   
 33  15  16  1   
 34  15  42  1   
 35  15  43  1   
 36  16  17  1   
 37  16  18  2   
 38  17  19  1   
 39  18  20  1   
 40  19  20  2   
 41  19  21  1   
 42  21  22  1   
 43  21  23  2   
 44  22  24  1   
 45  23  25  1   
 46  23  44  1   
 47  24  25  2   
 48  24  45  1   
 49  25  46  1   
@<TRIPOS>SUBSTRUCTURE
  1 ****  11 GROUP 4 **** **** 0

# MOE 2024.06 (io_trps.svl 2023.06)
