@<TRIPOS>MOLECULE
NONAME
63 65 1 0 0 
SMALL
USER_CHARGES


@<TRIPOS>ATOM
  1 F       -2.3590    -1.4500    -3.3790 F     1 <1>  -0.1900 
  2 C       -3.2990    -1.7680    -2.5320 C.ar  1 <1>   0.1900 
  3 C       -2.9690    -2.5100    -1.4160 C.ar  1 <1>  -0.1500 
  4 C       -4.5900    -1.3500    -2.7830 C.ar  1 <1>  -0.1500 
  5 C       -3.9700    -2.8480    -0.5220 C.ar  1 <1>  -0.1500 
  6 C       -5.5870    -1.6920    -1.8840 C.ar  1 <1>  -0.1500 
  7 C       -5.2840    -2.4450    -0.7510 C.ar  1 <1>  -0.1430 
  8 C       -6.3980    -2.8180     0.2270 C.3   1 <1>   0.6280 
  9 N       -6.3110    -1.9320     1.4530 N.4   1 <1>  -0.9590 
 10 C       -6.3390    -4.3370     0.5670 C.2   1 <1>   0.5690 
 11 C       -7.4960    -2.1190     2.3440 C.3   1 <1>   0.3430 
 12 C       -6.0270    -0.4920     1.1700 C.3   1 <1>   0.3430 
 13 O       -5.9390    -4.6170     1.6770 O.2   1 <1>  -0.5700 
 14 N       -6.7130    -5.3310    -0.3170 N.am  1 <1>  -0.6600 
 15 C       -7.2610    -1.3980     3.6720 C.3   1 <1>  -0.1600 
 16 C       -5.7780     0.2530     2.4830 C.3   1 <1>  -0.1600 
 17 C       -6.9080    -6.7030     0.2710 C.3   1 <1>   0.3210 
 18 C       -6.6560    -5.1810    -1.8200 C.3   1 <1>   0.1400 
 19 C       -6.9430     0.0880     3.4660 C.3   1 <1>  -0.1600 
 20 C       -8.2050    -6.7360     1.0810 C.2   1 <1>   0.0460 
 21 C       -7.5020    -6.1790    -2.6500 C.3   1 <1>   0.3430 
 22 N       -9.3780    -6.3100     0.5570 N.2   1 <1>  -0.5650 
 23 C       -8.3770    -7.1550     2.3570 C.2   1 <1>  -0.3320 
 24 N       -8.9490    -6.1900    -2.2720 N.4   1 <1>  -0.9590 
 25 C      -10.2300    -6.4900     1.5170 C.2   1 <1>   0.0360 
 26 N       -9.6840    -7.0020     2.6380 N.pl3 1 <1>   0.0330 
 27 C       -7.3940    -7.7040     3.3800 C.3   1 <1>  -0.0600 
 28 C       -9.6100    -7.4700    -2.6690 C.3   1 <1>   0.2630 
 29 C       -9.7180    -5.0260    -2.8000 C.3   1 <1>   0.2630 
 30 H       -1.9480    -2.8140    -1.2580 H     1 <1>   0.1500 
 31 H       -4.7990    -0.7680    -3.6640 H     1 <1>   0.1500 
 32 H       -3.7040    -3.4280     0.3490 H     1 <1>   0.1500 
 33 H       -6.5920    -1.3590    -2.0830 H     1 <1>   0.1500 
 34 H       -7.3410    -2.6370    -0.2550 H     1 <1>   0.0800 
 35 H       -5.5120    -2.3130     1.9810 H     1 <1>   0.4500 
 36 H       -7.6580    -3.1680     2.5390 H     1 <1>   0.0800 
 37 H       -8.3780    -1.7180     1.8720 H     1 <1>   0.0800 
 38 H       -6.8640    -0.0460     0.6580 H     1 <1>   0.0800 
 39 H       -5.1540    -0.3950     0.5440 H     1 <1>   0.0800 
 40 H       -6.4540    -1.8790     4.1990 H     1 <1>   0.0800 
 41 H       -8.1410    -1.4930     4.2840 H     1 <1>   0.0800 
 42 H       -5.6370     1.2990     2.2710 H     1 <1>   0.0800 
 43 H       -4.8670    -0.1070     2.9290 H     1 <1>   0.0800 
 44 H       -6.0760    -6.9440     0.9080 H     1 <1>   0.0800 
 45 H       -6.9490    -7.4580    -0.4900 H     1 <1>   0.0800 
 46 H       -5.6280    -5.2910    -2.1250 H     1 <1>   0.0800 
 47 H       -6.9580    -4.1870    -2.0960 H     1 <1>   0.0800 
 48 H       -6.6910     0.5420     4.4110 H     1 <1>   0.0800 
 49 H       -7.8140     0.5930     3.0830 H     1 <1>   0.0800 
 50 H       -7.0890    -7.1640    -2.5130 H     1 <1>   0.0800 
 51 H       -7.4070    -5.9400    -3.6970 H     1 <1>   0.0800 
 52 H       -9.0050    -6.1530    -1.2250 H     1 <1>   0.4500 
 53 H      -11.2810    -6.2630     1.4570 H     1 <1>   0.1500 
 54 H      -10.1650    -7.2310     3.5150 H     1 <1>   0.2700 
 55 H       -6.3950    -7.7350     2.9840 H     1 <1>   0.0800 
 56 H       -7.6750    -8.7020     3.6680 H     1 <1>   0.0800 
 57 H       -7.3860    -7.0810     4.2570 H     1 <1>   0.0800 
 58 H       -9.6010    -7.5850    -3.7400 H     1 <1>   0.0800 
 59 H      -10.6330    -7.4800    -2.3280 H     1 <1>   0.0800 
 60 H       -9.1000    -8.3080    -2.2230 H     1 <1>   0.0800 
 61 H       -9.7160    -5.0310    -3.8780 H     1 <1>   0.0800 
 62 H       -9.2860    -4.1020    -2.4530 H     1 <1>   0.0800 
 63 H      -10.7400    -5.0730    -2.4570 H     1 <1>   0.0800 
@<TRIPOS>BOND
  1   1   2  1   
  2   2   3  ar  
  3   2   4  ar  
  4   3   5  ar  
  5   3  30  1   
  6   4   6  ar  
  7   4  31  1   
  8   5   7  ar  
  9   5  32  1   
 10   6   7  ar  
 11   6  33  1   
 12   7   8  1   
 13   8   9  1   
 14   8  10  1   
 15   8  34  1   
 16   9  11  1   
 17   9  12  1   
 18   9  35  1   
 19  10  13  2   
 20  10  14  am  
 21  11  15  1   
 22  11  36  1   
 23  11  37  1   
 24  12  16  1   
 25  12  38  1   
 26  12  39  1   
 27  14  17  1   
 28  14  18  1   
 29  15  19  1   
 30  15  40  1   
 31  15  41  1   
 32  16  19  1   
 33  16  42  1   
 34  16  43  1   
 35  17  20  1   
 36  17  44  1   
 37  17  45  1   
 38  18  21  1   
 39  18  46  1   
 40  18  47  1   
 41  19  48  1   
 42  19  49  1   
 43  20  22  1   
 44  20  23  2   
 45  21  24  1   
 46  21  50  1   
 47  21  51  1   
 48  22  25  2   
 49  23  26  1   
 50  23  27  1   
 51  24  28  1   
 52  24  29  1   
 53  24  52  1   
 54  25  26  1   
 55  25  53  1   
 56  26  54  1   
 57  27  55  1   
 58  27  56  1   
 59  27  57  1   
 60  28  58  1   
 61  28  59  1   
 62  28  60  1   
 63  29  61  1   
 64  29  62  1   
 65  29  63  1   
@<TRIPOS>SUBSTRUCTURE
  1 ****  10 GROUP 4 **** **** 0

# MOE 2024.06 (io_trps.svl 2023.06)
