@<TRIPOS>MOLECULE
NONAME
51 53 1 0 0 
SMALL
USER_CHARGES


@<TRIPOS>ATOM
  1 O       -1.4720    -1.4910     0.5130 O.2   1 <1>  -0.5700 
  2 C       -0.5360    -1.9520    -0.1000 C.2   1 <1>   0.6900 
  3 N        0.3290    -2.8830     0.3720 N.am  1 <1>  -0.6600 
  4 N       -0.2420    -1.6270    -1.3770 N.am  1 <1>  -0.4900 
  5 C        1.2900    -3.2530    -0.7090 C.3   1 <1>   0.2010 
  6 C        0.2290    -3.6430     1.6560 C.3   1 <1>   0.2010 
  7 C        0.8100    -2.3420    -1.8300 C.2   1 <1>   0.5690 
  8 C       -0.0340    -5.1360     1.4390 C.2   1 <1>   0.5690 
  9 O        1.2790    -2.2710    -2.9350 O.2   1 <1>  -0.5700 
 10 O        0.9340    -5.8610     1.4130 O.2   1 <1>  -0.5700 
 11 N       -1.3010    -5.6290     1.2450 N.am  1 <1>  -0.6600 
 12 C       -1.5460    -7.0840     0.9910 C.3   1 <1>   0.1400 
 13 C       -2.5430    -4.8130     1.0710 C.3   1 <1>   0.1400 
 14 C       -2.2570    -7.2910    -0.3580 C.3   1 <1>   0.3430 
 15 C       -3.2010    -5.1140    -0.2980 C.3   1 <1>   0.2000 
 16 O       -3.4140    -6.4990    -0.4170 O.3   1 <1>  -0.5600 
 17 C       -2.6310    -8.7570    -0.5510 C.ar  1 <1>  -0.1430 
 18 C       -4.5460    -4.3700    -0.5570 C.3   1 <1>   0.0000 
 19 C       -3.8340    -9.2650    -0.0790 C.ar  1 <1>  -0.1500 
 20 C       -1.7490    -9.6110    -1.1990 C.ar  1 <1>  -0.1500 
 21 C       -5.6340    -4.7630     0.4600 C.3   1 <1>  -0.2400 
 22 C       -5.0590    -4.7130    -1.9690 C.3   1 <1>  -0.2400 
 23 C       -4.3530    -2.8440    -0.4960 C.3   1 <1>  -0.2400 
 24 C       -4.1500   -10.6020    -0.2500 C.ar  1 <1>  -0.1500 
 25 C       -2.0630   -10.9480    -1.3710 C.ar  1 <1>  -0.1500 
 26 C       -3.2630   -11.4450    -0.8960 C.ar  1 <1>  -0.1500 
 27 H       -0.7540    -0.9350    -1.9110 H     1 <1>   0.3700 
 28 H        2.3000    -3.0210    -0.4270 H     1 <1>   0.0800 
 29 H        1.1900    -4.2870    -0.9870 H     1 <1>   0.0800 
 30 H        1.1540    -3.5360     2.1920 H     1 <1>   0.0800 
 31 H       -0.5490    -3.2240     2.2680 H     1 <1>   0.0800 
 32 H       -0.6230    -7.6360     0.9880 H     1 <1>   0.0800 
 33 H       -2.1620    -7.4840     1.7770 H     1 <1>   0.0800 
 34 H       -3.2300    -5.0560     1.8610 H     1 <1>   0.0800 
 35 H       -2.3250    -3.7660     1.1390 H     1 <1>   0.0800 
 36 H       -1.6070    -6.9830    -1.1590 H     1 <1>   0.0800 
 37 H       -2.5110    -4.8270    -1.0720 H     1 <1>   0.0800 
 38 H       -4.5320    -8.6160     0.4220 H     1 <1>   0.1500 
 39 H       -0.8100    -9.2400    -1.5730 H     1 <1>   0.1500 
 40 H       -6.5670    -4.2870     0.2160 H     1 <1>   0.0800 
 41 H       -5.3620    -4.4690     1.4560 H     1 <1>   0.0800 
 42 H       -5.7900    -5.8280     0.4490 H     1 <1>   0.0800 
 43 H       -5.9700    -4.1840    -2.1850 H     1 <1>   0.0800 
 44 H       -5.2600    -5.7670    -2.0520 H     1 <1>   0.0800 
 45 H       -4.3280    -4.4510    -2.7120 H     1 <1>   0.0800 
 46 H       -5.2620    -2.3370    -0.7690 H     1 <1>   0.0800 
 47 H       -3.5790    -2.5320    -1.1740 H     1 <1>   0.0800 
 48 H       -4.0870    -2.5210     0.4950 H     1 <1>   0.0800 
 49 H       -5.0850   -10.9840     0.1190 H     1 <1>   0.1500 
 50 H       -1.3730   -11.6020    -1.8740 H     1 <1>   0.1500 
 51 H       -3.5080   -12.4840    -1.0300 H     1 <1>   0.1500 
@<TRIPOS>BOND
  1   1   2  2   
  2   2   3  am  
  3   2   4  am  
  4   3   5  1   
  5   3   6  1   
  6   4   7  am  
  7   4  27  1   
  8   5   7  1   
  9   5  28  1   
 10   5  29  1   
 11   6   8  1   
 12   6  30  1   
 13   6  31  1   
 14   7   9  2   
 15   8  10  2   
 16   8  11  am  
 17  11  12  1   
 18  11  13  1   
 19  12  14  1   
 20  12  32  1   
 21  12  33  1   
 22  13  15  1   
 23  13  34  1   
 24  13  35  1   
 25  14  16  1   
 26  14  17  1   
 27  14  36  1   
 28  15  16  1   
 29  15  18  1   
 30  15  37  1   
 31  17  19  ar  
 32  17  20  ar  
 33  18  21  1   
 34  18  22  1   
 35  18  23  1   
 36  19  24  ar  
 37  19  38  1   
 38  20  25  ar  
 39  20  39  1   
 40  21  40  1   
 41  21  41  1   
 42  21  42  1   
 43  22  43  1   
 44  22  44  1   
 45  22  45  1   
 46  23  46  1   
 47  23  47  1   
 48  23  48  1   
 49  24  26  ar  
 50  24  49  1   
 51  25  26  ar  
 52  25  50  1   
 53  26  51  1   
@<TRIPOS>SUBSTRUCTURE
  1 ****  15 GROUP 4 **** **** 0

# MOE 2024.06 (io_trps.svl 2023.06)
