@<TRIPOS>MOLECULE
NONAME
50 52 1 0 0 
SMALL
USER_CHARGES


@<TRIPOS>ATOM
  1 O        0.0020     4.1490     1.8690 O.2   1 <1>  -0.5700 
  2 C        0.1650     3.9170     0.6920 C.2   1 <1>   0.5690 
  3 N       -0.8860     3.5930    -0.1340 N.am  1 <1>  -0.6600 
  4 C        1.5960     3.9910     0.1710 C.3   1 <1>   0.0440 
  5 C       -2.2650     3.3870     0.4090 C.3   1 <1>   0.1400 
  6 C       -0.7780     3.2450    -1.5760 C.3   1 <1>   0.1400 
  7 C        2.1500     2.6280    -0.2380 C.ar  1 <1>  -0.1440 
  8 C       -2.6970     1.9050     0.2590 C.3   1 <1>   0.0000 
  9 C       -1.1510     1.7720    -1.7720 C.3   1 <1>  -0.1600 
 10 C        2.0590     1.5530     0.6340 C.ar  1 <1>  -0.1500 
 11 C        2.7420     2.4460    -1.4790 C.ar  1 <1>  -0.1500 
 12 C       -4.1300     1.6870     0.7750 C.3   1 <1>   0.2000 
 13 C       -2.5530     1.4680    -1.2160 C.3   1 <1>  -0.1600 
 14 C       -1.8880     1.0080     1.2120 C.3   1 <1>  -0.1600 
 15 C        2.5350     0.3060     0.2680 C.ar  1 <1>  -0.1500 
 16 C        3.2210     1.2010    -1.8460 C.ar  1 <1>  -0.1500 
 17 O       -4.9740     2.7370     0.4050 O.3   1 <1>  -0.5600 
 18 C       -4.0100     1.5740     2.2990 C.3   1 <1>  -0.1600 
 19 C       -2.5620     1.1500     2.5800 C.3   1 <1>  -0.1600 
 20 C        3.1180     0.1230    -0.9820 C.ar  1 <1>   0.0820 
 21 C       -6.3330     2.4820     0.5640 C.3   1 <1>   0.0400 
 22 O        3.6050    -1.0630    -1.4230 O.3   1 <1>  -0.3630 
 23 C        3.5720    -2.2150    -0.6100 C.3   1 <1>   0.0400 
 24 H        1.6260     4.6790    -0.6520 H     1 <1>   0.0800 
 25 H        2.2220     4.3930     0.9460 H     1 <1>   0.0800 
 26 H       -2.3150     3.6870     1.4410 H     1 <1>   0.0800 
 27 H       -2.9410     4.0190    -0.1400 H     1 <1>   0.0800 
 28 H       -1.4580     3.8660    -2.1340 H     1 <1>   0.0800 
 29 H        0.2120     3.4220    -1.9520 H     1 <1>   0.0800 
 30 H       -1.1210     1.5370    -2.8200 H     1 <1>   0.0800 
 31 H       -0.4150     1.1580    -1.2810 H     1 <1>   0.0800 
 32 H        1.6100     1.6850     1.6050 H     1 <1>   0.1500 
 33 H        2.8340     3.2680    -2.1660 H     1 <1>   0.1500 
 34 H       -4.5140     0.7660     0.3680 H     1 <1>   0.0800 
 35 H       -2.7610     0.4170    -1.3170 H     1 <1>   0.0800 
 36 H       -3.2810     2.0010    -1.8030 H     1 <1>   0.0800 
 37 H       -1.9600    -0.0170     0.8940 H     1 <1>   0.0800 
 38 H       -0.8480     1.2760     1.2550 H     1 <1>   0.0800 
 39 H        2.4430    -0.5030     0.9660 H     1 <1>   0.1500 
 40 H        3.6780     1.0550    -2.8080 H     1 <1>   0.1500 
 41 H       -4.1990     2.5290     2.7590 H     1 <1>   0.0800 
 42 H       -4.7030     0.8450     2.6780 H     1 <1>   0.0800 
 43 H       -2.0650     1.9190     3.1480 H     1 <1>   0.0800 
 44 H       -2.5160     0.2270     3.1320 H     1 <1>   0.0800 
 45 H       -6.8760     3.3490     0.2290 H     1 <1>   0.0800 
 46 H       -6.5460     2.3040     1.6040 H     1 <1>   0.0800 
 47 H       -6.6080     1.6300    -0.0320 H     1 <1>   0.0800 
 48 H        4.0150    -3.0250    -1.1610 H     1 <1>   0.0800 
 49 H        2.5480    -2.4480    -0.3760 H     1 <1>   0.0800 
 50 H        4.1400    -2.0270     0.2840 H     1 <1>   0.0800 
@<TRIPOS>BOND
  1   1   2  2   
  2   2   3  am  
  3   2   4  1   
  4   3   5  1   
  5   3   6  1   
  6   4   7  1   
  7   4  24  1   
  8   4  25  1   
  9   5   8  1   
 10   5  26  1   
 11   5  27  1   
 12   6   9  1   
 13   6  28  1   
 14   6  29  1   
 15   7  10  ar  
 16   7  11  ar  
 17   8  12  1   
 18   8  13  1   
 19   8  14  1   
 20   9  13  1   
 21   9  30  1   
 22   9  31  1   
 23  10  15  ar  
 24  10  32  1   
 25  11  16  ar  
 26  11  33  1   
 27  12  17  1   
 28  12  18  1   
 29  12  34  1   
 30  13  35  1   
 31  13  36  1   
 32  14  19  1   
 33  14  37  1   
 34  14  38  1   
 35  15  20  ar  
 36  15  39  1   
 37  16  20  ar  
 38  16  40  1   
 39  17  21  1   
 40  18  19  1   
 41  18  41  1   
 42  18  42  1   
 43  19  43  1   
 44  19  44  1   
 45  20  22  1   
 46  21  45  1   
 47  21  46  1   
 48  21  47  1   
 49  22  23  1   
 50  23  48  1   
 51  23  49  1   
 52  23  50  1   
@<TRIPOS>SUBSTRUCTURE
  1 ****   3 GROUP 4 **** **** 0

# MOE 2024.06 (io_trps.svl 2023.06)
