@<TRIPOS>MOLECULE
NONAME
45 46 1 0 0 
SMALL
USER_CHARGES


@<TRIPOS>ATOM
  1 S       -0.5000     0.2710     1.6340 S.o2  1 <1>   1.4470 
  2 O       -0.3640    -0.9940     2.3170 O.2   1 <1>  -0.6500 
  3 O       -1.1140     1.3830     2.3170 O.2   1 <1>  -0.6500 
  4 N       -1.4960     0.0400     0.3000 N.am  1 <1>  -0.9140 
  5 C        1.0810     0.7890     0.9090 C.ar  1 <1>  -0.0090 
  6 C       -1.5720    -1.2690    -0.3580 C.3   1 <1>   0.2760 
  7 C        1.1320     1.8070    -0.0350 C.ar  1 <1>  -0.1500 
  8 C        2.2790     0.1810     1.2760 C.ar  1 <1>  -0.1500 
  9 C       -2.3310    -2.3270     0.4490 C.3   1 <1>  -0.0800 
 10 C       -0.2400    -1.9410    -0.7150 C.3   1 <1>   0.1200 
 11 C        2.3450     2.1780    -0.5810 C.ar  1 <1>   0.1900 
 12 C        3.4910     0.5630     0.7210 C.ar  1 <1>  -0.1500 
 13 C       -1.3190    -3.4750     0.5370 C.3   1 <1>   0.1200 
 14 C       -3.6160    -2.7600    -0.2830 C.3   1 <1>  -0.0550 
 15 O       -0.4820    -3.3000    -0.5580 O.3   1 <1>  -0.5600 
 16 F        2.3490     3.1360    -1.4690 F     1 <1>  -0.1900 
 17 C        3.5400     1.5740    -0.2240 C.ar  1 <1>  -0.1430 
 18 S       -4.7330    -3.7270     0.7330 S.o2  1 <1>   1.3330 
 19 C        4.8620     2.0040    -0.8430 C.3   1 <1>  -0.0970 
 20 O       -4.1320    -5.0000     1.0590 O.2   1 <1>  -0.6500 
 21 O       -5.2060    -2.8600     1.7880 O.2   1 <1>  -0.6500 
 22 N       -6.0260    -4.0210    -0.3280 N.am  1 <1>  -0.8490 
 23 C       -7.3000    -4.1790     0.3810 C.3   1 <1>   0.1160 
 24 C       -5.8030    -5.1730    -1.2100 C.3   1 <1>   0.1160 
 25 H       -2.4200     0.2870     0.6520 H     1 <1>   0.4200 
 26 H       -2.0880    -1.1150    -1.2910 H     1 <1>   0.0800 
 27 H        0.2320     2.3090    -0.3450 H     1 <1>   0.1500 
 28 H        2.2660    -0.6080     2.0100 H     1 <1>   0.1500 
 29 H       -2.5800    -1.9850     1.4380 H     1 <1>   0.0800 
 30 H        0.5580    -1.6820    -0.0460 H     1 <1>   0.0800 
 31 H        0.0490    -1.7550    -1.7340 H     1 <1>   0.0800 
 32 H        4.3950     0.0660     1.0310 H     1 <1>   0.1500 
 33 H       -1.7600    -4.4550     0.4870 H     1 <1>   0.0800 
 34 H       -0.7210    -3.3970     1.4300 H     1 <1>   0.0800 
 35 H       -3.3530    -3.3150    -1.1620 H     1 <1>   0.0800 
 36 H       -4.1450    -1.8810    -0.5980 H     1 <1>   0.0800 
 37 H        5.6800     1.4280    -0.4480 H     1 <1>   0.0800 
 38 H        5.0430     3.0440    -0.6350 H     1 <1>   0.0800 
 39 H        4.8300     1.8660    -1.9090 H     1 <1>   0.0800 
 40 H       -8.0990    -4.3480    -0.3200 H     1 <1>   0.0800 
 41 H       -7.5260    -3.2840     0.9380 H     1 <1>   0.0800 
 42 H       -7.2460    -5.0080     1.0670 H     1 <1>   0.0800 
 43 H       -6.6080    -5.2550    -1.9200 H     1 <1>   0.0800 
 44 H       -5.7500    -6.0830    -0.6350 H     1 <1>   0.0800 
 45 H       -4.8820    -5.0540    -1.7530 H     1 <1>   0.0800 
@<TRIPOS>BOND
  1   1   2  2   
  2   1   3  2   
  3   1   4  am  
  4   1   5  1   
  5   4   6  1   
  6   4  25  1   
  7   5   7  ar  
  8   5   8  ar  
  9   6   9  1   
 10   6  10  1   
 11   6  26  1   
 12   7  11  ar  
 13   7  27  1   
 14   8  12  ar  
 15   8  28  1   
 16   9  13  1   
 17   9  14  1   
 18   9  29  1   
 19  10  15  1   
 20  10  30  1   
 21  10  31  1   
 22  11  16  1   
 23  11  17  ar  
 24  12  17  ar  
 25  12  32  1   
 26  13  15  1   
 27  13  33  1   
 28  13  34  1   
 29  14  18  1   
 30  14  35  1   
 31  14  36  1   
 32  17  19  1   
 33  18  20  2   
 34  18  21  2   
 35  18  22  am  
 36  19  37  1   
 37  19  38  1   
 38  19  39  1   
 39  22  23  1   
 40  22  24  1   
 41  23  40  1   
 42  23  41  1   
 43  23  42  1   
 44  24  43  1   
 45  24  44  1   
 46  24  45  1   
@<TRIPOS>SUBSTRUCTURE
  1 ****   6 GROUP 4 **** **** 0

# MOE 2024.06 (io_trps.svl 2023.06)
