@<TRIPOS>MOLECULE
NONAME
47 48 1 0 0 
SMALL
USER_CHARGES


@<TRIPOS>ATOM
  1 O       -2.6550     0.5280     1.6080 O.2   1 <1>  -0.5700 
  2 C       -2.1190     0.8970     0.5930 C.2   1 <1>   0.5690 
  3 N       -1.5960     0.0350    -0.3140 N.am  1 <1>  -0.7300 
  4 C       -2.0250     2.3790     0.3140 C.3   1 <1>  -0.0990 
  5 C       -1.7280    -1.4510    -0.2910 C.3   1 <1>   0.2200 
  6 C       -0.7870     2.9870     0.9820 C.3   1 <1>  -0.0160 
  7 C       -3.1930    -1.8910    -0.4610 C.3   1 <1>   0.2000 
  8 C       -1.1420    -2.0730     0.9880 C.3   1 <1>   0.1200 
  9 C       -0.6930     4.4710     0.6700 C.ar  1 <1>  -0.1440 
 10 O       -3.6520    -1.4820    -1.7190 O.3   1 <1>  -0.5600 
 11 C       -3.3080    -3.4150    -0.3500 C.3   1 <1>  -0.1600 
 12 O       -1.2930    -3.4650     0.9440 O.3   1 <1>  -0.5600 
 13 C        0.0690     4.9230    -0.3940 C.ar  1 <1>  -0.1500 
 14 C       -1.3790     5.3870     1.4510 C.ar  1 <1>  -0.1500 
 15 C       -5.0190    -1.2240    -1.7870 C.3   1 <1>   0.0400 
 16 C       -2.6170    -3.9080     0.9270 C.3   1 <1>   0.1200 
 17 C        0.1510     6.2840    -0.6820 C.ar  1 <1>   0.0830 
 18 C       -1.3040     6.7390     1.1710 C.ar  1 <1>  -0.1500 
 19 O        0.8860     6.7770    -1.7150 O.3   1 <1>  -0.3630 
 20 C       -0.5430     7.1970     0.1080 C.ar  1 <1>  -0.1430 
 21 C        1.6640     5.9410    -2.5410 C.3   1 <1>   0.0400 
 22 C       -0.4710     8.6880    -0.1850 C.3   1 <1>  -0.0970 
 23 H       -1.3300     0.3980    -1.2300 H     1 <1>   0.3700 
 24 H       -1.9890     2.5470    -0.7460 H     1 <1>   0.0800 
 25 H       -2.9090     2.8570     0.6940 H     1 <1>   0.0800 
 26 H       -1.1640    -1.8470    -1.1170 H     1 <1>   0.0800 
 27 H        0.0980     2.4830     0.6350 H     1 <1>   0.0800 
 28 H       -0.8460     2.8430     2.0470 H     1 <1>   0.0800 
 29 H       -3.7850    -1.4240     0.3090 H     1 <1>   0.0800 
 30 H       -1.6370    -1.7080     1.8710 H     1 <1>   0.0800 
 31 H       -0.0900    -1.8610     1.0550 H     1 <1>   0.0800 
 32 H       -4.3410    -3.7080    -0.3240 H     1 <1>   0.0800 
 33 H       -2.8390    -3.8810    -1.1990 H     1 <1>   0.0800 
 34 H        0.5950     4.2050    -0.9920 H     1 <1>   0.1500 
 35 H       -1.9760     5.0500     2.2810 H     1 <1>   0.1500 
 36 H       -5.2520    -0.9190    -2.7920 H     1 <1>   0.0800 
 37 H       -5.2650    -0.4310    -1.1020 H     1 <1>   0.0800 
 38 H       -5.5670    -2.1180    -1.5450 H     1 <1>   0.0800 
 39 H       -2.6030    -4.9830     0.9580 H     1 <1>   0.0800 
 40 H       -3.1130    -3.5390     1.8090 H     1 <1>   0.0800 
 41 H       -1.8430     7.4340     1.7900 H     1 <1>   0.1500 
 42 H        2.1660     6.5590    -3.2620 H     1 <1>   0.0800 
 43 H        1.0150     5.2460    -3.0430 H     1 <1>   0.0800 
 44 H        2.3870     5.4270    -1.9330 H     1 <1>   0.0800 
 45 H       -1.0610     9.2520     0.5140 H     1 <1>   0.0800 
 46 H       -0.8360     8.8810    -1.1780 H     1 <1>   0.0800 
 47 H        0.5490     9.0220    -0.1220 H     1 <1>   0.0800 
@<TRIPOS>BOND
  1   1   2  2   
  2   2   3  am  
  3   2   4  1   
  4   3   5  1   
  5   3  23  1   
  6   4   6  1   
  7   4  24  1   
  8   4  25  1   
  9   5   7  1   
 10   5   8  1   
 11   5  26  1   
 12   6   9  1   
 13   6  27  1   
 14   6  28  1   
 15   7  10  1   
 16   7  11  1   
 17   7  29  1   
 18   8  12  1   
 19   8  30  1   
 20   8  31  1   
 21   9  13  ar  
 22   9  14  ar  
 23  10  15  1   
 24  11  16  1   
 25  11  32  1   
 26  11  33  1   
 27  12  16  1   
 28  13  17  ar  
 29  13  34  1   
 30  14  18  ar  
 31  14  35  1   
 32  15  36  1   
 33  15  37  1   
 34  15  38  1   
 35  16  39  1   
 36  16  40  1   
 37  17  19  1   
 38  17  20  ar  
 39  18  20  ar  
 40  18  41  1   
 41  19  21  1   
 42  20  22  1   
 43  21  42  1   
 44  21  43  1   
 45  21  44  1   
 46  22  45  1   
 47  22  46  1   
 48  22  47  1   
@<TRIPOS>SUBSTRUCTURE
  1 ****   4 GROUP 4 **** **** 0

# MOE 2024.06 (io_trps.svl 2023.06)
