@<TRIPOS>MOLECULE
NONAME
47 48 1 0 0 
SMALL
USER_CHARGES


@<TRIPOS>ATOM
  1 S        0.5980     0.3290    -0.8130 S.o2  1 <1>   1.3330 
  2 O        0.6800    -1.0920    -1.0670 O.2   1 <1>  -0.6500 
  3 O       -0.4430     1.1100    -1.4420 O.2   1 <1>  -0.6500 
  4 N        0.4500     0.5510     0.8640 N.am  1 <1>  -0.8490 
  5 C        2.1930     1.0550    -1.2030 C.3   1 <1>  -0.0550 
  6 C        0.0670     1.9180     1.2410 C.3   1 <1>   0.1160 
  7 C       -0.4810    -0.4070     1.4650 C.3   1 <1>   0.1160 
  8 C        3.4060     0.2700    -0.6550 C.3   1 <1>  -0.0800 
  9 C        4.7600     0.8230    -1.0700 C.3   1 <1>   0.2200 
 10 C        3.5170     0.2290     0.8740 C.3   1 <1>   0.1200 
 11 N        4.7660     2.2970    -0.9600 N.am  1 <1>  -0.7300 
 12 C        5.6500     0.2430     0.0210 C.3   1 <1>   0.1200 
 13 O        4.8800     0.2670     1.1840 O.3   1 <1>  -0.5600 
 14 C        5.2330     3.1780    -1.8780 C.2   1 <1>   0.5690 
 15 O        5.6550     2.8130    -2.9490 O.2   1 <1>  -0.5700 
 16 C        5.2120     4.6710    -1.5550 C.3   1 <1>   0.2010 
 17 N        5.8720     5.0060    -0.2500 N.am  1 <1>  -0.4690 
 18 C        5.1950     4.7900     0.9400 C.2   1 <1>   0.6900 
 19 C        7.1660     5.5160    -0.2390 C.2   1 <1>  -0.0410 
 20 O        4.0840     4.2960     0.9680 O.2   1 <1>  -0.5700 
 21 N        5.8060     5.1210     2.1050 N.am  1 <1>  -0.4900 
 22 C        7.7680     5.8320     0.9330 C.2   1 <1>  -0.1240 
 23 C        7.0640     5.6350     2.1660 C.2   1 <1>   0.6160 
 24 C        9.1840     6.3920     0.9840 C.3   1 <1>  -0.1020 
 25 O        7.5210     5.9000     3.2590 O.2   1 <1>  -0.5700 
 26 H        2.2870     1.1030    -2.2710 H     1 <1>   0.0800 
 27 H        2.2150     2.0630    -0.8380 H     1 <1>   0.0800 
 28 H        0.0620     2.0170     2.3130 H     1 <1>   0.0800 
 29 H       -0.9150     2.1520     0.8630 H     1 <1>   0.0800 
 30 H        0.7700     2.6280     0.8420 H     1 <1>   0.0800 
 31 H       -0.5400    -0.2560     2.5290 H     1 <1>   0.0800 
 32 H       -0.1400    -1.4140     1.2870 H     1 <1>   0.0800 
 33 H       -1.4630    -0.2950     1.0340 H     1 <1>   0.0800 
 34 H        3.3400    -0.7470    -1.0030 H     1 <1>   0.0800 
 35 H        5.0630     0.5090    -2.0550 H     1 <1>   0.0800 
 36 H        3.0860    -0.6680     1.2850 H     1 <1>   0.0800 
 37 H        3.0620     1.0920     1.3290 H     1 <1>   0.0800 
 38 H        4.4780     2.6560    -0.0370 H     1 <1>   0.3700 
 39 H        6.5510     0.8110     0.1690 H     1 <1>   0.0800 
 40 H        5.8930    -0.7840    -0.1910 H     1 <1>   0.0800 
 41 H        4.1890     4.9990    -1.5280 H     1 <1>   0.0800 
 42 H        5.7040     5.2000    -2.3510 H     1 <1>   0.0800 
 43 H        7.6570     5.6440    -1.1900 H     1 <1>   0.1500 
 44 H        5.3180     4.9510     2.9760 H     1 <1>   0.3700 
 45 H        9.8140     5.7380     1.5610 H     1 <1>   0.0800 
 46 H        9.1770     7.3600     1.4530 H     1 <1>   0.0800 
 47 H        9.5990     6.4890    -0.0030 H     1 <1>   0.0800 
@<TRIPOS>BOND
  1   1   2  2   
  2   1   3  2   
  3   1   4  am  
  4   1   5  1   
  5   4   6  1   
  6   4   7  1   
  7   5   8  1   
  8   5  26  1   
  9   5  27  1   
 10   6  28  1   
 11   6  29  1   
 12   6  30  1   
 13   7  31  1   
 14   7  32  1   
 15   7  33  1   
 16   8   9  1   
 17   8  10  1   
 18   8  34  1   
 19   9  11  1   
 20   9  12  1   
 21   9  35  1   
 22  10  13  1   
 23  10  36  1   
 24  10  37  1   
 25  11  14  am  
 26  11  38  1   
 27  12  13  1   
 28  12  39  1   
 29  12  40  1   
 30  14  15  2   
 31  14  16  1   
 32  16  17  1   
 33  16  41  1   
 34  16  42  1   
 35  17  18  am  
 36  17  19  1   
 37  18  20  2   
 38  18  21  am  
 39  19  22  2   
 40  19  43  1   
 41  21  23  am  
 42  21  44  1   
 43  22  23  1   
 44  22  24  1   
 45  23  25  2   
 46  24  45  1   
 47  24  46  1   
 48  24  47  1   
@<TRIPOS>SUBSTRUCTURE
  1 ****  11 GROUP 4 **** **** 0

# MOE 2024.06 (io_trps.svl 2023.06)
