@<TRIPOS>MOLECULE
NONAME
44 45 1 0 0 
SMALL
USER_CHARGES


@<TRIPOS>ATOM
  1 S        0.1180    -0.7520    -0.1370 S.3   1 <1>  -0.0800 
  2 C       -1.3590     0.0990     0.2250 C.2   1 <1>  -0.1400 
  3 C        0.7010     0.6680    -0.9710 C.2   1 <1>   0.2280 
  4 C       -1.2780     1.3360    -0.2990 C.2   1 <1>   0.0460 
  5 C       -2.4150    -0.6470     1.0220 C.3   1 <1>   0.0200 
  6 N       -0.1100     1.6480    -0.9740 N.2   1 <1>  -0.5650 
  7 C       -2.3170     2.4350    -0.2410 C.3   1 <1>  -0.0590 
  8 C       -3.0690    -1.7410     0.1690 C.3   1 <1>  -0.1600 
  9 C       -4.1790    -2.4560     0.9380 C.3   1 <1>   0.1400 
 10 N       -4.7530    -3.5130     0.0810 N.am  1 <1>  -0.7300 
 11 C       -5.0080    -4.7960     0.4780 C.2   1 <1>   0.5690 
 12 O       -4.7850    -5.1470     1.6180 O.2   1 <1>  -0.5700 
 13 C       -5.5920    -5.8310    -0.5340 C.3   1 <1>   0.3610 
 14 N       -5.7900    -7.1280     0.1600 N.am  1 <1>  -0.7300 
 15 C       -4.6070    -6.0430    -1.6940 C.3   1 <1>  -0.2400 
 16 C       -6.9520    -5.3450    -1.0590 C.3   1 <1>  -0.2400 
 17 C       -6.2660    -8.3260    -0.2830 C.2   1 <1>   0.7150 
 18 O       -6.6150    -8.4390    -1.4430 O.2   1 <1>  -0.5700 
 19 C       -6.3400    -9.4280     0.6430 C.2   1 <1>  -0.0450 
 20 S       -6.9520   -10.9890     0.0780 S.3   1 <1>  -0.0800 
 21 C       -6.0190    -9.5450     1.9590 C.2   1 <1>  -0.1500 
 22 C       -6.7440   -11.7260     1.6510 C.2   1 <1>  -0.1100 
 23 C       -6.2450   -10.8340     2.5250 C.2   1 <1>  -0.1500 
 24 H        1.6810     0.6120    -1.4110 H     1 <1>   0.1500 
 25 H       -3.1650     0.0450     1.3570 H     1 <1>   0.0800 
 26 H       -1.9550    -1.0820     1.8930 H     1 <1>   0.0800 
 27 H       -3.1960     2.1120     0.2840 H     1 <1>   0.0800 
 28 H       -2.5930     2.7200    -1.2400 H     1 <1>   0.0800 
 29 H       -1.9050     3.2910     0.2610 H     1 <1>   0.0800 
 30 H       -2.3210    -2.4600    -0.1180 H     1 <1>   0.0800 
 31 H       -3.4760    -1.2930    -0.7200 H     1 <1>   0.0800 
 32 H       -4.9560    -1.7600     1.2080 H     1 <1>   0.0800 
 33 H       -3.7820    -2.8900     1.8410 H     1 <1>   0.0800 
 34 H       -4.9630    -3.2350    -0.8790 H     1 <1>   0.3700 
 35 H       -5.4950    -7.0550     1.1380 H     1 <1>   0.3700 
 36 H       -3.6740    -6.4230    -1.3200 H     1 <1>   0.0800 
 37 H       -4.4160    -5.1150    -2.2000 H     1 <1>   0.0800 
 38 H       -5.0030    -6.7340    -2.4160 H     1 <1>   0.0800 
 39 H       -7.6440    -5.2380    -0.2440 H     1 <1>   0.0800 
 40 H       -7.3590    -6.0370    -1.7750 H     1 <1>   0.0800 
 41 H       -6.8500    -4.3930    -1.5450 H     1 <1>   0.0800 
 42 H       -5.6210    -8.7510     2.5670 H     1 <1>   0.1500 
 43 H       -7.0200   -12.7600     1.7560 H     1 <1>   0.1500 
 44 H       -6.0240   -11.0330     3.5590 H     1 <1>   0.1500 
@<TRIPOS>BOND
  1   1   2  1   
  2   1   3  1   
  3   2   4  2   
  4   2   5  1   
  5   3   6  2   
  6   3  24  1   
  7   4   6  1   
  8   4   7  1   
  9   5   8  1   
 10   5  25  1   
 11   5  26  1   
 12   7  27  1   
 13   7  28  1   
 14   7  29  1   
 15   8   9  1   
 16   8  30  1   
 17   8  31  1   
 18   9  10  1   
 19   9  32  1   
 20   9  33  1   
 21  10  11  am  
 22  10  34  1   
 23  11  12  2   
 24  11  13  1   
 25  13  14  1   
 26  13  15  1   
 27  13  16  1   
 28  14  17  am  
 29  14  35  1   
 30  15  36  1   
 31  15  37  1   
 32  15  38  1   
 33  16  39  1   
 34  16  40  1   
 35  16  41  1   
 36  17  18  2   
 37  17  19  1   
 38  19  20  1   
 39  19  21  2   
 40  20  22  1   
 41  21  23  1   
 42  21  42  1   
 43  22  23  2   
 44  22  43  1   
 45  23  44  1   
@<TRIPOS>SUBSTRUCTURE
  1 ****  11 GROUP 4 **** **** 0

# MOE 2024.06 (io_trps.svl 2023.06)
