@<TRIPOS>MOLECULE
NONAME
47 51 1 0 0 
SMALL
USER_CHARGES


@<TRIPOS>ATOM
  1 CL      -0.1550    -0.6720     1.6290 Cl    1 <1>  -0.1770 
  2 C        1.4150    -1.3200     1.1850 C.ar  1 <1>   0.1770 
  3 C        1.5730    -2.6670     0.8810 C.ar  1 <1>   0.4100 
  4 C        2.5110    -0.5050     1.1280 C.ar  1 <1>   0.1600 
  5 N        2.7630    -3.1330     0.5500 N.ar  1 <1>  -0.6200 
  6 N        0.5010    -3.5360     0.9270 N.pl3 1 <1>  -0.8690 
  7 N        3.7050    -0.9660     0.7950 N.ar  1 <1>  -0.6200 
  8 C        3.7540    -2.2600     0.5260 C.ar  1 <1>   0.4770 
  9 C        0.3770    -4.9110     0.4130 C.3   1 <1>   0.3690 
 10 C        5.1120    -2.7990     0.1470 C.3   1 <1>  -0.0960 
 11 C       -1.0910    -5.3170     0.6040 C.3   1 <1>  -0.1600 
 12 C        0.7180    -4.9820    -1.0870 C.3   1 <1>  -0.1600 
 13 C        1.2660    -5.8830     1.2080 C.3   1 <1>  -0.1600 
 14 C       -1.3340    -6.7560     0.0910 C.3   1 <1>   0.2560 
 15 C        0.5180    -6.4190    -1.6070 C.3   1 <1>  -0.0800 
 16 C        1.0670    -7.3200     0.6930 C.3   1 <1>  -0.0800 
 17 N       -2.7880    -7.1200     0.2590 N.pl3 1 <1>   0.5800 
 18 C       -0.9530    -6.8240    -1.4070 C.3   1 <1>  -0.1600 
 19 C       -0.4070    -7.7200     0.8780 C.3   1 <1>  -0.1600 
 20 C        1.4210    -7.3760    -0.8060 C.3   1 <1>  -0.1600 
 21 N       -3.2250    -8.2320     0.8430 N.2   1 <1>  -0.4180 
 22 N       -3.7780    -6.3570    -0.1810 N.2   1 <1>  -0.7070 
 23 N       -4.4970    -8.1890     0.7860 N.2   1 <1>  -0.2270 
 24 C       -4.7900    -7.0550     0.1670 C.2   1 <1>   0.3350 
 25 C       -6.2180    -6.6420    -0.0960 C.3   1 <1>  -0.0590 
 26 H        2.4150     0.5420     1.3580 H     1 <1>   0.1500 
 27 H       -0.4010    -3.1120     1.1560 H     1 <1>   0.4000 
 28 H        5.0590    -3.8530    -0.0560 H     1 <1>   0.0800 
 29 H        5.8010    -2.6320     0.9530 H     1 <1>   0.0800 
 30 H        5.4660    -2.2910    -0.7300 H     1 <1>   0.0800 
 31 H       -1.7180    -4.6330     0.0590 H     1 <1>   0.0800 
 32 H       -1.3470    -5.2640     1.6470 H     1 <1>   0.0800 
 33 H        1.7420    -4.6980    -1.2480 H     1 <1>   0.0800 
 34 H        0.0940    -4.3010    -1.6380 H     1 <1>   0.0800 
 35 H        1.0230    -5.8280     2.2540 H     1 <1>   0.0800 
 36 H        2.3000    -5.6160     1.0940 H     1 <1>   0.0800 
 37 H        0.7730    -6.4660    -2.6520 H     1 <1>   0.0800 
 38 H        1.7010    -7.9950     1.2440 H     1 <1>   0.0800 
 39 H       -1.5850    -6.1620    -1.9750 H     1 <1>   0.0800 
 40 H       -1.1040    -7.8240    -1.7760 H     1 <1>   0.0800 
 41 H       -0.5450    -8.7290     0.5290 H     1 <1>   0.0800 
 42 H       -0.6550    -7.6940     1.9250 H     1 <1>   0.0800 
 43 H        2.4530    -7.1020    -0.9440 H     1 <1>   0.0800 
 44 H        1.3030    -8.3820    -1.1710 H     1 <1>   0.0800 
 45 H       -6.2400    -5.6980    -0.6080 H     1 <1>   0.0800 
 46 H       -6.7430    -6.5500     0.8360 H     1 <1>   0.0800 
 47 H       -6.7010    -7.3840    -0.7040 H     1 <1>   0.0800 
@<TRIPOS>BOND
  1   1   2  1   
  2   2   3  ar  
  3   2   4  ar  
  4   3   5  ar  
  5   3   6  1   
  6   4   7  ar  
  7   4  26  1   
  8   5   8  ar  
  9   6   9  1   
 10   6  27  1   
 11   7   8  ar  
 12   8  10  1   
 13   9  11  1   
 14   9  12  1   
 15   9  13  1   
 16  10  28  1   
 17  10  29  1   
 18  10  30  1   
 19  11  14  1   
 20  11  31  1   
 21  11  32  1   
 22  12  15  1   
 23  12  33  1   
 24  12  34  1   
 25  13  16  1   
 26  13  35  1   
 27  13  36  1   
 28  14  17  1   
 29  14  18  1   
 30  14  19  1   
 31  15  18  1   
 32  15  20  1   
 33  15  37  1   
 34  16  19  1   
 35  16  20  1   
 36  16  38  1   
 37  17  21  1   
 38  17  22  1   
 39  18  39  1   
 40  18  40  1   
 41  19  41  1   
 42  19  42  1   
 43  20  43  1   
 44  20  44  1   
 45  21  23  2   
 46  22  24  2   
 47  23  24  1   
 48  24  25  1   
 49  25  45  1   
 50  25  46  1   
 51  25  47  1   
@<TRIPOS>SUBSTRUCTURE
  1 ****   9 GROUP 4 **** **** 0

# MOE 2024.06 (io_trps.svl 2023.06)
