@<TRIPOS>MOLECULE
NONAME
54 55 1 0 0 
SMALL
USER_CHARGES


@<TRIPOS>ATOM
  1 O        0.0320     0.2160     0.7590 O.2   1 <1>  -0.5700 
  2 C        0.9490    -0.5480     0.5290 C.2   1 <1>   0.5440 
  3 N        2.2010    -0.0220     0.3830 N.am  1 <1>  -0.7300 
  4 C        0.7290    -1.9780     0.4260 C.ar  1 <1>   0.0860 
  5 C        2.5280     1.4200     0.4670 C.3   1 <1>   0.1400 
  6 C       -0.3410    -2.5910     1.0810 C.ar  1 <1>  -0.1500 
  7 C        1.5660    -2.8070    -0.3250 C.ar  1 <1>  -0.1500 
  8 C        4.0300     1.6940     0.2230 C.3   1 <1>   0.0000 
  9 C       -0.5550    -3.9540     1.0050 C.ar  1 <1>  -0.1500 
 10 C        1.3530    -4.1700    -0.4020 C.ar  1 <1>  -0.1500 
 11 C        4.9040     0.9980     1.2970 C.3   1 <1>  -0.1600 
 12 C        4.4930     1.1020    -1.1310 C.3   1 <1>  -0.1600 
 13 C        4.2180     3.2290     0.2550 C.3   1 <1>   0.1200 
 14 C        0.2910    -4.7710     0.2630 C.ar  1 <1>   0.1170 
 15 C        5.9620     0.1950     0.5420 C.3   1 <1>  -0.1600 
 16 C        5.3250    -0.1360    -0.8000 C.3   1 <1>  -0.1600 
 17 O        5.5640     3.5720     0.1100 O.3   1 <1>  -0.5600 
 18 N        0.1300    -6.1540     0.1490 N.am  1 <1>  -0.5470 
 19 C        5.8050     4.9410     0.1280 C.3   1 <1>   0.0400 
 20 C       -0.7930    -7.0430     0.6240 C.2   1 <1>   0.5690 
 21 O       -1.7470    -6.7480     1.3020 O.2   1 <1>  -0.5700 
 22 C       -0.5610    -8.5090     0.2520 C.3   1 <1>   0.1710 
 23 N        0.3420    -8.6950    -0.9290 N.3   1 <1>  -0.8100 
 24 C        0.8840   -10.0580    -0.9560 C.3   1 <1>   0.0300 
 25 C       -0.3710    -8.4130    -2.1850 C.3   1 <1>   0.0300 
 26 H        3.0120    -0.6360     0.3090 H     1 <1>   0.3700 
 27 H        2.2430     1.7820     1.4400 H     1 <1>   0.0800 
 28 H        1.9370     1.9450    -0.2650 H     1 <1>   0.0800 
 29 H       -1.0120    -1.9800     1.6600 H     1 <1>   0.1500 
 30 H        2.3910    -2.3770    -0.8630 H     1 <1>   0.1500 
 31 H       -1.3910    -4.3790     1.5300 H     1 <1>   0.1500 
 32 H        2.0180    -4.7790    -0.9880 H     1 <1>   0.1500 
 33 H        4.3180     0.3280     1.9020 H     1 <1>   0.0800 
 34 H        5.3740     1.7060     1.9580 H     1 <1>   0.0800 
 35 H        5.1310     1.8030    -1.6420 H     1 <1>   0.0800 
 36 H        3.6730     0.8660    -1.7860 H     1 <1>   0.0800 
 37 H        3.8730     3.6230     1.1950 H     1 <1>   0.0800 
 38 H        3.6650     3.6860    -0.5480 H     1 <1>   0.0800 
 39 H        6.2670    -0.6860     1.0800 H     1 <1>   0.0800 
 40 H        6.8230     0.8220     0.3770 H     1 <1>   0.0800 
 41 H        6.0650    -0.3330    -1.5560 H     1 <1>   0.0800 
 42 H        4.6870    -0.9960    -0.7000 H     1 <1>   0.0800 
 43 H        0.8090    -6.6460    -0.4420 H     1 <1>   0.3700 
 44 H        6.8640     5.0940     0.0100 H     1 <1>   0.0800 
 45 H        5.4830     5.3470     1.0710 H     1 <1>   0.0800 
 46 H        5.2790     5.4050    -0.6880 H     1 <1>   0.0800 
 47 H       -1.5110    -8.9800     0.0710 H     1 <1>   0.0800 
 48 H       -0.1210    -8.9800     1.1130 H     1 <1>   0.0800 
 49 H        1.4480   -10.2480    -0.0590 H     1 <1>   0.0800 
 50 H        1.5450   -10.1730    -1.7990 H     1 <1>   0.0800 
 51 H        0.0900   -10.7810    -1.0330 H     1 <1>   0.0800 
 52 H       -0.7550    -7.4070    -2.1840 H     1 <1>   0.0800 
 53 H       -1.1930    -9.0980    -2.3150 H     1 <1>   0.0800 
 54 H        0.3020    -8.5160    -3.0190 H     1 <1>   0.0800 
@<TRIPOS>BOND
  1   1   2  2   
  2   2   3  am  
  3   2   4  1   
  4   3   5  1   
  5   3  26  1   
  6   4   6  ar  
  7   4   7  ar  
  8   5   8  1   
  9   5  27  1   
 10   5  28  1   
 11   6   9  ar  
 12   6  29  1   
 13   7  10  ar  
 14   7  30  1   
 15   8  11  1   
 16   8  12  1   
 17   8  13  1   
 18   9  14  ar  
 19   9  31  1   
 20  10  14  ar  
 21  10  32  1   
 22  11  15  1   
 23  11  33  1   
 24  11  34  1   
 25  12  16  1   
 26  12  35  1   
 27  12  36  1   
 28  13  17  1   
 29  13  37  1   
 30  13  38  1   
 31  14  18  1   
 32  15  16  1   
 33  15  39  1   
 34  15  40  1   
 35  16  41  1   
 36  16  42  1   
 37  17  19  1   
 38  18  20  am  
 39  18  43  1   
 40  19  44  1   
 41  19  45  1   
 42  19  46  1   
 43  20  21  2   
 44  20  22  1   
 45  22  23  1   
 46  22  47  1   
 47  22  48  1   
 48  23  24  1   
 49  23  25  1   
 50  24  49  1   
 51  24  50  1   
 52  24  51  1   
 53  25  52  1   
 54  25  53  1   
 55  25  54  1   
@<TRIPOS>SUBSTRUCTURE
  1 ****   7 GROUP 4 **** **** 0

# MOE 2024.06 (io_trps.svl 2023.06)
