@<TRIPOS>MOLECULE
NONAME
61 63 1 0 0 
SMALL
USER_CHARGES


@<TRIPOS>ATOM
  1 O        0.8100    -0.2990     1.0130 O.2   1 <1>  -0.5700 
  2 C        1.5940    -0.6360     0.1580 C.2   1 <1>   0.5690 
  3 N        2.3750     0.2990    -0.4860 N.am  1 <1>  -0.6600 
  4 C        1.6420    -2.1470    -0.1650 C.3   1 <1>   0.4040 
  5 C        3.6060    -0.0030    -1.2920 C.3   1 <1>   0.1400 
  6 C        1.9100     1.7210    -0.5270 C.3   1 <1>   0.1400 
  7 N        0.3640    -2.8730     0.1940 N.4   1 <1>  -0.9590 
  8 C        4.8030     0.9240    -0.9670 C.3   1 <1>   0.3430 
  9 C        2.5230     2.5300     0.6190 C.3   1 <1>  -0.1600 
 10 C        0.5740    -4.3400     0.3310 C.3   1 <1>   0.3430 
 11 C       -0.7540    -2.4870    -0.7170 C.3   1 <1>   0.3430 
 12 N        4.7590     1.4700     0.4340 N.4   1 <1>  -0.9590 
 13 C        4.0270     2.7660     0.5010 C.3   1 <1>   0.3430 
 14 C       -0.6220    -5.0380     0.9830 C.3   1 <1>  -0.1600 
 15 C       -2.0760    -2.5280     0.0480 C.3   1 <1>  -0.1600 
 16 C        6.1030     1.5470     1.1080 C.3   1 <1>   0.3430 
 17 C       -1.8460    -5.1330     0.0610 C.3   1 <1>  -0.1600 
 18 C       -2.7640    -3.9030     0.0980 C.3   1 <1>  -0.1600 
 19 C        7.2460     2.1460     0.2620 C.3   1 <1>  -0.0800 
 20 C        8.5430     2.0660     1.0820 C.3   1 <1>   0.1200 
 21 C        7.0220     3.6020    -0.1970 C.3   1 <1>  -0.1600 
 22 O        9.5960     2.5320     0.3050 O.3   1 <1>  -0.5600 
 23 C        8.2910     4.1450    -0.8700 C.3   1 <1>  -0.1600 
 24 C        9.5350     3.8880    -0.0120 C.3   1 <1>   0.1200 
 25 H        2.4570    -2.5720     0.3950 H     1 <1>   0.0800 
 26 H        1.8480    -2.2770    -1.2130 H     1 <1>   0.0800 
 27 H        3.3770     0.0810    -2.3410 H     1 <1>   0.0800 
 28 H        3.9170    -1.0170    -1.1140 H     1 <1>   0.0800 
 29 H        0.8360     1.7480    -0.4310 H     1 <1>   0.0800 
 30 H        2.1540     2.1670    -1.4780 H     1 <1>   0.0800 
 31 H        0.0930    -2.4980     1.1190 H     1 <1>   0.4500 
 32 H        4.8210     1.7410    -1.6700 H     1 <1>   0.0800 
 33 H        5.7090     0.3600    -1.1150 H     1 <1>   0.0800 
 34 H        2.2900     2.0630     1.5600 H     1 <1>   0.0800 
 35 H        2.0450     3.4940     0.6320 H     1 <1>   0.0800 
 36 H        1.4410    -4.5180     0.9470 H     1 <1>   0.0800 
 37 H        0.7590    -4.7790    -0.6360 H     1 <1>   0.0800 
 38 H       -0.7940    -3.1310    -1.5800 H     1 <1>   0.0800 
 39 H       -0.6040    -1.4740    -1.0550 H     1 <1>   0.0800 
 40 H        4.1700     0.8230     0.9790 H     1 <1>   0.4500 
 41 H        4.3530     3.3250     1.3640 H     1 <1>   0.0800 
 42 H        4.2350     3.3580    -0.3760 H     1 <1>   0.0800 
 43 H       -0.8760    -4.5750     1.9210 H     1 <1>   0.0800 
 44 H       -0.3100    -6.0440     1.2080 H     1 <1>   0.0800 
 45 H       -2.7570    -1.8460    -0.4310 H     1 <1>   0.0800 
 46 H       -1.9280    -2.1530     1.0460 H     1 <1>   0.0800 
 47 H        6.4000     0.5500     1.3920 H     1 <1>   0.0800 
 48 H        6.0110     2.1190     2.0180 H     1 <1>   0.0800 
 49 H       -2.4350    -5.9840     0.3620 H     1 <1>   0.0800 
 50 H       -1.5290    -5.3240    -0.9500 H     1 <1>   0.0800 
 51 H       -3.4460    -3.9800    -0.7320 H     1 <1>   0.0800 
 52 H       -3.3660    -3.9440     0.9910 H     1 <1>   0.0800 
 53 H        7.4060     1.5250    -0.6010 H     1 <1>   0.0800 
 54 H        8.7720     1.0470     1.3460 H     1 <1>   0.0800 
 55 H        8.4930     2.6580     1.9810 H     1 <1>   0.0800 
 56 H        6.7900     4.2220     0.6530 H     1 <1>   0.0800 
 57 H        6.2160     3.6670    -0.9030 H     1 <1>   0.0800 
 58 H        8.1930     5.2020    -1.0470 H     1 <1>   0.0800 
 59 H        8.4360     3.6680    -1.8240 H     1 <1>   0.0800 
 60 H       10.4300     4.1400    -0.5560 H     1 <1>   0.0800 
 61 H        9.5110     4.4580     0.9020 H     1 <1>   0.0800 
@<TRIPOS>BOND
  1   1   2  2   
  2   2   3  am  
  3   2   4  1   
  4   3   5  1   
  5   3   6  1   
  6   4   7  1   
  7   4  25  1   
  8   4  26  1   
  9   5   8  1   
 10   5  27  1   
 11   5  28  1   
 12   6   9  1   
 13   6  29  1   
 14   6  30  1   
 15   7  10  1   
 16   7  11  1   
 17   7  31  1   
 18   8  12  1   
 19   8  32  1   
 20   8  33  1   
 21   9  13  1   
 22   9  34  1   
 23   9  35  1   
 24  10  14  1   
 25  10  36  1   
 26  10  37  1   
 27  11  15  1   
 28  11  38  1   
 29  11  39  1   
 30  12  13  1   
 31  12  16  1   
 32  12  40  1   
 33  13  41  1   
 34  13  42  1   
 35  14  17  1   
 36  14  43  1   
 37  14  44  1   
 38  15  18  1   
 39  15  45  1   
 40  15  46  1   
 41  16  19  1   
 42  16  47  1   
 43  16  48  1   
 44  17  18  1   
 45  17  49  1   
 46  17  50  1   
 47  18  51  1   
 48  18  52  1   
 49  19  20  1   
 50  19  21  1   
 51  19  53  1   
 52  20  22  1   
 53  20  54  1   
 54  20  55  1   
 55  21  23  1   
 56  21  56  1   
 57  21  57  1   
 58  22  24  1   
 59  23  24  1   
 60  23  58  1   
 61  23  59  1   
 62  24  60  1   
 63  24  61  1   
@<TRIPOS>SUBSTRUCTURE
  1 ****   3 GROUP 4 **** **** 0

# MOE 2024.06 (io_trps.svl 2023.06)
