@<TRIPOS>MOLECULE
NONAME
37 38 1 0 0 
SMALL
USER_CHARGES


@<TRIPOS>ATOM
  1 O       -0.3310     0.3990    -0.5010 O.2   1 <1>  -0.5700 
  2 C       -1.4730     0.0450    -0.3610 C.2   1 <1>   0.5690 
  3 N       -1.8770    -1.2320    -0.3570 N.am  1 <1>  -0.7300 
  4 C       -2.6520     0.9710    -0.1780 C.3   1 <1>  -0.0190 
  5 C       -3.3210    -1.4070    -0.1830 C.3   1 <1>   0.1400 
  6 C       -2.3940     2.0480     0.8930 C.3   1 <1>   0.0000 
  7 C       -3.7970     0.0020     0.2010 C.3   1 <1>  -0.1600 
  8 C       -3.5150     3.1060     1.0160 C.3   1 <1>   0.2250 
  9 C       -1.4870     3.2070     0.4160 C.3   1 <1>   0.2250 
 10 N       -2.7370     3.9520     0.0590 N.am  1 <1>  -0.5100 
 11 C       -2.8310     5.3050    -0.0060 C.2   1 <1>   0.7800 
 12 O       -3.8500     5.8930     0.3020 O.2   1 <1>  -0.5700 
 13 O       -1.7440     5.9580    -0.4230 O.3   1 <1>  -0.4300 
 14 C       -1.5900     7.3520    -0.5760 C.3   1 <1>   0.2800 
 15 C       -1.7480     8.0540     0.7780 C.3   1 <1>  -0.2400 
 16 C       -0.1590     7.5410    -1.0790 C.3   1 <1>  -0.2400 
 17 C       -2.5710     7.8810    -1.6290 C.3   1 <1>  -0.2400 
 18 H       -1.2270    -2.0070    -0.5030 H     1 <1>   0.3700 
 19 H       -2.8620     1.4240    -1.1310 H     1 <1>   0.0800 
 20 H       -3.5300    -2.1230     0.5940 H     1 <1>   0.0800 
 21 H       -3.7610    -1.7270    -1.1130 H     1 <1>   0.0800 
 22 H       -2.0950     1.6390     1.8420 H     1 <1>   0.0000 
 23 H       -4.7160     0.2540    -0.2980 H     1 <1>   0.0800 
 24 H       -3.9690     0.0230     1.2640 H     1 <1>   0.0800 
 25 H       -3.5750     3.5640     1.9880 H     1 <1>   0.0000 
 26 H       -4.4620     2.8020     0.6080 H     1 <1>   0.0000 
 27 H       -0.8910     2.9870    -0.4520 H     1 <1>   0.0000 
 28 H       -0.9520     3.6960     1.2110 H     1 <1>   0.0000 
 29 H       -1.0970     7.6090     1.5080 H     1 <1>   0.0800 
 30 H       -2.7620     8.0010     1.1270 H     1 <1>   0.0800 
 31 H       -1.4930     9.0930     0.6830 H     1 <1>   0.0800 
 32 H        0.5420     7.1500    -0.3630 H     1 <1>   0.0800 
 33 H        0.0520     8.5840    -1.2270 H     1 <1>   0.0800 
 34 H       -0.0230     7.0310    -2.0160 H     1 <1>   0.0800 
 35 H       -3.5850     7.8280    -1.2770 H     1 <1>   0.0800 
 36 H       -2.4820     7.3160    -2.5390 H     1 <1>   0.0800 
 37 H       -2.3560     8.9120    -1.8440 H     1 <1>   0.0800 
@<TRIPOS>BOND
  1   1   2  2   
  2   2   3  am  
  3   2   4  1   
  4   3   5  1   
  5   3  18  1   
  6   4   6  1   
  7   4   7  1   
  8   4  19  1   
  9   5   7  1   
 10   5  20  1   
 11   5  21  1   
 12   6   8  1   
 13   6   9  1   
 14   6  22  1   
 15   7  23  1   
 16   7  24  1   
 17   8  10  1   
 18   8  25  1   
 19   8  26  1   
 20   9  10  1   
 21   9  27  1   
 22   9  28  1   
 23  10  11  am  
 24  11  12  2   
 25  11  13  1   
 26  13  14  1   
 27  14  15  1   
 28  14  16  1   
 29  14  17  1   
 30  15  29  1   
 31  15  30  1   
 32  15  31  1   
 33  16  32  1   
 34  16  33  1   
 35  16  34  1   
 36  17  35  1   
 37  17  36  1   
 38  17  37  1   
@<TRIPOS>SUBSTRUCTURE
  1 ****  10 GROUP 4 **** **** 0

# MOE 2024.06 (io_trps.svl 2023.06)
