@<TRIPOS>MOLECULE
NONAME
47 49 1 0 0 
SMALL
USER_CHARGES


@<TRIPOS>ATOM
  1 F       -2.2280    -1.6520     1.4170 F     1 <1>  -0.1900 
  2 C       -2.4770    -0.3760     1.2440 C.ar  1 <1>   0.1900 
  3 C       -2.2110     0.5150     2.2720 C.ar  1 <1>   0.1900 
  4 C       -3.0040     0.0630     0.0370 C.ar  1 <1>  -0.1440 
  5 F       -1.7220     0.0870     3.4070 F     1 <1>  -0.1900 
  6 C       -2.4570     1.8660     2.1220 C.ar  1 <1>  -0.1500 
  7 C       -3.2470     1.4250    -0.1130 C.ar  1 <1>  -0.1500 
  8 C       -3.3030    -0.9120    -1.0910 C.3   1 <1>   0.2540 
  9 C       -2.9780     2.3170     0.9180 C.ar  1 <1>  -0.1500 
 10 N       -4.4580    -1.7590    -0.7400 N.3   1 <1>  -0.8100 
 11 C       -5.7330    -1.0140    -0.6130 C.3   1 <1>   0.1100 
 12 C       -4.6080    -2.9130    -1.6530 C.3   1 <1>   0.1100 
 13 C       -6.8690    -1.9110    -0.0510 C.3   1 <1>   0.4230 
 14 C       -5.8250    -3.7980    -1.2870 C.3   1 <1>   0.3430 
 15 N       -6.4530    -3.3640     0.0100 N.4   1 <1>  -0.9590 
 16 C       -8.1800    -1.7440    -0.8520 C.3   1 <1>   0.1200 
 17 C       -7.5870    -4.2080     0.5080 C.3   1 <1>   0.4230 
 18 O       -9.1800    -2.5820    -0.3440 O.3   1 <1>  -0.5600 
 19 C       -8.8690    -3.9500    -0.3210 C.3   1 <1>   0.1200 
 20 C       -7.1820    -5.6900     0.5450 C.3   1 <1>  -0.1600 
 21 C       -8.1600    -6.5450     1.3670 C.3   1 <1>  -0.1600 
 22 C       -7.6800    -7.9970     1.4460 C.3   1 <1>  -0.2400 
 23 H       -2.2440     2.5460     2.9280 H     1 <1>   0.1500 
 24 H       -3.6480     1.8040    -1.0370 H     1 <1>   0.1500 
 25 H       -2.4350    -1.5330    -1.2440 H     1 <1>   0.0800 
 26 H       -3.4970    -0.3810    -2.0080 H     1 <1>   0.0800 
 27 H       -3.1730     3.3680     0.7830 H     1 <1>   0.1500 
 28 H       -5.6080    -0.1810     0.0570 H     1 <1>   0.0800 
 29 H       -6.0120    -0.6130    -1.5730 H     1 <1>   0.0800 
 30 H       -4.7110    -2.5710    -2.6690 H     1 <1>   0.0800 
 31 H       -3.7170    -3.5160    -1.6030 H     1 <1>   0.0800 
 32 H       -7.0720    -1.5730     0.9520 H     1 <1>   0.0800 
 33 H       -5.4950    -4.8210    -1.2170 H     1 <1>   0.0800 
 34 H       -6.5520    -3.7430    -2.0800 H     1 <1>   0.0800 
 35 H       -5.6770    -3.3710     0.6890 H     1 <1>   0.4500 
 36 H       -8.0350    -1.9740    -1.8930 H     1 <1>   0.0800 
 37 H       -8.5360    -0.7320    -0.7720 H     1 <1>   0.0800 
 38 H       -7.8050    -3.9100     1.5210 H     1 <1>   0.0800 
 39 H       -9.7070    -4.4570     0.1210 H     1 <1>   0.0800 
 40 H       -8.7570    -4.2970    -1.3330 H     1 <1>   0.0800 
 41 H       -7.1350    -6.0890    -0.4530 H     1 <1>   0.0800 
 42 H       -6.2090    -5.7740     0.9970 H     1 <1>   0.0800 
 43 H       -8.2440    -6.1520     2.3670 H     1 <1>   0.0800 
 44 H       -9.1410    -6.5350     0.9210 H     1 <1>   0.0800 
 45 H       -6.7160    -8.0550     1.9210 H     1 <1>   0.0800 
 46 H       -7.6100    -8.4310     0.4640 H     1 <1>   0.0800 
 47 H       -8.3750    -8.5820     2.0240 H     1 <1>   0.0800 
@<TRIPOS>BOND
  1   1   2  1   
  2   2   3  ar  
  3   2   4  ar  
  4   3   5  1   
  5   3   6  ar  
  6   4   7  ar  
  7   4   8  1   
  8   6   9  ar  
  9   6  23  1   
 10   7   9  ar  
 11   7  24  1   
 12   8  10  1   
 13   8  25  1   
 14   8  26  1   
 15   9  27  1   
 16  10  11  1   
 17  10  12  1   
 18  11  13  1   
 19  11  28  1   
 20  11  29  1   
 21  12  14  1   
 22  12  30  1   
 23  12  31  1   
 24  13  15  1   
 25  13  16  1   
 26  13  32  1   
 27  14  15  1   
 28  14  33  1   
 29  14  34  1   
 30  15  17  1   
 31  15  35  1   
 32  16  18  1   
 33  16  36  1   
 34  16  37  1   
 35  17  19  1   
 36  17  20  1   
 37  17  38  1   
 38  18  19  1   
 39  19  39  1   
 40  19  40  1   
 41  20  21  1   
 42  20  41  1   
 43  20  42  1   
 44  21  22  1   
 45  21  43  1   
 46  21  44  1   
 47  22  45  1   
 48  22  46  1   
 49  22  47  1   
@<TRIPOS>SUBSTRUCTURE
  1 ****  10 GROUP 4 **** **** 0

# MOE 2024.06 (io_trps.svl 2023.06)
