@<TRIPOS>MOLECULE
NONAME
49 51 1 0 0 
SMALL
USER_CHARGES


@<TRIPOS>ATOM
  1 S        0.6290     0.9560     0.6800 S.o2  1 <1>   1.3330 
  2 O        0.5840    -0.1560    -0.2390 O.2   1 <1>  -0.6500 
  3 O       -0.5750     1.6490     1.0660 O.2   1 <1>  -0.6500 
  4 N        1.6900     2.0940    -0.0100 N.am  1 <1>  -0.8490 
  5 C        1.4530     0.4560     2.1790 C.3   1 <1>  -0.1350 
  6 C        2.8410     1.4110    -0.6660 C.3   1 <1>   0.1960 
  7 C        0.9670     2.9230    -1.0000 C.3   1 <1>   0.1960 
  8 C        4.1140     2.2820    -0.7530 C.3   1 <1>   0.3430 
  9 C        1.5740     4.3230    -1.1430 C.3   1 <1>  -0.1600 
 10 N        3.8330     3.7140    -0.4500 N.4   1 <1>  -0.9590 
 11 C        3.0500     4.3720    -1.5210 C.3   1 <1>   0.3430 
 12 C        5.0700     4.4580    -0.0890 C.3   1 <1>   0.4860 
 13 C        4.7400     5.8710     0.3860 C.ar  1 <1>  -0.1440 
 14 C        5.4320     6.9850    -0.0980 C.ar  1 <1>  -0.1440 
 15 C        3.7390     6.0520     1.3350 C.ar  1 <1>  -0.1500 
 16 C        5.0810     8.2500     0.3530 C.ar  1 <1>  -0.1500 
 17 C        6.5840     6.8880    -1.1050 C.3   1 <1>   0.2390 
 18 C        3.4020     7.3170     1.7750 C.ar  1 <1>  -0.1500 
 19 C        4.0700     8.4180     1.2800 C.ar  1 <1>  -0.1500 
 20 N        7.7480     6.1690    -0.5370 N.pl3 1 <1>   0.3140 
 21 N        7.9260     4.8380    -0.7070 N.2   1 <1>  -0.7070 
 22 C        8.7570     6.7060     0.1770 C.2   1 <1>  -0.3020 
 23 C        9.0500     4.5760    -0.1080 C.2   1 <1>   0.1390 
 24 C        9.6140     5.7060     0.4690 C.2   1 <1>  -0.1500 
 25 H        0.8420    -0.2480     2.7080 H     1 <1>   0.0800 
 26 H        1.6140     1.3060     2.8130 H     1 <1>   0.0800 
 27 H        2.3940    -0.0080     1.9650 H     1 <1>   0.0800 
 28 H        2.5640     1.0710    -1.6510 H     1 <1>   0.0800 
 29 H        3.1090     0.5260    -0.1150 H     1 <1>   0.0800 
 30 H       -0.0560     3.0720    -0.6950 H     1 <1>   0.0800 
 31 H        0.9260     2.4240    -1.9560 H     1 <1>   0.0800 
 32 H        4.5600     2.1820    -1.7290 H     1 <1>   0.0800 
 33 H        4.8230     1.9020    -0.0360 H     1 <1>   0.0800 
 34 H        1.4160     4.8700    -0.2300 H     1 <1>   0.0800 
 35 H        1.0210     4.8430    -1.9050 H     1 <1>   0.0800 
 36 H        3.2040     3.6950     0.3670 H     1 <1>   0.4500 
 37 H        3.3450     5.4050    -1.6150 H     1 <1>   0.0800 
 38 H        3.2160     3.8840    -2.4680 H     1 <1>   0.0800 
 39 H        5.7030     4.5030    -0.9570 H     1 <1>   0.0800 
 40 H        5.6080     3.9420     0.6900 H     1 <1>   0.0800 
 41 H        3.2080     5.2160     1.7540 H     1 <1>   0.1500 
 42 H        5.5960     9.1250    -0.0070 H     1 <1>   0.1500 
 43 H        6.9120     7.8680    -1.3990 H     1 <1>   0.0800 
 44 H        6.2640     6.3710    -1.9900 H     1 <1>   0.0800 
 45 H        2.6220     7.4490     2.5070 H     1 <1>   0.1500 
 46 H        3.8090     9.4050     1.6220 H     1 <1>   0.1500 
 47 H        8.8120     7.7490     0.4340 H     1 <1>   0.1500 
 48 H        9.4920     3.5940    -0.0650 H     1 <1>   0.1500 
 49 H       10.5380     5.7450     1.0210 H     1 <1>   0.1500 
@<TRIPOS>BOND
  1   1   2  2   
  2   1   3  2   
  3   1   4  am  
  4   1   5  1   
  5   4   6  1   
  6   4   7  1   
  7   5  25  1   
  8   5  26  1   
  9   5  27  1   
 10   6   8  1   
 11   6  28  1   
 12   6  29  1   
 13   7   9  1   
 14   7  30  1   
 15   7  31  1   
 16   8  10  1   
 17   8  32  1   
 18   8  33  1   
 19   9  11  1   
 20   9  34  1   
 21   9  35  1   
 22  10  11  1   
 23  10  12  1   
 24  10  36  1   
 25  11  37  1   
 26  11  38  1   
 27  12  13  1   
 28  12  39  1   
 29  12  40  1   
 30  13  14  ar  
 31  13  15  ar  
 32  14  16  ar  
 33  14  17  1   
 34  15  18  ar  
 35  15  41  1   
 36  16  19  ar  
 37  16  42  1   
 38  17  20  1   
 39  17  43  1   
 40  17  44  1   
 41  18  19  ar  
 42  18  45  1   
 43  19  46  1   
 44  20  21  1   
 45  20  22  1   
 46  21  23  2   
 47  22  24  2   
 48  22  47  1   
 49  23  24  1   
 50  23  48  1   
 51  24  49  1   
@<TRIPOS>SUBSTRUCTURE
  1 ****  12 GROUP 4 **** **** 0

# MOE 2024.06 (io_trps.svl 2023.06)
