@<TRIPOS>MOLECULE
NONAME
56 59 1 0 0 
SMALL
USER_CHARGES


@<TRIPOS>ATOM
  1 O        0.8590    -0.4920    -1.2070 O.3   1 <1>  -0.5600 
  2 C        1.9020    -1.0470    -0.4420 C.3   1 <1>   0.4240 
  3 C       -0.4500    -0.8350    -0.8670 C.3   1 <1>   0.1200 
  4 C        1.6030    -2.4990    -0.0180 C.ar  1 <1>  -0.1440 
  5 C        3.1360    -1.0020    -1.3530 C.3   1 <1>  -0.1600 
  6 C        2.1160    -0.1370     0.7800 C.3   1 <1>  -0.1600 
  7 C       -0.6490    -2.3290    -1.1020 C.3   1 <1>  -0.0160 
  8 C        0.3970    -3.1090    -0.3320 C.ar  1 <1>  -0.1440 
  9 C        2.5420    -3.2320     0.6960 C.ar  1 <1>  -0.1500 
 10 C        3.5020     0.4340    -1.7230 C.3   1 <1>   0.2090 
 11 C        2.5070     1.2820     0.3650 C.3   1 <1>   0.2090 
 12 C        0.1440    -4.4150     0.0560 C.ar  1 <1>  -0.1500 
 13 C        2.3110    -4.5390     1.0910 C.ar  1 <1>   0.0820 
 14 N        3.7530     1.2130    -0.4670 N.pl3 1 <1>  -0.8380 
 15 C        1.0860    -5.1480     0.7750 C.ar  1 <1>   0.0820 
 16 O        3.3490    -5.1060     1.7730 O.3   1 <1>  -0.3630 
 17 C        4.9750     1.7110    -0.1260 C.ar  1 <1>   0.4610 
 18 O        0.8250    -6.4260     1.1810 O.3   1 <1>  -0.3630 
 19 C        3.5250    -6.5020     1.8560 C.3   1 <1>   0.0400 
 20 N        5.0470     2.6890     0.7940 N.ar  1 <1>  -0.1790 
 21 C        6.1940     1.2720    -0.6800 C.ar  1 <1>  -0.1500 
 22 C       -0.4320    -7.0390     0.9920 C.3   1 <1>   0.0400 
 23 C        6.2130     3.2640     1.1980 C.ar  1 <1>   0.2180 
 24 C        7.3950     1.8200    -0.3050 C.ar  1 <1>  -0.1430 
 25 C        7.3950     2.8390     0.6560 C.ar  1 <1>  -0.1500 
 26 C        6.1460     4.3670     2.2400 C.3   1 <1>  -0.0970 
 27 C        8.7140     1.3520    -0.8950 C.3   1 <1>  -0.0970 
 28 H       -1.1150    -0.2650    -1.4920 H     1 <1>   0.0800 
 29 H       -0.6280    -0.5800     0.1630 H     1 <1>   0.0800 
 30 H        2.9320    -1.5690    -2.2430 H     1 <1>   0.0800 
 31 H        3.9790    -1.4560    -0.8670 H     1 <1>   0.0800 
 32 H        2.8970    -0.5400     1.3970 H     1 <1>   0.0800 
 33 H        1.2230    -0.1170     1.3770 H     1 <1>   0.0800 
 34 H       -0.5630    -2.5420    -2.1530 H     1 <1>   0.0800 
 35 H       -1.6360    -2.6080    -0.7800 H     1 <1>   0.0800 
 36 H        3.4870    -2.7980     0.9630 H     1 <1>   0.1500 
 37 H        2.6860     0.8860    -2.2640 H     1 <1>   0.0800 
 38 H        4.3520     0.4430    -2.3790 H     1 <1>   0.0800 
 39 H        2.6480     1.8730     1.2500 H     1 <1>   0.0800 
 40 H        1.7120     1.7260    -0.2130 H     1 <1>   0.0800 
 41 H       -0.8000    -4.8450    -0.2130 H     1 <1>   0.1500 
 42 H        4.5250    -6.6940     2.1990 H     1 <1>   0.0800 
 43 H        3.3800    -6.9320     0.8800 H     1 <1>   0.0800 
 44 H        2.8160    -6.9000     2.5590 H     1 <1>   0.0800 
 45 H        4.1590     3.0110     1.1610 H     1 <1>   0.4570 
 46 H        6.1840     0.4770    -1.4010 H     1 <1>   0.1500 
 47 H       -0.3970    -8.0160     1.4400 H     1 <1>   0.0800 
 48 H       -0.6220    -7.1290    -0.0620 H     1 <1>   0.0800 
 49 H       -1.1870    -6.4440     1.4750 H     1 <1>   0.0800 
 50 H        8.3340     3.2750     0.9540 H     1 <1>   0.1500 
 51 H        5.5590     5.1920     1.8770 H     1 <1>   0.0800 
 52 H        7.1330     4.7330     2.4660 H     1 <1>   0.0800 
 53 H        5.7100     3.9980     3.1510 H     1 <1>   0.0800 
 54 H        8.5600     0.5700    -1.6180 H     1 <1>   0.0800 
 55 H        9.3540     0.9710    -0.1180 H     1 <1>   0.0800 
 56 H        9.2140     2.1700    -1.3830 H     1 <1>   0.0800 
@<TRIPOS>BOND
  1   1   2  1   
  2   1   3  1   
  3   2   4  1   
  4   2   5  1   
  5   2   6  1   
  6   3   7  1   
  7   3  28  1   
  8   3  29  1   
  9   4   8  ar  
 10   4   9  ar  
 11   5  10  1   
 12   5  30  1   
 13   5  31  1   
 14   6  11  1   
 15   6  32  1   
 16   6  33  1   
 17   7   8  1   
 18   7  34  1   
 19   7  35  1   
 20   8  12  ar  
 21   9  13  ar  
 22   9  36  1   
 23  10  14  1   
 24  10  37  1   
 25  10  38  1   
 26  11  14  1   
 27  11  39  1   
 28  11  40  1   
 29  12  15  ar  
 30  12  41  1   
 31  13  15  ar  
 32  13  16  1   
 33  14  17  1   
 34  15  18  1   
 35  16  19  1   
 36  17  20  ar  
 37  17  21  ar  
 38  18  22  1   
 39  19  42  1   
 40  19  43  1   
 41  19  44  1   
 42  20  23  ar  
 43  20  45  1   
 44  21  24  ar  
 45  21  46  1   
 46  22  47  1   
 47  22  48  1   
 48  22  49  1   
 49  23  25  ar  
 50  23  26  1   
 51  24  25  ar  
 52  24  27  1   
 53  25  50  1   
 54  26  51  1   
 55  26  52  1   
 56  26  53  1   
 57  27  54  1   
 58  27  55  1   
 59  27  56  1   
@<TRIPOS>SUBSTRUCTURE
  1 ****   2 GROUP 4 **** **** 0

# MOE 2024.06 (io_trps.svl 2023.06)
