@<TRIPOS>MOLECULE
NONAME
40 41 1 0 0 
SMALL
USER_CHARGES


@<TRIPOS>ATOM
  1 F       -0.4870     0.5070     0.2050 F     1 <1>  -0.3400 
  2 C       -1.2980    -0.4640     0.6030 C.3   1 <1>   0.6800 
  3 F       -1.9890     0.0660     1.6070 F     1 <1>  -0.3400 
  4 C       -0.4810    -1.6700     1.1110 C.3   1 <1>   0.1400 
  5 C       -2.2640    -0.8290    -0.5240 C.3   1 <1>  -0.1600 
  6 N       -1.2440    -2.9660     0.9970 N.am  1 <1>  -0.6600 
  7 C       -3.2780    -1.9240    -0.0750 C.3   1 <1>   0.0610 
  8 C       -0.6190    -4.1140     0.5830 C.2   1 <1>   0.7800 
  9 C       -2.7310    -2.8370     1.0570 C.3   1 <1>   0.1400 
 10 C       -3.7120    -2.8120    -1.2330 C.2   1 <1>   0.5690 
 11 C       -4.6380    -1.3090     0.3640 C.3   1 <1>  -0.1600 
 12 O        0.5880    -4.1710     0.4530 O.2   1 <1>  -0.5700 
 13 O       -1.3960    -5.1640     0.3150 O.3   1 <1>  -0.4300 
 14 O       -2.9760    -3.3060    -2.0500 O.2   1 <1>  -0.5700 
 15 N       -5.0430    -2.9750    -1.2310 N.am  1 <1>  -0.7300 
 16 C       -5.7360    -2.2390    -0.1730 C.3   1 <1>   0.1400 
 17 C       -1.0160    -6.3790    -0.2890 C.3   1 <1>   0.2800 
 18 C       -0.0560    -7.1480     0.6250 C.3   1 <1>  -0.2400 
 19 C       -2.3170    -7.1680    -0.4400 C.3   1 <1>  -0.2400 
 20 C       -0.4240    -6.1140    -1.6780 C.3   1 <1>  -0.2400 
 21 H       -0.1950    -1.5100     2.1340 H     1 <1>   0.0800 
 22 H        0.4090    -1.7420     0.5120 H     1 <1>   0.0800 
 23 H       -1.6650    -1.2260    -1.3240 H     1 <1>   0.0800 
 24 H       -2.7540     0.0520    -0.8950 H     1 <1>   0.0800 
 25 H       -2.9740    -2.4140     2.0160 H     1 <1>   0.0800 
 26 H       -3.2070    -3.8020     1.0150 H     1 <1>   0.0800 
 27 H       -4.7820    -0.3480    -0.0960 H     1 <1>   0.0800 
 28 H       -4.7220    -1.1740     1.4270 H     1 <1>   0.0800 
 29 H       -5.5220    -3.5460    -1.9320 H     1 <1>   0.3700 
 30 H       -6.5690    -1.6840    -0.5700 H     1 <1>   0.0800 
 31 H       -6.0730    -2.9270     0.5850 H     1 <1>   0.0800 
 32 H       -0.4780    -7.2520     1.6080 H     1 <1>   0.0800 
 33 H        0.8920    -6.6490     0.6980 H     1 <1>   0.0800 
 34 H        0.1230    -8.1290     0.2240 H     1 <1>   0.0800 
 35 H       -2.7640    -7.3400     0.5220 H     1 <1>   0.0800 
 36 H       -2.1260    -8.1190    -0.9030 H     1 <1>   0.0800 
 37 H       -3.0090    -6.6220    -1.0580 H     1 <1>   0.0800 
 38 H        0.5290    -5.6220    -1.6060 H     1 <1>   0.0800 
 39 H       -1.0930    -5.5020    -2.2570 H     1 <1>   0.0800 
 40 H       -0.2730    -7.0420    -2.1970 H     1 <1>   0.0800 
@<TRIPOS>BOND
  1   1   2  1   
  2   2   3  1   
  3   2   4  1   
  4   2   5  1   
  5   4   6  1   
  6   4  21  1   
  7   4  22  1   
  8   5   7  1   
  9   5  23  1   
 10   5  24  1   
 11   6   8  am  
 12   6   9  1   
 13   7   9  1   
 14   7  10  1   
 15   7  11  1   
 16   8  12  2   
 17   8  13  1   
 18   9  25  1   
 19   9  26  1   
 20  10  14  2   
 21  10  15  am  
 22  11  16  1   
 23  11  27  1   
 24  11  28  1   
 25  13  17  1   
 26  15  16  1   
 27  15  29  1   
 28  16  30  1   
 29  16  31  1   
 30  17  18  1   
 31  17  19  1   
 32  17  20  1   
 33  18  32  1   
 34  18  33  1   
 35  18  34  1   
 36  19  35  1   
 37  19  36  1   
 38  19  37  1   
 39  20  38  1   
 40  20  39  1   
 41  20  40  1   
@<TRIPOS>SUBSTRUCTURE
  1 ****   9 GROUP 4 **** **** 0

# MOE 2024.06 (io_trps.svl 2023.06)
