@<TRIPOS>MOLECULE
NONAME
48 50 1 0 0 
SMALL
USER_CHARGES


@<TRIPOS>ATOM
  1 O       -0.0100    -0.2890    -0.8850 O.2   1 <1>  -0.5700 
  2 C        0.9050    -0.7830    -0.2510 C.2   1 <1>   0.5440 
  3 N        1.8340     0.0130     0.3630 N.am  1 <1>  -0.4930 
  4 C        1.0230    -2.2250    -0.1420 C.ar  1 <1>   0.0860 
  5 C        2.1360     1.3860     0.1950 C.2   1 <1>   0.0630 
  6 C        2.2620    -2.8590     0.0010 C.ar  1 <1>  -0.1500 
  7 C       -0.1080    -3.0420    -0.1810 C.ar  1 <1>  -0.1500 
  8 C        3.4530     1.8530     0.1280 C.2   1 <1>   0.3720 
  9 C        1.3690     2.4930     0.0830 C.2   1 <1>  -0.3320 
 10 C        2.3580    -4.2330     0.1170 C.ar  1 <1>  -0.1500 
 11 C       -0.0210    -4.4170    -0.0670 C.ar  1 <1>  -0.1500 
 12 N        3.5200     3.1360    -0.0360 N.2   1 <1>  -0.7070 
 13 N        4.5850     1.0160     0.2180 N.pl3 1 <1>  -0.8210 
 14 N        2.2270     3.5320    -0.0730 N.pl3 1 <1>   0.3140 
 15 C       -0.1460     2.6330     0.1250 C.3   1 <1>  -0.0600 
 16 C        1.2220    -5.0240     0.0870 C.ar  1 <1>   0.0830 
 17 C        5.2550     0.8810    -1.1030 C.3   1 <1>   0.2090 
 18 C        5.5920     1.5180     1.1960 C.3   1 <1>   0.2090 
 19 C        1.8810     4.9460    -0.2610 C.3   1 <1>   0.0160 
 20 O        1.4020    -6.3580     0.2090 O.3   1 <1>  -0.3630 
 21 C        6.7490     0.9510    -0.8270 C.3   1 <1>  -0.1600 
 22 C        6.8440     1.8490     0.3950 C.3   1 <1>  -0.1600 
 23 C        0.3210    -7.2600     0.1780 C.3   1 <1>   0.1200 
 24 C        0.8780    -8.6710     0.3360 C.3   1 <1>  -0.2400 
 25 H        2.6360    -0.4710     0.7660 H     1 <1>   0.3700 
 26 H        3.1660    -2.2760     0.0140 H     1 <1>   0.1500 
 27 H       -1.0730    -2.5790    -0.3030 H     1 <1>   0.1500 
 28 H        3.3170    -4.7060     0.2290 H     1 <1>   0.1500 
 29 H       -0.9240    -4.9970    -0.1010 H     1 <1>   0.1500 
 30 H       -0.5910     1.7410     0.5250 H     1 <1>   0.0800 
 31 H       -0.5290     2.7900    -0.8670 H     1 <1>   0.0800 
 32 H       -0.4330     3.4570     0.7530 H     1 <1>   0.0800 
 33 H        4.9660     1.6930    -1.7520 H     1 <1>   0.0800 
 34 H        4.9850    -0.0520    -1.5670 H     1 <1>   0.0800 
 35 H        5.8030     0.7330     1.9000 H     1 <1>   0.0800 
 36 H        5.2380     2.3810     1.7350 H     1 <1>   0.0800 
 37 H        1.1670     5.0310    -1.0580 H     1 <1>   0.0800 
 38 H        2.7690     5.4950    -0.5120 H     1 <1>   0.0800 
 39 H        1.4640     5.3290     0.6510 H     1 <1>   0.0800 
 40 H        7.2920     1.3410    -1.6680 H     1 <1>   0.0800 
 41 H        7.1100    -0.0350    -0.5930 H     1 <1>   0.0800 
 42 H        7.7410     1.6850     0.9640 H     1 <1>   0.0800 
 43 H        6.7960     2.8810     0.0960 H     1 <1>   0.0800 
 44 H       -0.1850    -7.1540    -0.7660 H     1 <1>   0.0800 
 45 H       -0.3460    -7.0210     0.9890 H     1 <1>   0.0800 
 46 H        1.5550    -8.8930    -0.4690 H     1 <1>   0.0800 
 47 H        0.0750    -9.3850     0.3170 H     1 <1>   0.0800 
 48 H        1.3960    -8.7610     1.2750 H     1 <1>   0.0800 
@<TRIPOS>BOND
  1   1   2  2   
  2   2   3  am  
  3   2   4  1   
  4   3   5  1   
  5   3  25  1   
  6   4   6  ar  
  7   4   7  ar  
  8   5   8  1   
  9   5   9  2   
 10   6  10  ar  
 11   6  26  1   
 12   7  11  ar  
 13   7  27  1   
 14   8  12  2   
 15   8  13  1   
 16   9  14  1   
 17   9  15  1   
 18  10  16  ar  
 19  10  28  1   
 20  11  16  ar  
 21  11  29  1   
 22  12  14  1   
 23  13  17  1   
 24  13  18  1   
 25  14  19  1   
 26  15  30  1   
 27  15  31  1   
 28  15  32  1   
 29  16  20  1   
 30  17  21  1   
 31  17  33  1   
 32  17  34  1   
 33  18  22  1   
 34  18  35  1   
 35  18  36  1   
 36  19  37  1   
 37  19  38  1   
 38  19  39  1   
 39  20  23  1   
 40  21  22  1   
 41  21  40  1   
 42  21  41  1   
 43  22  42  1   
 44  22  43  1   
 45  23  24  1   
 46  23  44  1   
 47  23  45  1   
 48  24  46  1   
 49  24  47  1   
 50  24  48  1   
@<TRIPOS>SUBSTRUCTURE
  1 ****   3 GROUP 4 **** **** 0

# MOE 2024.06 (io_trps.svl 2023.06)
