@<TRIPOS>MOLECULE
NONAME
45 46 1 0 0 
SMALL
USER_CHARGES


@<TRIPOS>ATOM
  1 N        0.2780     0.3030     1.0130 N.ar  1 <1>  -0.6200 
  2 C       -0.9000    -0.0900     0.5910 C.ar  1 <1>   0.7710 
  3 C        0.3640     1.4970     1.5990 C.ar  1 <1>   0.4100 
  4 N       -2.0000     0.6740     0.7130 N.ar  1 <1>  -0.1790 
  5 N       -1.0430    -1.3020    -0.0190 N.pl3 1 <1>  -0.8380 
  6 N        1.6070     1.9000     1.9970 N.pl3 1 <1>  -0.8380 
  7 C       -0.7620     2.2880     1.7890 C.ar  1 <1>  -0.1500 
  8 C       -1.9730     1.8740     1.3110 C.ar  1 <1>   0.4610 
  9 C        0.1360    -1.9820    -0.6400 C.3   1 <1>   0.2090 
 10 C       -2.2370    -2.1790     0.1500 C.3   1 <1>   0.2090 
 11 C        2.1030     3.3110     1.8880 C.3   1 <1>   0.3900 
 12 C        2.6660     0.9140     2.3670 C.3   1 <1>   0.1290 
 13 N       -3.1100     2.6070     1.4070 N.pl3 1 <1>  -0.9000 
 14 C        0.4300    -1.3380    -1.9910 C.3   1 <1>  -0.2400 
 15 C       -3.0680    -2.1540    -1.1290 C.3   1 <1>  -0.2400 
 16 C        1.4030     4.0910     0.7830 C.2   1 <1>  -0.1810 
 17 C        1.3320     3.8610    -0.5480 C.2   1 <1>  -0.3320 
 18 C        0.6630     5.2520     0.9800 C.2   1 <1>   0.1390 
 19 N        0.5800     4.8520    -1.0710 N.pl3 1 <1>   0.3000 
 20 C        1.9420     2.7420    -1.3760 C.3   1 <1>  -0.0600 
 21 N        0.1500     5.7040    -0.1210 N.2   1 <1>  -0.7070 
 22 H       -2.8320     0.3200     0.2710 H     1 <1>   0.4570 
 23 H       -0.6760     3.2230     2.3020 H     1 <1>   0.1500 
 24 H       -0.0630    -3.0310    -0.7810 H     1 <1>   0.0800 
 25 H        0.9990    -1.8990     0.0010 H     1 <1>   0.0800 
 26 H       -2.8330    -1.8510     0.9850 H     1 <1>   0.0800 
 27 H       -1.9250    -3.1890     0.3620 H     1 <1>   0.0800 
 28 H        3.1570     3.3040     1.6710 H     1 <1>   0.0800 
 29 H        1.9630     3.8050     2.8330 H     1 <1>   0.0800 
 30 H        2.2250    -0.0280     2.6450 H     1 <1>   0.0800 
 31 H        3.2350     1.2790     3.2040 H     1 <1>   0.0800 
 32 H        3.3240     0.7560     1.5310 H     1 <1>   0.0800 
 33 H       -3.0900     3.5620     1.7920 H     1 <1>   0.4000 
 34 H       -4.0430     2.3520     1.0660 H     1 <1>   0.4000 
 35 H       -0.4210    -1.4150    -2.6420 H     1 <1>   0.0800 
 36 H        1.2580    -1.8430    -2.4550 H     1 <1>   0.0800 
 37 H        0.6970    -0.3050    -1.8640 H     1 <1>   0.0800 
 38 H       -3.3700    -1.1550    -1.3840 H     1 <1>   0.0800 
 39 H       -3.9510    -2.7540    -0.9960 H     1 <1>   0.0800 
 40 H       -2.5060    -2.5720    -1.9450 H     1 <1>   0.0800 
 41 H        0.5180     5.7350     1.9330 H     1 <1>   0.1500 
 42 H        0.3490     4.9800    -2.0640 H     1 <1>   0.2700 
 43 H        2.4580     2.0440    -0.7420 H     1 <1>   0.0800 
 44 H        2.6450     3.1450    -2.0840 H     1 <1>   0.0800 
 45 H        1.1740     2.2120    -1.9080 H     1 <1>   0.0800 
@<TRIPOS>BOND
  1   1   2  ar  
  2   1   3  ar  
  3   2   4  ar  
  4   2   5  1   
  5   3   6  1   
  6   3   7  ar  
  7   4   8  ar  
  8   4  22  1   
  9   5   9  1   
 10   5  10  1   
 11   6  11  1   
 12   6  12  1   
 13   7   8  ar  
 14   7  23  1   
 15   8  13  1   
 16   9  14  1   
 17   9  24  1   
 18   9  25  1   
 19  10  15  1   
 20  10  26  1   
 21  10  27  1   
 22  11  16  1   
 23  11  28  1   
 24  11  29  1   
 25  12  30  1   
 26  12  31  1   
 27  12  32  1   
 28  13  33  1   
 29  13  34  1   
 30  14  35  1   
 31  14  36  1   
 32  14  37  1   
 33  15  38  1   
 34  15  39  1   
 35  15  40  1   
 36  16  17  2   
 37  16  18  1   
 38  17  19  1   
 39  17  20  1   
 40  18  21  2   
 41  18  41  1   
 42  19  21  1   
 43  19  42  1   
 44  20  43  1   
 45  20  44  1   
 46  20  45  1   
@<TRIPOS>SUBSTRUCTURE
  1 ****   3 GROUP 4 **** **** 0

# MOE 2024.06 (io_trps.svl 2023.06)
