@<TRIPOS>MOLECULE
NONAME
50 53 1 0 0 
SMALL
USER_CHARGES


@<TRIPOS>ATOM
  1 O       -0.7470    -0.0450    -1.0270 O.2   1 <1>  -0.5700 
  2 C       -1.7260     0.6750    -1.1240 C.2   1 <1>   0.7160 
  3 N       -2.9560     0.0950    -1.3590 N.am  1 <1>  -0.6600 
  4 C       -1.5930     2.1100    -0.9790 C.2   1 <1>  -0.0860 
  5 C       -4.2480     0.7470    -0.9900 C.3   1 <1>   0.1400 
  6 C       -3.1030    -1.3560    -1.6840 C.3   1 <1>   0.1400 
  7 C       -0.9570     2.8520    -0.0100 C.2   1 <1>  -0.3320 
  8 C       -2.1310     3.0600    -1.8710 C.2   1 <1>  -0.1500 
  9 C       -4.9580    -0.0420     0.1260 C.3   1 <1>   0.1900 
 10 C       -3.8490    -2.0940    -0.5600 C.3   1 <1>   0.1100 
 11 N       -1.0900     4.1760    -0.2700 N.pl3 1 <1>   0.0480 
 12 C       -0.1950     2.3210     1.1950 C.3   1 <1>  -0.0600 
 13 C       -1.8140     4.2940    -1.4120 C.2   1 <1>  -0.3020 
 14 N       -5.1560    -1.4600    -0.2710 N.3   1 <1>  -0.8100 
 15 C       -6.3070     0.6170     0.4770 C.3   1 <1>   0.1200 
 16 C       -0.5470     5.2980     0.5140 C.3   1 <1>   0.0160 
 17 C       -5.8960    -2.1810     0.7920 C.3   1 <1>   0.3330 
 18 O       -6.9540    -0.0990     1.4900 O.3   1 <1>  -0.5600 
 19 C       -6.2290    -3.6070     0.3580 C.ar  1 <1>  -0.1430 
 20 C       -7.2010    -1.4380     1.1490 C.3   1 <1>   0.1200 
 21 C       -6.7820    -3.8610    -0.8900 C.ar  1 <1>  -0.1500 
 22 C       -5.9850    -4.6710     1.2160 C.ar  1 <1>  -0.1500 
 23 C       -7.0870    -5.1550    -1.2750 C.ar  1 <1>  -0.1500 
 24 C       -6.2890    -5.9660     0.8330 C.ar  1 <1>  -0.1500 
 25 C       -6.8410    -6.2090    -0.4130 C.ar  1 <1>  -0.1500 
 26 H       -4.0840     1.7530    -0.6470 H     1 <1>   0.0800 
 27 H       -4.8820     0.7880    -1.8580 H     1 <1>   0.0800 
 28 H       -3.6590    -1.4560    -2.5990 H     1 <1>   0.0800 
 29 H       -2.1410    -1.8140    -1.8340 H     1 <1>   0.0800 
 30 H       -2.6870     2.8100    -2.7580 H     1 <1>   0.1500 
 31 H       -4.3360     0.0000     1.0040 H     1 <1>   0.0800 
 32 H       -3.2350    -2.1000     0.3240 H     1 <1>   0.0800 
 33 H       -3.9990    -3.1140    -0.8680 H     1 <1>   0.0800 
 34 H       -0.2340     1.2470     1.2280 H     1 <1>   0.0800 
 35 H       -0.6230     2.7030     2.1040 H     1 <1>   0.0800 
 36 H        0.8370     2.6170     1.1380 H     1 <1>   0.0800 
 37 H       -2.0590     5.2490    -1.8410 H     1 <1>   0.1500 
 38 H       -6.9490     0.6500    -0.3860 H     1 <1>   0.0800 
 39 H       -6.1510     1.6180     0.8360 H     1 <1>   0.0800 
 40 H       -0.8140     6.2270     0.0470 H     1 <1>   0.0800 
 41 H        0.5230     5.2130     0.5570 H     1 <1>   0.0800 
 42 H       -0.9540     5.2650     1.5080 H     1 <1>   0.0800 
 43 H       -5.2850    -2.2180     1.6780 H     1 <1>   0.0800 
 44 H       -7.6730    -1.9100     1.9910 H     1 <1>   0.0800 
 45 H       -7.8820    -1.4600     0.3170 H     1 <1>   0.0800 
 46 H       -6.9680    -3.0440    -1.5650 H     1 <1>   0.1500 
 47 H       -5.5560    -4.4970     2.1880 H     1 <1>   0.1500 
 48 H       -7.5150    -5.3410    -2.2440 H     1 <1>   0.1500 
 49 H       -6.0960    -6.7850     1.5030 H     1 <1>   0.1500 
 50 H       -7.0770    -7.2150    -0.7110 H     1 <1>   0.1500 
@<TRIPOS>BOND
  1   1   2  2   
  2   2   3  am  
  3   2   4  1   
  4   3   5  1   
  5   3   6  1   
  6   4   7  2   
  7   4   8  1   
  8   5   9  1   
  9   5  26  1   
 10   5  27  1   
 11   6  10  1   
 12   6  28  1   
 13   6  29  1   
 14   7  11  1   
 15   7  12  1   
 16   8  13  2   
 17   8  30  1   
 18   9  14  1   
 19   9  15  1   
 20   9  31  1   
 21  10  14  1   
 22  10  32  1   
 23  10  33  1   
 24  11  13  1   
 25  11  16  1   
 26  12  34  1   
 27  12  35  1   
 28  12  36  1   
 29  13  37  1   
 30  14  17  1   
 31  15  18  1   
 32  15  38  1   
 33  15  39  1   
 34  16  40  1   
 35  16  41  1   
 36  16  42  1   
 37  17  19  1   
 38  17  20  1   
 39  17  43  1   
 40  18  20  1   
 41  19  21  ar  
 42  19  22  ar  
 43  20  44  1   
 44  20  45  1   
 45  21  23  ar  
 46  21  46  1   
 47  22  24  ar  
 48  22  47  1   
 49  23  25  ar  
 50  23  48  1   
 51  24  25  ar  
 52  24  49  1   
 53  25  50  1   
@<TRIPOS>SUBSTRUCTURE
  1 ****   9 GROUP 4 **** **** 0

# MOE 2024.06 (io_trps.svl 2023.06)
