@<TRIPOS>MOLECULE
NONAME
56 58 1 0 0 
SMALL
USER_CHARGES


@<TRIPOS>ATOM
  1 O        0.3030     1.4510     0.8360 O.2   1 <1>  -0.5700 
  2 C       -0.7990     1.8650     0.5340 C.2   1 <1>   0.5440 
  3 N       -1.6020     1.0930    -0.2780 N.am  1 <1>  -0.6600 
  4 C       -1.2230     3.1590     1.0280 C.ar  1 <1>   0.0860 
  5 C       -1.2530    -0.3200    -0.6130 C.3   1 <1>   0.1400 
  6 C       -2.7880     1.5920    -1.0340 C.3   1 <1>   0.1400 
  7 C       -0.4780     4.3040     0.8260 C.ar  1 <1>  -0.1500 
  8 C       -2.3970     3.3420     1.7480 C.ar  1 <1>  -0.1500 
  9 C       -2.5020    -1.2150    -0.5430 C.3   1 <1>   0.1200 
 10 C       -3.9530     0.5940    -0.9260 C.3   1 <1>   0.1200 
 11 C       -0.9240     5.5320     1.2930 C.ar  1 <1>   0.4100 
 12 C       -2.7540     4.6040     2.1800 C.ar  1 <1>   0.1600 
 13 O       -3.5430    -0.6860    -1.3180 O.3   1 <1>  -0.5600 
 14 N       -2.0510     5.7000     1.9610 N.ar  1 <1>  -0.6200 
 15 N       -0.2210     6.6830     1.1030 N.pl3 1 <1>  -0.8690 
 16 C        0.3260     7.0550    -0.2090 C.3   1 <1>   0.2890 
 17 C        1.8690     7.0520    -0.1720 C.3   1 <1>  -0.1600 
 18 C       -0.3290     8.3650    -0.6310 C.3   1 <1>  -0.2400 
 19 C        2.6610     8.2010     0.5180 C.3   1 <1>   0.1430 
 20 C        2.5380     9.5400    -0.2490 C.ar  1 <1>  -0.1430 
 21 C        4.1510     7.8100     0.5140 C.3   1 <1>  -0.2400 
 22 C        2.2580     8.3130     2.0010 C.3   1 <1>  -0.2400 
 23 C        2.8830     9.5980    -1.5970 C.ar  1 <1>  -0.1500 
 24 C        2.1020    10.7190     0.3520 C.ar  1 <1>  -0.1500 
 25 C        2.7850    10.7740    -2.3190 C.ar  1 <1>  -0.1500 
 26 C        2.0020    11.8980    -0.3660 C.ar  1 <1>  -0.1500 
 27 C        2.3430    11.9290    -1.7040 C.ar  1 <1>  -0.1500 
 28 H       -0.5110    -0.6970     0.0680 H     1 <1>   0.0800 
 29 H       -0.8420    -0.3570    -1.6070 H     1 <1>   0.0800 
 30 H       -2.5210     1.7010    -2.0710 H     1 <1>   0.0800 
 31 H       -3.1040     2.5540    -0.6750 H     1 <1>   0.0800 
 32 H        0.4610     4.2410     0.3100 H     1 <1>   0.1500 
 33 H       -3.0210     2.4960     1.9710 H     1 <1>   0.1500 
 34 H       -2.8410    -1.3080     0.4740 H     1 <1>   0.0800 
 35 H       -2.2760    -2.1960    -0.9220 H     1 <1>   0.0800 
 36 H       -4.7590     0.8910    -1.5740 H     1 <1>   0.0800 
 37 H       -4.3200     0.5440     0.0840 H     1 <1>   0.0800 
 38 H       -3.6670     4.7220     2.7390 H     1 <1>   0.1500 
 39 H       -0.7060     7.4650     1.5470 H     1 <1>   0.4000 
 40 H        0.0250     6.3060    -0.9230 H     1 <1>   0.0800 
 41 H        2.1950     6.9880    -1.1910 H     1 <1>   0.0800 
 42 H        2.1620     6.1230     0.2830 H     1 <1>   0.0800 
 43 H       -0.1630     9.1340     0.0990 H     1 <1>   0.0800 
 44 H       -1.3870     8.2210    -0.7510 H     1 <1>   0.0800 
 45 H        0.0760     8.6910    -1.5720 H     1 <1>   0.0800 
 46 H        4.5020     7.6240    -0.4840 H     1 <1>   0.0800 
 47 H        4.3140     6.9210     1.0960 H     1 <1>   0.0800 
 48 H        4.7420     8.6040     0.9340 H     1 <1>   0.0800 
 49 H        1.2460     8.6590     2.1000 H     1 <1>   0.0800 
 50 H        2.9040     8.9970     2.5210 H     1 <1>   0.0800 
 51 H        2.3260     7.3540     2.4820 H     1 <1>   0.0800 
 52 H        3.2380     8.7220    -2.1080 H     1 <1>   0.1500 
 53 H        1.8280    10.7500     1.3900 H     1 <1>   0.1500 
 54 H        3.0560    10.7910    -3.3600 H     1 <1>   0.1500 
 55 H        1.6600    12.7950     0.1210 H     1 <1>   0.1500 
 56 H        2.2660    12.8460    -2.2620 H     1 <1>   0.1500 
@<TRIPOS>BOND
  1   1   2  2   
  2   2   3  am  
  3   2   4  1   
  4   3   5  1   
  5   3   6  1   
  6   4   7  ar  
  7   4   8  ar  
  8   5   9  1   
  9   5  28  1   
 10   5  29  1   
 11   6  10  1   
 12   6  30  1   
 13   6  31  1   
 14   7  11  ar  
 15   7  32  1   
 16   8  12  ar  
 17   8  33  1   
 18   9  13  1   
 19   9  34  1   
 20   9  35  1   
 21  10  13  1   
 22  10  36  1   
 23  10  37  1   
 24  11  14  ar  
 25  11  15  1   
 26  12  14  ar  
 27  12  38  1   
 28  15  16  1   
 29  15  39  1   
 30  16  17  1   
 31  16  18  1   
 32  16  40  1   
 33  17  19  1   
 34  17  41  1   
 35  17  42  1   
 36  18  43  1   
 37  18  44  1   
 38  18  45  1   
 39  19  20  1   
 40  19  21  1   
 41  19  22  1   
 42  20  23  ar  
 43  20  24  ar  
 44  21  46  1   
 45  21  47  1   
 46  21  48  1   
 47  22  49  1   
 48  22  50  1   
 49  22  51  1   
 50  23  25  ar  
 51  23  52  1   
 52  24  26  ar  
 53  24  53  1   
 54  25  27  ar  
 55  25  54  1   
 56  26  27  ar  
 57  26  55  1   
 58  27  56  1   
@<TRIPOS>SUBSTRUCTURE
  1 ****   7 GROUP 4 **** **** 0

# MOE 2024.06 (io_trps.svl 2023.06)
