@<TRIPOS>MOLECULE
NONAME
46 48 1 0 0 
SMALL
USER_CHARGES


@<TRIPOS>ATOM
  1 O        0.6400     0.1200     1.5720 O.3   1 <1>  -0.6800 
  2 C        1.0940    -0.1670     0.2900 C.3   1 <1>   0.2000 
  3 C        2.0460    -1.3610     0.3800 C.3   1 <1>  -0.0800 
  4 C        2.0040     0.9780    -0.1510 C.3   1 <1>   0.3430 
  5 C        3.4230    -0.7370     0.6700 C.3   1 <1>   0.3430 
  6 C        2.0530    -2.1770    -0.9290 C.3   1 <1>  -0.0170 
  7 N        3.2560     0.7460     0.6150 N.4   1 <1>  -0.9590 
  8 C        2.9810    -3.3790    -0.8440 C.ar  1 <1>   0.1670 
  9 C        4.4270     1.4970     0.0720 C.3   1 <1>   0.3430 
 10 N        4.2770    -3.1250    -0.9560 N.ar  1 <1>  -0.6200 
 11 C        2.4510    -4.6480    -0.6630 C.ar  1 <1>  -0.1500 
 12 C        5.6560     1.3790     0.9750 C.3   1 <1>  -0.0170 
 13 C        5.0750    -4.1820    -0.8970 C.ar  1 <1>   0.1600 
 14 C        3.2950    -5.7360    -0.5950 C.ar  1 <1>  -0.1500 
 15 C        6.7610     2.2490     0.4140 C.ar  1 <1>   0.1670 
 16 C        4.6430    -5.4850    -0.7180 C.ar  1 <1>  -0.1500 
 17 N        6.4090     3.4840     0.0970 N.ar  1 <1>  -0.6200 
 18 C        8.0420     1.7410     0.2590 C.ar  1 <1>  -0.1500 
 19 C        7.3680     4.2560    -0.3900 C.ar  1 <1>   0.1670 
 20 C        9.0330     2.5500    -0.2530 C.ar  1 <1>  -0.1500 
 21 C        8.6760     3.8390    -0.5820 C.ar  1 <1>  -0.1500 
 22 C        6.9640     5.6720    -0.7430 C.3   1 <1>  -0.0970 
 23 H       -0.0580    -0.5090     1.8550 H     1 <1>   0.4000 
 24 H        0.2470    -0.3090    -0.3610 H     1 <1>   0.0800 
 25 H        1.7650    -2.0210     1.1830 H     1 <1>   0.0800 
 26 H        1.5640     1.9370     0.0700 H     1 <1>   0.0800 
 27 H        2.1990     0.9010    -1.2080 H     1 <1>   0.0800 
 28 H        4.1370    -1.0450    -0.0740 H     1 <1>   0.0800 
 29 H        3.7820    -1.0420     1.6400 H     1 <1>   0.0800 
 30 H        2.3640    -1.5640    -1.7570 H     1 <1>   0.0800 
 31 H        1.0560    -2.5210    -1.1410 H     1 <1>   0.0800 
 32 H        3.0410     1.0630     1.5740 H     1 <1>   0.4500 
 33 H        4.6750     1.1340    -0.9120 H     1 <1>   0.0800 
 34 H        4.1710     2.5410    -0.0180 H     1 <1>   0.0800 
 35 H        1.3900    -4.7970    -0.5780 H     1 <1>   0.1500 
 36 H        5.9860     0.3590     1.0310 H     1 <1>   0.0800 
 37 H        5.4200     1.7330     1.9620 H     1 <1>   0.0800 
 38 H        6.1320    -4.0040    -0.9980 H     1 <1>   0.1500 
 39 H        2.9190    -6.7360    -0.4550 H     1 <1>   0.1500 
 40 H        5.3550    -6.2900    -0.6800 H     1 <1>   0.1500 
 41 H        8.2740     0.7280     0.5350 H     1 <1>   0.1500 
 42 H       10.0400     2.1940    -0.3880 H     1 <1>   0.1500 
 43 H        9.4100     4.5130    -0.9830 H     1 <1>   0.1500 
 44 H        7.7990     6.2310    -1.1210 H     1 <1>   0.0800 
 45 H        6.5840     6.1650     0.1330 H     1 <1>   0.0800 
 46 H        6.1920     5.6510    -1.4900 H     1 <1>   0.0800 
@<TRIPOS>BOND
  1   1   2  1   
  2   1  23  1   
  3   2   3  1   
  4   2   4  1   
  5   2  24  1   
  6   3   5  1   
  7   3   6  1   
  8   3  25  1   
  9   4   7  1   
 10   4  26  1   
 11   4  27  1   
 12   5   7  1   
 13   5  28  1   
 14   5  29  1   
 15   6   8  1   
 16   6  30  1   
 17   6  31  1   
 18   7   9  1   
 19   7  32  1   
 20   8  10  ar  
 21   8  11  ar  
 22   9  12  1   
 23   9  33  1   
 24   9  34  1   
 25  10  13  ar  
 26  11  14  ar  
 27  11  35  1   
 28  12  15  1   
 29  12  36  1   
 30  12  37  1   
 31  13  16  ar  
 32  13  38  1   
 33  14  16  ar  
 34  14  39  1   
 35  15  17  ar  
 36  15  18  ar  
 37  16  40  1   
 38  17  19  ar  
 39  18  20  ar  
 40  18  41  1   
 41  19  21  ar  
 42  19  22  1   
 43  20  21  ar  
 44  20  42  1   
 45  21  43  1   
 46  22  44  1   
 47  22  45  1   
 48  22  46  1   
@<TRIPOS>SUBSTRUCTURE
  1 ****   5 GROUP 4 **** **** 0

# MOE 2024.06 (io_trps.svl 2023.06)
