@<TRIPOS>MOLECULE
NONAME
53 56 1 0 0 
SMALL
USER_CHARGES


@<TRIPOS>ATOM
  1 O       -1.5010    -0.5320     1.9810 O.2   1 <1>  -0.5700 
  2 C       -2.0250     0.0540     1.0720 C.2   1 <1>   0.4230 
  3 C       -3.2710    -0.3740     0.4970 C.ar  1 <1>   0.0860 
  4 C       -1.2700     1.2400     0.5030 C.3   1 <1>  -0.1790 
  5 C       -4.3380     0.4430     0.1310 C.ar  1 <1>   0.1660 
  6 C       -3.4740    -1.7250     0.2700 C.ar  1 <1>   0.1600 
  7 N       -5.4160    -0.0280    -0.4460 N.ar  1 <1>  -0.6200 
  8 C       -4.3540     1.9400     0.3960 C.3   1 <1>  -0.0960 
  9 N       -4.5470    -2.2170    -0.2990 N.ar  1 <1>  -0.6200 
 10 C       -5.4720    -1.3370    -0.6650 C.ar  1 <1>   0.7200 
 11 N       -6.5900    -1.8250    -1.2960 N.pl3 1 <1>  -0.8380 
 12 C       -6.7020    -3.2350    -1.7740 C.3   1 <1>   0.2090 
 13 C       -7.8800    -1.0740    -1.3440 C.3   1 <1>   0.2090 
 14 C       -7.7810    -3.9780    -0.9620 C.3   1 <1>   0.3430 
 15 C       -8.9660    -1.8360    -0.5540 C.3   1 <1>   0.3430 
 16 N       -9.1320    -3.2830    -0.9900 N.4   1 <1>  -0.9590 
 17 C      -10.1740    -4.0020    -0.1760 C.3   1 <1>   0.4230 
 18 C      -10.2320    -5.5030    -0.5210 C.3   1 <1>  -0.0170 
 19 C      -11.5560    -3.3750    -0.4120 C.3   1 <1>  -0.1600 
 20 C      -11.4340    -6.2070     0.0880 C.ar  1 <1>  -0.1430 
 21 C      -12.5880    -3.9830     0.5440 C.3   1 <1>  -0.0170 
 22 C      -12.5290    -5.5020     0.5730 C.ar  1 <1>  -0.1430 
 23 C      -11.4310    -7.5930     0.1470 C.ar  1 <1>  -0.1500 
 24 C      -13.6030    -6.1920     1.1120 C.ar  1 <1>  -0.1500 
 25 C      -12.5060    -8.2750     0.6860 C.ar  1 <1>  -0.1500 
 26 C      -13.5940    -7.5730     1.1690 C.ar  1 <1>  -0.1500 
 27 H       -1.6020     1.4660    -0.4930 H     1 <1>   0.0800 
 28 H       -0.2210     1.0070     0.4670 H     1 <1>   0.0800 
 29 H       -1.4060     2.0970     1.1360 H     1 <1>   0.0800 
 30 H       -2.7030    -2.4150     0.5730 H     1 <1>   0.1500 
 31 H       -3.8540     2.1750     1.3180 H     1 <1>   0.0800 
 32 H       -5.3690     2.2890     0.4770 H     1 <1>   0.0800 
 33 H       -3.8830     2.4630    -0.4150 H     1 <1>   0.0800 
 34 H       -5.7670    -3.7600    -1.6850 H     1 <1>   0.0800 
 35 H       -6.9640    -3.2360    -2.8180 H     1 <1>   0.0800 
 36 H       -8.1840    -0.9530    -2.3690 H     1 <1>   0.0800 
 37 H       -7.7790    -0.0880    -0.9230 H     1 <1>   0.0800 
 38 H       -7.4340    -4.0550     0.0550 H     1 <1>   0.0800 
 39 H       -7.8700    -4.9750    -1.3570 H     1 <1>   0.0800 
 40 H       -9.8940    -1.3040    -0.6690 H     1 <1>   0.0800 
 41 H       -8.6970    -1.8060     0.4890 H     1 <1>   0.0800 
 42 H       -9.4560    -3.2760    -1.9650 H     1 <1>   0.4500 
 43 H       -9.9330    -3.9100     0.8710 H     1 <1>   0.0800 
 44 H       -9.3490    -5.9930    -0.1540 H     1 <1>   0.0800 
 45 H      -10.2870    -5.6310    -1.5880 H     1 <1>   0.0800 
 46 H      -11.8730    -3.5630    -1.4240 H     1 <1>   0.0800 
 47 H      -11.5550    -2.3150    -0.2420 H     1 <1>   0.0800 
 48 H      -13.5750    -3.6680     0.2490 H     1 <1>   0.0800 
 49 H      -12.4150    -3.6210     1.5430 H     1 <1>   0.0800 
 50 H      -10.5950    -8.1580    -0.2270 H     1 <1>   0.1500 
 51 H      -14.4570    -5.6590     1.4930 H     1 <1>   0.1500 
 52 H      -12.4990    -9.3510     0.7300 H     1 <1>   0.1500 
 53 H      -14.4330    -8.1020     1.5890 H     1 <1>   0.1500 
@<TRIPOS>BOND
  1   1   2  2   
  2   2   3  1   
  3   2   4  1   
  4   3   5  ar  
  5   3   6  ar  
  6   4  27  1   
  7   4  28  1   
  8   4  29  1   
  9   5   7  ar  
 10   5   8  1   
 11   6   9  ar  
 12   6  30  1   
 13   7  10  ar  
 14   8  31  1   
 15   8  32  1   
 16   8  33  1   
 17   9  10  ar  
 18  10  11  1   
 19  11  12  1   
 20  11  13  1   
 21  12  14  1   
 22  12  34  1   
 23  12  35  1   
 24  13  15  1   
 25  13  36  1   
 26  13  37  1   
 27  14  16  1   
 28  14  38  1   
 29  14  39  1   
 30  15  16  1   
 31  15  40  1   
 32  15  41  1   
 33  16  17  1   
 34  16  42  1   
 35  17  18  1   
 36  17  19  1   
 37  17  43  1   
 38  18  20  1   
 39  18  44  1   
 40  18  45  1   
 41  19  21  1   
 42  19  46  1   
 43  19  47  1   
 44  20  22  ar  
 45  20  23  ar  
 46  21  22  1   
 47  21  48  1   
 48  21  49  1   
 49  22  24  ar  
 50  23  25  ar  
 51  23  50  1   
 52  24  26  ar  
 53  24  51  1   
 54  25  26  ar  
 55  25  52  1   
 56  26  53  1   
@<TRIPOS>SUBSTRUCTURE
  1 ****  14 GROUP 4 **** **** 0

# MOE 2024.06 (io_trps.svl 2023.06)
