@<TRIPOS>MOLECULE
NONAME
53 55 1 0 0 
SMALL
USER_CHARGES


@<TRIPOS>ATOM
  1 O        1.1670    -0.0430     2.4000 O.co2 1 <1>  -0.9000 
  2 C        1.5200    -0.2600     1.2360 C.2   1 <1>   0.9060 
  3 O        1.1410    -1.2680     0.6220 O.co2 1 <1>  -0.9000 
  4 C        2.4960     0.6790     0.5230 C.3   1 <1>  -0.1060 
  5 C        3.7460    -0.2080     0.2440 C.3   1 <1>   0.2000 
  6 C        2.9460     1.8620     1.4250 C.3   1 <1>  -0.1600 
  7 C        1.7980     1.2180    -0.7700 C.3   1 <1>  -0.0160 
  8 O        3.7610    -0.6570    -1.0720 O.3   1 <1>  -0.6800 
  9 C        5.1000     0.4490     0.6020 C.3   1 <1>   0.1100 
 10 C        4.0620     2.6970     0.7760 C.3   1 <1>   0.1100 
 11 C        0.7760     2.3380    -0.5670 C.ar  1 <1>  -0.1430 
 12 N        5.2090     1.8910     0.2730 N.3   1 <1>  -0.8100 
 13 C        1.0130     3.6020    -1.0880 C.ar  1 <1>  -0.1500 
 14 C       -0.4000     2.1070     0.1300 C.ar  1 <1>  -0.1500 
 15 C        5.4660     2.0890    -1.1890 C.3   1 <1>   0.1710 
 16 C        0.0940     4.6210    -0.9090 C.ar  1 <1>  -0.1500 
 17 C       -1.3210     3.1250     0.3110 C.ar  1 <1>  -0.1500 
 18 C        5.9920     3.4830    -1.5350 C.2   1 <1>   0.5690 
 19 C       -1.0750     4.3840    -0.2080 C.ar  1 <1>  -0.1500 
 20 O        5.8960     3.9030    -2.6660 O.2   1 <1>  -0.5700 
 21 N        6.5510     4.1810    -0.5120 N.am  1 <1>  -0.4930 
 22 C        7.0890     5.4880    -0.4670 C.2   1 <1>   0.0630 
 23 C        7.5300     6.1380     0.6320 C.2   1 <1>  -0.3320 
 24 C        7.2810     6.3880    -1.5150 C.2   1 <1>   0.1390 
 25 N        7.9570     7.3550     0.2120 N.pl3 1 <1>   0.3140 
 26 C        7.5730     5.6660     2.0780 C.3   1 <1>  -0.0600 
 27 N        7.8010     7.5100    -1.1130 N.2   1 <1>  -0.7070 
 28 C        8.5300     8.4270     1.0350 C.3   1 <1>   0.0160 
 29 H        3.6880    -1.1000     0.8470 H     1 <1>   0.0800 
 30 H        3.2950     1.4830     2.3700 H     1 <1>   0.0800 
 31 H        2.1090     2.4960     1.6580 H     1 <1>   0.0800 
 32 H        2.5390     1.5740    -1.4540 H     1 <1>   0.0800 
 33 H        1.2980     0.4070    -1.2720 H     1 <1>   0.0800 
 34 H        2.9230    -1.1590    -1.1950 H     1 <1>   0.4000 
 35 H        5.9010    -0.1050     0.1450 H     1 <1>   0.0800 
 36 H        5.2290     0.3540     1.6660 H     1 <1>   0.0800 
 37 H        4.4270     3.3990     1.5050 H     1 <1>   0.0800 
 38 H        3.6350     3.2710    -0.0280 H     1 <1>   0.0800 
 39 H        1.9170     3.7990    -1.6370 H     1 <1>   0.1500 
 40 H       -0.6040     1.1320     0.5410 H     1 <1>   0.1500 
 41 H        6.2080     1.3820    -1.5160 H     1 <1>   0.0800 
 42 H        4.5780     1.9000    -1.7580 H     1 <1>   0.0800 
 43 H        0.2900     5.5970    -1.3150 H     1 <1>   0.1500 
 44 H       -2.2240     2.9290     0.8600 H     1 <1>   0.1500 
 45 H       -1.7900     5.1730    -0.0650 H     1 <1>   0.1500 
 46 H        6.4900     3.6740     0.3750 H     1 <1>   0.3700 
 47 H        7.0280     6.1790    -2.5400 H     1 <1>   0.1500 
 48 H        7.1740     4.6710     2.1650 H     1 <1>   0.0800 
 49 H        6.9870     6.3210     2.6980 H     1 <1>   0.0800 
 50 H        8.5870     5.6580     2.4350 H     1 <1>   0.0800 
 51 H        9.4220     8.0670     1.5110 H     1 <1>   0.0800 
 52 H        7.8120     8.7280     1.7740 H     1 <1>   0.0800 
 53 H        8.7710     9.2630     0.4050 H     1 <1>   0.0800 
@<TRIPOS>BOND
  1   1   2  ar  
  2   2   3  ar  
  3   2   4  1   
  4   4   5  1   
  5   4   6  1   
  6   4   7  1   
  7   5   8  1   
  8   5   9  1   
  9   5  29  1   
 10   6  10  1   
 11   6  30  1   
 12   6  31  1   
 13   7  11  1   
 14   7  32  1   
 15   7  33  1   
 16   8  34  1   
 17   9  12  1   
 18   9  35  1   
 19   9  36  1   
 20  10  12  1   
 21  10  37  1   
 22  10  38  1   
 23  11  13  ar  
 24  11  14  ar  
 25  12  15  1   
 26  13  16  ar  
 27  13  39  1   
 28  14  17  ar  
 29  14  40  1   
 30  15  18  1   
 31  15  41  1   
 32  15  42  1   
 33  16  19  ar  
 34  16  43  1   
 35  17  19  ar  
 36  17  44  1   
 37  18  20  2   
 38  18  21  am  
 39  19  45  1   
 40  21  22  1   
 41  21  46  1   
 42  22  23  2   
 43  22  24  1   
 44  23  25  1   
 45  23  26  1   
 46  24  27  2   
 47  24  47  1   
 48  25  27  1   
 49  25  28  1   
 50  26  48  1   
 51  26  49  1   
 52  26  50  1   
 53  28  51  1   
 54  28  52  1   
 55  28  53  1   
@<TRIPOS>SUBSTRUCTURE
  1 ****  10 GROUP 4 **** **** 0

# MOE 2024.06 (io_trps.svl 2023.06)
