@<TRIPOS>MOLECULE
NONAME
44 47 1 0 0 
SMALL
USER_CHARGES


@<TRIPOS>ATOM
  1 S       -0.4640     0.1990     1.6100 S.3   1 <1>  -0.0800 
  2 C       -0.2380     1.5970     0.5810 C.2   1 <1>  -0.1400 
  3 C        1.1090     0.4640     2.3470 C.2   1 <1>  -0.1100 
  4 C        0.9460     2.1870     0.7900 C.2   1 <1>  -0.1810 
  5 C       -1.2770     2.0520    -0.4060 C.3   1 <1>   0.0200 
  6 C        1.7200     1.5390     1.8110 C.2   1 <1>  -0.1500 
  7 C        1.3620     3.4170    -0.0160 C.3   1 <1>   0.4610 
  8 C       -0.9510     3.5110    -0.7630 C.3   1 <1>   0.1200 
  9 O        0.4220     3.6770    -1.0420 O.3   1 <1>  -0.5600 
 10 C        1.4700     4.6590     0.8780 C.3   1 <1>  -0.1600 
 11 C        2.6940     3.1580    -0.7270 C.3   1 <1>  -0.1600 
 12 C        1.9550     5.8760     0.0890 C.3   1 <1>   0.2090 
 13 C        3.1580     4.3910    -1.4980 C.3   1 <1>   0.2090 
 14 N        3.2670     5.5480    -0.5540 N.pl3 1 <1>  -0.8380 
 15 C        4.4590     6.1360    -0.2550 C.ar  1 <1>   0.4610 
 16 N        4.4830     7.4400     0.0540 N.ar  1 <1>  -0.1790 
 17 C        5.6840     5.4920    -0.2520 C.ar  1 <1>  -0.1500 
 18 C        5.6420     8.0540     0.3470 C.ar  1 <1>   0.7720 
 19 C        6.8300     6.1950     0.0610 C.ar  1 <1>   0.4100 
 20 S        5.4840     9.7790     0.7270 S.3   1 <1>  -0.3310 
 21 N        6.8070     7.4970     0.3680 N.ar  1 <1>  -0.6200 
 22 N        8.0450     5.6390     0.0860 N.pl3 1 <1>  -0.9000 
 23 C        7.2090    10.3550     1.0800 C.3   1 <1>  -0.0100 
 24 H        1.4130    -0.2260     3.1150 H     1 <1>   0.1500 
 25 H       -2.2590     1.9940     0.0270 H     1 <1>   0.0800 
 26 H       -1.2470     1.4350    -1.2850 H     1 <1>   0.0800 
 27 H        2.6900     1.9010     2.0990 H     1 <1>   0.1500 
 28 H       -1.2150     4.1610     0.0520 H     1 <1>   0.0800 
 29 H       -1.5040     3.8100    -1.6360 H     1 <1>   0.0800 
 30 H        2.1620     4.4620     1.6750 H     1 <1>   0.0800 
 31 H        0.5180     4.8650     1.3300 H     1 <1>   0.0800 
 32 H        2.5730     2.3280    -1.4000 H     1 <1>   0.0800 
 33 H        3.4470     2.8880    -0.0110 H     1 <1>   0.0800 
 34 H        2.0440     6.7120     0.7600 H     1 <1>   0.0800 
 35 H        1.2330     6.1270    -0.6730 H     1 <1>   0.0800 
 36 H        2.4420     4.6270    -2.2700 H     1 <1>   0.0800 
 37 H        4.0990     4.1910    -1.9820 H     1 <1>   0.0800 
 38 H        3.6320     7.9860     0.0280 H     1 <1>   0.4570 
 39 H        5.7520     4.4470    -0.4800 H     1 <1>   0.1500 
 40 H        8.8670     6.2030     0.3250 H     1 <1>   0.4000 
 41 H        8.2510     4.6580    -0.1200 H     1 <1>   0.4000 
 42 H        7.1660    11.4040     1.3150 H     1 <1>   0.0800 
 43 H        7.8070    10.1850     0.2020 H     1 <1>   0.0800 
 44 H        7.5870     9.7920     1.9150 H     1 <1>   0.0800 
@<TRIPOS>BOND
  1   1   2  1   
  2   1   3  1   
  3   2   4  2   
  4   2   5  1   
  5   3   6  2   
  6   3  24  1   
  7   4   6  1   
  8   4   7  1   
  9   5   8  1   
 10   5  25  1   
 11   5  26  1   
 12   6  27  1   
 13   7   9  1   
 14   7  10  1   
 15   7  11  1   
 16   8   9  1   
 17   8  28  1   
 18   8  29  1   
 19  10  12  1   
 20  10  30  1   
 21  10  31  1   
 22  11  13  1   
 23  11  32  1   
 24  11  33  1   
 25  12  14  1   
 26  12  34  1   
 27  12  35  1   
 28  13  14  1   
 29  13  36  1   
 30  13  37  1   
 31  14  15  1   
 32  15  16  ar  
 33  15  17  ar  
 34  16  18  ar  
 35  16  38  1   
 36  17  19  ar  
 37  17  39  1   
 38  18  20  1   
 39  18  21  ar  
 40  19  21  ar  
 41  19  22  1   
 42  20  23  1   
 43  22  40  1   
 44  22  41  1   
 45  23  42  1   
 46  23  43  1   
 47  23  44  1   
@<TRIPOS>SUBSTRUCTURE
  1 ****  14 GROUP 4 **** **** 0

# MOE 2024.06 (io_trps.svl 2023.06)
