@<TRIPOS>MOLECULE
NONAME
48 50 1 0 0 
SMALL
USER_CHARGES


@<TRIPOS>ATOM
  1 F        1.5510     0.9040    -0.9430 F     1 <1>  -0.1900 
  2 C        2.5930     1.6780    -1.1000 C.ar  1 <1>   0.1900 
  3 C        2.5400     3.0010    -0.6840 C.ar  1 <1>  -0.1440 
  4 C        3.7130     1.1170    -1.6830 C.ar  1 <1>  -0.1500 
  5 C        3.6750     3.8010    -0.8650 C.ar  1 <1>   0.0860 
  6 C        1.2840     3.5950    -0.0470 C.3   1 <1>  -0.0970 
  7 C        4.8310     1.9080    -1.8630 C.ar  1 <1>  -0.1500 
  8 C        3.7120     5.1920    -0.4500 C.2   1 <1>   0.5440 
  9 C        4.8030     3.2310    -1.4600 C.ar  1 <1>  -0.1500 
 10 O        3.1520     6.0270    -1.1360 O.2   1 <1>  -0.5700 
 11 N        4.3580     5.5920     0.7050 N.am  1 <1>  -0.6600 
 12 C        5.1030     4.6380     1.5940 C.3   1 <1>   0.1400 
 13 C        4.4140     7.0340     1.0780 C.3   1 <1>   0.1400 
 14 C        6.4950     5.1340     2.0210 C.3   1 <1>   0.1400 
 15 C        5.6000     7.7210     0.3860 C.3   1 <1>  -0.1600 
 16 N        7.1870     5.8710     0.9250 N.am  1 <1>  -0.6600 
 17 C        6.9760     7.3440     0.9480 C.3   1 <1>   0.1400 
 18 C        7.8420     5.1850    -0.0680 C.2   1 <1>   0.5690 
 19 O        7.9250     3.9770    -0.0460 O.2   1 <1>  -0.5700 
 20 C        8.4740     5.8990    -1.2490 C.3   1 <1>   0.0440 
 21 C        9.7910     6.5470    -0.8640 C.ar  1 <1>   0.1670 
 22 N        9.9090     7.8440    -1.1160 N.ar  1 <1>  -0.6200 
 23 C       10.7920     5.7770    -0.2880 C.ar  1 <1>  -0.1500 
 24 C       11.0660     8.3910    -0.7790 C.ar  1 <1>   0.1600 
 25 C       11.9900     6.3610     0.0590 C.ar  1 <1>  -0.1500 
 26 C       12.1210     7.7080    -0.1990 C.ar  1 <1>  -0.1500 
 27 H        3.7040     0.0850    -1.9870 H     1 <1>   0.1500 
 28 H        0.5120     2.8600     0.0880 H     1 <1>   0.0800 
 29 H        0.8950     4.3790    -0.6730 H     1 <1>   0.0800 
 30 H        1.5200     4.0120     0.9160 H     1 <1>   0.0800 
 31 H        5.7210     1.4990    -2.3130 H     1 <1>   0.1500 
 32 H        5.6770     3.8430    -1.6010 H     1 <1>   0.1500 
 33 H        5.2400     3.6950     1.0990 H     1 <1>   0.0800 
 34 H        4.5140     4.4480     2.4740 H     1 <1>   0.0800 
 35 H        4.4850     7.1380     2.1460 H     1 <1>   0.0800 
 36 H        3.5010     7.5130     0.7660 H     1 <1>   0.0800 
 37 H        7.0920     4.2890     2.3200 H     1 <1>   0.0800 
 38 H        6.3990     5.7720     2.8810 H     1 <1>   0.0800 
 39 H        5.4810     8.7830     0.4980 H     1 <1>   0.0800 
 40 H        5.5650     7.5140    -0.6680 H     1 <1>   0.0800 
 41 H        7.0620     7.6960     1.9610 H     1 <1>   0.0800 
 42 H        7.7400     7.8450     0.3800 H     1 <1>   0.0800 
 43 H        7.7900     6.6300    -1.6350 H     1 <1>   0.0800 
 44 H        8.6570     5.1870    -2.0310 H     1 <1>   0.0800 
 45 H       10.6350     4.7270    -0.1120 H     1 <1>   0.1500 
 46 H       11.1810     9.4430    -0.9780 H     1 <1>   0.1500 
 47 H       12.7850     5.7910     0.5090 H     1 <1>   0.1500 
 48 H       13.0300     8.2260     0.0460 H     1 <1>   0.1500 
@<TRIPOS>BOND
  1   1   2  1   
  2   2   3  ar  
  3   2   4  ar  
  4   3   5  ar  
  5   3   6  1   
  6   4   7  ar  
  7   4  27  1   
  8   5   8  1   
  9   5   9  ar  
 10   6  28  1   
 11   6  29  1   
 12   6  30  1   
 13   7   9  ar  
 14   7  31  1   
 15   8  10  2   
 16   8  11  am  
 17   9  32  1   
 18  11  12  1   
 19  11  13  1   
 20  12  14  1   
 21  12  33  1   
 22  12  34  1   
 23  13  15  1   
 24  13  35  1   
 25  13  36  1   
 26  14  16  1   
 27  14  37  1   
 28  14  38  1   
 29  15  17  1   
 30  15  39  1   
 31  15  40  1   
 32  16  17  1   
 33  16  18  am  
 34  17  41  1   
 35  17  42  1   
 36  18  19  2   
 37  18  20  1   
 38  20  21  1   
 39  20  43  1   
 40  20  44  1   
 41  21  22  ar  
 42  21  23  ar  
 43  22  24  ar  
 44  23  25  ar  
 45  23  45  1   
 46  24  26  ar  
 47  24  46  1   
 48  25  26  ar  
 49  25  47  1   
 50  26  48  1   
@<TRIPOS>SUBSTRUCTURE
  1 ****  18 GROUP 4 **** **** 0

# MOE 2024.06 (io_trps.svl 2023.06)
