@<TRIPOS>MOLECULE
NONAME
54 57 1 0 0 
SMALL
USER_CHARGES


@<TRIPOS>ATOM
  1 O        1.8320    -1.3730    -1.4290 O.2   1 <1>  -0.5740 
  2 C        2.6300    -0.7640    -0.7560 C.2   1 <1>   0.6860 
  3 N        2.9240     0.5740    -0.9810 N.am  1 <1>  -0.4410 
  4 N        3.2610    -1.4240     0.2600 N.am  1 <1>  -0.4950 
  5 C        3.8590     1.1780    -0.1520 C.2   1 <1>   0.4210 
  6 C        2.2580     1.3340    -2.0800 C.3   1 <1>   0.0530 
  7 C        4.1820    -0.8460     1.0850 C.2   1 <1>   0.6990 
  8 N        4.3030     2.4650    -0.1860 N.pl3 1 <1>  -0.7040 
  9 C        4.4910     0.5350     0.8560 C.2   1 <1>   0.2710 
 10 O        4.6930    -1.5110     1.9640 O.2   1 <1>  -0.5740 
 11 C        5.1970     2.6190     0.7880 C.cat 1 <1>   1.0690 
 12 N        5.3510     1.4750     1.4560 N.pl3 1 <1>  -0.7670 
 13 N        5.8450     3.7450     1.0620 N.pl3 1 <1>  -0.7180 
 14 C        6.2190     1.1280     2.6190 C.3   1 <1>   0.2680 
 15 C        5.7470     5.0650     0.4180 C.3   1 <1>   0.2410 
 16 C        7.1180     5.4160    -0.1740 C.3   1 <1>  -0.1670 
 17 C        5.2980     6.0770     1.4780 C.3   1 <1>  -0.1670 
 18 C        7.1670     6.8650    -0.6670 C.3   1 <1>   0.1330 
 19 C        5.3770     7.5080     0.9460 C.3   1 <1>   0.1330 
 20 N        6.7540     7.7470     0.4510 N.am  1 <1>  -0.6640 
 21 C        7.6590     8.4870     1.1880 C.2   1 <1>   0.5390 
 22 O        7.4220     8.6830     2.3660 O.2   1 <1>  -0.5740 
 23 C        8.8900     8.9930     0.6070 C.ar  1 <1>   0.0790 
 24 C        8.9040     9.6410    -0.6290 C.ar  1 <1>  -0.1570 
 25 C       10.1090     8.8450     1.2660 C.ar  1 <1>  -0.1570 
 26 C       10.0810    10.0990    -1.1900 C.ar  1 <1>  -0.1570 
 27 C       11.2900     9.3020     0.7090 C.ar  1 <1>  -0.1570 
 28 C       11.2840     9.9280    -0.5260 C.ar  1 <1>  -0.1500 
 29 C       12.5790    10.4310    -1.1380 C.3   1 <1>  -0.1040 
 30 H        3.0230    -2.4050     0.4000 H     1 <1>   0.3640 
 31 H        1.5420     0.7170    -2.5960 H     1 <1>   0.0730 
 32 H        2.9930     1.6660    -2.7930 H     1 <1>   0.0730 
 33 H        1.7380     2.1850    -1.6750 H     1 <1>   0.0730 
 34 H        4.0110     3.1900    -0.8320 H     1 <1>   0.4450 
 35 H        6.5010     3.7390     1.8400 H     1 <1>   0.4450 
 36 H        6.8900     0.3290     2.3490 H     1 <1>   0.0730 
 37 H        5.6100     0.7970     3.4440 H     1 <1>   0.0730 
 38 H        6.8010     1.9750     2.9370 H     1 <1>   0.0730 
 39 H        5.0190     5.0500    -0.3770 H     1 <1>   0.0730 
 40 H        7.3430     4.7630    -0.9980 H     1 <1>   0.0730 
 41 H        7.8860     5.2990     0.5710 H     1 <1>   0.0730 
 42 H        5.9310     6.0190     2.3470 H     1 <1>   0.0730 
 43 H        4.2860     5.8760     1.7800 H     1 <1>   0.0730 
 44 H        6.4980     7.0100    -1.4980 H     1 <1>   0.0730 
 45 H        8.1650     7.0980    -0.9940 H     1 <1>   0.0730 
 46 H        5.1300     8.2080     1.7270 H     1 <1>   0.0730 
 47 H        4.6800     7.6540     0.1390 H     1 <1>   0.0730 
 48 H        7.9750     9.7860    -1.1510 H     1 <1>   0.1430 
 49 H       10.1220     8.3670     2.2290 H     1 <1>   0.1430 
 50 H       10.0590    10.5930    -2.1450 H     1 <1>   0.1430 
 51 H       12.2150     9.1710     1.2430 H     1 <1>   0.1430 
 52 H       12.5200    10.4120    -2.2110 H     1 <1>   0.0730 
 53 H       13.4030     9.8130    -0.8320 H     1 <1>   0.0730 
 54 H       12.7630    11.4410    -0.8170 H     1 <1>   0.0730 
@<TRIPOS>BOND
  1   1   2  2   
  2   2   3  am  
  3   2   4  am  
  4   3   5  1   
  5   3   6  1   
  6   4   7  am  
  7   4  30  1   
  8   5   8  1   
  9   5   9  2   
 10   6  31  1   
 11   6  32  1   
 12   6  33  1   
 13   7   9  1   
 14   7  10  2   
 15   8  11  ar  
 16   8  34  1   
 17   9  12  1   
 18  11  12  ar  
 19  11  13  ar  
 20  12  14  1   
 21  13  15  1   
 22  13  35  1   
 23  14  36  1   
 24  14  37  1   
 25  14  38  1   
 26  15  16  1   
 27  15  17  1   
 28  15  39  1   
 29  16  18  1   
 30  16  40  1   
 31  16  41  1   
 32  17  19  1   
 33  17  42  1   
 34  17  43  1   
 35  18  20  1   
 36  18  44  1   
 37  18  45  1   
 38  19  20  1   
 39  19  46  1   
 40  19  47  1   
 41  20  21  am  
 42  21  22  2   
 43  21  23  1   
 44  23  24  ar  
 45  23  25  ar  
 46  24  26  ar  
 47  24  48  1   
 48  25  27  ar  
 49  25  49  1   
 50  26  28  ar  
 51  26  50  1   
 52  27  28  ar  
 53  27  51  1   
 54  28  29  1   
 55  29  52  1   
 56  29  53  1   
 57  29  54  1   
@<TRIPOS>SUBSTRUCTURE
  1 ****  15 GROUP 4 **** **** 0

# MOE 2024.06 (io_trps.svl 2023.06)
