@<TRIPOS>MOLECULE
NONAME
37 39 1 0 0 
SMALL
USER_CHARGES


@<TRIPOS>ATOM
  1 S       -0.3390    -0.1050     0.5340 S.3   1 <1>  -0.0800 
  2 C       -1.2750    -1.1010    -0.5290 C.2   1 <1>   0.4420 
  3 C       -0.4350     1.1470    -0.6610 C.2   1 <1>   0.1980 
  4 N       -1.5680    -0.5000    -1.6240 N.2   1 <1>  -0.3380 
  5 N       -1.5720    -2.3680    -0.0720 N.am  1 <1>  -0.4940 
  6 N       -1.0870     0.7790    -1.6930 N.2   1 <1>  -0.3380 
  7 C        0.2610     2.4760    -0.3650 C.3   1 <1>   0.3800 
  8 C       -2.2700    -3.3830    -0.6770 C.2   1 <1>   0.5440 
  9 O       -0.0350     2.8700     0.9460 O.3   1 <1>  -0.5600 
 10 C       -0.1870     3.5940    -1.3140 C.3   1 <1>  -0.2400 
 11 O       -2.7170    -3.2450    -1.7940 O.2   1 <1>  -0.5700 
 12 C       -2.4770    -4.6200     0.0510 C.ar  1 <1>   0.0860 
 13 C        0.9210     3.6690     1.5730 C.3   1 <1>   0.0400 
 14 C       -3.7220    -5.2450     0.1130 C.ar  1 <1>  -0.1430 
 15 C       -1.4280    -5.2410     0.7370 C.ar  1 <1>  -0.1500 
 16 C       -3.9280    -6.4090     0.8260 C.ar  1 <1>   0.0860 
 17 C       -5.0160    -4.7950    -0.5500 C.3   1 <1>  -0.0170 
 18 C       -1.6190    -6.4100     1.4560 C.ar  1 <1>  -0.1500 
 19 C       -5.2910    -6.8290     0.7350 C.2   1 <1>   0.4230 
 20 C       -2.8700    -6.9970     1.5060 C.ar  1 <1>  -0.1500 
 21 C       -6.0600    -5.8480    -0.1230 C.3   1 <1>  -0.0990 
 22 O       -5.8060    -7.7910     1.2390 O.2   1 <1>  -0.5700 
 23 H       -1.2660    -2.5550     0.8770 H     1 <1>   0.3700 
 24 H        1.3230     2.3210    -0.4480 H     1 <1>   0.0800 
 25 H       -1.2430     3.7660    -1.2010 H     1 <1>   0.0800 
 26 H        0.0010     3.3020    -2.3310 H     1 <1>   0.0800 
 27 H        0.3500     4.5040    -1.1220 H     1 <1>   0.0800 
 28 H        0.5760     3.8780     2.5700 H     1 <1>   0.0800 
 29 H        1.0330     4.5930     1.0330 H     1 <1>   0.0800 
 30 H        1.8560     3.1390     1.6190 H     1 <1>   0.0800 
 31 H       -0.4420    -4.8110     0.7000 H     1 <1>   0.1500 
 32 H       -4.9050    -4.7840    -1.6220 H     1 <1>   0.0800 
 33 H       -5.2960    -3.8120    -0.2130 H     1 <1>   0.0800 
 34 H       -0.7930    -6.8680     1.9750 H     1 <1>   0.1500 
 35 H       -3.0400    -7.9060     2.0590 H     1 <1>   0.1500 
 36 H       -6.4730    -6.3550    -0.9760 H     1 <1>   0.0800 
 37 H       -6.8500    -5.4020     0.4530 H     1 <1>   0.0800 
@<TRIPOS>BOND
  1   1   2  1   
  2   1   3  1   
  3   2   4  2   
  4   2   5  1   
  5   3   6  2   
  6   3   7  1   
  7   4   6  1   
  8   5   8  am  
  9   5  23  1   
 10   7   9  1   
 11   7  10  1   
 12   7  24  1   
 13   8  11  2   
 14   8  12  1   
 15   9  13  1   
 16  10  25  1   
 17  10  26  1   
 18  10  27  1   
 19  12  14  ar  
 20  12  15  ar  
 21  13  28  1   
 22  13  29  1   
 23  13  30  1   
 24  14  16  ar  
 25  14  17  1   
 26  15  18  ar  
 27  15  31  1   
 28  16  19  1   
 29  16  20  ar  
 30  17  21  1   
 31  17  32  1   
 32  17  33  1   
 33  18  20  ar  
 34  18  34  1   
 35  19  21  1   
 36  19  22  2   
 37  20  35  1   
 38  21  36  1   
 39  21  37  1   
@<TRIPOS>SUBSTRUCTURE
  1 ****   5 GROUP 4 **** **** 0

# MOE 2024.06 (io_trps.svl 2023.06)
