@<TRIPOS>MOLECULE
NONAME
57 59 1 0 0 
SMALL
USER_CHARGES


@<TRIPOS>ATOM
  1 O       -1.6830     0.2030    -2.2660 O.2   1 <1>  -0.5700 
  2 C       -2.4190     1.1610    -2.1120 C.2   1 <1>   0.5440 
  3 N       -3.6880     0.9600    -1.6130 N.am  1 <1>  -0.6600 
  4 C       -1.9250     2.4900    -2.4080 C.ar  1 <1>   0.0860 
  5 C       -4.1830    -0.4090    -1.3080 C.3   1 <1>   0.3200 
  6 C       -4.5660     2.0790    -1.1570 C.3   1 <1>   0.1400 
  7 C       -1.0300     3.1220    -1.5500 C.ar  1 <1>  -0.1500 
  8 C       -2.3350     3.1820    -3.5460 C.ar  1 <1>  -0.1500 
  9 C       -3.6600    -0.8280     0.0490 C.2   1 <1>  -0.3320 
 10 C       -4.2600     2.4580     0.2970 C.3   1 <1>   0.1200 
 11 C       -0.5670     4.4010    -1.8000 C.ar  1 <1>   0.0830 
 12 C       -1.8770     4.4610    -3.8100 C.ar  1 <1>  -0.1500 
 13 N       -2.3450    -0.9690     0.2860 N.pl3 1 <1>   0.0330 
 14 C       -4.2880    -1.1270     1.2070 C.2   1 <1>   0.0770 
 15 O       -4.9440     3.6240     0.6140 O.3   1 <1>  -0.6800 
 16 O        0.2930     4.9220    -0.8920 O.3   1 <1>  -0.3630 
 17 C       -0.9950     5.0760    -2.9400 C.ar  1 <1>  -0.1500 
 18 C       -2.2530    -1.3400     1.5800 C.2   1 <1>   0.0070 
 19 N       -3.4000    -1.4460     2.1680 N.2   1 <1>  -0.5650 
 20 C        0.8600     6.2140    -1.0630 C.3   1 <1>   0.1810 
 21 C       -0.9270    -1.6000     2.2600 C.3   1 <1>  -0.0600 
 22 C        1.8250     6.5640     0.0680 C.2   1 <1>   0.5690 
 23 O        2.9750     6.7710    -0.2460 O.2   1 <1>  -0.5700 
 24 N        1.4030     6.6770     1.3750 N.am  1 <1>  -0.6600 
 25 C        2.3550     7.0400     2.4630 C.3   1 <1>   0.1400 
 26 C        0.0150     6.4130     1.8520 C.3   1 <1>   0.1400 
 27 C        1.8410     8.2750     3.2110 C.3   1 <1>  -0.1600 
 28 C       -0.5210     7.6420     2.5940 C.3   1 <1>  -0.1600 
 29 C        0.4140     8.0660     3.7360 C.3   1 <1>  -0.1600 
 30 H       -3.8340    -1.0980    -2.0600 H     1 <1>   0.0800 
 31 H       -5.2590    -0.4260    -1.3150 H     1 <1>   0.0800 
 32 H       -5.5980     1.7860    -1.2370 H     1 <1>   0.0800 
 33 H       -4.4150     2.9350    -1.7880 H     1 <1>   0.0800 
 34 H       -0.6850     2.6040    -0.6730 H     1 <1>   0.1500 
 35 H       -3.0180     2.7060    -4.2280 H     1 <1>   0.1500 
 36 H       -3.2090     2.6340     0.4430 H     1 <1>   0.0800 
 37 H       -4.5940     1.6870     0.9690 H     1 <1>   0.0800 
 38 H       -2.2050     4.9770    -4.6970 H     1 <1>   0.1500 
 39 H       -1.5970    -0.8000    -0.4010 H     1 <1>   0.2700 
 40 H       -5.3460    -1.1290     1.4090 H     1 <1>   0.1500 
 41 H       -4.5490     4.3950     0.1610 H     1 <1>   0.4000 
 42 H       -0.6530     6.0680    -3.1690 H     1 <1>   0.1500 
 43 H        0.0670     6.9370    -1.0920 H     1 <1>   0.0800 
 44 H        1.3960     6.2220    -1.9950 H     1 <1>   0.0800 
 45 H       -0.4100    -2.4000     1.7630 H     1 <1>   0.0800 
 46 H       -1.0940    -1.8790     3.2850 H     1 <1>   0.0800 
 47 H       -0.3210    -0.7140     2.2360 H     1 <1>   0.0800 
 48 H        3.3340     7.2460     2.0640 H     1 <1>   0.0800 
 49 H        2.4420     6.2100     3.1430 H     1 <1>   0.0800 
 50 H        0.0330     5.5660     2.5160 H     1 <1>   0.0800 
 51 H       -0.6440     6.1790     1.0370 H     1 <1>   0.0800 
 52 H        1.8650     9.1170     2.5420 H     1 <1>   0.0800 
 53 H        2.5010     8.4910     4.0330 H     1 <1>   0.0800 
 54 H       -1.4950     7.4200     2.9910 H     1 <1>   0.0800 
 55 H       -0.6280     8.4520     1.8940 H     1 <1>   0.0800 
 56 H        0.0530     8.9760     4.1830 H     1 <1>   0.0800 
 57 H        0.4210     7.3020     4.4940 H     1 <1>   0.0800 
@<TRIPOS>BOND
  1   1   2  2   
  2   2   3  am  
  3   2   4  1   
  4   3   5  1   
  5   3   6  1   
  6   4   7  ar  
  7   4   8  ar  
  8   5   9  1   
  9   5  30  1   
 10   5  31  1   
 11   6  10  1   
 12   6  32  1   
 13   6  33  1   
 14   7  11  ar  
 15   7  34  1   
 16   8  12  ar  
 17   8  35  1   
 18   9  13  1   
 19   9  14  2   
 20  10  15  1   
 21  10  36  1   
 22  10  37  1   
 23  11  16  1   
 24  11  17  ar  
 25  12  17  ar  
 26  12  38  1   
 27  13  18  1   
 28  13  39  1   
 29  14  19  1   
 30  14  40  1   
 31  15  41  1   
 32  16  20  1   
 33  17  42  1   
 34  18  19  2   
 35  18  21  1   
 36  20  22  1   
 37  20  43  1   
 38  20  44  1   
 39  21  45  1   
 40  21  46  1   
 41  21  47  1   
 42  22  23  2   
 43  22  24  am  
 44  24  25  1   
 45  24  26  1   
 46  25  27  1   
 47  25  48  1   
 48  25  49  1   
 49  26  28  1   
 50  26  50  1   
 51  26  51  1   
 52  27  29  1   
 53  27  52  1   
 54  27  53  1   
 55  28  29  1   
 56  28  54  1   
 57  28  55  1   
 58  29  56  1   
 59  29  57  1   
@<TRIPOS>SUBSTRUCTURE
  1 ****   7 GROUP 4 **** **** 0

# MOE 2024.06 (io_trps.svl 2023.06)
