@<TRIPOS>MOLECULE
NONAME
63 66 1 0 0 
SMALL
USER_CHARGES


@<TRIPOS>ATOM
  1 O       -0.2950    -0.5510     0.7820 O.3   1 <1>  -0.3630 
  2 C       -1.4440    -1.2690     0.9460 C.ar  1 <1>   0.0830 
  3 C        0.8590    -1.0770     0.1670 C.3   1 <1>   0.1200 
  4 C       -1.6670    -2.6010     0.5610 C.ar  1 <1>   0.0830 
  5 C       -2.4730    -0.5740     1.5590 C.ar  1 <1>  -0.1500 
  6 C        1.9170     0.0190     0.1130 C.3   1 <1>   0.0960 
  7 O       -0.7230    -3.3570    -0.0480 O.3   1 <1>  -0.3630 
  8 C       -2.9070    -3.1830     0.7750 C.ar  1 <1>  -0.1500 
  9 C       -3.7070    -1.1630     1.7770 C.ar  1 <1>  -0.1500 
 10 N        3.1620    -0.5290    -0.4540 N.pl3 1 <1>   0.0480 
 11 C       -0.1670    -4.4140     0.7010 C.3   1 <1>   0.1200 
 12 C       -3.9350    -2.4700     1.3750 C.ar  1 <1>  -0.1430 
 13 C        3.5200    -0.6020    -1.7550 C.2   1 <1>   0.0360 
 14 C        4.1820    -1.0970     0.2130 C.2   1 <1>  -0.3020 
 15 C        1.0170    -4.9740    -0.0820 C.3   1 <1>  -0.2400 
 16 C       -5.2970    -3.1060     1.5720 C.3   1 <1>   0.4860 
 17 N        4.6700    -1.1620    -1.9540 N.2   1 <1>  -0.5650 
 18 C        5.0890    -1.4740    -0.7140 C.2   1 <1>   0.0770 
 19 N       -6.2300    -2.5390     0.5660 N.4   1 <1>  -0.9590 
 20 C       -7.6590    -2.8910     0.8560 C.3   1 <1>   0.3430 
 21 C       -5.8470    -2.8590    -0.8360 C.3   1 <1>   0.3430 
 22 C       -8.6260    -2.5230    -0.2920 C.3   1 <1>   0.0000 
 23 C       -6.6170    -1.9390    -1.7900 C.3   1 <1>  -0.1600 
 24 C       -9.9570    -2.0530     0.3140 C.3   1 <1>   0.2000 
 25 C       -7.9830    -1.4730    -1.2440 C.3   1 <1>  -0.1600 
 26 C       -9.1000    -3.7430    -1.1030 C.3   1 <1>  -0.1600 
 27 O       -9.8720    -0.7560     0.7800 O.3   1 <1>  -0.6800 
 28 C      -10.9880    -2.1890    -0.8010 C.3   1 <1>  -0.1600 
 29 C      -10.4770    -3.3540    -1.6640 C.3   1 <1>  -0.1600 
 30 H        1.2070    -1.9030     0.7590 H     1 <1>   0.0800 
 31 H        0.5990    -1.4000    -0.8270 H     1 <1>   0.0800 
 32 H       -2.3000     0.4420     1.8670 H     1 <1>   0.1500 
 33 H        2.1200     0.3840     1.1030 H     1 <1>   0.0800 
 34 H        1.5780     0.8300    -0.5060 H     1 <1>   0.0800 
 35 H       -3.0570    -4.1990     0.4550 H     1 <1>   0.1500 
 36 H       -4.4770    -0.5850     2.2600 H     1 <1>   0.1500 
 37 H        0.1530    -4.0270     1.6540 H     1 <1>   0.0800 
 38 H       -0.9190    -5.1690     0.8470 H     1 <1>   0.0800 
 39 H        2.8920    -0.2240    -2.5430 H     1 <1>   0.1500 
 40 H        4.2110    -1.2010     1.2830 H     1 <1>   0.1500 
 41 H        1.7620    -4.2130    -0.2290 H     1 <1>   0.0800 
 42 H        0.6890    -5.3430    -1.0370 H     1 <1>   0.0800 
 43 H        1.4630    -5.7850     0.4640 H     1 <1>   0.0800 
 44 H       -5.6480    -2.8890     2.5680 H     1 <1>   0.0800 
 45 H       -5.2280    -4.1760     1.4580 H     1 <1>   0.0800 
 46 H        6.0370    -1.9610    -0.5530 H     1 <1>   0.1500 
 47 H       -6.1560    -1.5160     0.6370 H     1 <1>   0.4500 
 48 H       -7.7450    -3.9460     1.0590 H     1 <1>   0.0800 
 49 H       -7.9690    -2.3600     1.7420 H     1 <1>   0.0800 
 50 H       -4.7880    -2.7220    -0.9870 H     1 <1>   0.0800 
 51 H       -6.0910    -3.8880    -1.0480 H     1 <1>   0.0800 
 52 H       -6.0140    -1.0750    -2.0120 H     1 <1>   0.0800 
 53 H       -6.7570    -2.4620    -2.7200 H     1 <1>   0.0800 
 54 H      -10.2440    -2.6870     1.1370 H     1 <1>   0.0800 
 55 H       -8.6360    -1.2360    -2.0660 H     1 <1>   0.0800 
 56 H       -7.8280    -0.5560    -0.7010 H     1 <1>   0.0800 
 57 H       -8.4250    -4.0280    -1.8910 H     1 <1>   0.0800 
 58 H       -9.2310    -4.5900    -0.4490 H     1 <1>   0.0800 
 59 H      -10.7670    -0.4040     0.9630 H     1 <1>   0.4000 
 60 H      -11.9650    -2.4020    -0.4030 H     1 <1>   0.0800 
 61 H      -11.0250    -1.2920    -1.3940 H     1 <1>   0.0800 
 62 H      -11.1530    -4.1910    -1.6290 H     1 <1>   0.0800 
 63 H      -10.3870    -3.0310    -2.6890 H     1 <1>   0.0800 
@<TRIPOS>BOND
  1   1   2  1   
  2   1   3  1   
  3   2   4  ar  
  4   2   5  ar  
  5   3   6  1   
  6   3  30  1   
  7   3  31  1   
  8   4   7  1   
  9   4   8  ar  
 10   5   9  ar  
 11   5  32  1   
 12   6  10  1   
 13   6  33  1   
 14   6  34  1   
 15   7  11  1   
 16   8  12  ar  
 17   8  35  1   
 18   9  12  ar  
 19   9  36  1   
 20  10  13  1   
 21  10  14  1   
 22  11  15  1   
 23  11  37  1   
 24  11  38  1   
 25  12  16  1   
 26  13  17  2   
 27  13  39  1   
 28  14  18  2   
 29  14  40  1   
 30  15  41  1   
 31  15  42  1   
 32  15  43  1   
 33  16  19  1   
 34  16  44  1   
 35  16  45  1   
 36  17  18  1   
 37  18  46  1   
 38  19  20  1   
 39  19  21  1   
 40  19  47  1   
 41  20  22  1   
 42  20  48  1   
 43  20  49  1   
 44  21  23  1   
 45  21  50  1   
 46  21  51  1   
 47  22  24  1   
 48  22  25  1   
 49  22  26  1   
 50  23  25  1   
 51  23  52  1   
 52  23  53  1   
 53  24  27  1   
 54  24  28  1   
 55  24  54  1   
 56  25  55  1   
 57  25  56  1   
 58  26  29  1   
 59  26  57  1   
 60  26  58  1   
 61  27  59  1   
 62  28  29  1   
 63  28  60  1   
 64  28  61  1   
 65  29  62  1   
 66  29  63  1   
@<TRIPOS>SUBSTRUCTURE
  1 ****   8 GROUP 4 **** **** 0

# MOE 2024.06 (io_trps.svl 2023.06)
