@<TRIPOS>MOLECULE
NONAME
45 48 1 0 0 
SMALL
USER_CHARGES


@<TRIPOS>ATOM
  1 O       -0.8050     0.7890    -1.2310 O.2   1 <1>  -0.5700 
  2 C       -1.7340     1.0150    -0.4790 C.2   1 <1>   0.5440 
  3 N       -1.8010     2.2480     0.1370 N.am  1 <1>  -0.6600 
  4 C       -2.7350    -0.0050    -0.2710 C.ar  1 <1>   0.0860 
  5 C       -0.6330     3.1820     0.1630 C.3   1 <1>   0.1400 
  6 C       -3.0800     2.9030     0.5490 C.3   1 <1>   0.1400 
  7 C       -3.1990    -0.7640    -1.3420 C.ar  1 <1>   0.1600 
  8 C       -3.2730    -0.2940     0.9790 C.ar  1 <1>  -0.1500 
  9 C       -0.9710     4.4910    -0.5670 C.3   1 <1>   0.1200 
 10 C       -3.2710     4.2380    -0.1930 C.3   1 <1>   0.1200 
 11 N       -4.1190    -1.7120    -1.2850 N.ar  1 <1>  -0.6200 
 12 C       -4.2260    -1.2800     1.0600 C.ar  1 <1>  -0.1500 
 13 O       -2.1440     5.0540    -0.0490 O.3   1 <1>  -0.5600 
 14 C       -4.6260    -1.9640    -0.0840 C.ar  1 <1>   0.4100 
 15 N       -5.5720    -2.9470     0.0150 N.pl3 1 <1>  -0.8690 
 16 C       -5.9130    -3.8790    -1.0860 C.3   1 <1>   0.2890 
 17 C       -7.3210    -4.4400    -0.8240 C.3   1 <1>  -0.0170 
 18 C       -4.9700    -5.0930    -1.0140 C.3   1 <1>  -0.0170 
 19 C       -7.0500    -5.7040    -0.0410 C.ar  1 <1>  -0.1430 
 20 C       -5.7310    -6.0710    -0.1480 C.ar  1 <1>  -0.1430 
 21 C       -7.9350    -6.4550     0.7100 C.ar  1 <1>  -0.1500 
 22 C       -5.2560    -7.2000     0.4920 C.ar  1 <1>  -0.1500 
 23 C       -7.4690    -7.5900     1.3560 C.ar  1 <1>  -0.1500 
 24 C       -6.1350    -7.9610     1.2480 C.ar  1 <1>  -0.1500 
 25 H        0.2290     2.7300    -0.2950 H     1 <1>   0.0800 
 26 H       -0.3820     3.4030     1.1850 H     1 <1>   0.0800 
 27 H       -3.0580     3.0880     1.6090 H     1 <1>   0.0800 
 28 H       -3.9200     2.2670     0.3360 H     1 <1>   0.0800 
 29 H       -2.7730    -0.5640    -2.3110 H     1 <1>   0.1500 
 30 H       -2.9420     0.2410     1.8520 H     1 <1>   0.1500 
 31 H       -1.1060     4.3110    -1.6200 H     1 <1>   0.0800 
 32 H       -0.1770     5.2050    -0.4370 H     1 <1>   0.0800 
 33 H       -4.1140     4.7700     0.2100 H     1 <1>   0.0800 
 34 H       -3.4400     4.0670    -1.2420 H     1 <1>   0.0800 
 35 H       -4.6730    -1.5370     2.0020 H     1 <1>   0.1500 
 36 H       -5.7110    -3.3760     0.9330 H     1 <1>   0.4000 
 37 H       -5.8580    -3.3780    -2.0380 H     1 <1>   0.0800 
 38 H       -7.7900    -4.6990    -1.7560 H     1 <1>   0.0800 
 39 H       -7.9400    -3.7430    -0.2880 H     1 <1>   0.0800 
 40 H       -4.0100    -4.8340    -0.6050 H     1 <1>   0.0800 
 41 H       -4.8430    -5.5150    -1.9940 H     1 <1>   0.0800 
 42 H       -8.9670    -6.1650     0.7910 H     1 <1>   0.1500 
 43 H       -4.2220    -7.4830     0.4060 H     1 <1>   0.1500 
 44 H       -8.1440    -8.1860     1.9440 H     1 <1>   0.1500 
 45 H       -5.7820    -8.8430     1.7520 H     1 <1>   0.1500 
@<TRIPOS>BOND
  1   1   2  2   
  2   2   3  am  
  3   2   4  1   
  4   3   5  1   
  5   3   6  1   
  6   4   7  ar  
  7   4   8  ar  
  8   5   9  1   
  9   5  25  1   
 10   5  26  1   
 11   6  10  1   
 12   6  27  1   
 13   6  28  1   
 14   7  11  ar  
 15   7  29  1   
 16   8  12  ar  
 17   8  30  1   
 18   9  13  1   
 19   9  31  1   
 20   9  32  1   
 21  10  13  1   
 22  10  33  1   
 23  10  34  1   
 24  11  14  ar  
 25  12  14  ar  
 26  12  35  1   
 27  14  15  1   
 28  15  16  1   
 29  15  36  1   
 30  16  17  1   
 31  16  18  1   
 32  16  37  1   
 33  17  19  1   
 34  17  38  1   
 35  17  39  1   
 36  18  20  1   
 37  18  40  1   
 38  18  41  1   
 39  19  20  ar  
 40  19  21  ar  
 41  20  22  ar  
 42  21  23  ar  
 43  21  42  1   
 44  22  24  ar  
 45  22  43  1   
 46  23  24  ar  
 47  23  44  1   
 48  24  45  1   
@<TRIPOS>SUBSTRUCTURE
  1 ****  14 GROUP 4 **** **** 0

# MOE 2024.06 (io_trps.svl 2023.06)
