@<TRIPOS>MOLECULE
NONAME
53 56 1 0 0 
SMALL
USER_CHARGES


@<TRIPOS>ATOM
  1 O       -0.1850     1.0990    -0.7170 O.2   1 <1>  -0.5700 
  2 C       -0.1960     2.3050    -0.6250 C.2   1 <1>   0.5690 
  3 N       -1.1210     2.9980     0.1180 N.am  1 <1>  -0.5090 
  4 C        0.8900     3.0690    -1.3810 C.3   1 <1>   0.1810 
  5 C       -1.0400     4.4930     0.2420 C.3   1 <1>   0.3640 
  6 C       -1.9050     2.3130     1.1820 C.3   1 <1>   0.0490 
  7 O        1.1770     4.3150    -0.7970 O.3   1 <1>  -0.5600 
  8 C       -2.3790     5.1390    -0.1060 C.ar  1 <1>  -0.1440 
  9 C        0.0430     5.1440    -0.6590 C.3   1 <1>   0.2610 
 10 C       -2.7780     1.1540     0.8130 C.3   1 <1>  -0.2000 
 11 C       -3.3970     2.4370     1.2610 C.3   1 <1>  -0.2000 
 12 C       -2.9120     6.1130     0.7280 C.ar  1 <1>   0.1600 
 13 C       -3.0750     4.7960    -1.2510 C.ar  1 <1>  -0.1500 
 14 C        0.4240     6.5480    -0.1530 C.2   1 <1>   0.5690 
 15 N       -4.0530     6.7500     0.5160 N.ar  1 <1>  -0.6200 
 16 C       -4.2650     5.4500    -1.4850 C.ar  1 <1>  -0.1500 
 17 O        0.1840     6.8310     1.0020 O.2   1 <1>  -0.5700 
 18 N        0.9850     7.4800    -0.9980 N.am  1 <1>  -0.6600 
 19 C       -4.7030     6.4030    -0.5820 C.ar  1 <1>   0.1600 
 20 C        1.1410     8.8910    -0.5570 C.3   1 <1>   0.1400 
 21 C        1.4840     7.1860    -2.3720 C.3   1 <1>   0.0600 
 22 C        2.4950     9.0750     0.1300 C.3   1 <1>  -0.1600 
 23 C        2.6450    10.5100     0.6510 C.3   1 <1>   0.0960 
 24 N        3.9390    10.6940     1.3350 N.pl3 1 <1>   0.3140 
 25 N        4.0240    10.8080     2.6720 N.2   1 <1>  -0.7070 
 26 C        5.1550    10.7850     0.7580 C.2   1 <1>  -0.3020 
 27 C        5.2900    10.9620     2.9140 C.2   1 <1>   0.1390 
 28 C        6.0520    10.9580     1.7520 C.2   1 <1>  -0.1500 
 29 H        0.5850     3.2240    -2.4000 H     1 <1>   0.0800 
 30 H        1.7960     2.4910    -1.3750 H     1 <1>   0.0800 
 31 H       -0.8060     4.7010     1.2720 H     1 <1>   0.0800 
 32 H       -1.3530     2.2410     2.1050 H     1 <1>   0.1000 
 33 H       -0.3720     5.2700    -1.6420 H     1 <1>   0.0800 
 34 H       -2.8490     0.8740    -0.2230 H     1 <1>   0.1000 
 35 H       -2.8100     0.3060     1.4740 H     1 <1>   0.1000 
 36 H       -3.8610     2.4640     2.2300 H     1 <1>   0.1000 
 37 H       -3.9540     2.9890     0.5280 H     1 <1>   0.1000 
 38 H       -2.3700     6.3920     1.6180 H     1 <1>   0.1500 
 39 H       -2.7160     4.0420    -1.9320 H     1 <1>   0.1500 
 40 H       -4.8540     5.2230    -2.3550 H     1 <1>   0.1500 
 41 H       -5.6350     6.9070    -0.7730 H     1 <1>   0.1500 
 42 H        1.0570     9.5480    -1.4060 H     1 <1>   0.0800 
 43 H        0.3500     9.1400     0.1320 H     1 <1>   0.0800 
 44 H        2.4030     7.7180    -2.5490 H     1 <1>   0.0800 
 45 H        0.7540     7.4990    -3.0980 H     1 <1>   0.0800 
 46 H        1.6820     6.1370    -2.4960 H     1 <1>   0.0800 
 47 H        3.2860     8.8570    -0.5650 H     1 <1>   0.0800 
 48 H        2.5600     8.3960     0.9640 H     1 <1>   0.0800 
 49 H        1.8630    10.7280     1.3560 H     1 <1>   0.0800 
 50 H        2.5870    11.2140    -0.1580 H     1 <1>   0.0800 
 51 H        5.3110    10.7230    -0.3030 H     1 <1>   0.1500 
 52 H        5.6920    11.0800     3.9060 H     1 <1>   0.1500 
 53 H        7.1190    11.0690     1.6920 H     1 <1>   0.1500 
@<TRIPOS>BOND
  1   1   2  2   
  2   2   3  am  
  3   2   4  1   
  4   3   5  1   
  5   3   6  1   
  6   4   7  1   
  7   4  29  1   
  8   4  30  1   
  9   5   8  1   
 10   5   9  1   
 11   5  31  1   
 12   6  10  1   
 13   6  11  1   
 14   6  32  1   
 15   7   9  1   
 16   8  12  ar  
 17   8  13  ar  
 18   9  14  1   
 19   9  33  1   
 20  10  11  1   
 21  10  34  1   
 22  10  35  1   
 23  11  36  1   
 24  11  37  1   
 25  12  15  ar  
 26  12  38  1   
 27  13  16  ar  
 28  13  39  1   
 29  14  17  2   
 30  14  18  am  
 31  15  19  ar  
 32  16  19  ar  
 33  16  40  1   
 34  18  20  1   
 35  18  21  1   
 36  19  41  1   
 37  20  22  1   
 38  20  42  1   
 39  20  43  1   
 40  21  44  1   
 41  21  45  1   
 42  21  46  1   
 43  22  23  1   
 44  22  47  1   
 45  22  48  1   
 46  23  24  1   
 47  23  49  1   
 48  23  50  1   
 49  24  25  1   
 50  24  26  1   
 51  25  27  2   
 52  26  28  2   
 53  26  51  1   
 54  27  28  1   
 55  27  52  1   
 56  28  53  1   
@<TRIPOS>SUBSTRUCTURE
  1 ****  14 GROUP 4 **** **** 0

# MOE 2024.06 (io_trps.svl 2023.06)
