@<TRIPOS>MOLECULE
NONAME
40 41 1 0 0 
SMALL
USER_CHARGES


@<TRIPOS>ATOM
  1 S        0.3660     0.4640    -1.5040 S.o2  1 <1>   1.3330 
  2 O        0.5370    -0.8670    -2.0450 O.2   1 <1>  -0.6500 
  3 O       -0.4580     1.4210    -2.2070 O.2   1 <1>  -0.6500 
  4 N       -0.2780     0.3060     0.0610 N.am  1 <1>  -0.8490 
  5 C        1.9950     1.1610    -1.2220 C.3   1 <1>  -0.0550 
  6 C       -0.8320     1.5600     0.5870 C.3   1 <1>   0.1160 
  7 C       -1.2920    -0.7500     0.1350 C.3   1 <1>   0.1160 
  8 C        3.0070     0.1710    -0.6010 C.3   1 <1>  -0.0800 
  9 C        4.4290     0.6950    -0.4600 C.3   1 <1>   0.2200 
 10 C        2.6800    -0.3000     0.8220 C.3   1 <1>   0.1200 
 11 N        4.4340     2.0710     0.0900 N.am  1 <1>  -0.7300 
 12 C        4.9610    -0.2510     0.6060 C.3   1 <1>   0.1200 
 13 O        3.9010    -0.4070     1.4990 O.3   1 <1>  -0.5600 
 14 C        4.5080     3.2220    -0.6420 C.2   1 <1>   0.7160 
 15 O        4.5830     3.1180    -1.8510 O.2   1 <1>  -0.5700 
 16 C        4.4730     4.5090     0.0410 C.2   1 <1>   0.1410 
 17 N        3.7840     5.6030    -0.5070 N.2   1 <1>  -0.5650 
 18 C        5.0570     4.7720     1.2320 C.2   1 <1>  -0.1100 
 19 C        3.8520     6.6370     0.2250 C.2   1 <1>   0.1980 
 20 S        4.7630     6.4150     1.6980 S.3   1 <1>  -0.0800 
 21 C        3.2520     8.0010    -0.0250 C.3   1 <1>  -0.0600 
 22 H        2.3890     1.4860    -2.1660 H     1 <1>   0.0800 
 23 H        1.9020     2.0310    -0.6030 H     1 <1>   0.0800 
 24 H       -1.1430     1.4260     1.6090 H     1 <1>   0.0800 
 25 H       -1.6800     1.8730     0.0010 H     1 <1>   0.0800 
 26 H       -0.0890     2.3380     0.5590 H     1 <1>   0.0800 
 27 H       -1.6730    -0.8320     1.1390 H     1 <1>   0.0800 
 28 H       -0.8590    -1.6970    -0.1380 H     1 <1>   0.0800 
 29 H       -2.1060    -0.5340    -0.5380 H     1 <1>   0.0800 
 30 H        3.0430    -0.7040    -1.2270 H     1 <1>   0.0800 
 31 H        4.9910     0.6440    -1.3790 H     1 <1>   0.0800 
 32 H        2.1900    -1.2590     0.8240 H     1 <1>   0.0800 
 33 H        2.0780     0.4160     1.3540 H     1 <1>   0.0800 
 34 H        4.2430     2.1160     1.0930 H     1 <1>   0.3700 
 35 H        5.8210     0.1370     1.1220 H     1 <1>   0.0800 
 36 H        5.1870    -1.2160     0.1860 H     1 <1>   0.0800 
 37 H        5.6450     4.1610     1.8920 H     1 <1>   0.1500 
 38 H        2.7140     7.9940    -0.9550 H     1 <1>   0.0800 
 39 H        4.0320     8.7380    -0.0780 H     1 <1>   0.0800 
 40 H        2.5750     8.2540     0.7700 H     1 <1>   0.0800 
@<TRIPOS>BOND
  1   1   2  2   
  2   1   3  2   
  3   1   4  am  
  4   1   5  1   
  5   4   6  1   
  6   4   7  1   
  7   5   8  1   
  8   5  22  1   
  9   5  23  1   
 10   6  24  1   
 11   6  25  1   
 12   6  26  1   
 13   7  27  1   
 14   7  28  1   
 15   7  29  1   
 16   8   9  1   
 17   8  10  1   
 18   8  30  1   
 19   9  11  1   
 20   9  12  1   
 21   9  31  1   
 22  10  13  1   
 23  10  32  1   
 24  10  33  1   
 25  11  14  am  
 26  11  34  1   
 27  12  13  1   
 28  12  35  1   
 29  12  36  1   
 30  14  15  2   
 31  14  16  1   
 32  16  17  1   
 33  16  18  2   
 34  17  19  2   
 35  18  20  1   
 36  18  37  1   
 37  19  20  1   
 38  19  21  1   
 39  21  38  1   
 40  21  39  1   
 41  21  40  1   
@<TRIPOS>SUBSTRUCTURE
  1 ****   5 GROUP 4 **** **** 0

# MOE 2024.06 (io_trps.svl 2023.06)
