@<TRIPOS>MOLECULE
NONAME
55 58 1 0 0 
SMALL
USER_CHARGES


@<TRIPOS>ATOM
  1 F       -1.8140    -0.8530    -1.1600 F     1 <1>  -0.1900 
  2 C       -0.6990    -1.5280    -1.2420 C.ar  1 <1>   0.1900 
  3 C       -0.5480    -2.7050    -0.5060 C.ar  1 <1>   0.0530 
  4 C        0.2770    -1.0330    -2.0850 C.ar  1 <1>  -0.1500 
  5 C       -1.5690    -3.2190     0.3760 C.2   1 <1>   0.4250 
  6 C        0.6600    -3.3850    -0.6730 C.ar  1 <1>  -0.1500 
  7 C        1.4640    -1.7310    -2.2220 C.ar  1 <1>  -0.1500 
  8 O       -2.2910    -2.4030     1.1210 O.3   1 <1>  -0.2800 
  9 N       -1.8860    -4.4680     0.5550 N.2   1 <1>  -0.5650 
 10 C        1.6510    -2.9070    -1.5150 C.ar  1 <1>  -0.1500 
 11 C       -3.1150    -3.1400     1.8040 C.2   1 <1>  -0.0400 
 12 C       -2.8790    -4.4160     1.4670 C.2   1 <1>   0.0460 
 13 C       -4.0850    -2.4560     2.7470 C.3   1 <1>  -0.0600 
 14 C       -3.5590    -5.6960     1.9240 C.3   1 <1>   0.5240 
 15 N       -3.7900    -6.5250     0.7120 N.4   1 <1>  -0.9590 
 16 C       -3.8650    -7.9870     1.0700 C.3   1 <1>   0.3430 
 17 C       -4.9340    -5.9730    -0.0850 C.3   1 <1>   0.3430 
 18 C       -4.1240    -8.9230    -0.1240 C.3   1 <1>   0.1400 
 19 C       -4.8010    -6.3560    -1.5630 C.3   1 <1>  -0.1600 
 20 N       -5.4470    -8.6110    -0.7300 N.am  1 <1>  -0.6600 
 21 C       -5.3910    -7.7280    -1.9240 C.3   1 <1>   0.1400 
 22 C       -6.5950    -8.8880    -0.0160 C.2   1 <1>   0.5690 
 23 O       -6.5120    -9.4940     1.0300 O.2   1 <1>  -0.5700 
 24 C       -7.9780    -8.3780    -0.4840 C.3   1 <1>   0.2610 
 25 O       -8.0210    -6.9730    -0.5420 O.3   1 <1>  -0.5600 
 26 C       -9.1680    -8.7350     0.4030 C.3   1 <1>  -0.1600 
 27 C       -9.3430    -6.5260    -0.5240 C.3   1 <1>   0.1200 
 28 C      -10.1860    -7.6670     0.0430 C.3   1 <1>  -0.1600 
 29 H        0.1080    -0.1190    -2.6270 H     1 <1>   0.1500 
 30 H        0.8250    -4.3000    -0.1320 H     1 <1>   0.1500 
 31 H        2.2380    -1.3620    -2.8750 H     1 <1>   0.1500 
 32 H        2.5750    -3.4510    -1.6220 H     1 <1>   0.1500 
 33 H       -4.7090    -3.1720     3.2490 H     1 <1>   0.0800 
 34 H       -4.7090    -1.7750     2.1960 H     1 <1>   0.0800 
 35 H       -3.5380    -1.8950     3.4840 H     1 <1>   0.0800 
 36 H       -4.4850    -5.4830     2.4300 H     1 <1>   0.0800 
 37 H       -2.8970    -6.2100     2.6010 H     1 <1>   0.0800 
 38 H       -2.9380    -6.3450     0.1550 H     1 <1>   0.4500 
 39 H       -2.9420    -8.2850     1.5390 H     1 <1>   0.0800 
 40 H       -4.6570    -8.1430     1.7860 H     1 <1>   0.0800 
 41 H       -5.8780    -6.3150     0.3100 H     1 <1>   0.0800 
 42 H       -4.9190    -4.8970    -0.0230 H     1 <1>   0.0800 
 43 H       -4.1330    -9.9420     0.2250 H     1 <1>   0.0800 
 44 H       -3.3380    -8.8330    -0.8530 H     1 <1>   0.0800 
 45 H       -5.3320    -5.6230    -2.1450 H     1 <1>   0.0800 
 46 H       -3.7730    -6.3010    -1.8710 H     1 <1>   0.0800 
 47 H       -4.7940    -8.1950    -2.6890 H     1 <1>   0.0800 
 48 H       -6.3760    -7.5940    -2.3360 H     1 <1>   0.0800 
 49 H       -8.1620    -8.7440    -1.4780 H     1 <1>   0.0800 
 50 H       -9.5240    -9.7330     0.2170 H     1 <1>   0.0800 
 51 H       -8.8930    -8.6460     1.4390 H     1 <1>   0.0800 
 52 H       -9.3950    -5.6460     0.0940 H     1 <1>   0.0800 
 53 H       -9.6370    -6.2850    -1.5320 H     1 <1>   0.0800 
 54 H      -10.7560    -7.3500     0.8990 H     1 <1>   0.0800 
 55 H      -10.8640    -8.0230    -0.7130 H     1 <1>   0.0800 
@<TRIPOS>BOND
  1   1   2  1   
  2   2   3  ar  
  3   2   4  ar  
  4   3   5  1   
  5   3   6  ar  
  6   4   7  ar  
  7   4  29  1   
  8   5   8  1   
  9   5   9  2   
 10   6  10  ar  
 11   6  30  1   
 12   7  10  ar  
 13   7  31  1   
 14   8  11  1   
 15   9  12  1   
 16  10  32  1   
 17  11  12  2   
 18  11  13  1   
 19  12  14  1   
 20  13  33  1   
 21  13  34  1   
 22  13  35  1   
 23  14  15  1   
 24  14  36  1   
 25  14  37  1   
 26  15  16  1   
 27  15  17  1   
 28  15  38  1   
 29  16  18  1   
 30  16  39  1   
 31  16  40  1   
 32  17  19  1   
 33  17  41  1   
 34  17  42  1   
 35  18  20  1   
 36  18  43  1   
 37  18  44  1   
 38  19  21  1   
 39  19  45  1   
 40  19  46  1   
 41  20  21  1   
 42  20  22  am  
 43  21  47  1   
 44  21  48  1   
 45  22  23  2   
 46  22  24  1   
 47  24  25  1   
 48  24  26  1   
 49  24  49  1   
 50  25  27  1   
 51  26  28  1   
 52  26  50  1   
 53  26  51  1   
 54  27  28  1   
 55  27  52  1   
 56  27  53  1   
 57  28  54  1   
 58  28  55  1   
@<TRIPOS>SUBSTRUCTURE
  1 ****  17 GROUP 4 **** **** 0

# MOE 2024.06 (io_trps.svl 2023.06)
