@<TRIPOS>MOLECULE
NONAME
47 50 1 0 0 
SMALL
USER_CHARGES


@<TRIPOS>ATOM
  1 O       -1.3590     0.0830     0.0510 O.2   1 <1>  -0.5700 
  2 C       -2.1610     0.9820     0.2500 C.2   1 <1>   0.7150 
  3 N       -3.4160     0.6190     0.6940 N.am  1 <1>  -0.6600 
  4 C       -1.7690     2.3540    -0.0100 C.2   1 <1>   0.0550 
  5 C       -3.6470    -0.7230     1.3010 C.3   1 <1>   0.1400 
  6 C       -4.6650     1.2570     0.1890 C.3   1 <1>   0.1400 
  7 O       -2.4790     3.3890     0.4670 O.3   1 <1>  -0.2800 
  8 C       -0.6990     2.8290    -0.6990 C.2   1 <1>  -0.1500 
  9 C       -4.2130    -1.6550     0.2070 C.3   1 <1>   0.4230 
 10 C       -5.3190     0.3280    -0.8500 C.3   1 <1>  -0.1600 
 11 C       -1.8830     4.5160     0.0840 C.ar  1 <1>   0.1400 
 12 C       -0.7520     4.2320    -0.6570 C.ar  1 <1>   0.0000 
 13 N       -4.3640    -3.0940     0.6110 N.4   1 <1>  -0.9590 
 14 C       -5.5670    -1.1100    -0.3070 C.3   1 <1>  -0.1060 
 15 C       -2.2810     5.8190     0.3510 C.ar  1 <1>  -0.1500 
 16 C        0.0210     5.2810    -1.1570 C.ar  1 <1>  -0.1500 
 17 C       -4.8370    -3.9880    -0.4880 C.3   1 <1>   0.3430 
 18 C       -3.2300    -3.6740     1.3770 C.3   1 <1>   0.2630 
 19 C       -6.5500    -1.0930     0.8790 C.2   1 <1>   0.9060 
 20 C       -6.1390    -2.0100    -1.4420 C.3   1 <1>  -0.1600 
 21 C       -1.5130     6.8520    -0.1470 C.ar  1 <1>  -0.1500 
 22 C       -0.3650     6.5810    -0.8980 C.ar  1 <1>  -0.1500 
 23 C       -5.2400    -3.2170    -1.7540 C.3   1 <1>  -0.1600 
 24 O       -6.5290    -2.0470     1.6730 O.co2 1 <1>  -0.9000 
 25 O       -7.3190    -0.1460     1.0280 O.co2 1 <1>  -0.9000 
 26 H       -2.7160    -1.1030     1.6790 H     1 <1>   0.0800 
 27 H       -4.3330    -0.6270     2.1250 H     1 <1>   0.0800 
 28 H       -5.3370     1.4310     1.0140 H     1 <1>   0.0800 
 29 H       -4.4600     2.2070    -0.2710 H     1 <1>   0.0800 
 30 H        0.0670     2.2610    -1.1930 H     1 <1>   0.1500 
 31 H       -3.5090    -1.6190    -0.6070 H     1 <1>   0.0800 
 32 H       -6.2580     0.7640    -1.1490 H     1 <1>   0.0800 
 33 H       -4.6890     0.2930    -1.7220 H     1 <1>   0.0800 
 34 H       -5.1960    -3.0090     1.2570 H     1 <1>   0.4500 
 35 H       -3.1670     5.9960     0.9320 H     1 <1>   0.1500 
 36 H        0.9020     5.0640    -1.7330 H     1 <1>   0.1500 
 37 H       -4.0650    -4.6950    -0.7430 H     1 <1>   0.0800 
 38 H       -5.6910    -4.5420    -0.1330 H     1 <1>   0.0800 
 39 H       -2.3340    -3.6660     0.7780 H     1 <1>   0.0800 
 40 H       -3.4550    -4.6890     1.6600 H     1 <1>   0.0800 
 41 H       -3.0560    -3.1040     2.2740 H     1 <1>   0.0800 
 42 H       -7.1100    -2.3740    -1.1450 H     1 <1>   0.0800 
 43 H       -6.2920    -1.4400    -2.3430 H     1 <1>   0.0800 
 44 H       -1.7920     7.8740     0.0420 H     1 <1>   0.1500 
 45 H        0.2200     7.4020    -1.2760 H     1 <1>   0.1500 
 46 H       -4.3520    -2.8880    -2.2650 H     1 <1>   0.0800 
 47 H       -5.7580    -3.8850    -2.4200 H     1 <1>   0.0800 
@<TRIPOS>BOND
  1   1   2  2   
  2   2   3  am  
  3   2   4  1   
  4   3   5  1   
  5   3   6  1   
  6   4   7  1   
  7   4   8  2   
  8   5   9  1   
  9   5  26  1   
 10   5  27  1   
 11   6  10  1   
 12   6  28  1   
 13   6  29  1   
 14   7  11  1   
 15   8  12  1   
 16   8  30  1   
 17   9  13  1   
 18   9  14  1   
 19   9  31  1   
 20  10  14  1   
 21  10  32  1   
 22  10  33  1   
 23  11  12  ar  
 24  11  15  ar  
 25  12  16  ar  
 26  13  17  1   
 27  13  18  1   
 28  13  34  1   
 29  14  19  1   
 30  14  20  1   
 31  15  21  ar  
 32  15  35  1   
 33  16  22  ar  
 34  16  36  1   
 35  17  23  1   
 36  17  37  1   
 37  17  38  1   
 38  18  39  1   
 39  18  40  1   
 40  18  41  1   
 41  19  24  ar  
 42  19  25  ar  
 43  20  23  1   
 44  20  42  1   
 45  20  43  1   
 46  21  22  ar  
 47  21  44  1   
 48  22  45  1   
 49  23  46  1   
 50  23  47  1   
@<TRIPOS>SUBSTRUCTURE
  1 ****   3 GROUP 4 **** **** 0

# MOE 2024.06 (io_trps.svl 2023.06)
