@<TRIPOS>MOLECULE
NONAME
49 50 1 0 0 
SMALL
USER_CHARGES


@<TRIPOS>ATOM
  1 O       -1.3280    -1.4210    -2.2070 O.2   1 <1>  -0.5700 
  2 C       -1.9090    -1.8460    -1.2380 C.2   1 <1>   0.5690 
  3 N       -2.3030    -1.1490    -0.1380 N.am  1 <1>  -0.6600 
  4 C       -2.2870    -3.2960    -1.1320 C.3   1 <1>  -0.0990 
  5 C       -1.9590     0.2690     0.1760 C.3   1 <1>   0.3000 
  6 C       -2.9720    -2.0460     0.8360 C.3   1 <1>   0.1400 
  7 C       -3.2920    -3.3100     0.0280 C.3   1 <1>  -0.0190 
  8 C       -0.4370     0.4090     0.2460 C.3   1 <1>  -0.2400 
  9 C       -2.5500     0.7040     1.5250 C.3   1 <1>  -0.2400 
 10 C       -2.5360     1.1770    -0.9140 C.3   1 <1>  -0.2400 
 11 C       -3.2250    -4.5830     0.8710 C.2   1 <1>   0.5690 
 12 O       -2.2350    -4.7330     1.5470 O.2   1 <1>  -0.5700 
 13 N       -4.2290    -5.5230     0.8660 N.am  1 <1>  -0.6600 
 14 C       -4.0560    -6.7920     1.6340 C.3   1 <1>   0.3200 
 15 C       -5.5560    -5.3550     0.1930 C.3   1 <1>   0.1400 
 16 C       -4.2870    -7.9840     0.7260 C.2   1 <1>  -0.3320 
 17 C       -5.4820    -5.7180    -1.2950 C.3   1 <1>   0.1200 
 18 N       -5.4400    -8.6750     0.6410 N.pl3 1 <1>   0.0330 
 19 C       -3.4340    -8.5660    -0.1440 C.2   1 <1>   0.0770 
 20 O       -6.7280    -5.4900    -1.8590 O.3   1 <1>  -0.6800 
 21 C       -5.2150    -9.6280    -0.2870 C.2   1 <1>   0.0060 
 22 N       -4.0230    -9.5940    -0.7830 N.2   1 <1>  -0.5650 
 23 C       -6.2660   -10.6350    -0.7010 C.3   1 <1>  -0.0600 
 24 H       -1.4040    -3.8620    -0.8970 H     1 <1>   0.0800 
 25 H       -2.7200    -3.6500    -2.0490 H     1 <1>   0.0800 
 26 H       -3.8770    -1.6080     1.2200 H     1 <1>   0.0800 
 27 H       -2.2920    -2.2540     1.6450 H     1 <1>   0.0800 
 28 H       -4.2680    -3.1640    -0.3870 H     1 <1>   0.0800 
 29 H       -0.0340    -0.2640     0.9810 H     1 <1>   0.0800 
 30 H       -0.1660     1.4130     0.5160 H     1 <1>   0.0800 
 31 H        0.0110     0.1930    -0.7070 H     1 <1>   0.0800 
 32 H       -2.1600     0.1030     2.3260 H     1 <1>   0.0800 
 33 H       -3.6220     0.6410     1.5100 H     1 <1>   0.0800 
 34 H       -2.2860     1.7260     1.7270 H     1 <1>   0.0800 
 35 H       -2.0810     0.9730    -1.8650 H     1 <1>   0.0800 
 36 H       -2.3490     2.2080    -0.6780 H     1 <1>   0.0800 
 37 H       -3.5970     1.0320    -0.9970 H     1 <1>   0.0800 
 38 H       -4.7440    -6.8090     2.4610 H     1 <1>   0.0800 
 39 H       -3.0600    -6.8630     2.0380 H     1 <1>   0.0800 
 40 H       -5.8950    -4.3410     0.3030 H     1 <1>   0.0800 
 41 H       -6.2830    -5.9860     0.6710 H     1 <1>   0.0800 
 42 H       -5.2370    -6.7570    -1.4320 H     1 <1>   0.0800 
 43 H       -4.7640    -5.1040    -1.8080 H     1 <1>   0.0800 
 44 H       -6.3110    -8.5230     1.1580 H     1 <1>   0.2700 
 45 H       -2.4120    -8.2910    -0.3510 H     1 <1>   0.1500 
 46 H       -6.7280    -5.7510    -2.8030 H     1 <1>   0.4000 
 47 H       -7.1240   -10.1300    -1.1060 H     1 <1>   0.0800 
 48 H       -6.5640   -11.2270     0.1450 H     1 <1>   0.0800 
 49 H       -5.8650   -11.2900    -1.4540 H     1 <1>   0.0800 
@<TRIPOS>BOND
  1   1   2  2   
  2   2   3  am  
  3   2   4  1   
  4   3   5  1   
  5   3   6  1   
  6   4   7  1   
  7   4  24  1   
  8   4  25  1   
  9   5   8  1   
 10   5   9  1   
 11   5  10  1   
 12   6   7  1   
 13   6  26  1   
 14   6  27  1   
 15   7  11  1   
 16   7  28  1   
 17   8  29  1   
 18   8  30  1   
 19   8  31  1   
 20   9  32  1   
 21   9  33  1   
 22   9  34  1   
 23  10  35  1   
 24  10  36  1   
 25  10  37  1   
 26  11  12  2   
 27  11  13  am  
 28  13  14  1   
 29  13  15  1   
 30  14  16  1   
 31  14  38  1   
 32  14  39  1   
 33  15  17  1   
 34  15  40  1   
 35  15  41  1   
 36  16  18  1   
 37  16  19  2   
 38  17  20  1   
 39  17  42  1   
 40  17  43  1   
 41  18  21  1   
 42  18  44  1   
 43  19  22  1   
 44  19  45  1   
 45  20  46  1   
 46  21  22  2   
 47  21  23  1   
 48  23  47  1   
 49  23  48  1   
 50  23  49  1   
@<TRIPOS>SUBSTRUCTURE
  1 ****  11 GROUP 4 **** **** 0

# MOE 2024.06 (io_trps.svl 2023.06)
