@<TRIPOS>MOLECULE
NONAME
49 50 1 0 0 
SMALL
USER_CHARGES


@<TRIPOS>ATOM
  1 F        0.8140     1.8440     1.5860 F     1 <1>  -0.1900 
  2 C        1.5180     1.5850     0.5120 C.ar  1 <1>   0.1900 
  3 C        1.6650     2.5710    -0.4500 C.ar  1 <1>   0.1900 
  4 C        2.0850     0.3300     0.3510 C.ar  1 <1>  -0.1440 
  5 F        1.1020     3.7410    -0.2870 F     1 <1>  -0.1900 
  6 C        2.3900     2.3370    -1.6010 C.ar  1 <1>  -0.1500 
  7 C        2.8200     0.0890    -0.8110 C.ar  1 <1>   0.0830 
  8 C        1.9240    -0.7520     1.4160 C.3   1 <1>   0.2540 
  9 C        2.9670     1.0900    -1.7770 C.ar  1 <1>  -0.1500 
 10 O        3.3760    -1.1420    -0.9560 O.3   1 <1>  -0.3630 
 11 N        0.8650    -1.7090     1.0390 N.3   1 <1>  -0.8100 
 12 C        4.2980    -1.4330    -1.9850 C.3   1 <1>   0.0400 
 13 C        0.9730    -2.9740     1.7800 C.3   1 <1>   0.2900 
 14 C       -0.4920    -1.1330     1.0070 C.3   1 <1>   0.1100 
 15 C        0.0830    -4.0050     1.1120 C.2   1 <1>  -0.3320 
 16 C       -0.8280    -0.7500    -0.4450 C.3   1 <1>   0.3430 
 17 N       -0.8670    -4.7060     1.7600 N.pl3 1 <1>   0.0330 
 18 C        0.0470    -4.4200    -0.1750 C.2   1 <1>   0.0460 
 19 N       -2.2370    -1.0810    -0.8430 N.4   1 <1>  -0.9590 
 20 C       -1.4470    -5.4730     0.8130 C.2   1 <1>   0.0360 
 21 N       -0.9410    -5.3110    -0.3660 N.2   1 <1>  -0.5650 
 22 C        0.9440    -4.0220    -1.3290 C.3   1 <1>  -0.0590 
 23 C       -2.4260    -2.5660    -0.9480 C.3   1 <1>   0.2630 
 24 C       -2.5690    -0.4320    -2.1450 C.3   1 <1>   0.2630 
 25 H        2.5000     3.1150    -2.3370 H     1 <1>   0.1500 
 26 H        1.7050    -0.3190     2.3770 H     1 <1>   0.0800 
 27 H        2.8630    -1.2730     1.5080 H     1 <1>   0.0800 
 28 H        3.5310     0.9170    -2.6750 H     1 <1>   0.1500 
 29 H        4.6550    -2.4370    -1.8390 H     1 <1>   0.0800 
 30 H        5.1210    -0.7420    -1.9250 H     1 <1>   0.0800 
 31 H        3.8000    -1.3590    -2.9350 H     1 <1>   0.0800 
 32 H        0.6910    -2.8240     2.8080 H     1 <1>   0.0800 
 33 H        1.9910    -3.3290     1.7500 H     1 <1>   0.0800 
 34 H       -0.5510    -0.2690     1.6450 H     1 <1>   0.0800 
 35 H       -1.2060    -1.8500     1.3660 H     1 <1>   0.0800 
 36 H       -0.1450    -1.2750    -1.0940 H     1 <1>   0.0800 
 37 H       -0.6520     0.3060    -0.5660 H     1 <1>   0.0800 
 38 H       -1.0950    -4.6920     2.7590 H     1 <1>   0.2700 
 39 H       -2.8730    -0.7160    -0.1190 H     1 <1>   0.4500 
 40 H       -2.2510    -6.1520     1.0380 H     1 <1>   0.1500 
 41 H        1.6920    -3.3220    -1.0050 H     1 <1>   0.0800 
 42 H        0.3640    -3.5800    -2.1150 H     1 <1>   0.0800 
 43 H        1.4360    -4.8970    -1.7120 H     1 <1>   0.0800 
 44 H       -1.7560    -2.9820    -1.6820 H     1 <1>   0.0800 
 45 H       -3.4380    -2.8010    -1.2340 H     1 <1>   0.0800 
 46 H       -2.2190    -3.0430    -0.0050 H     1 <1>   0.0800 
 47 H       -1.9140    -0.7960    -2.9200 H     1 <1>   0.0800 
 48 H       -2.4550     0.6370    -2.0700 H     1 <1>   0.0800 
 49 H       -3.5870    -0.6510    -2.4230 H     1 <1>   0.0800 
@<TRIPOS>BOND
  1   1   2  1   
  2   2   3  ar  
  3   2   4  ar  
  4   3   5  1   
  5   3   6  ar  
  6   4   7  ar  
  7   4   8  1   
  8   6   9  ar  
  9   6  25  1   
 10   7   9  ar  
 11   7  10  1   
 12   8  11  1   
 13   8  26  1   
 14   8  27  1   
 15   9  28  1   
 16  10  12  1   
 17  11  13  1   
 18  11  14  1   
 19  12  29  1   
 20  12  30  1   
 21  12  31  1   
 22  13  15  1   
 23  13  32  1   
 24  13  33  1   
 25  14  16  1   
 26  14  34  1   
 27  14  35  1   
 28  15  17  1   
 29  15  18  2   
 30  16  19  1   
 31  16  36  1   
 32  16  37  1   
 33  17  20  1   
 34  17  38  1   
 35  18  21  1   
 36  18  22  1   
 37  19  23  1   
 38  19  24  1   
 39  19  39  1   
 40  20  21  2   
 41  20  40  1   
 42  22  41  1   
 43  22  42  1   
 44  22  43  1   
 45  23  44  1   
 46  23  45  1   
 47  23  46  1   
 48  24  47  1   
 49  24  48  1   
 50  24  49  1   
@<TRIPOS>SUBSTRUCTURE
  1 ****  11 GROUP 4 **** **** 0

# MOE 2024.06 (io_trps.svl 2023.06)
