@<TRIPOS>MOLECULE
NONAME
51 54 1 0 0 
SMALL
USER_CHARGES


@<TRIPOS>ATOM
  1 O        0.7700    -0.3880     1.6160 O.3   1 <1>  -0.0190 
  2 N        0.9500     0.8840     1.4350 N.2   1 <1>  -0.4100 
  3 C        1.3490    -0.9390     0.5790 C.2   1 <1>   0.2980 
  4 C        1.5960     1.0230     0.3450 C.2   1 <1>   0.3350 
  5 N        1.8830    -0.1280    -0.2470 N.2   1 <1>  -0.5650 
  6 C        1.3340    -2.4590     0.4510 C.3   1 <1>   0.2900 
  7 C        2.0300     2.3370    -0.2770 C.3   1 <1>   0.0210 
  8 N       -0.0220    -3.0050     0.2110 N.3   1 <1>  -0.8100 
  9 C        1.5260     3.5440     0.5130 C.3   1 <1>   0.1200 
 10 C       -0.6560    -2.4660    -1.0020 C.3   1 <1>   0.1100 
 11 C       -0.0500    -4.4710     0.0780 C.3   1 <1>   0.1100 
 12 O        1.9560     4.7010    -0.1320 O.3   1 <1>  -0.5600 
 13 C       -1.7760    -3.4540    -1.2920 C.3   1 <1>   0.2000 
 14 C       -1.1040    -4.7990    -0.9960 C.3   1 <1>  -0.0800 
 15 C        1.5590     5.8760     0.4980 C.3   1 <1>   0.0400 
 16 O       -2.7750    -3.2140    -0.3660 O.3   1 <1>  -0.6800 
 17 C       -2.0690    -5.9350    -0.5940 C.3   1 <1>  -0.0170 
 18 C       -1.4470    -7.3250    -0.4020 C.ar  1 <1>  -0.1440 
 19 C       -2.2010    -8.3530     0.2180 C.ar  1 <1>   0.0000 
 20 C       -0.1820    -7.6470    -0.8090 C.ar  1 <1>  -0.1500 
 21 C       -1.5820    -9.6150     0.4000 C.ar  1 <1>   0.3100 
 22 C       -3.5370    -8.2070     0.6640 C.ar  1 <1>  -0.1500 
 23 C        0.3310    -8.9310    -0.5900 C.ar  1 <1>   0.1600 
 24 N       -0.3180    -9.8860    -0.0070 N.ar  1 <1>  -0.6200 
 25 C       -2.3020   -10.6450     1.0260 C.ar  1 <1>  -0.1500 
 26 C       -4.2120    -9.2330     1.2670 C.ar  1 <1>  -0.1500 
 27 C       -3.5890   -10.4680     1.4550 C.ar  1 <1>  -0.1500 
 28 H        1.7270    -2.8790     1.3600 H     1 <1>   0.0800 
 29 H        1.9850    -2.7390    -0.3580 H     1 <1>   0.0800 
 30 H        1.6450     2.3840    -1.2780 H     1 <1>   0.0800 
 31 H        3.1030     2.3600    -0.3150 H     1 <1>   0.0800 
 32 H        1.9260     3.5330     1.5130 H     1 <1>   0.0800 
 33 H        0.4490     3.5460     0.5500 H     1 <1>   0.0800 
 34 H       -1.0310    -1.4680    -0.8480 H     1 <1>   0.0800 
 35 H        0.0460    -2.4620    -1.8200 H     1 <1>   0.0800 
 36 H        0.9110    -4.8530    -0.2220 H     1 <1>   0.0800 
 37 H       -0.3150    -4.9050     1.0280 H     1 <1>   0.0800 
 38 H       -2.1870    -3.3760    -2.2840 H     1 <1>   0.0800 
 39 H       -0.5890    -5.0860    -1.8950 H     1 <1>   0.0800 
 40 H        1.9360     6.7050    -0.0730 H     1 <1>   0.0800 
 41 H        1.9700     5.9030     1.4920 H     1 <1>   0.0800 
 42 H        0.4840     5.9170     0.5300 H     1 <1>   0.0800 
 43 H       -2.3220    -3.0330     0.4860 H     1 <1>   0.4000 
 44 H       -2.8420    -6.0100    -1.3380 H     1 <1>   0.0800 
 45 H       -2.5380    -5.6500     0.3310 H     1 <1>   0.0800 
 46 H        0.4640    -6.9520    -1.3070 H     1 <1>   0.1500 
 47 H       -4.0440    -7.2710     0.5260 H     1 <1>   0.1500 
 48 H        1.3330    -9.1370    -0.9260 H     1 <1>   0.1500 
 49 H       -1.8030   -11.5870     1.1560 H     1 <1>   0.1500 
 50 H       -5.2270    -9.1030     1.6020 H     1 <1>   0.1500 
 51 H       -4.1300   -11.2680     1.9320 H     1 <1>   0.1500 
@<TRIPOS>BOND
  1   1   2  1   
  2   1   3  1   
  3   2   4  2   
  4   3   5  2   
  5   3   6  1   
  6   4   5  1   
  7   4   7  1   
  8   6   8  1   
  9   6  28  1   
 10   6  29  1   
 11   7   9  1   
 12   7  30  1   
 13   7  31  1   
 14   8  10  1   
 15   8  11  1   
 16   9  12  1   
 17   9  32  1   
 18   9  33  1   
 19  10  13  1   
 20  10  34  1   
 21  10  35  1   
 22  11  14  1   
 23  11  36  1   
 24  11  37  1   
 25  12  15  1   
 26  13  14  1   
 27  13  16  1   
 28  13  38  1   
 29  14  17  1   
 30  14  39  1   
 31  15  40  1   
 32  15  41  1   
 33  15  42  1   
 34  16  43  1   
 35  17  18  1   
 36  17  44  1   
 37  17  45  1   
 38  18  19  ar  
 39  18  20  ar  
 40  19  21  ar  
 41  19  22  ar  
 42  20  23  ar  
 43  20  46  1   
 44  21  24  ar  
 45  21  25  ar  
 46  22  26  ar  
 47  22  47  1   
 48  23  24  ar  
 49  23  48  1   
 50  25  27  ar  
 51  25  49  1   
 52  26  27  ar  
 53  26  50  1   
 54  27  51  1   
@<TRIPOS>SUBSTRUCTURE
  1 ****  11 GROUP 4 **** **** 0

# MOE 2024.06 (io_trps.svl 2023.06)
