@<TRIPOS>MOLECULE
NONAME
58 61 1 0 0 
SMALL
USER_CHARGES


@<TRIPOS>ATOM
  1 O        0.5940     0.2880    -1.0020 O.3   1 <1>  -0.5600 
  2 C        1.7920    -0.4450    -1.1030 C.3   1 <1>   0.2000 
  3 C        0.7380     1.6760    -1.0250 C.3   1 <1>   0.1200 
  4 C        2.8000    -0.0340     0.0060 C.3   1 <1>   0.5660 
  5 C        1.4600    -1.9420    -0.9990 C.3   1 <1>   0.1200 
  6 C        1.5970     2.1350     0.1660 C.3   1 <1>   0.3430 
  7 N        2.9310     1.4480     0.1820 N.4   1 <1>  -0.9590 
  8 C        4.1900    -0.5890    -0.2740 C.ar  1 <1>  -0.1430 
  9 O        1.1680    -2.2810     0.3210 O.3   1 <1>  -0.6800 
 10 C        3.7140     1.7840     1.4020 C.3   1 <1>   0.4870 
 11 C        4.7700    -1.4440     0.6530 C.ar  1 <1>  -0.1500 
 12 C        4.8950    -0.2580    -1.4270 C.ar  1 <1>  -0.1500 
 13 C        3.9770     3.2720     1.3820 C.ar  1 <1>  -0.1430 
 14 C        6.0410    -1.9540     0.4490 C.ar  1 <1>   0.0820 
 15 C        6.1710    -0.7560    -1.6310 C.ar  1 <1>  -0.1500 
 16 C        4.9310     3.7760     0.4890 C.ar  1 <1>   0.0000 
 17 C        3.2880     4.1450     2.1970 C.ar  1 <1>  -0.1500 
 18 O        6.5210    -2.7970     1.3940 O.3   1 <1>  -0.3630 
 19 C        6.7590    -1.5860    -0.6930 C.ar  1 <1>   0.0820 
 20 C        5.1360     5.1490     0.4020 C.ar  1 <1>  -0.1520 
 21 C        5.8230     3.1850    -0.4330 C.2   1 <1>  -0.1500 
 22 C        3.5150     5.5230     2.1170 C.ar  1 <1>  -0.1500 
 23 C        6.8100    -4.1180     0.9860 C.3   1 <1>   0.0400 
 24 O        8.0240    -2.0010    -0.9380 O.3   1 <1>  -0.3630 
 25 N        6.0940     5.3900    -0.5540 N.pl3 1 <1>   0.0480 
 26 C        4.4270     6.0300     1.2230 C.ar  1 <1>  -0.1500 
 27 C        6.5000     4.1830    -1.0470 C.2   1 <1>  -0.3020 
 28 C        9.0250    -1.5300    -0.0610 C.3   1 <1>   0.0400 
 29 C        6.6280     6.7080    -0.9390 C.3   1 <1>   0.0160 
 30 H        2.2020    -0.2510    -2.0780 H     1 <1>   0.0800 
 31 H        1.1780     1.9700    -1.9630 H     1 <1>   0.0800 
 32 H       -0.2460     2.1070    -0.9570 H     1 <1>   0.0800 
 33 H        2.4430    -0.4580     0.9300 H     1 <1>   0.0800 
 34 H        2.2990    -2.5400    -1.3130 H     1 <1>   0.0800 
 35 H        0.6080    -2.1770    -1.6160 H     1 <1>   0.0800 
 36 H        1.0600     1.9140     1.0740 H     1 <1>   0.0800 
 37 H        1.7350     3.2030     0.1140 H     1 <1>   0.0800 
 38 H        3.4850     1.8060    -0.6030 H     1 <1>   0.4500 
 39 H        0.7310    -3.1580     0.3630 H     1 <1>   0.4000 
 40 H        3.1640     1.5140     2.2890 H     1 <1>   0.0800 
 41 H        4.6550     1.2580     1.4050 H     1 <1>   0.0800 
 42 H        4.2450    -1.7380     1.5460 H     1 <1>   0.1500 
 43 H        4.4760     0.3880    -2.1790 H     1 <1>   0.1500 
 44 H        6.7240    -0.5010    -2.5180 H     1 <1>   0.1500 
 45 H        2.5620     3.7920     2.9100 H     1 <1>   0.1500 
 46 H        5.9490     2.1300    -0.5950 H     1 <1>   0.1500 
 47 H        2.9670     6.1870     2.7640 H     1 <1>   0.1500 
 48 H        7.0400    -4.6980     1.8610 H     1 <1>   0.0800 
 49 H        7.6550    -4.1130     0.3220 H     1 <1>   0.0800 
 50 H        5.9480    -4.5270     0.4890 H     1 <1>   0.0800 
 51 H        4.6020     7.0900     1.1540 H     1 <1>   0.1500 
 52 H        7.2630     4.1080    -1.8030 H     1 <1>   0.1500 
 53 H        9.9770    -1.8790    -0.4200 H     1 <1>   0.0800 
 54 H        8.8450    -1.9130     0.9270 H     1 <1>   0.0800 
 55 H        9.0050    -0.4550    -0.0550 H     1 <1>   0.0800 
 56 H        7.3610     6.5890    -1.7150 H     1 <1>   0.0800 
 57 H        7.0850     7.1680    -0.0820 H     1 <1>   0.0800 
 58 H        5.8250     7.3260    -1.2950 H     1 <1>   0.0800 
@<TRIPOS>BOND
  1   1   2  1   
  2   1   3  1   
  3   2   4  1   
  4   2   5  1   
  5   2  30  1   
  6   3   6  1   
  7   3  31  1   
  8   3  32  1   
  9   4   7  1   
 10   4   8  1   
 11   4  33  1   
 12   5   9  1   
 13   5  34  1   
 14   5  35  1   
 15   6   7  1   
 16   6  36  1   
 17   6  37  1   
 18   7  10  1   
 19   7  38  1   
 20   8  11  ar  
 21   8  12  ar  
 22   9  39  1   
 23  10  13  1   
 24  10  40  1   
 25  10  41  1   
 26  11  14  ar  
 27  11  42  1   
 28  12  15  ar  
 29  12  43  1   
 30  13  16  ar  
 31  13  17  ar  
 32  14  18  1   
 33  14  19  ar  
 34  15  19  ar  
 35  15  44  1   
 36  16  20  ar  
 37  16  21  1   
 38  17  22  ar  
 39  17  45  1   
 40  18  23  1   
 41  19  24  1   
 42  20  25  1   
 43  20  26  ar  
 44  21  27  2   
 45  21  46  1   
 46  22  26  ar  
 47  22  47  1   
 48  23  48  1   
 49  23  49  1   
 50  23  50  1   
 51  24  28  1   
 52  25  27  1   
 53  25  29  1   
 54  26  51  1   
 55  27  52  1   
 56  28  53  1   
 57  28  54  1   
 58  28  55  1   
 59  29  56  1   
 60  29  57  1   
 61  29  58  1   
@<TRIPOS>SUBSTRUCTURE
  1 ****   7 GROUP 4 **** **** 0

# MOE 2024.06 (io_trps.svl 2023.06)
