@<TRIPOS>MOLECULE
NONAME
45 48 1 0 0 
SMALL
USER_CHARGES


@<TRIPOS>ATOM
  1 S        1.3860     0.9480     0.6590 S.3   1 <1>  -0.0800 
  2 C       -0.2590     1.3860     0.2230 C.2   1 <1>  -0.1400 
  3 C        1.0500    -0.7500     0.3440 C.2   1 <1>  -0.1100 
  4 C       -0.9660     0.2990    -0.1130 C.2   1 <1>  -0.1810 
  5 C       -0.7640     2.8250     0.2420 C.3   1 <1>   0.4600 
  6 C       -0.2250    -0.9240    -0.0540 C.2   1 <1>  -0.1500 
  7 C       -2.4180     0.4470    -0.5090 C.3   1 <1>   0.0210 
  8 O       -2.0630     2.8530    -0.3190 O.3   1 <1>  -0.5600 
  9 C       -0.8220     3.3840     1.6720 C.3   1 <1>  -0.1600 
 10 C        0.1040     3.7130    -0.6570 C.3   1 <1>  -0.1600 
 11 C       -2.9450     1.8020     0.0020 C.3   1 <1>   0.1200 
 12 C       -1.2610     4.8490     1.6870 C.3   1 <1>   0.1400 
 13 C       -0.3300     5.1780    -0.5960 C.3   1 <1>   0.1400 
 14 N       -0.3340     5.6240     0.8220 N.am  1 <1>  -0.6600 
 15 C        0.5510     6.5470     1.3450 C.2   1 <1>   0.5440 
 16 O        0.3970     6.9360     2.4900 O.2   1 <1>  -0.5700 
 17 C        1.6570     7.0540     0.5740 C.ar  1 <1>   0.0860 
 18 C        1.6020     8.3050    -0.0340 C.ar  1 <1>   0.1900 
 19 C        2.8330     6.3140     0.3940 C.ar  1 <1>   0.0830 
 20 F        0.5190     9.0250     0.0830 F     1 <1>  -0.1900 
 21 C        2.6370     8.8320    -0.7800 C.ar  1 <1>  -0.1500 
 22 O        2.8960     5.0900     0.9710 O.3   1 <1>  -0.3630 
 23 C        3.8870     6.8350    -0.3580 C.ar  1 <1>  -0.1500 
 24 C        3.7910     8.0870    -0.9420 C.ar  1 <1>  -0.1500 
 25 C        4.0120     4.2360     0.8530 C.3   1 <1>   0.0400 
 26 H        1.8550    -1.4470     0.4910 H     1 <1>   0.1500 
 27 H       -0.6790    -1.8650    -0.3080 H     1 <1>   0.1500 
 28 H       -3.0010    -0.3470    -0.0800 H     1 <1>   0.0800 
 29 H       -2.5100     0.3990    -1.5790 H     1 <1>   0.0800 
 30 H        0.1570     3.3240     2.1130 H     1 <1>   0.0800 
 31 H       -1.4800     2.7930     2.2790 H     1 <1>   0.0800 
 32 H        0.0500     3.3540    -1.6680 H     1 <1>   0.0800 
 33 H        1.1290     3.6480    -0.3450 H     1 <1>   0.0800 
 34 H       -3.0700     1.7760     1.0700 H     1 <1>   0.0800 
 35 H       -3.8960     2.0240    -0.4490 H     1 <1>   0.0800 
 36 H       -1.2460     5.2230     2.6970 H     1 <1>   0.0800 
 37 H       -2.2640     4.9440     1.3080 H     1 <1>   0.0800 
 38 H       -1.3250     5.2800    -0.9970 H     1 <1>   0.0800 
 39 H        0.3300     5.7820    -1.1920 H     1 <1>   0.0800 
 40 H        2.5380     9.8070    -1.2250 H     1 <1>   0.1500 
 41 H        4.7940     6.2780    -0.5000 H     1 <1>   0.1500 
 42 H        4.6110     8.4810    -1.5190 H     1 <1>   0.1500 
 43 H        3.7970     3.3310     1.3920 H     1 <1>   0.0800 
 44 H        4.8710     4.7220     1.2830 H     1 <1>   0.0800 
 45 H        4.1730     4.0110    -0.1860 H     1 <1>   0.0800 
@<TRIPOS>BOND
  1   1   2  1   
  2   1   3  1   
  3   2   4  2   
  4   2   5  1   
  5   3   6  2   
  6   3  26  1   
  7   4   6  1   
  8   4   7  1   
  9   5   8  1   
 10   5   9  1   
 11   5  10  1   
 12   6  27  1   
 13   7  11  1   
 14   7  28  1   
 15   7  29  1   
 16   8  11  1   
 17   9  12  1   
 18   9  30  1   
 19   9  31  1   
 20  10  13  1   
 21  10  32  1   
 22  10  33  1   
 23  11  34  1   
 24  11  35  1   
 25  12  14  1   
 26  12  36  1   
 27  12  37  1   
 28  13  14  1   
 29  13  38  1   
 30  13  39  1   
 31  14  15  am  
 32  15  16  2   
 33  15  17  1   
 34  17  18  ar  
 35  17  19  ar  
 36  18  20  1   
 37  18  21  ar  
 38  19  22  1   
 39  19  23  ar  
 40  21  24  ar  
 41  21  40  1   
 42  22  25  1   
 43  23  24  ar  
 44  23  41  1   
 45  24  42  1   
 46  25  43  1   
 47  25  44  1   
 48  25  45  1   
@<TRIPOS>SUBSTRUCTURE
  1 ****  10 GROUP 4 **** **** 0

# MOE 2024.06 (io_trps.svl 2023.06)
