@<TRIPOS>MOLECULE
NONAME
66 69 1 0 0 
SMALL
USER_CHARGES


@<TRIPOS>ATOM
  1 O        0.2250    -2.4950     0.1910 O.3   1 <1>  -0.5600 
  2 C       -0.5540    -1.8040     1.1230 C.3   1 <1>   0.1200 
  3 C       -0.2700    -3.7490    -0.1780 C.3   1 <1>   0.1200 
  4 C       -1.9710    -1.5700     0.5630 C.3   1 <1>   0.3430 
  5 C       -1.6740    -3.6070    -0.7970 C.3   1 <1>   0.3430 
  6 N       -2.6120    -2.8570     0.1160 N.4   1 <1>  -0.9590 
  7 C       -3.9380    -2.5990    -0.5110 C.3   1 <1>   0.3430 
  8 C       -4.7250    -3.9010    -0.6300 C.3   1 <1>  -0.1600 
  9 C       -6.1290    -3.6420    -1.1880 C.3   1 <1>   0.1200 
 10 O       -6.7760    -4.8820    -1.3690 O.3   1 <1>  -0.3630 
 11 C       -7.2180    -5.6350    -0.3320 C.ar  1 <1>   0.0830 
 12 C       -7.4000    -6.9830    -0.5860 C.ar  1 <1>  -0.1500 
 13 C       -7.4890    -5.1320     0.9360 C.ar  1 <1>  -0.1500 
 14 C       -7.8450    -7.8370     0.4110 C.ar  1 <1>  -0.1430 
 15 C       -7.9210    -5.9840     1.9370 C.ar  1 <1>  -0.1500 
 16 C       -8.0960    -7.3320     1.6790 C.ar  1 <1>  -0.1500 
 17 C       -8.0720    -9.3050     0.1100 C.3   1 <1>   0.4860 
 18 N       -9.2630    -9.4290    -0.7780 N.4   1 <1>  -0.9590 
 19 C      -10.5050    -8.9180    -0.1100 C.3   1 <1>   0.4230 
 20 C       -9.3510   -10.8040    -1.3590 C.3   1 <1>   0.2630 
 21 C      -11.0500    -9.8620     0.9670 C.3   1 <1>  -0.1600 
 22 C      -11.6510    -8.7670    -1.1110 C.3   1 <1>  -0.1600 
 23 C      -12.1110   -10.7450     0.2900 C.3   1 <1>  -0.0800 
 24 C      -12.5010   -10.0450    -1.0170 C.3   1 <1>  -0.0800 
 25 C      -13.4080   -10.9440     1.0880 C.3   1 <1>  -0.1600 
 26 C      -14.0190    -9.8210    -0.9600 C.3   1 <1>  -0.1600 
 27 C      -14.5110   -10.8550     0.0420 C.3   1 <1>   0.2000 
 28 O      -15.6870   -10.4380     0.6210 O.3   1 <1>  -0.6800 
 29 H       -0.5830    -2.3690     2.0390 H     1 <1>   0.0800 
 30 H       -0.0710    -0.8620     1.3180 H     1 <1>   0.0800 
 31 H        0.4110    -4.1700    -0.8970 H     1 <1>   0.0800 
 32 H       -0.2870    -4.3860     0.6900 H     1 <1>   0.0800 
 33 H       -1.8940    -0.8920    -0.2710 H     1 <1>   0.0800 
 34 H       -2.5770    -1.0980     1.3200 H     1 <1>   0.0800 
 35 H       -2.0660    -4.5890    -1.0070 H     1 <1>   0.0800 
 36 H       -1.5780    -3.0820    -1.7330 H     1 <1>   0.0800 
 37 H       -2.7540    -3.4350     0.9550 H     1 <1>   0.4500 
 38 H       -4.4970    -1.9090     0.1010 H     1 <1>   0.0800 
 39 H       -3.8070    -2.1550    -1.4850 H     1 <1>   0.0800 
 40 H       -4.8120    -4.3550     0.3410 H     1 <1>   0.0800 
 41 H       -4.2230    -4.5770    -1.2980 H     1 <1>   0.0800 
 42 H       -6.0690    -3.1800    -2.1590 H     1 <1>   0.0800 
 43 H       -6.7280    -3.0160    -0.5510 H     1 <1>   0.0800 
 44 H       -7.1810    -7.3420    -1.5760 H     1 <1>   0.1500 
 45 H       -7.3790    -4.0890     1.1640 H     1 <1>   0.1500 
 46 H       -8.1250    -5.5950     2.9220 H     1 <1>   0.1500 
 47 H       -8.4320    -7.9740     2.4770 H     1 <1>   0.1500 
 48 H       -8.2270    -9.8530     1.0260 H     1 <1>   0.0800 
 49 H       -7.2000    -9.7030    -0.3810 H     1 <1>   0.0800 
 50 H       -9.0880    -8.7680    -1.5470 H     1 <1>   0.4500 
 51 H      -10.2960    -7.9530     0.3270 H     1 <1>   0.0800 
 52 H       -9.5350   -11.5290    -0.5830 H     1 <1>   0.0800 
 53 H       -8.4310   -11.0610    -1.8590 H     1 <1>   0.0800 
 54 H      -10.1520   -10.8560    -2.0770 H     1 <1>   0.0800 
 55 H      -10.2900   -10.4450     1.4540 H     1 <1>   0.0800 
 56 H      -11.5210    -9.2470     1.7140 H     1 <1>   0.0800 
 57 H      -12.2360    -7.9210    -0.7970 H     1 <1>   0.0800 
 58 H      -11.3100    -8.5770    -2.1130 H     1 <1>   0.0800 
 59 H      -11.6970   -11.7110     0.0540 H     1 <1>   0.0800 
 60 H      -12.2790   -10.7010    -1.8420 H     1 <1>   0.0800 
 61 H      -13.5370   -10.1600     1.8140 H     1 <1>   0.0800 
 62 H      -13.4240   -11.8970     1.5860 H     1 <1>   0.0800 
 63 H      -14.4770    -9.9650    -1.9230 H     1 <1>   0.0800 
 64 H      -14.2470    -8.8340    -0.5980 H     1 <1>   0.0800 
 65 H      -14.6750   -11.8100    -0.4320 H     1 <1>   0.0800 
 66 H      -15.5710    -9.5710     1.0510 H     1 <1>   0.4000 
@<TRIPOS>BOND
  1   1   2  1   
  2   1   3  1   
  3   2   4  1   
  4   2  29  1   
  5   2  30  1   
  6   3   5  1   
  7   3  31  1   
  8   3  32  1   
  9   4   6  1   
 10   4  33  1   
 11   4  34  1   
 12   5   6  1   
 13   5  35  1   
 14   5  36  1   
 15   6   7  1   
 16   6  37  1   
 17   7   8  1   
 18   7  38  1   
 19   7  39  1   
 20   8   9  1   
 21   8  40  1   
 22   8  41  1   
 23   9  10  1   
 24   9  42  1   
 25   9  43  1   
 26  10  11  1   
 27  11  12  ar  
 28  11  13  ar  
 29  12  14  ar  
 30  12  44  1   
 31  13  15  ar  
 32  13  45  1   
 33  14  16  ar  
 34  14  17  1   
 35  15  16  ar  
 36  15  46  1   
 37  16  47  1   
 38  17  18  1   
 39  17  48  1   
 40  17  49  1   
 41  18  19  1   
 42  18  20  1   
 43  18  50  1   
 44  19  21  1   
 45  19  22  1   
 46  19  51  1   
 47  20  52  1   
 48  20  53  1   
 49  20  54  1   
 50  21  23  1   
 51  21  55  1   
 52  21  56  1   
 53  22  24  1   
 54  22  57  1   
 55  22  58  1   
 56  23  24  1   
 57  23  25  1   
 58  23  59  1   
 59  24  26  1   
 60  24  60  1   
 61  25  27  1   
 62  25  61  1   
 63  25  62  1   
 64  26  27  1   
 65  26  63  1   
 66  26  64  1   
 67  27  28  1   
 68  27  65  1   
 69  28  66  1   
@<TRIPOS>SUBSTRUCTURE
  1 ****  12 GROUP 4 **** **** 0

# MOE 2024.06 (io_trps.svl 2023.06)
