@<TRIPOS>MOLECULE
NONAME
43 44 1 0 0 
SMALL
USER_CHARGES


@<TRIPOS>ATOM
  1 S        0.0830     0.4070    -1.0110 S.o2  1 <1>   1.3330 
  2 O        0.5520     1.4560    -1.8890 O.2   1 <1>  -0.6500 
  3 O       -0.5480    -0.7670    -1.5700 O.2   1 <1>  -0.6500 
  4 N        1.4000    -0.1290    -0.0790 N.am  1 <1>  -0.8490 
  5 C       -1.0120     1.1170     0.2280 C.3   1 <1>  -0.0550 
  6 C        1.2200    -1.4770     0.4730 C.3   1 <1>   0.1160 
  7 C        2.6730    -0.0520    -0.8030 C.3   1 <1>   0.1160 
  8 C       -0.7000     2.5520     0.7110 C.3   1 <1>  -0.0800 
  9 C       -1.0580     3.6310    -0.3120 C.3   1 <1>   0.2000 
 10 C        0.7510     2.8510     1.0970 C.3   1 <1>   0.1400 
 11 O       -2.4040     3.9450    -0.1960 O.3   1 <1>  -0.6800 
 12 C       -0.1760     4.8340     0.0230 C.3   1 <1>   0.1400 
 13 N        0.9190     4.3060     0.8780 N.am  1 <1>  -0.6600 
 14 C        2.1520     4.9030     0.9920 C.2   1 <1>   0.7150 
 15 O        3.0880     4.2360     1.3950 O.2   1 <1>  -0.5700 
 16 C        2.3500     6.2820     0.6240 C.2   1 <1>  -0.2370 
 17 N        3.4550     6.7390    -0.0490 N.pl3 1 <1>   0.0480 
 18 C        1.5370     7.3640     0.8510 C.2   1 <1>  -0.1500 
 19 C        3.3090     8.0700    -0.2420 C.2   1 <1>  -0.3020 
 20 C        4.6100     5.9380    -0.5010 C.3   1 <1>   0.0160 
 21 C        2.1310     8.5000     0.2990 C.2   1 <1>   0.0190 
 22 C        1.5820     9.8260     0.3210 C.1   1 <1>   0.5380 
 23 N        1.1330    10.8750     0.3380 N.1   1 <1>  -0.5570 
 24 H       -2.0090     1.1230    -0.1700 H     1 <1>   0.0800 
 25 H       -1.0250     0.4670     1.0800 H     1 <1>   0.0800 
 26 H        2.0350    -1.7170     1.1350 H     1 <1>   0.0800 
 27 H        1.1860    -2.2060    -0.3210 H     1 <1>   0.0800 
 28 H        0.3010    -1.5320     1.0300 H     1 <1>   0.0800 
 29 H        3.4820    -0.3850    -0.1740 H     1 <1>   0.0800 
 30 H        2.8740     0.9660    -1.0930 H     1 <1>   0.0800 
 31 H        2.6370    -0.6640    -1.6890 H     1 <1>   0.0800 
 32 H       -1.2830     2.7300     1.5980 H     1 <1>   0.0800 
 33 H       -0.8750     3.3190    -1.3260 H     1 <1>   0.0800 
 34 H        1.4540     2.3420     0.4640 H     1 <1>   0.0800 
 35 H        0.9530     2.5950     2.1230 H     1 <1>   0.0800 
 36 H       -2.6040     4.2750     0.7010 H     1 <1>   0.4000 
 37 H       -0.7310     5.5740     0.5700 H     1 <1>   0.0800 
 38 H        0.2270     5.2640    -0.8780 H     1 <1>   0.0800 
 39 H        0.5940     7.3630     1.3710 H     1 <1>   0.1500 
 40 H        4.0450     8.6630    -0.7550 H     1 <1>   0.1500 
 41 H        5.2580     6.5410    -1.1090 H     1 <1>   0.0800 
 42 H        4.2590     5.0980    -1.0720 H     1 <1>   0.0800 
 43 H        5.1510     5.5830     0.3580 H     1 <1>   0.0800 
@<TRIPOS>BOND
  1   1   2  2   
  2   1   3  2   
  3   1   4  am  
  4   1   5  1   
  5   4   6  1   
  6   4   7  1   
  7   5   8  1   
  8   5  24  1   
  9   5  25  1   
 10   6  26  1   
 11   6  27  1   
 12   6  28  1   
 13   7  29  1   
 14   7  30  1   
 15   7  31  1   
 16   8   9  1   
 17   8  10  1   
 18   8  32  1   
 19   9  11  1   
 20   9  12  1   
 21   9  33  1   
 22  10  13  1   
 23  10  34  1   
 24  10  35  1   
 25  11  36  1   
 26  12  13  1   
 27  12  37  1   
 28  12  38  1   
 29  13  14  am  
 30  14  15  2   
 31  14  16  1   
 32  16  17  1   
 33  16  18  2   
 34  17  19  1   
 35  17  20  1   
 36  18  21  1   
 37  18  39  1   
 38  19  21  2   
 39  19  40  1   
 40  20  41  1   
 41  20  42  1   
 42  20  43  1   
 43  21  22  1   
 44  22  23  3   
@<TRIPOS>SUBSTRUCTURE
  1 ****  13 GROUP 4 **** **** 0

# MOE 2024.06 (io_trps.svl 2023.06)
