@<TRIPOS>MOLECULE
NONAME
48 49 1 0 0 
SMALL
USER_CHARGES


@<TRIPOS>ATOM
  1 F       -2.4000     0.4740     1.6110 F     1 <1>  -0.1900 
  2 C       -2.4420     0.7560     0.3340 C.ar  1 <1>   0.1900 
  3 C       -2.3270    -0.2870    -0.5720 C.ar  1 <1>  -0.1440 
  4 C       -2.6050     2.0770    -0.0530 C.ar  1 <1>  -0.1440 
  5 C       -2.3480     0.0200    -1.9260 C.ar  1 <1>  -0.1500 
  6 C       -2.1700    -1.7200    -0.0890 C.3   1 <1>   0.4870 
  7 C       -2.6400     2.3540    -1.4100 C.ar  1 <1>  -0.1500 
  8 C       -2.7370     3.1980     0.9690 C.3   1 <1>  -0.0970 
  9 C       -2.5090     1.3330    -2.3380 C.ar  1 <1>  -0.1500 
 10 N       -3.5010    -2.3790     0.0820 N.4   1 <1>  -0.9590 
 11 C       -4.3160    -2.3710    -1.1700 C.3   1 <1>   0.3430 
 12 C       -4.2780    -1.8000     1.2120 C.3   1 <1>   0.3430 
 13 C       -5.5460    -3.2820    -0.9990 C.3   1 <1>   0.2000 
 14 C       -5.5540    -2.6110     1.4550 C.3   1 <1>  -0.1600 
 15 O       -5.0270    -4.5610    -0.7780 O.3   1 <1>  -0.6800 
 16 C       -6.4450    -2.8550     0.2030 C.3   1 <1>   0.0000 
 17 C       -7.4320    -4.0150     0.5270 C.3   1 <1>   0.1200 
 18 C       -7.3250    -1.6060    -0.1330 C.3   1 <1>  -0.1600 
 19 O       -8.2870    -3.6870     1.5700 O.3   1 <1>  -0.6800 
 20 C       -6.6950    -0.3560    -0.7760 C.3   1 <1>  -0.1600 
 21 C       -7.7210     0.7760    -0.8650 C.3   1 <1>  -0.2400 
 22 H       -2.2360    -0.7470    -2.6740 H     1 <1>   0.1500 
 23 H       -1.6360    -1.7260     0.8480 H     1 <1>   0.0800 
 24 H       -1.5840    -2.2690    -0.8070 H     1 <1>   0.0800 
 25 H       -2.7640     3.3680    -1.7550 H     1 <1>   0.1500 
 26 H       -2.8280     4.1540     0.4850 H     1 <1>   0.0800 
 27 H       -1.8690     3.2210     1.6040 H     1 <1>   0.0800 
 28 H       -3.6080     3.0410     1.5800 H     1 <1>   0.0800 
 29 H       -2.5270     1.5700    -3.3900 H     1 <1>   0.1500 
 30 H       -3.3630    -3.3820     0.2860 H     1 <1>   0.4500 
 31 H       -4.6090    -1.3650    -1.4060 H     1 <1>   0.0800 
 32 H       -3.7300    -2.7440    -1.9930 H     1 <1>   0.0800 
 33 H       -3.6800    -1.8060     2.1090 H     1 <1>   0.0800 
 34 H       -4.5300    -0.7760     0.9970 H     1 <1>   0.0800 
 35 H       -6.1170    -3.3070    -1.9120 H     1 <1>   0.0800 
 36 H       -5.2520    -3.5590     1.8640 H     1 <1>   0.0800 
 37 H       -6.1280    -2.1160     2.2180 H     1 <1>   0.0800 
 38 H       -5.7020    -5.2510    -0.9540 H     1 <1>   0.4000 
 39 H       -6.9160    -4.9160     0.8130 H     1 <1>   0.0800 
 40 H       -8.0480    -4.2330    -0.3290 H     1 <1>   0.0800 
 41 H       -8.1150    -1.9240    -0.7940 H     1 <1>   0.0800 
 42 H       -7.8170    -1.2890     0.7720 H     1 <1>   0.0800 
 43 H       -7.8280    -3.7020     2.4320 H     1 <1>   0.4000 
 44 H       -5.8610     0.0030    -0.2040 H     1 <1>   0.0800 
 45 H       -6.3720    -0.5760    -1.7780 H     1 <1>   0.0800 
 46 H       -8.0630     1.0590     0.1150 H     1 <1>   0.0800 
 47 H       -8.5720     0.4730    -1.4510 H     1 <1>   0.0800 
 48 H       -7.2800     1.6400    -1.3310 H     1 <1>   0.0800 
@<TRIPOS>BOND
  1   1   2  1   
  2   2   3  ar  
  3   2   4  ar  
  4   3   5  ar  
  5   3   6  1   
  6   4   7  ar  
  7   4   8  1   
  8   5   9  ar  
  9   5  22  1   
 10   6  10  1   
 11   6  23  1   
 12   6  24  1   
 13   7   9  ar  
 14   7  25  1   
 15   8  26  1   
 16   8  27  1   
 17   8  28  1   
 18   9  29  1   
 19  10  11  1   
 20  10  12  1   
 21  10  30  1   
 22  11  13  1   
 23  11  31  1   
 24  11  32  1   
 25  12  14  1   
 26  12  33  1   
 27  12  34  1   
 28  13  15  1   
 29  13  16  1   
 30  13  35  1   
 31  14  16  1   
 32  14  36  1   
 33  14  37  1   
 34  15  38  1   
 35  16  17  1   
 36  16  18  1   
 37  17  19  1   
 38  17  39  1   
 39  17  40  1   
 40  18  20  1   
 41  18  41  1   
 42  18  42  1   
 43  19  43  1   
 44  20  21  1   
 45  20  44  1   
 46  20  45  1   
 47  21  46  1   
 48  21  47  1   
 49  21  48  1   
@<TRIPOS>SUBSTRUCTURE
  1 ****  12 GROUP 4 **** **** 0

# MOE 2024.06 (io_trps.svl 2023.06)
