@<TRIPOS>MOLECULE
NONAME
54 57 1 0 0 
SMALL
USER_CHARGES


@<TRIPOS>ATOM
  1 S        0.7080    -0.2150     2.0450 S.3   1 <1>  -0.0800 
  2 C        1.5300    -0.8080     0.6130 C.2   1 <1>  -0.1400 
  3 C        1.0840     1.4460     1.6320 C.2   1 <1>  -0.1100 
  4 C        2.0280     0.2220    -0.1000 C.2   1 <1>  -0.1500 
  5 C        1.5640    -2.3140     0.4220 C.3   1 <1>   0.5230 
  6 C        1.7800     1.5150     0.4770 C.2   1 <1>  -0.1810 
  7 N        0.1700    -2.8300     0.4100 N.4   1 <1>  -0.9590 
  8 C        2.3230     2.7610    -0.2170 C.3   1 <1>   0.5240 
  9 C       -0.6500    -2.3510    -0.7430 C.3   1 <1>   0.3430 
 10 C        0.0820    -4.3230     0.4200 C.3   1 <1>   0.3430 
 11 N        1.8310     3.9980     0.4430 N.4   1 <1>  -0.9590 
 12 C       -1.7310    -3.4160    -0.9250 C.3   1 <1>   0.2000 
 13 C       -0.9920    -4.7170    -0.6050 C.3   1 <1>  -0.0800 
 14 C        0.3970     4.2850     0.1880 C.3   1 <1>   0.3430 
 15 C        2.5680     5.2150     0.0290 C.3   1 <1>   0.3430 
 16 O       -2.7510    -3.1920    -0.0070 O.3   1 <1>  -0.6800 
 17 C       -1.8760    -5.9060    -0.1740 C.3   1 <1>   0.0200 
 18 C        0.2440     5.7610     0.5280 C.3   1 <1>  -0.1600 
 19 C        1.6480     6.3630     0.4240 C.3   1 <1>  -0.1600 
 20 C       -1.0270    -7.1380     0.0760 C.2   1 <1>  -0.0400 
 21 O       -0.1690    -7.1460     1.0600 O.3   1 <1>  -0.0190 
 22 C       -0.9500    -8.3240    -0.5450 C.2   1 <1>  -0.1500 
 23 N        0.4920    -8.2600     1.1200 N.2   1 <1>  -0.4100 
 24 C        0.0370    -8.9970     0.1700 C.2   1 <1>   0.1080 
 25 C        0.5170   -10.4010    -0.1230 C.3   1 <1>  -0.0590 
 26 H        0.7360     2.1900     2.3280 H     1 <1>   0.1500 
 27 H        2.5800     0.1230    -1.0220 H     1 <1>   0.1500 
 28 H        2.1130    -2.7590     1.2370 H     1 <1>   0.0800 
 29 H        2.0640    -2.5590    -0.5010 H     1 <1>   0.0800 
 30 H       -0.2770    -2.4680     1.2640 H     1 <1>   0.4500 
 31 H        2.0240     2.7590    -1.2530 H     1 <1>   0.0800 
 32 H        3.4000     2.7340    -0.1780 H     1 <1>   0.0800 
 33 H       -1.0830    -1.3800    -0.5610 H     1 <1>   0.0800 
 34 H       -0.0440    -2.3120    -1.6330 H     1 <1>   0.0800 
 35 H        1.0240    -4.7770     0.1540 H     1 <1>   0.0800 
 36 H       -0.1960    -4.6670     1.4040 H     1 <1>   0.0800 
 37 H        1.9590     3.8880     1.4560 H     1 <1>   0.4500 
 38 H       -2.1600    -3.3980    -1.9140 H     1 <1>   0.0800 
 39 H       -0.4690    -5.0160    -1.4980 H     1 <1>   0.0800 
 40 H        0.1720     4.1340    -0.8560 H     1 <1>   0.0800 
 41 H       -0.2520     3.6660     0.7870 H     1 <1>   0.0800 
 42 H        3.5290     5.2900     0.5130 H     1 <1>   0.0800 
 43 H        2.7030     5.2190    -1.0420 H     1 <1>   0.0800 
 44 H       -2.5370    -3.4990     0.8950 H     1 <1>   0.4000 
 45 H       -2.5900    -6.1220    -0.9500 H     1 <1>   0.0800 
 46 H       -2.4240    -5.6820     0.7240 H     1 <1>   0.0800 
 47 H       -0.4460     6.2340    -0.1500 H     1 <1>   0.0800 
 48 H       -0.1370     5.8670     1.5300 H     1 <1>   0.0800 
 49 H        1.9560     6.7670     1.3740 H     1 <1>   0.0800 
 50 H        1.6930     7.1500    -0.3090 H     1 <1>   0.0800 
 51 H       -1.4950    -8.7040    -1.3910 H     1 <1>   0.1500 
 52 H       -0.3060   -11.0890    -0.0550 H     1 <1>   0.0800 
 53 H        1.2700   -10.6900     0.5880 H     1 <1>   0.0800 
 54 H        0.9360   -10.4470    -1.1120 H     1 <1>   0.0800 
@<TRIPOS>BOND
  1   1   2  1   
  2   1   3  1   
  3   2   4  2   
  4   2   5  1   
  5   3   6  2   
  6   3  26  1   
  7   4   6  1   
  8   4  27  1   
  9   5   7  1   
 10   5  28  1   
 11   5  29  1   
 12   6   8  1   
 13   7   9  1   
 14   7  10  1   
 15   7  30  1   
 16   8  11  1   
 17   8  31  1   
 18   8  32  1   
 19   9  12  1   
 20   9  33  1   
 21   9  34  1   
 22  10  13  1   
 23  10  35  1   
 24  10  36  1   
 25  11  14  1   
 26  11  15  1   
 27  11  37  1   
 28  12  13  1   
 29  12  16  1   
 30  12  38  1   
 31  13  17  1   
 32  13  39  1   
 33  14  18  1   
 34  14  40  1   
 35  14  41  1   
 36  15  19  1   
 37  15  42  1   
 38  15  43  1   
 39  16  44  1   
 40  17  20  1   
 41  17  45  1   
 42  17  46  1   
 43  18  19  1   
 44  18  47  1   
 45  18  48  1   
 46  19  49  1   
 47  19  50  1   
 48  20  21  1   
 49  20  22  2   
 50  21  23  1   
 51  22  24  1   
 52  22  51  1   
 53  23  24  2   
 54  24  25  1   
 55  25  52  1   
 56  25  53  1   
 57  25  54  1   
@<TRIPOS>SUBSTRUCTURE
  1 ****   7 GROUP 4 **** **** 0

# MOE 2024.06 (io_trps.svl 2023.06)
