@<TRIPOS>MOLECULE
NONAME
61 65 1 0 0 
SMALL
USER_CHARGES


@<TRIPOS>ATOM
  1 O       -0.2990    -0.2310    -0.2090 O.2   1 <1>  -0.5700 
  2 C       -0.2070     0.9600     0.0240 C.2   1 <1>   0.6900 
  3 N       -1.3350     1.7300     0.1280 N.am  1 <1>  -0.6600 
  4 N        1.0000     1.5500     0.2050 N.am  1 <1>  -0.7300 
  5 C       -1.3290     3.2080    -0.0680 C.3   1 <1>   0.1400 
  6 C       -2.6640     1.0640     0.2320 C.3   1 <1>   0.1400 
  7 C        2.3410     0.9450     0.1710 C.3   1 <1>   0.3000 
  8 C       -2.5930     3.6290    -0.8150 C.3   1 <1>  -0.1600 
  9 C       -3.7010     2.0220     0.8240 C.3   1 <1>  -0.1600 
 10 C        2.4930    -0.1170     1.2770 C.3   1 <1>  -0.1600 
 11 C        2.6310     0.3140    -1.2050 C.3   1 <1>  -0.1600 
 12 C        3.3610     2.0720     0.4230 C.3   1 <1>  -0.1600 
 13 C       -3.8670     3.3270     0.0060 C.3   1 <1>   0.2800 
 14 C        3.9220    -0.6960     1.2590 C.3   1 <1>  -0.0800 
 15 C        4.0600    -0.2630    -1.2300 C.3   1 <1>  -0.0800 
 16 C        4.7970     1.5120     0.4050 C.3   1 <1>  -0.0800 
 17 O       -4.0240     4.3390     0.9710 O.3   1 <1>  -0.5600 
 18 C       -5.1160     3.2620    -0.9100 C.3   1 <1>  -0.1600 
 19 C        4.1930    -1.3260    -0.1220 C.3   1 <1>  -0.1600 
 20 C        4.9330     0.4400     1.5030 C.3   1 <1>  -0.1600 
 21 C        5.0700     0.8700    -0.9680 C.3   1 <1>  -0.1600 
 22 C       -4.6060     5.5510     0.5770 C.3   1 <1>   0.1200 
 23 C       -6.3620     3.8850    -0.2690 C.3   1 <1>   0.2800 
 24 C       -6.0550     5.3400     0.1110 C.3   1 <1>  -0.1600 
 25 O       -6.6170     3.2150     0.9120 O.3   1 <1>  -0.6800 
 26 C       -7.6080     3.7600    -1.1730 C.3   1 <1>   0.1200 
 27 O       -8.7420     4.1830    -0.4930 O.3   1 <1>  -0.6800 
 28 H        0.9760     2.4710     0.6240 H     1 <1>   0.3700 
 29 H       -0.4660     3.4990    -0.6420 H     1 <1>   0.0800 
 30 H       -1.2900     3.6950     0.8920 H     1 <1>   0.0800 
 31 H       -2.5780     0.1920     0.8590 H     1 <1>   0.0800 
 32 H       -2.9710     0.7400    -0.7480 H     1 <1>   0.0800 
 33 H       -2.6170     3.0810    -1.7410 H     1 <1>   0.0800 
 34 H       -2.5340     4.6690    -1.0680 H     1 <1>   0.0800 
 35 H       -3.3810     2.2560     1.8250 H     1 <1>   0.0800 
 36 H       -4.6360     1.4990     0.9050 H     1 <1>   0.0800 
 37 H        1.7910    -0.9150     1.1180 H     1 <1>   0.0800 
 38 H        2.2900     0.3210     2.2370 H     1 <1>   0.0800 
 39 H        2.5230     1.0550    -1.9760 H     1 <1>   0.0800 
 40 H        1.9320    -0.4780    -1.4020 H     1 <1>   0.0800 
 41 H        3.1730     2.5280     1.3780 H     1 <1>   0.0800 
 42 H        3.2650     2.8250    -0.3390 H     1 <1>   0.0800 
 43 H        4.0200    -1.4450     2.0260 H     1 <1>   0.0800 
 44 H        4.2530    -0.7110    -2.1900 H     1 <1>   0.0800 
 45 H        5.5020     2.3070     0.5820 H     1 <1>   0.0800 
 46 H       -5.3150     2.2470    -1.2040 H     1 <1>   0.0800 
 47 H       -4.9140     3.8000    -1.8180 H     1 <1>   0.0800 
 48 H        3.4940    -2.1250    -0.3000 H     1 <1>   0.0800 
 49 H        5.1820    -1.7500    -0.1410 H     1 <1>   0.0800 
 50 H        5.9330     0.0430     1.5010 H     1 <1>   0.0800 
 51 H        4.7590     0.8810     2.4690 H     1 <1>   0.0800 
 52 H        4.9910     1.6130    -1.7420 H     1 <1>   0.0800 
 53 H        6.0710     0.4770    -0.9940 H     1 <1>   0.0800 
 54 H       -4.0120     5.9810    -0.2100 H     1 <1>   0.0800 
 55 H       -4.5800     6.2160     1.4220 H     1 <1>   0.0800 
 56 H       -6.2150     5.9730    -0.7430 H     1 <1>   0.0800 
 57 H       -6.7410     5.6750     0.8690 H     1 <1>   0.0800 
 58 H       -5.8430     3.3750     1.4950 H     1 <1>   0.4000 
 59 H       -7.7560     2.7330    -1.4580 H     1 <1>   0.0800 
 60 H       -7.5070     4.3580    -2.0620 H     1 <1>   0.0800 
 61 H       -8.6890     3.8100     0.4150 H     1 <1>   0.4000 
@<TRIPOS>BOND
  1   1   2  2   
  2   2   3  am  
  3   2   4  am  
  4   3   5  1   
  5   3   6  1   
  6   4   7  1   
  7   4  28  1   
  8   5   8  1   
  9   5  29  1   
 10   5  30  1   
 11   6   9  1   
 12   6  31  1   
 13   6  32  1   
 14   7  10  1   
 15   7  11  1   
 16   7  12  1   
 17   8  13  1   
 18   8  33  1   
 19   8  34  1   
 20   9  13  1   
 21   9  35  1   
 22   9  36  1   
 23  10  14  1   
 24  10  37  1   
 25  10  38  1   
 26  11  15  1   
 27  11  39  1   
 28  11  40  1   
 29  12  16  1   
 30  12  41  1   
 31  12  42  1   
 32  13  17  1   
 33  13  18  1   
 34  14  19  1   
 35  14  20  1   
 36  14  43  1   
 37  15  19  1   
 38  15  21  1   
 39  15  44  1   
 40  16  20  1   
 41  16  21  1   
 42  16  45  1   
 43  17  22  1   
 44  18  23  1   
 45  18  46  1   
 46  18  47  1   
 47  19  48  1   
 48  19  49  1   
 49  20  50  1   
 50  20  51  1   
 51  21  52  1   
 52  21  53  1   
 53  22  24  1   
 54  22  54  1   
 55  22  55  1   
 56  23  24  1   
 57  23  25  1   
 58  23  26  1   
 59  24  56  1   
 60  24  57  1   
 61  25  58  1   
 62  26  27  1   
 63  26  59  1   
 64  26  60  1   
 65  27  61  1   
@<TRIPOS>SUBSTRUCTURE
  1 ****   3 GROUP 4 **** **** 0

# MOE 2024.06 (io_trps.svl 2023.06)
