@<TRIPOS>MOLECULE
NONAME
58 60 1 0 0 
SMALL
USER_CHARGES


@<TRIPOS>ATOM
  1 O       -7.2190    -1.3460    -1.0700 O.co2 1 <1>  -0.9000 
  2 C       -7.1910    -0.9750     0.1090 C.2   1 <1>   0.9060 
  3 O       -8.2500    -0.8080     0.7200 O.co2 1 <1>  -0.9000 
  4 C       -5.8980    -0.4400     0.7010 C.3   1 <1>   0.0140 
  5 O       -6.0980     0.8280     1.3330 O.3   1 <1>  -0.3630 
  6 C       -5.7480     1.9950     0.7460 C.ar  1 <1>   0.0830 
  7 C       -6.2310     2.4400    -0.4880 C.ar  1 <1>  -0.1440 
  8 C       -4.8820     2.7930     1.4760 C.ar  1 <1>  -0.1500 
  9 C       -5.8100     3.6760    -0.9650 C.ar  1 <1>  -0.1500 
 10 C       -7.1980     1.6530    -1.3590 C.3   1 <1>   0.4870 
 11 C       -4.4730     4.0210     0.9910 C.ar  1 <1>  -0.1500 
 12 C       -4.9380     4.4620    -0.2330 C.ar  1 <1>  -0.1500 
 13 N       -8.5660     1.5250    -0.7720 N.4   1 <1>  -0.9590 
 14 C       -9.4160     0.7720    -1.7470 C.3   1 <1>   0.3430 
 15 C       -9.0990     2.8310    -0.3060 C.3   1 <1>   0.3430 
 16 C      -10.5350    -0.0910    -1.1280 C.3   1 <1>   0.1400 
 17 C      -10.3560     2.7280     0.5550 C.3   1 <1>  -0.1600 
 18 N      -11.2940     0.5410     0.0010 N.am  1 <1>  -0.6600 
 19 C      -11.5280     2.0010    -0.1040 C.3   1 <1>   0.1400 
 20 C      -11.7150    -0.1240     1.1350 C.2   1 <1>   0.5690 
 21 O      -12.3730     0.4460     1.9760 O.2   1 <1>  -0.5700 
 22 C      -11.4090    -1.5900     1.4190 C.3   1 <1>  -0.0990 
 23 C      -12.5620    -2.5420     1.0420 C.3   1 <1>  -0.0800 
 24 C      -12.2430    -3.9690     1.5210 C.3   1 <1>   0.1200 
 25 C      -12.8440    -2.5430    -0.4700 C.3   1 <1>  -0.1600 
 26 O      -13.2730    -4.8400     1.1570 O.3   1 <1>  -0.5600 
 27 C      -13.8750    -3.6260    -0.8100 C.3   1 <1>  -0.1600 
 28 C      -13.4600    -4.9770    -0.2170 C.3   1 <1>   0.1200 
 29 H       -5.1510    -0.3410    -0.0630 H     1 <1>   0.0800 
 30 H       -5.5570    -1.1270     1.4500 H     1 <1>   0.0800 
 31 H       -4.5300     2.4420     2.4300 H     1 <1>   0.1500 
 32 H       -6.1540     4.0430    -1.9170 H     1 <1>   0.1500 
 33 H       -6.7790     0.6860    -1.5630 H     1 <1>   0.0800 
 34 H       -7.2770     2.1560    -2.3070 H     1 <1>   0.0800 
 35 H       -3.7970     4.6300     1.5670 H     1 <1>   0.1500 
 36 H       -4.6170     5.4170    -0.6150 H     1 <1>   0.1500 
 37 H       -8.4820     0.8660     0.0470 H     1 <1>   0.4500 
 38 H       -8.7860     0.0940    -2.3020 H     1 <1>   0.0800 
 39 H       -9.8510     1.4590    -2.4510 H     1 <1>   0.0800 
 40 H       -9.3060     3.4540    -1.1600 H     1 <1>   0.0800 
 41 H       -8.3440     3.3260     0.2840 H     1 <1>   0.0800 
 42 H      -10.0850    -1.0130    -0.8200 H     1 <1>   0.0800 
 43 H      -11.2320    -0.3420    -1.9060 H     1 <1>   0.0800 
 44 H      -10.6730     3.7300     0.7800 H     1 <1>   0.0800 
 45 H      -10.1150     2.2610     1.4950 H     1 <1>   0.0800 
 46 H      -11.6510     2.2960    -1.1310 H     1 <1>   0.0800 
 47 H      -12.4380     2.2550     0.4150 H     1 <1>   0.0800 
 48 H      -11.2390    -1.6670     2.4770 H     1 <1>   0.0800 
 49 H      -10.4980    -1.9050     0.9560 H     1 <1>   0.0800 
 50 H      -13.4460    -2.2140     1.5620 H     1 <1>   0.0800 
 51 H      -12.1610    -3.9950     2.5940 H     1 <1>   0.0800 
 52 H      -11.3230    -4.3280     1.0920 H     1 <1>   0.0800 
 53 H      -11.9330    -2.7500    -1.0040 H     1 <1>   0.0800 
 54 H      -13.2150    -1.5820    -0.7810 H     1 <1>   0.0800 
 55 H      -13.9750    -3.7160    -1.8770 H     1 <1>   0.0800 
 56 H      -14.8360    -3.3540    -0.4080 H     1 <1>   0.0800 
 57 H      -14.2310    -5.7110    -0.3720 H     1 <1>   0.0800 
 58 H      -12.5420    -5.3320    -0.6560 H     1 <1>   0.0800 
@<TRIPOS>BOND
  1   1   2  ar  
  2   2   3  ar  
  3   2   4  1   
  4   4   5  1   
  5   4  29  1   
  6   4  30  1   
  7   5   6  1   
  8   6   7  ar  
  9   6   8  ar  
 10   7   9  ar  
 11   7  10  1   
 12   8  11  ar  
 13   8  31  1   
 14   9  12  ar  
 15   9  32  1   
 16  10  13  1   
 17  10  33  1   
 18  10  34  1   
 19  11  12  ar  
 20  11  35  1   
 21  12  36  1   
 22  13  14  1   
 23  13  15  1   
 24  13  37  1   
 25  14  16  1   
 26  14  38  1   
 27  14  39  1   
 28  15  17  1   
 29  15  40  1   
 30  15  41  1   
 31  16  18  1   
 32  16  42  1   
 33  16  43  1   
 34  17  19  1   
 35  17  44  1   
 36  17  45  1   
 37  18  19  1   
 38  18  20  am  
 39  19  46  1   
 40  19  47  1   
 41  20  21  2   
 42  20  22  1   
 43  22  23  1   
 44  22  48  1   
 45  22  49  1   
 46  23  24  1   
 47  23  25  1   
 48  23  50  1   
 49  24  26  1   
 50  24  51  1   
 51  24  52  1   
 52  25  27  1   
 53  25  53  1   
 54  25  54  1   
 55  26  28  1   
 56  27  28  1   
 57  27  55  1   
 58  27  56  1   
 59  28  57  1   
 60  28  58  1   
@<TRIPOS>SUBSTRUCTURE
  1 ****   3 GROUP 4 **** **** 0

# MOE 2024.06 (io_trps.svl 2023.06)
