@<TRIPOS>MOLECULE
NONAME
49 51 1 0 0 
SMALL
USER_CHARGES


@<TRIPOS>ATOM
  1 O       -0.7750    -0.2200     0.9550 O.2   1 <1>  -0.5700 
  2 C       -1.3730     0.6380     0.3480 C.2   1 <1>   0.5690 
  3 N       -2.7480     0.6840     0.3370 N.am  1 <1>  -0.6600 
  4 C       -0.5130     1.6270    -0.4280 C.3   1 <1>  -0.0990 
  5 C       -3.5090     1.8660    -0.1630 C.3   1 <1>   0.2200 
  6 C       -3.5310    -0.4630     0.8860 C.3   1 <1>   0.0600 
  7 C        0.1860     2.6530     0.4770 C.3   1 <1>  -0.0160 
  8 C       -4.7840     2.2200     0.6010 C.3   1 <1>  -0.1600 
  9 C       -3.9930     1.6810    -1.5940 C.3   1 <1>  -0.1600 
 10 C       -0.7650     3.7180     1.0200 C.ar  1 <1>  -0.1440 
 11 C       -5.5630     3.1190    -0.3730 C.3   1 <1>  -0.0800 
 12 C       -5.0040     2.8170    -1.7760 C.3   1 <1>  -0.0800 
 13 C       -0.9720     4.9420     0.3860 C.ar  1 <1>  -0.1440 
 14 C       -1.4290     3.4480     2.2070 C.ar  1 <1>  -0.1500 
 15 C       -5.3440     4.6170    -0.1160 C.3   1 <1>  -0.1600 
 16 C       -4.3410     4.1100    -2.2710 C.3   1 <1>  -0.1600 
 17 C       -1.8090     5.8810     0.9710 C.ar  1 <1>  -0.1500 
 18 C       -0.2950     5.2990    -0.9310 C.3   1 <1>  -0.0970 
 19 C       -2.2760     4.3820     2.7750 C.ar  1 <1>  -0.1500 
 20 C       -4.9720     5.2300    -1.4590 C.3   1 <1>   0.2000 
 21 C       -2.4600     5.6050     2.1590 C.ar  1 <1>  -0.1500 
 22 O       -4.0440     6.2270    -1.2620 O.3   1 <1>  -0.6800 
 23 H        0.2470     1.0520    -0.9240 H     1 <1>   0.0800 
 24 H       -1.0710     2.1240    -1.1950 H     1 <1>   0.0800 
 25 H       -2.8800     2.7370    -0.1270 H     1 <1>   0.0800 
 26 H       -4.3500    -0.7010     0.2310 H     1 <1>   0.0800 
 27 H       -3.9100    -0.2090     1.8600 H     1 <1>   0.0800 
 28 H       -2.9110    -1.3380     0.9790 H     1 <1>   0.0800 
 29 H        0.9820     3.1210    -0.0720 H     1 <1>   0.0800 
 30 H        0.6500     2.1360     1.2990 H     1 <1>   0.0800 
 31 H       -5.3810     1.3470     0.7860 H     1 <1>   0.0800 
 32 H       -4.5640     2.7040     1.5360 H     1 <1>   0.0800 
 33 H       -3.1900     1.7260    -2.3080 H     1 <1>   0.0800 
 34 H       -4.4990     0.7370    -1.6870 H     1 <1>   0.0800 
 35 H       -6.6160     2.8920    -0.3340 H     1 <1>   0.0800 
 36 H       -5.7970     2.5300    -2.4470 H     1 <1>   0.0800 
 37 H       -1.2870     2.5000     2.7000 H     1 <1>   0.1500 
 38 H       -4.5450     4.7590     0.5880 H     1 <1>   0.0800 
 39 H       -6.2370     5.0750     0.2730 H     1 <1>   0.0800 
 40 H       -4.5120     4.2560    -3.3230 H     1 <1>   0.0800 
 41 H       -3.2810     4.0830    -2.0850 H     1 <1>   0.0800 
 42 H       -1.9550     6.8440     0.5110 H     1 <1>   0.1500 
 43 H       -0.7090     6.2000    -1.3460 H     1 <1>   0.0800 
 44 H       -0.4300     4.5110    -1.6480 H     1 <1>   0.0800 
 45 H        0.7560     5.4530    -0.7700 H     1 <1>   0.0800 
 46 H       -2.7820     4.1590     3.6970 H     1 <1>   0.1500 
 47 H       -5.8350     5.6380    -1.9590 H     1 <1>   0.0800 
 48 H       -3.1080     6.3410     2.6030 H     1 <1>   0.1500 
 49 H       -3.3170     5.8740    -0.7100 H     1 <1>   0.4000 
@<TRIPOS>BOND
  1   1   2  2   
  2   2   3  am  
  3   2   4  1   
  4   3   5  1   
  5   3   6  1   
  6   4   7  1   
  7   4  23  1   
  8   4  24  1   
  9   5   8  1   
 10   5   9  1   
 11   5  25  1   
 12   6  26  1   
 13   6  27  1   
 14   6  28  1   
 15   7  10  1   
 16   7  29  1   
 17   7  30  1   
 18   8  11  1   
 19   8  31  1   
 20   8  32  1   
 21   9  12  1   
 22   9  33  1   
 23   9  34  1   
 24  10  13  ar  
 25  10  14  ar  
 26  11  12  1   
 27  11  15  1   
 28  11  35  1   
 29  12  16  1   
 30  12  36  1   
 31  13  17  ar  
 32  13  18  1   
 33  14  19  ar  
 34  14  37  1   
 35  15  20  1   
 36  15  38  1   
 37  15  39  1   
 38  16  20  1   
 39  16  40  1   
 40  16  41  1   
 41  17  21  ar  
 42  17  42  1   
 43  18  43  1   
 44  18  44  1   
 45  18  45  1   
 46  19  21  ar  
 47  19  46  1   
 48  20  22  1   
 49  20  47  1   
 50  21  48  1   
 51  22  49  1   
@<TRIPOS>SUBSTRUCTURE
  1 ****   5 GROUP 4 **** **** 0

# MOE 2024.06 (io_trps.svl 2023.06)
