@<TRIPOS>MOLECULE
NONAME
50 51 1 0 0 
SMALL
USER_CHARGES


@<TRIPOS>ATOM
  1 S        0.4180     0.6210    -1.4720 S.o2  1 <1>   1.3330 
  2 O       -0.6920    -0.2430    -1.8040 O.2   1 <1>  -0.6500 
  3 O        1.5770     0.6610    -2.3350 O.2   1 <1>  -0.6500 
  4 N        0.9390     0.2010     0.0900 N.am  1 <1>  -0.8490 
  5 C       -0.1840     2.3010    -1.2810 C.3   1 <1>  -0.0550 
  6 C        2.0230    -0.7870     0.0720 C.3   1 <1>   0.1160 
  7 C       -0.1440    -0.2630     0.9640 C.3   1 <1>   0.1160 
  8 C        0.9110     3.3400    -0.9550 C.3   1 <1>  -0.0800 
  9 C        0.4260     4.7920    -0.9930 C.3   1 <1>   0.2000 
 10 C        1.5460     3.1890     0.4340 C.3   1 <1>   0.1400 
 11 O       -0.7880     4.8820    -0.3270 O.3   1 <1>  -0.6800 
 12 C        1.4710     5.5440    -0.1730 C.3   1 <1>   0.1400 
 13 N        1.8820     4.5680     0.8660 N.am  1 <1>  -0.6600 
 14 C        2.5490     4.8330     2.0320 C.2   1 <1>   0.5690 
 15 O        2.8450     3.9440     2.7960 O.2   1 <1>  -0.5700 
 16 C        2.9270     6.2580     2.4180 C.3   1 <1>   0.0440 
 17 C        3.8030     6.9630     1.3830 C.ar  1 <1>  -0.1440 
 18 C        3.4830     8.2340     0.9370 C.ar  1 <1>  -0.1500 
 19 C        4.9280     6.3360     0.8740 C.ar  1 <1>  -0.1500 
 20 C        4.2750     8.8630    -0.0080 C.ar  1 <1>  -0.1500 
 21 C        5.7150     6.9710    -0.0710 C.ar  1 <1>  -0.1500 
 22 C        5.4050     8.2450    -0.5300 C.ar  1 <1>  -0.0090 
 23 S        6.4600     9.0870    -1.7350 S.o2  1 <1>   1.2040 
 24 O        7.1820     8.1080    -2.5150 O.2   1 <1>  -0.6500 
 25 O        5.7020    10.1250    -2.3980 O.2   1 <1>  -0.6500 
 26 C        7.6470     9.8980    -0.6820 C.3   1 <1>  -0.1350 
 27 H       -0.6530     2.5920    -2.2010 H     1 <1>   0.0800 
 28 H       -0.9410     2.3220    -0.5220 H     1 <1>   0.0800 
 29 H        2.3390    -1.0130     1.0750 H     1 <1>   0.0800 
 30 H        2.8700    -0.3950    -0.4660 H     1 <1>   0.0800 
 31 H        1.6950    -1.6920    -0.4120 H     1 <1>   0.0800 
 32 H        0.2280    -0.4190     1.9620 H     1 <1>   0.0800 
 33 H       -0.5560    -1.1880     0.5940 H     1 <1>   0.0800 
 34 H       -0.9290     0.4720     1.0060 H     1 <1>   0.0800 
 35 H        1.7000     3.2440    -1.6820 H     1 <1>   0.0800 
 36 H        0.3040     5.1820    -1.9890 H     1 <1>   0.0800 
 37 H        2.4320     2.5760     0.3990 H     1 <1>   0.0800 
 38 H        0.8520     2.7630     1.1380 H     1 <1>   0.0800 
 39 H       -0.6380     4.6930     0.6220 H     1 <1>   0.4000 
 40 H        1.0700     6.4490     0.2510 H     1 <1>   0.0800 
 41 H        2.3220     5.7790    -0.7900 H     1 <1>   0.0800 
 42 H        2.0210     6.8100     2.5800 H     1 <1>   0.0800 
 43 H        3.4580     6.2300     3.3520 H     1 <1>   0.0800 
 44 H        2.6150     8.7450     1.3200 H     1 <1>   0.1500 
 45 H        5.1960     5.3460     1.2090 H     1 <1>   0.1500 
 46 H        4.0090     9.8500    -0.3480 H     1 <1>   0.1500 
 47 H        6.5830     6.4630    -0.4600 H     1 <1>   0.1500 
 48 H        8.1870     9.1760    -0.1010 H     1 <1>   0.0800 
 49 H        7.1540    10.5800    -0.0170 H     1 <1>   0.0800 
 50 H        8.3480    10.4500    -1.2780 H     1 <1>   0.0800 
@<TRIPOS>BOND
  1   1   2  2   
  2   1   3  2   
  3   1   4  am  
  4   1   5  1   
  5   4   6  1   
  6   4   7  1   
  7   5   8  1   
  8   5  27  1   
  9   5  28  1   
 10   6  29  1   
 11   6  30  1   
 12   6  31  1   
 13   7  32  1   
 14   7  33  1   
 15   7  34  1   
 16   8   9  1   
 17   8  10  1   
 18   8  35  1   
 19   9  11  1   
 20   9  12  1   
 21   9  36  1   
 22  10  13  1   
 23  10  37  1   
 24  10  38  1   
 25  11  39  1   
 26  12  13  1   
 27  12  40  1   
 28  12  41  1   
 29  13  14  am  
 30  14  15  2   
 31  14  16  1   
 32  16  17  1   
 33  16  42  1   
 34  16  43  1   
 35  17  18  ar  
 36  17  19  ar  
 37  18  20  ar  
 38  18  44  1   
 39  19  21  ar  
 40  19  45  1   
 41  20  22  ar  
 42  20  46  1   
 43  21  22  ar  
 44  21  47  1   
 45  22  23  1   
 46  23  24  2   
 47  23  25  2   
 48  23  26  1   
 49  26  48  1   
 50  26  49  1   
 51  26  50  1   
@<TRIPOS>SUBSTRUCTURE
  1 ****  13 GROUP 4 **** **** 0

# MOE 2024.06 (io_trps.svl 2023.06)
