@<TRIPOS>MOLECULE
NONAME
50 51 1 0 0 
SMALL
USER_CHARGES


@<TRIPOS>ATOM
  1 O       -4.0000     2.4880     1.9050 O.2   1 <1>  -0.5700 
  2 C       -3.4280     2.2190     0.8650 C.2   1 <1>   0.5440 
  3 N       -4.1120     1.4580    -0.0600 N.am  1 <1>  -0.6600 
  4 C       -2.0580     2.6470     0.6400 C.ar  1 <1>   0.0860 
  5 C       -3.4630     0.8470    -1.2530 C.3   1 <1>   0.3200 
  6 C       -5.5530     1.1240     0.1560 C.3   1 <1>   0.1400 
  7 C       -0.9950     2.0340     1.3180 C.ar  1 <1>  -0.1440 
  8 C       -1.7620     3.6610    -0.2810 C.ar  1 <1>  -0.1440 
  9 C       -3.6190    -0.6520    -1.1270 C.2   1 <1>  -0.3320 
 10 C       -5.6870     0.1320     1.3250 C.3   1 <1>   0.3430 
 11 C        0.3120     2.3950     1.0420 C.ar  1 <1>  -0.1500 
 12 C       -1.2490     0.9770     2.3860 C.3   1 <1>  -0.0960 
 13 C       -0.4470     4.0050    -0.5450 C.ar  1 <1>  -0.1500 
 14 C       -2.8710     4.4190    -1.0020 C.3   1 <1>  -0.0960 
 15 N       -2.8600    -1.4220    -0.3230 N.pl3 1 <1>   0.0330 
 16 C       -4.5060    -1.4780    -1.7230 C.2   1 <1>   0.0770 
 17 N       -7.0030    -0.5900     1.3530 N.4   1 <1>  -0.9590 
 18 C        0.5950     3.3720     0.1060 C.ar  1 <1>  -0.1430 
 19 C       -3.3710    -2.6650    -0.4490 C.2   1 <1>   0.0360 
 20 N       -4.3750    -2.7350    -1.2630 N.2   1 <1>  -0.5650 
 21 C       -7.2250    -1.1820     2.7070 C.3   1 <1>   0.2630 
 22 C       -7.0490    -1.6670     0.3100 C.3   1 <1>   0.2630 
 23 C        2.0330     3.7590    -0.1890 C.3   1 <1>  -0.0970 
 24 H       -2.4210     1.1080    -1.3230 H     1 <1>   0.0800 
 25 H       -3.9570     1.1990    -2.1440 H     1 <1>   0.0800 
 26 H       -5.9640     0.7100    -0.7470 H     1 <1>   0.0800 
 27 H       -6.0880     2.0290     0.3920 H     1 <1>   0.0800 
 28 H       -5.5530     0.6840     2.2420 H     1 <1>   0.0800 
 29 H       -4.8930    -0.5920     1.2530 H     1 <1>   0.0800 
 30 H        1.1250     1.9200     1.5640 H     1 <1>   0.1500 
 31 H       -1.8870     0.2000     2.0100 H     1 <1>   0.0800 
 32 H       -1.7270     1.4340     3.2350 H     1 <1>   0.0800 
 33 H       -0.3290     0.5320     2.7190 H     1 <1>   0.0800 
 34 H       -0.2260     4.7790    -1.2590 H     1 <1>   0.1500 
 35 H       -3.6270     4.7280    -0.3020 H     1 <1>   0.0800 
 36 H       -3.3220     3.7990    -1.7540 H     1 <1>   0.0800 
 37 H       -2.4840     5.3030    -1.4780 H     1 <1>   0.0800 
 38 H       -2.0550    -1.1360     0.2450 H     1 <1>   0.2700 
 39 H       -5.2540    -1.2310    -2.4590 H     1 <1>   0.1500 
 40 H       -7.7540     0.0940     1.1740 H     1 <1>   0.4500 
 41 H       -2.9620    -3.5080     0.0830 H     1 <1>   0.1500 
 42 H       -6.4550    -1.9020     2.9320 H     1 <1>   0.0800 
 43 H       -8.1820    -1.6760     2.7470 H     1 <1>   0.0800 
 44 H       -7.2060    -0.4100     3.4600 H     1 <1>   0.0800 
 45 H       -6.2450    -2.3700     0.4580 H     1 <1>   0.0800 
 46 H       -6.9480    -1.2440    -0.6750 H     1 <1>   0.0800 
 47 H       -7.9850    -2.1990     0.3580 H     1 <1>   0.0800 
 48 H        2.6870     2.9180    -0.0510 H     1 <1>   0.0800 
 49 H        2.3390     4.5490     0.4730 H     1 <1>   0.0800 
 50 H        2.1310     4.1010    -1.2040 H     1 <1>   0.0800 
@<TRIPOS>BOND
  1   1   2  2   
  2   2   3  am  
  3   2   4  1   
  4   3   5  1   
  5   3   6  1   
  6   4   7  ar  
  7   4   8  ar  
  8   5   9  1   
  9   5  24  1   
 10   5  25  1   
 11   6  10  1   
 12   6  26  1   
 13   6  27  1   
 14   7  11  ar  
 15   7  12  1   
 16   8  13  ar  
 17   8  14  1   
 18   9  15  1   
 19   9  16  2   
 20  10  17  1   
 21  10  28  1   
 22  10  29  1   
 23  11  18  ar  
 24  11  30  1   
 25  12  31  1   
 26  12  32  1   
 27  12  33  1   
 28  13  18  ar  
 29  13  34  1   
 30  14  35  1   
 31  14  36  1   
 32  14  37  1   
 33  15  19  1   
 34  15  38  1   
 35  16  20  1   
 36  16  39  1   
 37  17  21  1   
 38  17  22  1   
 39  17  40  1   
 40  18  23  1   
 41  19  20  2   
 42  19  41  1   
 43  21  42  1   
 44  21  43  1   
 45  21  44  1   
 46  22  45  1   
 47  22  46  1   
 48  22  47  1   
 49  23  48  1   
 50  23  49  1   
 51  23  50  1   
@<TRIPOS>SUBSTRUCTURE
  1 ****   3 GROUP 4 **** **** 0

# MOE 2024.06 (io_trps.svl 2023.06)
