@<TRIPOS>MOLECULE
NONAME
47 50 1 0 0 
SMALL
USER_CHARGES


@<TRIPOS>ATOM
  1 F       -2.7830    -0.3530    -1.0720 F     1 <1>  -0.1900 
  2 C       -2.6110     0.4240    -0.0350 C.ar  1 <1>   0.1900 
  3 C       -2.6000    -0.1530     1.2340 C.ar  1 <1>   0.0860 
  4 C       -2.4550     1.7850    -0.2550 C.ar  1 <1>  -0.1440 
  5 C       -2.7770    -1.5720     1.4410 C.2   1 <1>   0.5440 
  6 C       -2.4030     0.7090     2.3120 C.ar  1 <1>  -0.1500 
  7 C       -2.2720     2.6090     0.8450 C.ar  1 <1>  -0.1500 
  8 C       -2.4800     2.3700    -1.6600 C.3   1 <1>  -0.0960 
  9 O       -1.8450    -2.2230     1.8720 O.2   1 <1>  -0.5700 
 10 N       -3.9750    -2.2100     1.1940 N.am  1 <1>  -0.6600 
 11 C       -2.2440     2.0700     2.1220 C.ar  1 <1>  -0.1500 
 12 C       -4.1100    -3.7000     1.2370 C.3   1 <1>   0.1400 
 13 C       -5.2190    -1.5420     0.7020 C.3   1 <1>   0.1400 
 14 C       -4.6560    -4.2390    -0.0990 C.3   1 <1>   0.3430 
 15 C       -5.6880    -2.1820    -0.6240 C.3   1 <1>   0.2950 
 16 O       -5.8360    -3.5630    -0.4550 O.3   1 <1>  -0.5600 
 17 C       -4.9350    -5.7370     0.0000 C.ar  1 <1>  -0.1440 
 18 C       -7.0320    -1.6510    -1.1550 C.3   1 <1>  -0.1950 
 19 C       -3.9360    -6.6420    -0.3300 C.ar  1 <1>  -0.1500 
 20 C       -6.1650    -6.2190     0.4280 C.ar  1 <1>  -0.1500 
 21 C       -7.5000    -0.2390    -0.9700 C.3   1 <1>  -0.2000 
 22 C       -8.2210    -1.3700    -0.2900 C.3   1 <1>  -0.2000 
 23 C       -4.1610    -8.0040    -0.2330 C.ar  1 <1>  -0.1500 
 24 C       -6.3920    -7.5810     0.5250 C.ar  1 <1>  -0.1500 
 25 C       -5.3900    -8.4750     0.1950 C.ar  1 <1>  -0.1500 
 26 H       -2.3710     0.2960     3.3060 H     1 <1>   0.1500 
 27 H       -2.1460     3.6700     0.7160 H     1 <1>   0.1500 
 28 H       -2.3380     3.4360    -1.6390 H     1 <1>   0.0800 
 29 H       -3.4240     2.1600    -2.1300 H     1 <1>   0.0800 
 30 H       -1.6950     1.9340    -2.2520 H     1 <1>   0.0800 
 31 H       -2.0940     2.7170     2.9700 H     1 <1>   0.1500 
 32 H       -3.1620    -4.1660     1.4380 H     1 <1>   0.0800 
 33 H       -4.7830    -3.9740     2.0300 H     1 <1>   0.0800 
 34 H       -5.9870    -1.6570     1.4440 H     1 <1>   0.0800 
 35 H       -5.0580    -0.4920     0.5550 H     1 <1>   0.0800 
 36 H       -3.9320    -4.0670    -0.8760 H     1 <1>   0.0800 
 37 H       -4.9370    -2.0160    -1.3780 H     1 <1>   0.0800 
 38 H       -7.2410    -2.0880    -2.1170 H     1 <1>   0.1000 
 39 H       -2.9740    -6.2910    -0.6630 H     1 <1>   0.1500 
 40 H       -6.9520    -5.5300     0.6840 H     1 <1>   0.1500 
 41 H       -6.9510     0.4510    -0.3530 H     1 <1>   0.1000 
 42 H       -7.9830     0.2540    -1.7960 H     1 <1>   0.1000 
 43 H       -9.1910    -1.6640    -0.6530 H     1 <1>   0.1000 
 44 H       -8.1410    -1.4760     0.7780 H     1 <1>   0.1000 
 45 H       -3.3810    -8.6980    -0.4920 H     1 <1>   0.1500 
 46 H       -7.3500    -7.9420     0.8560 H     1 <1>   0.1500 
 47 H       -5.5660    -9.5340     0.2700 H     1 <1>   0.1500 
@<TRIPOS>BOND
  1   1   2  1   
  2   2   3  ar  
  3   2   4  ar  
  4   3   5  1   
  5   3   6  ar  
  6   4   7  ar  
  7   4   8  1   
  8   5   9  2   
  9   5  10  am  
 10   6  11  ar  
 11   6  26  1   
 12   7  11  ar  
 13   7  27  1   
 14   8  28  1   
 15   8  29  1   
 16   8  30  1   
 17  10  12  1   
 18  10  13  1   
 19  11  31  1   
 20  12  14  1   
 21  12  32  1   
 22  12  33  1   
 23  13  15  1   
 24  13  34  1   
 25  13  35  1   
 26  14  16  1   
 27  14  17  1   
 28  14  36  1   
 29  15  16  1   
 30  15  18  1   
 31  15  37  1   
 32  17  19  ar  
 33  17  20  ar  
 34  18  21  1   
 35  18  22  1   
 36  18  38  1   
 37  19  23  ar  
 38  19  39  1   
 39  20  24  ar  
 40  20  40  1   
 41  21  22  1   
 42  21  41  1   
 43  21  42  1   
 44  22  43  1   
 45  22  44  1   
 46  23  25  ar  
 47  23  45  1   
 48  24  25  ar  
 49  24  46  1   
 50  25  47  1   
@<TRIPOS>SUBSTRUCTURE
  1 ****  10 GROUP 4 **** **** 0

# MOE 2024.06 (io_trps.svl 2023.06)
