@<TRIPOS>MOLECULE
NONAME
39 41 1 0 0 
SMALL
USER_CHARGES


@<TRIPOS>ATOM
  1 S        0.4140    -0.3710     2.1060 S.3   1 <1>  -0.0800 
  2 C        1.3560    -1.0980     0.7960 C.2   1 <1>  -0.0450 
  3 C        1.0570     1.2230     1.7890 C.2   1 <1>  -0.1100 
  4 C        2.0980    -0.1210     0.2050 C.2   1 <1>  -0.1810 
  5 C        1.2440    -2.5220     0.5680 C.2   1 <1>   0.7150 
  6 C        1.9240     1.1810     0.7640 C.2   1 <1>  -0.1500 
  7 C        3.0610    -0.3090    -0.9550 C.3   1 <1>  -0.0590 
  8 O        2.2400    -3.1740     0.3080 O.2   1 <1>  -0.5700 
  9 N        0.0350    -3.1840     0.6060 N.am  1 <1>  -0.6600 
 10 C       -1.2830    -2.5380     0.3850 C.3   1 <1>   0.1400 
 11 C       -0.0630    -4.6490     0.3990 C.3   1 <1>   0.1400 
 12 C       -2.1600    -3.6360    -0.2160 C.3   1 <1>   0.2000 
 13 C       -1.5580    -4.9490     0.2780 C.3   1 <1>  -0.0800 
 14 O       -3.4770    -3.5250     0.2020 O.3   1 <1>  -0.6800 
 15 C       -1.8770    -6.1370    -0.6420 C.3   1 <1>  -0.0170 
 16 C       -1.2490    -7.4180    -0.1170 C.ar  1 <1>  -0.1430 
 17 C       -0.0380    -7.8890    -0.5830 C.ar  1 <1>  -0.1500 
 18 C       -1.8610    -8.1760     0.8610 C.ar  1 <1>  -0.1500 
 19 C        0.4890    -9.0590    -0.0610 C.ar  1 <1>   0.1600 
 20 C       -1.2490    -9.3330     1.3150 C.ar  1 <1>   0.1600 
 21 N       -0.0870    -9.7910     0.8780 N.ar  1 <1>  -0.6200 
 22 H        0.7170     2.0320     2.4100 H     1 <1>   0.1500 
 23 H        2.4590     2.0300     0.3740 H     1 <1>   0.1500 
 24 H        2.7920     0.3430    -1.7660 H     1 <1>   0.0800 
 25 H        3.0450    -1.3220    -1.3140 H     1 <1>   0.0800 
 26 H        4.0620    -0.0770    -0.6380 H     1 <1>   0.0800 
 27 H       -1.6790    -2.2130     1.3310 H     1 <1>   0.0800 
 28 H       -1.1940    -1.7040    -0.2890 H     1 <1>   0.0800 
 29 H        0.4560    -4.9100    -0.5080 H     1 <1>   0.0800 
 30 H        0.3810    -5.1800     1.2250 H     1 <1>   0.0800 
 31 H       -2.1370    -3.5720    -1.2910 H     1 <1>   0.0800 
 32 H       -1.9210    -5.1570     1.2700 H     1 <1>   0.0800 
 33 H       -3.5340    -3.5870     1.1750 H     1 <1>   0.4000 
 34 H       -1.5180    -5.9390    -1.6370 H     1 <1>   0.0800 
 35 H       -2.9440    -6.2630    -0.7030 H     1 <1>   0.0800 
 36 H        0.5030    -7.3600    -1.3460 H     1 <1>   0.1500 
 37 H       -2.8080    -7.8790     1.2740 H     1 <1>   0.1500 
 38 H        1.4350    -9.4100    -0.4350 H     1 <1>   0.1500 
 39 H       -1.7410    -9.9120     2.0770 H     1 <1>   0.1500 
@<TRIPOS>BOND
  1   1   2  1   
  2   1   3  1   
  3   2   4  2   
  4   2   5  1   
  5   3   6  2   
  6   3  22  1   
  7   4   6  1   
  8   4   7  1   
  9   5   8  2   
 10   5   9  am  
 11   6  23  1   
 12   7  24  1   
 13   7  25  1   
 14   7  26  1   
 15   9  10  1   
 16   9  11  1   
 17  10  12  1   
 18  10  27  1   
 19  10  28  1   
 20  11  13  1   
 21  11  29  1   
 22  11  30  1   
 23  12  13  1   
 24  12  14  1   
 25  12  31  1   
 26  13  15  1   
 27  13  32  1   
 28  14  33  1   
 29  15  16  1   
 30  15  34  1   
 31  15  35  1   
 32  16  17  ar  
 33  16  18  ar  
 34  17  19  ar  
 35  17  36  1   
 36  18  20  ar  
 37  18  37  1   
 38  19  21  ar  
 39  19  38  1   
 40  20  21  ar  
 41  20  39  1   
@<TRIPOS>SUBSTRUCTURE
  1 ****  11 GROUP 4 **** **** 0

# MOE 2024.06 (io_trps.svl 2023.06)
