@<TRIPOS>MOLECULE
NONAME
51 54 1 0 0 
SMALL
USER_CHARGES


@<TRIPOS>ATOM
  1 S       -1.0190    -0.0430    -1.5020 S.3   1 <1>  -0.4600 
  2 C       -1.7780     1.1310    -0.3620 C.3   1 <1>   0.0700 
  3 C       -1.7160    -1.6230    -0.9760 C.3   1 <1>   0.0700 
  4 C       -3.2950     1.0030    -0.5120 C.3   1 <1>  -0.1600 
  5 C       -3.2380    -1.5070    -1.0640 C.3   1 <1>  -0.1600 
  6 C       -3.7890    -0.4080    -0.1440 C.3   1 <1>   0.4230 
  7 N       -5.2780    -0.4730    -0.1390 N.4   1 <1>  -0.9590 
  8 C       -5.9310    -0.0870    -1.4340 C.3   1 <1>   0.3430 
  9 C       -5.8910     0.2520     1.0130 C.3   1 <1>   0.3430 
 10 C       -7.1570    -0.9700    -1.7400 C.3   1 <1>   0.1400 
 11 C       -7.1430    -0.4520     1.5570 C.3   1 <1>  -0.1600 
 12 N       -7.7090    -1.6460    -0.5210 N.am  1 <1>  -0.6600 
 13 C       -8.2470    -0.7520     0.5320 C.3   1 <1>   0.1400 
 14 C       -7.3290    -2.9300    -0.2070 C.2   1 <1>   0.5440 
 15 O       -6.1750    -3.2200    -0.4650 O.2   1 <1>  -0.5700 
 16 C       -8.1790    -3.8450     0.5300 C.ar  1 <1>   0.0860 
 17 C       -9.5660    -4.0150     0.2690 C.ar  1 <1>   0.0000 
 18 C       -7.6570    -4.5880     1.5590 C.ar  1 <1>  -0.1500 
 19 C      -10.3080    -4.8430     1.1440 C.ar  1 <1>   0.3100 
 20 C      -10.2550    -3.4270    -0.8180 C.ar  1 <1>  -0.1500 
 21 C       -8.4720    -5.4030     2.3430 C.ar  1 <1>   0.1600 
 22 N       -9.7490    -5.5220     2.1730 N.ar  1 <1>  -0.6200 
 23 C      -11.6890    -4.9890     0.9400 C.ar  1 <1>  -0.1500 
 24 C      -11.6010    -3.5970    -0.9970 C.ar  1 <1>  -0.1500 
 25 C      -12.3320    -4.3810    -0.1030 C.ar  1 <1>  -0.1500 
 26 H       -1.4300     2.1110    -0.6420 H     1 <1>   0.0800 
 27 H       -1.4370     0.8900     0.6300 H     1 <1>   0.0800 
 28 H       -1.3730    -1.8150     0.0260 H     1 <1>   0.0800 
 29 H       -1.3340    -2.3750    -1.6450 H     1 <1>   0.0800 
 30 H       -3.5480     1.2420    -1.5300 H     1 <1>   0.0800 
 31 H       -3.7460     1.7340     0.1330 H     1 <1>   0.0800 
 32 H       -3.6540    -2.4570    -0.7780 H     1 <1>   0.0800 
 33 H       -3.5000    -1.3200    -2.0900 H     1 <1>   0.0800 
 34 H       -3.4430    -0.6280     0.8540 H     1 <1>   0.0800 
 35 H       -5.5310    -1.4810    -0.0370 H     1 <1>   0.4500 
 36 H       -5.2350    -0.1860    -2.2510 H     1 <1>   0.0800 
 37 H       -6.2340     0.9460    -1.3950 H     1 <1>   0.0800 
 38 H       -6.1410     1.2570     0.7140 H     1 <1>   0.0800 
 39 H       -5.1730     0.3200     1.8150 H     1 <1>   0.0800 
 40 H       -6.8640    -1.7240    -2.4510 H     1 <1>   0.0800 
 41 H       -7.9250    -0.3790    -2.2090 H     1 <1>   0.0800 
 42 H       -7.5660     0.1780     2.3190 H     1 <1>   0.0800 
 43 H       -6.8510    -1.3620     2.0490 H     1 <1>   0.0800 
 44 H       -8.6140     0.1600     0.0910 H     1 <1>   0.0800 
 45 H       -9.0770    -1.2350     1.0230 H     1 <1>   0.0800 
 46 H       -6.6070    -4.5480     1.7870 H     1 <1>   0.1500 
 47 H       -9.7160    -2.8350    -1.5330 H     1 <1>   0.1500 
 48 H       -8.0160    -5.9620     3.1440 H     1 <1>   0.1500 
 49 H      -12.2300    -5.6070     1.6340 H     1 <1>   0.1500 
 50 H      -12.1130    -3.1370    -1.8260 H     1 <1>   0.1500 
 51 H      -13.3920    -4.5040    -0.2490 H     1 <1>   0.1500 
@<TRIPOS>BOND
  1   1   2  1   
  2   1   3  1   
  3   2   4  1   
  4   2  26  1   
  5   2  27  1   
  6   3   5  1   
  7   3  28  1   
  8   3  29  1   
  9   4   6  1   
 10   4  30  1   
 11   4  31  1   
 12   5   6  1   
 13   5  32  1   
 14   5  33  1   
 15   6   7  1   
 16   6  34  1   
 17   7   8  1   
 18   7   9  1   
 19   7  35  1   
 20   8  10  1   
 21   8  36  1   
 22   8  37  1   
 23   9  11  1   
 24   9  38  1   
 25   9  39  1   
 26  10  12  1   
 27  10  40  1   
 28  10  41  1   
 29  11  13  1   
 30  11  42  1   
 31  11  43  1   
 32  12  13  1   
 33  12  14  am  
 34  13  44  1   
 35  13  45  1   
 36  14  15  2   
 37  14  16  1   
 38  16  17  ar  
 39  16  18  ar  
 40  17  19  ar  
 41  17  20  ar  
 42  18  21  ar  
 43  18  46  1   
 44  19  22  ar  
 45  19  23  ar  
 46  20  24  ar  
 47  20  47  1   
 48  21  22  ar  
 49  21  48  1   
 50  23  25  ar  
 51  23  49  1   
 52  24  25  ar  
 53  24  50  1   
 54  25  51  1   
@<TRIPOS>SUBSTRUCTURE
  1 ****  14 GROUP 4 **** **** 0

# MOE 2024.06 (io_trps.svl 2023.06)
