@<TRIPOS>MOLECULE
NONAME
58 61 1 0 0 
SMALL
USER_CHARGES


@<TRIPOS>ATOM
  1 O        0.5190     0.1960     1.3310 O.2   1 <1>  -0.5700 
  2 C        0.4310    -1.0100     1.3120 C.2   1 <1>   0.5690 
  3 N       -0.6160    -1.6110     1.9250 N.am  1 <1>  -0.7300 
  4 C        1.5180    -1.8590     0.5970 C.3   1 <1>   0.2510 
  5 C       -0.7730    -3.0820     2.0100 C.3   1 <1>   0.1400 
  6 N        1.3980    -3.3430     0.7870 N.3   1 <1>  -0.8100 
  7 C        2.9120    -1.4020     1.0640 C.3   1 <1>  -0.0990 
  8 C       -0.0170    -3.7770     0.8660 C.3   1 <1>   0.1100 
  9 C        2.0990    -4.0840    -0.2890 C.3   1 <1>   0.2530 
 10 C        3.4550    -0.3460     0.1310 C.2   1 <1>   0.5690 
 11 C        2.1340    -5.5840     0.0010 C.ar  1 <1>  -0.1440 
 12 O        4.2600    -0.6890    -0.6990 O.2   1 <1>  -0.5700 
 13 N        2.9920     0.9310     0.2500 N.am  1 <1>  -0.4940 
 14 C        1.6250    -6.5390    -0.8780 C.ar  1 <1>  -0.1430 
 15 C        2.7040    -5.9990     1.1970 C.ar  1 <1>  -0.1500 
 16 C        3.2820     2.0890    -0.5100 C.2   1 <1>  -0.0880 
 17 C        1.6970    -7.8830    -0.5410 C.ar  1 <1>  -0.1500 
 18 C        0.9900    -6.1580    -2.2080 C.3   1 <1>  -0.0970 
 19 C        2.7710    -7.3400     1.5250 C.ar  1 <1>  -0.1500 
 20 N        4.4950     2.5400    -0.9590 N.pl3 1 <1>   0.3140 
 21 C        2.3600     2.9900    -0.9190 C.2   1 <1>  -0.1500 
 22 C        2.2660    -8.2850     0.6530 C.ar  1 <1>  -0.1500 
 23 N        4.3390     3.7010    -1.6560 N.2   1 <1>  -0.7070 
 24 C        5.8470     1.9430    -0.7060 C.3   1 <1>   0.1760 
 25 C        3.0690     3.9520    -1.6210 C.2   1 <1>   0.1390 
 26 C        6.1560     1.7580     0.7900 C.3   1 <1>  -0.1600 
 27 C        7.0230     2.7760    -1.2340 C.3   1 <1>  -0.1600 
 28 C        7.6520     2.0470     0.9770 C.3   1 <1>  -0.1600 
 29 C        8.2180     2.2920    -0.4200 C.3   1 <1>  -0.1600 
 30 H       -1.2750    -1.0210     2.4360 H     1 <1>   0.3700 
 31 H        1.4160    -1.6530    -0.4550 H     1 <1>   0.0800 
 32 H       -1.8170    -3.3360     1.9550 H     1 <1>   0.0800 
 33 H       -0.3870    -3.4280     2.9540 H     1 <1>   0.0800 
 34 H        3.6070    -2.2200     1.0820 H     1 <1>   0.0800 
 35 H        2.8630    -1.0080     2.0630 H     1 <1>   0.0800 
 36 H       -0.5170    -3.5700    -0.0650 H     1 <1>   0.0800 
 37 H       -0.0650    -4.8390     1.0360 H     1 <1>   0.0800 
 38 H        3.1170    -3.7450    -0.3700 H     1 <1>   0.0800 
 39 H        1.6220    -3.8790    -1.2300 H     1 <1>   0.0800 
 40 H        2.1430     1.0110     0.8320 H     1 <1>   0.3700 
 41 H        3.0930    -5.2660     1.8810 H     1 <1>   0.1500 
 42 H        1.3090    -8.6320    -1.2090 H     1 <1>   0.1500 
 43 H        0.1390    -5.5230    -2.0420 H     1 <1>   0.0800 
 44 H        0.6580    -7.0300    -2.7410 H     1 <1>   0.0800 
 45 H        1.7050    -5.6420    -2.8230 H     1 <1>   0.0800 
 46 H        3.2150    -7.6460     2.4560 H     1 <1>   0.1500 
 47 H        1.2990     2.9810    -0.7520 H     1 <1>   0.1500 
 48 H        2.3160    -9.3300     0.9030 H     1 <1>   0.1500 
 49 H        5.8880     0.9890    -1.1960 H     1 <1>   0.0800 
 50 H        2.6250     4.8140    -2.0890 H     1 <1>   0.1500 
 51 H        5.9280     0.7510     1.0910 H     1 <1>   0.0800 
 52 H        5.5800     2.4470     1.3820 H     1 <1>   0.0800 
 53 H        6.8640     3.8210    -1.0240 H     1 <1>   0.0800 
 54 H        7.1670     2.6360    -2.2900 H     1 <1>   0.0800 
 55 H        8.1580     1.2310     1.4650 H     1 <1>   0.0800 
 56 H        7.7710     2.9360     1.5730 H     1 <1>   0.0800 
 57 H        9.0200     3.0100    -0.4140 H     1 <1>   0.0800 
 58 H        8.5780     1.3630    -0.8320 H     1 <1>   0.0800 
@<TRIPOS>BOND
  1   1   2  2   
  2   2   3  am  
  3   2   4  1   
  4   3   5  1   
  5   3  30  1   
  6   4   6  1   
  7   4   7  1   
  8   4  31  1   
  9   5   8  1   
 10   5  32  1   
 11   5  33  1   
 12   6   8  1   
 13   6   9  1   
 14   7  10  1   
 15   7  34  1   
 16   7  35  1   
 17   8  36  1   
 18   8  37  1   
 19   9  11  1   
 20   9  38  1   
 21   9  39  1   
 22  10  12  2   
 23  10  13  am  
 24  11  14  ar  
 25  11  15  ar  
 26  13  16  1   
 27  13  40  1   
 28  14  17  ar  
 29  14  18  1   
 30  15  19  ar  
 31  15  41  1   
 32  16  20  1   
 33  16  21  2   
 34  17  22  ar  
 35  17  42  1   
 36  18  43  1   
 37  18  44  1   
 38  18  45  1   
 39  19  22  ar  
 40  19  46  1   
 41  20  23  1   
 42  20  24  1   
 43  21  25  1   
 44  21  47  1   
 45  22  48  1   
 46  23  25  2   
 47  24  26  1   
 48  24  27  1   
 49  24  49  1   
 50  25  50  1   
 51  26  28  1   
 52  26  51  1   
 53  26  52  1   
 54  27  29  1   
 55  27  53  1   
 56  27  54  1   
 57  28  29  1   
 58  28  55  1   
 59  28  56  1   
 60  29  57  1   
 61  29  58  1   
@<TRIPOS>SUBSTRUCTURE
  1 ****   7 GROUP 4 **** **** 0

# MOE 2024.06 (io_trps.svl 2023.06)
