@<TRIPOS>MOLECULE
NONAME
44 45 1 0 0 
SMALL
USER_CHARGES


@<TRIPOS>ATOM
  1 F       -2.2900    -0.2120    -2.1470 F     1 <1>  -0.3400 
  2 C       -1.9150    -0.7230    -0.9820 C.3   1 <1>   1.0200 
  3 F       -0.8570    -1.4820    -1.2220 F     1 <1>  -0.3400 
  4 F       -1.4940     0.2980    -0.2470 F     1 <1>  -0.3400 
  5 C       -3.0430    -1.4970    -0.3020 C.3   1 <1>  -0.1600 
  6 C       -4.2960    -0.6390    -0.0090 C.3   1 <1>  -0.0990 
  7 C       -5.4270    -1.4050     0.6640 C.2   1 <1>   0.5690 
  8 O       -5.2560    -2.5780     0.8990 O.2   1 <1>  -0.5700 
  9 N       -6.5990    -0.7660     0.9820 N.am  1 <1>  -0.6600 
 10 C       -6.9110     0.6660     0.7200 C.3   1 <1>   0.1400 
 11 C       -7.7180    -1.4880     1.6480 C.3   1 <1>   0.1400 
 12 C       -8.1390     0.7480    -0.1900 C.3   1 <1>  -0.1600 
 13 C       -8.9640    -1.4190     0.7610 C.3   1 <1>  -0.1600 
 14 C       -9.3610     0.0270     0.4200 C.3   1 <1>   0.2800 
 15 O       -9.6880     0.6270     1.6460 O.3   1 <1>  -0.5600 
 16 C      -10.5880     0.0320    -0.5330 C.3   1 <1>  -0.1600 
 17 C      -10.1580     1.9560     1.6640 C.3   1 <1>   0.1200 
 18 C      -11.7220     0.9640    -0.0810 C.3   1 <1>   0.2800 
 19 C      -11.1040     2.2580     0.4910 C.3   1 <1>   0.2000 
 20 O      -12.4710     1.2980    -1.1960 O.3   1 <1>  -0.6800 
 21 C      -12.6950     0.2570     0.8770 C.3   1 <1>  -0.2400 
 22 O      -12.0900     3.1560     0.8890 O.3   1 <1>  -0.6800 
 23 H       -3.3130    -2.3200    -0.9380 H     1 <1>   0.0800 
 24 H       -2.6640    -1.9020     0.6180 H     1 <1>   0.0800 
 25 H       -4.6720    -0.2370    -0.9330 H     1 <1>   0.0800 
 26 H       -4.0210     0.1790     0.6320 H     1 <1>   0.0800 
 27 H       -7.1170     1.1550     1.6580 H     1 <1>   0.0800 
 28 H       -6.0850     1.1730     0.2570 H     1 <1>   0.0800 
 29 H       -7.4590    -2.5180     1.8270 H     1 <1>   0.0800 
 30 H       -7.9190    -1.0270     2.6010 H     1 <1>   0.0800 
 31 H       -7.8880     0.2860    -1.1280 H     1 <1>   0.0800 
 32 H       -8.3660     1.7760    -0.4000 H     1 <1>   0.0800 
 33 H       -9.7810    -1.9070     1.2620 H     1 <1>   0.0800 
 34 H       -8.7640    -1.9660    -0.1430 H     1 <1>   0.0800 
 35 H      -10.2540     0.3320    -1.5100 H     1 <1>   0.0800 
 36 H      -10.9740    -0.9650    -0.6390 H     1 <1>   0.0800 
 37 H      -10.6790     2.0870     2.5960 H     1 <1>   0.0800 
 38 H       -9.3120     2.6180     1.6420 H     1 <1>   0.0800 
 39 H      -10.5400     2.7420    -0.2860 H     1 <1>   0.0800 
 40 H      -12.9360     0.5040    -1.5220 H     1 <1>   0.4000 
 41 H      -12.1860    -0.0410     1.7750 H     1 <1>   0.0800 
 42 H      -13.1100    -0.6240     0.4250 H     1 <1>   0.0800 
 43 H      -13.4950     0.9180     1.1590 H     1 <1>   0.0800 
 44 H      -12.7720     3.1700     0.1850 H     1 <1>   0.4000 
@<TRIPOS>BOND
  1   1   2  1   
  2   2   3  1   
  3   2   4  1   
  4   2   5  1   
  5   5   6  1   
  6   5  23  1   
  7   5  24  1   
  8   6   7  1   
  9   6  25  1   
 10   6  26  1   
 11   7   8  2   
 12   7   9  am  
 13   9  10  1   
 14   9  11  1   
 15  10  12  1   
 16  10  27  1   
 17  10  28  1   
 18  11  13  1   
 19  11  29  1   
 20  11  30  1   
 21  12  14  1   
 22  12  31  1   
 23  12  32  1   
 24  13  14  1   
 25  13  33  1   
 26  13  34  1   
 27  14  15  1   
 28  14  16  1   
 29  15  17  1   
 30  16  18  1   
 31  16  35  1   
 32  16  36  1   
 33  17  19  1   
 34  17  37  1   
 35  17  38  1   
 36  18  19  1   
 37  18  20  1   
 38  18  21  1   
 39  19  22  1   
 40  19  39  1   
 41  20  40  1   
 42  21  41  1   
 43  21  42  1   
 44  21  43  1   
 45  22  44  1   
@<TRIPOS>SUBSTRUCTURE
  1 ****  10 GROUP 4 **** **** 0

# MOE 2024.06 (io_trps.svl 2023.06)
