@<TRIPOS>MOLECULE
NONAME
50 51 1 0 0 
SMALL
USER_CHARGES


@<TRIPOS>ATOM
  1 O       -2.3630     1.6780    -1.6370 O.2   1 <1>  -0.5700 
  2 C       -1.7080     1.7090    -0.6210 C.2   1 <1>   0.5690 
  3 N       -1.4190     0.5730     0.0980 N.am  1 <1>  -0.6600 
  4 C       -1.1840     3.0600    -0.1530 C.3   1 <1>  -0.0990 
  5 C       -2.0330    -0.7330    -0.2970 C.3   1 <1>   0.2200 
  6 C       -0.4900     0.5630     1.2710 C.3   1 <1>   0.0600 
  7 C       -1.8690     4.2660    -0.8230 C.3   1 <1>  -0.0990 
  8 C       -2.6880    -1.4410     0.9000 C.3   1 <1>  -0.1600 
  9 C       -0.9950    -1.6310    -0.9840 C.3   1 <1>  -0.1600 
 10 C       -1.2530     5.5600    -0.3440 C.2   1 <1>   0.5690 
 11 C       -3.3170    -2.7730     0.4680 C.3   1 <1>  -0.1600 
 12 C       -1.6200    -2.9690    -1.4080 C.3   1 <1>  -0.1600 
 13 O       -1.7360     6.1330     0.6000 O.2   1 <1>  -0.5700 
 14 N       -0.1370     6.0050    -0.9650 N.am  1 <1>  -0.7300 
 15 C       -2.2820    -3.6770    -0.2170 C.3   1 <1>  -0.1600 
 16 C        0.6860     7.1320    -0.4950 C.3   1 <1>   0.3210 
 17 C        1.9980     6.5670     0.0060 C.2   1 <1>  -0.1810 
 18 C        3.2150     6.5570    -0.5610 C.2   1 <1>  -0.0400 
 19 C        2.2020     5.9050     1.2170 C.2   1 <1>   0.1080 
 20 O        4.0300     5.9410     0.2520 O.3   1 <1>  -0.0190 
 21 C        3.7480     7.0910    -1.8740 C.3   1 <1>  -0.0600 
 22 N        3.4270     5.5380     1.3330 N.2   1 <1>  -0.4100 
 23 C        1.1490     5.6380     2.2720 C.3   1 <1>  -0.0590 
 24 H       -0.1290     3.0950    -0.3540 H     1 <1>   0.0800 
 25 H       -1.3310     3.1400     0.9080 H     1 <1>   0.0800 
 26 H       -2.8170    -0.5480    -1.0130 H     1 <1>   0.0800 
 27 H        0.2650     1.3220     1.1700 H     1 <1>   0.0800 
 28 H        0.0090    -0.3850     1.3510 H     1 <1>   0.0800 
 29 H       -1.0490     0.7380     2.1740 H     1 <1>   0.0800 
 30 H       -2.9170     4.2660    -0.5840 H     1 <1>   0.0800 
 31 H       -1.7740     4.2030    -1.8920 H     1 <1>   0.0800 
 32 H       -3.4500    -0.8040     1.3140 H     1 <1>   0.0800 
 33 H       -1.9570    -1.6450     1.6620 H     1 <1>   0.0800 
 34 H       -0.1750    -1.8290    -0.3190 H     1 <1>   0.0800 
 35 H       -0.6150    -1.1260    -1.8540 H     1 <1>   0.0800 
 36 H       -4.1280    -2.5810    -0.2130 H     1 <1>   0.0800 
 37 H       -3.7230    -3.2770     1.3290 H     1 <1>   0.0800 
 38 H       -0.8610    -3.6040    -1.8300 H     1 <1>   0.0800 
 39 H       -2.3590    -2.7890    -2.1700 H     1 <1>   0.0800 
 40 H        0.2920     5.4390    -1.6970 H     1 <1>   0.3700 
 41 H       -2.7620    -4.5790    -0.5580 H     1 <1>   0.0800 
 42 H       -1.5260    -3.9570     0.4960 H     1 <1>   0.0800 
 43 H        0.1850     7.6670     0.2940 H     1 <1>   0.0800 
 44 H        0.8560     7.8130    -1.3100 H     1 <1>   0.0800 
 45 H        2.9650     7.5590    -2.4410 H     1 <1>   0.0800 
 46 H        4.1620     6.2840    -2.4510 H     1 <1>   0.0800 
 47 H        4.5210     7.8140    -1.6840 H     1 <1>   0.0800 
 48 H        0.5450     6.5130     2.4270 H     1 <1>   0.0800 
 49 H        1.6200     5.3750     3.2020 H     1 <1>   0.0800 
 50 H        0.5180     4.8280     1.9600 H     1 <1>   0.0800 
@<TRIPOS>BOND
  1   1   2  2   
  2   2   3  am  
  3   2   4  1   
  4   3   5  1   
  5   3   6  1   
  6   4   7  1   
  7   4  24  1   
  8   4  25  1   
  9   5   8  1   
 10   5   9  1   
 11   5  26  1   
 12   6  27  1   
 13   6  28  1   
 14   6  29  1   
 15   7  10  1   
 16   7  30  1   
 17   7  31  1   
 18   8  11  1   
 19   8  32  1   
 20   8  33  1   
 21   9  12  1   
 22   9  34  1   
 23   9  35  1   
 24  10  13  2   
 25  10  14  am  
 26  11  15  1   
 27  11  36  1   
 28  11  37  1   
 29  12  15  1   
 30  12  38  1   
 31  12  39  1   
 32  14  16  1   
 33  14  40  1   
 34  15  41  1   
 35  15  42  1   
 36  16  17  1   
 37  16  43  1   
 38  16  44  1   
 39  17  18  2   
 40  17  19  1   
 41  18  20  1   
 42  18  21  1   
 43  19  22  2   
 44  19  23  1   
 45  20  22  1   
 46  21  45  1   
 47  21  46  1   
 48  21  47  1   
 49  23  48  1   
 50  23  49  1   
 51  23  50  1   
@<TRIPOS>SUBSTRUCTURE
  1 ****   4 GROUP 4 **** **** 0

# MOE 2024.06 (io_trps.svl 2023.06)
