@<TRIPOS>MOLECULE
NONAME
52 55 1 0 0 
SMALL
USER_CHARGES


@<TRIPOS>ATOM
  1 O        0.7250     0.5200     1.0600 O.3   1 <1>  -0.0190 
  2 N        1.4700    -0.4670     0.6540 N.2   1 <1>  -0.4100 
  3 C        0.8240     1.5620     0.2790 C.2   1 <1>  -0.0400 
  4 C        2.0560    -0.0560    -0.4120 C.2   1 <1>   0.1080 
  5 C        1.6800     1.2500    -0.7090 C.2   1 <1>  -0.1500 
  6 C        0.0190     2.8070     0.6130 C.3   1 <1>   0.0200 
  7 C        3.0220    -0.8890    -1.2250 C.3   1 <1>  -0.0590 
  8 C        0.4980     4.0490    -0.1610 C.3   1 <1>  -0.0800 
  9 C       -0.3390     5.3040     0.0660 C.3   1 <1>   0.2000 
 10 C        1.9120     4.4900     0.2230 C.3   1 <1>   0.2090 
 11 O       -0.6190     5.4200     1.4340 O.3   1 <1>  -0.5600 
 12 C        0.6090     6.4210    -0.3880 C.3   1 <1>   0.2090 
 13 N        2.0000     5.9520    -0.0840 N.pl3 1 <1>  -0.8380 
 14 C       -1.6790     6.2650     1.7550 C.3   1 <1>   0.0400 
 15 C        3.0570     6.7540     0.2280 C.ar  1 <1>   0.1000 
 16 C        3.1780     8.1300    -0.1750 C.ar  1 <1>   0.0000 
 17 C        4.0760     6.2560     1.0470 C.ar  1 <1>  -0.1500 
 18 C        4.0960     8.9710     0.4900 C.ar  1 <1>   0.3610 
 19 C        2.4730     8.7080    -1.2450 C.ar  1 <1>  -0.1500 
 20 C        5.0180     7.0760     1.6040 C.ar  1 <1>   0.2110 
 21 N        4.9930     8.3960     1.3610 N.ar  1 <1>  -0.1790 
 22 C        4.1480    10.3580     0.2300 C.ar  1 <1>  -0.1430 
 23 C        2.5590    10.0420    -1.5320 C.ar  1 <1>  -0.1500 
 24 C        3.3790    10.8890    -0.7860 C.ar  1 <1>  -0.1430 
 25 C        5.0680    11.2540     1.0700 C.3   1 <1>  -0.0970 
 26 C        3.3830    12.3660    -1.1670 C.3   1 <1>  -0.0970 
 27 H        2.0190     1.8280    -1.5470 H     1 <1>   0.1500 
 28 H       -1.0150     2.6170     0.3900 H     1 <1>   0.0800 
 29 H        0.0950     2.9870     1.6710 H     1 <1>   0.0800 
 30 H        3.9780    -0.4000    -1.2700 H     1 <1>   0.0800 
 31 H        2.6410    -1.0190    -2.2210 H     1 <1>   0.0800 
 32 H        3.1450    -1.8550    -0.7700 H     1 <1>   0.0800 
 33 H        0.4910     3.8310    -1.2130 H     1 <1>   0.0800 
 34 H       -1.2610     5.2840    -0.4900 H     1 <1>   0.0800 
 35 H        2.6580     3.9380    -0.3220 H     1 <1>   0.0800 
 36 H        2.0510     4.3440     1.2810 H     1 <1>   0.0800 
 37 H        0.3890     7.3530     0.1010 H     1 <1>   0.0800 
 38 H        0.5030     6.5330    -1.4520 H     1 <1>   0.0800 
 39 H       -1.7890     6.2700     2.8250 H     1 <1>   0.0800 
 40 H       -2.5820     5.8920     1.3030 H     1 <1>   0.0800 
 41 H       -1.4650     7.2620     1.4110 H     1 <1>   0.0800 
 42 H        4.1130     5.2090     1.2800 H     1 <1>   0.1500 
 43 H        1.8620     8.0900    -1.8720 H     1 <1>   0.1500 
 44 H        5.7800     6.6760     2.2530 H     1 <1>   0.1500 
 45 H        5.6780     9.0210     1.7870 H     1 <1>   0.4570 
 46 H        1.9860    10.4440    -2.3520 H     1 <1>   0.1500 
 47 H        4.8190    12.2950     0.9720 H     1 <1>   0.0800 
 48 H        6.0920    11.1340     0.7590 H     1 <1>   0.0800 
 49 H        4.9800    11.0240     2.1170 H     1 <1>   0.0800 
 50 H        2.8300    12.5380    -2.0730 H     1 <1>   0.0800 
 51 H        4.3880    12.7110    -1.3290 H     1 <1>   0.0800 
 52 H        2.9290    12.9510    -0.3860 H     1 <1>   0.0800 
@<TRIPOS>BOND
  1   1   2  1   
  2   1   3  1   
  3   2   4  2   
  4   3   5  2   
  5   3   6  1   
  6   4   5  1   
  7   4   7  1   
  8   5  27  1   
  9   6   8  1   
 10   6  28  1   
 11   6  29  1   
 12   7  30  1   
 13   7  31  1   
 14   7  32  1   
 15   8   9  1   
 16   8  10  1   
 17   8  33  1   
 18   9  11  1   
 19   9  12  1   
 20   9  34  1   
 21  10  13  1   
 22  10  35  1   
 23  10  36  1   
 24  11  14  1   
 25  12  13  1   
 26  12  37  1   
 27  12  38  1   
 28  13  15  1   
 29  14  39  1   
 30  14  40  1   
 31  14  41  1   
 32  15  16  ar  
 33  15  17  ar  
 34  16  18  ar  
 35  16  19  ar  
 36  17  20  ar  
 37  17  42  1   
 38  18  21  ar  
 39  18  22  ar  
 40  19  23  ar  
 41  19  43  1   
 42  20  21  ar  
 43  20  44  1   
 44  21  45  1   
 45  22  24  ar  
 46  22  25  1   
 47  23  24  ar  
 48  23  46  1   
 49  24  26  1   
 50  25  47  1   
 51  25  48  1   
 52  25  49  1   
 53  26  50  1   
 54  26  51  1   
 55  26  52  1   
@<TRIPOS>SUBSTRUCTURE
  1 ****  13 GROUP 4 **** **** 0

# MOE 2024.06 (io_trps.svl 2023.06)
