@<TRIPOS>MOLECULE
NONAME
43 44 1 0 0 
SMALL
USER_CHARGES


@<TRIPOS>ATOM
  1 S        0.0310     1.7940    -0.1150 S.3   1 <1>  -0.0800 
  2 C        1.2630     0.5510    -0.0080 C.2   1 <1>   0.1980 
  3 C       -0.8180     0.8160    -1.2760 C.2   1 <1>  -0.1100 
  4 N        1.0490    -0.4630    -0.7510 N.2   1 <1>  -0.5650 
  5 C        2.4290     0.8000     0.9420 C.3   1 <1>   0.2900 
  6 C       -0.1270    -0.3170    -1.4710 C.2   1 <1>   0.0770 
  7 N        3.2610     1.9640     0.5480 N.3   1 <1>  -0.8100 
  8 C        4.2940     2.2540     1.5890 C.3   1 <1>   0.1710 
  9 C        3.8940     1.7290    -0.7650 C.3   1 <1>   0.0300 
 10 C        4.8870     3.6630     1.5000 C.2   1 <1>   0.5690 
 11 O        5.9540     3.8800     2.0230 O.2   1 <1>  -0.5700 
 12 N        4.1480     4.5900     0.8240 N.am  1 <1>  -0.5470 
 13 C        4.3370     5.9510     0.5320 C.ar  1 <1>   0.1170 
 14 C        3.4470     6.5690    -0.3390 C.ar  1 <1>  -0.1500 
 15 C        5.3670     6.7140     1.0730 C.ar  1 <1>  -0.1500 
 16 C        3.5840     7.9070    -0.6620 C.ar  1 <1>  -0.1500 
 17 C        5.5090     8.0520     0.7530 C.ar  1 <1>  -0.1500 
 18 C        4.6140     8.6600    -0.1230 C.ar  1 <1>   0.0820 
 19 O        4.6690     9.9670    -0.5000 O.3   1 <1>  -0.3630 
 20 C        5.7080    10.8350    -0.1050 C.3   1 <1>   0.2000 
 21 C        5.1970    12.2600    -0.2970 C.3   1 <1>  -0.2400 
 22 C        6.9370    10.5690    -0.9790 C.3   1 <1>  -0.2400 
 23 H       -1.7380     1.1920    -1.6840 H     1 <1>   0.1500 
 24 H        3.0380    -0.0870     0.9800 H     1 <1>   0.0800 
 25 H        2.0220     0.9670     1.9240 H     1 <1>   0.0800 
 26 H       -0.4080    -1.1160    -2.1370 H     1 <1>   0.1500 
 27 H        5.0940     1.5360     1.5270 H     1 <1>   0.0800 
 28 H        3.8520     2.1700     2.5660 H     1 <1>   0.0800 
 29 H        3.1400     1.6090    -1.5270 H     1 <1>   0.0800 
 30 H        4.5010     0.8390    -0.7400 H     1 <1>   0.0800 
 31 H        4.5140     2.5640    -1.0420 H     1 <1>   0.0800 
 32 H        3.3150     4.1570     0.4120 H     1 <1>   0.3700 
 33 H        2.6420     6.0030    -0.7680 H     1 <1>   0.1500 
 34 H        6.0680     6.2660     1.7530 H     1 <1>   0.1500 
 35 H        2.8930     8.3780    -1.3370 H     1 <1>   0.1500 
 36 H        6.3200     8.5970     1.1950 H     1 <1>   0.1500 
 37 H        5.9200    10.6760     0.9380 H     1 <1>   0.0800 
 38 H        4.9450    12.4310    -1.3290 H     1 <1>   0.0800 
 39 H        5.9520    12.9660    -0.0040 H     1 <1>   0.0800 
 40 H        4.3260    12.4200     0.3120 H     1 <1>   0.0800 
 41 H        6.6950    10.7220    -2.0150 H     1 <1>   0.0800 
 42 H        7.2890     9.5630    -0.8450 H     1 <1>   0.0800 
 43 H        7.7300    11.2420    -0.7090 H     1 <1>   0.0800 
@<TRIPOS>BOND
  1   1   2  1   
  2   1   3  1   
  3   2   4  2   
  4   2   5  1   
  5   3   6  2   
  6   3  23  1   
  7   4   6  1   
  8   5   7  1   
  9   5  24  1   
 10   5  25  1   
 11   6  26  1   
 12   7   8  1   
 13   7   9  1   
 14   8  10  1   
 15   8  27  1   
 16   8  28  1   
 17   9  29  1   
 18   9  30  1   
 19   9  31  1   
 20  10  11  2   
 21  10  12  am  
 22  12  13  1   
 23  12  32  1   
 24  13  14  ar  
 25  13  15  ar  
 26  14  16  ar  
 27  14  33  1   
 28  15  17  ar  
 29  15  34  1   
 30  16  18  ar  
 31  16  35  1   
 32  17  18  ar  
 33  17  36  1   
 34  18  19  1   
 35  19  20  1   
 36  20  21  1   
 37  20  22  1   
 38  20  37  1   
 39  21  38  1   
 40  21  39  1   
 41  21  40  1   
 42  22  41  1   
 43  22  42  1   
 44  22  43  1   
@<TRIPOS>SUBSTRUCTURE
  1 ****  12 GROUP 4 **** **** 0

# MOE 2024.06 (io_trps.svl 2023.06)
