@<TRIPOS>MOLECULE
NONAME
47 48 1 0 0 
SMALL
USER_CHARGES


@<TRIPOS>ATOM
  1 O        0.4650     0.0040    -0.4580 O.3   1 <1>  -0.5600 
  2 C        1.6110    -0.7740    -0.7080 C.3   1 <1>   0.2000 
  3 C        0.5980     1.3700    -0.7090 C.3   1 <1>   0.1200 
  4 C        2.8430    -0.2330     0.0700 C.3   1 <1>   0.5660 
  5 C        1.3130    -2.2250    -0.2960 C.3   1 <1>   0.1200 
  6 C        1.7090     1.9620     0.1750 C.3   1 <1>   0.3430 
  7 N        3.0190     1.2570    -0.0340 N.4   1 <1>  -0.9590 
  8 C        4.1290    -0.8910    -0.4130 C.ar  1 <1>  -0.1430 
  9 O        1.3280    -2.3430     1.0920 O.3   1 <1>  -0.6800 
 10 C        4.0730     1.7180     0.9130 C.3   1 <1>   0.3430 
 11 C        4.8560    -1.6700     0.4760 C.ar  1 <1>  -0.1500 
 12 C        4.5960    -0.7310    -1.7140 C.ar  1 <1>  -0.1500 
 13 C        4.5100     3.1450     0.5750 C.3   1 <1>  -0.1600 
 14 C        6.0380    -2.2750     0.0870 C.ar  1 <1>   0.0830 
 15 C        5.7830    -1.3250    -2.1060 C.ar  1 <1>  -0.1500 
 16 C        5.6770     3.5810     1.4670 C.3   1 <1>  -0.2400 
 17 O        6.6720    -3.0350     1.0110 O.3   1 <1>  -0.3620 
 18 C        6.5200    -2.0820    -1.2120 C.ar  1 <1>   0.0830 
 19 C        6.7910    -4.4130     0.7290 C.3   1 <1>   0.0400 
 20 O        7.6890    -2.6030    -1.6550 O.3   1 <1>  -0.3630 
 21 C        8.8700    -2.1300    -1.0440 C.3   1 <1>   0.0400 
 22 H        1.7920    -0.7470    -1.7670 H     1 <1>   0.0800 
 23 H        0.8040     1.5170    -1.7550 H     1 <1>   0.0800 
 24 H       -0.3450     1.8350    -0.4760 H     1 <1>   0.0800 
 25 H        2.7000    -0.4880     1.1070 H     1 <1>   0.0800 
 26 H        2.0610    -2.8930    -0.6900 H     1 <1>   0.0800 
 27 H        0.3450    -2.5240    -0.6610 H     1 <1>   0.0800 
 28 H        1.4060     1.8710     1.2060 H     1 <1>   0.0800 
 29 H        1.8150     3.0110    -0.0480 H     1 <1>   0.0800 
 30 H        3.3560     1.4340    -0.9840 H     1 <1>   0.4500 
 31 H        0.9170    -3.1890     1.3720 H     1 <1>   0.4000 
 32 H        3.7080     1.6750     1.9280 H     1 <1>   0.0800 
 33 H        4.9350     1.0730     0.8420 H     1 <1>   0.0800 
 34 H        4.5140    -1.8300     1.4850 H     1 <1>   0.1500 
 35 H        4.0540    -0.1510    -2.4410 H     1 <1>   0.1500 
 36 H        4.8290     3.1940    -0.4520 H     1 <1>   0.0800 
 37 H        3.6970     3.8330     0.7210 H     1 <1>   0.0800 
 38 H        6.1530    -1.2050    -3.1100 H     1 <1>   0.1500 
 39 H        6.5260     2.9320     1.3310 H     1 <1>   0.0800 
 40 H        5.3930     3.5670     2.5050 H     1 <1>   0.0800 
 41 H        5.9790     4.5840     1.2150 H     1 <1>   0.0800 
 42 H        7.2050    -4.8990     1.5930 H     1 <1>   0.0800 
 43 H        7.4430    -4.5520    -0.1140 H     1 <1>   0.0800 
 44 H        5.8150    -4.8110     0.5150 H     1 <1>   0.0800 
 45 H        9.7100    -2.5630    -1.5570 H     1 <1>   0.0800 
 46 H        8.8830    -2.4260    -0.0100 H     1 <1>   0.0800 
 47 H        8.9010    -1.0580    -1.1270 H     1 <1>   0.0800 
@<TRIPOS>BOND
  1   1   2  1   
  2   1   3  1   
  3   2   4  1   
  4   2   5  1   
  5   2  22  1   
  6   3   6  1   
  7   3  23  1   
  8   3  24  1   
  9   4   7  1   
 10   4   8  1   
 11   4  25  1   
 12   5   9  1   
 13   5  26  1   
 14   5  27  1   
 15   6   7  1   
 16   6  28  1   
 17   6  29  1   
 18   7  10  1   
 19   7  30  1   
 20   8  11  ar  
 21   8  12  ar  
 22   9  31  1   
 23  10  13  1   
 24  10  32  1   
 25  10  33  1   
 26  11  14  ar  
 27  11  34  1   
 28  12  15  ar  
 29  12  35  1   
 30  13  16  1   
 31  13  36  1   
 32  13  37  1   
 33  14  17  1   
 34  14  18  ar  
 35  15  18  ar  
 36  15  38  1   
 37  16  39  1   
 38  16  40  1   
 39  16  41  1   
 40  17  19  1   
 41  18  20  1   
 42  19  42  1   
 43  19  43  1   
 44  19  44  1   
 45  20  21  1   
 46  21  45  1   
 47  21  46  1   
 48  21  47  1   
@<TRIPOS>SUBSTRUCTURE
  1 ****   8 GROUP 4 **** **** 0

# MOE 2024.06 (io_trps.svl 2023.06)
