@<TRIPOS>MOLECULE
NONAME
39 41 1 0 0 
SMALL
USER_CHARGES


@<TRIPOS>ATOM
  1 O       -0.1640    -0.5140     0.9080 O.3   1 <1>  -0.5600 
  2 C        0.6330     0.1320    -0.0420 C.3   1 <1>   0.1200 
  3 C       -1.4770    -0.0330     0.8620 C.3   1 <1>   0.1200 
  4 C       -0.0830     1.4320    -0.3900 C.3   1 <1>   0.2890 
  5 C       -1.5340     0.9970    -0.2680 C.3   1 <1>  -0.0800 
  6 N        0.2430     2.4640     0.6230 N.pl3 1 <1>  -0.8690 
  7 C       -2.5540     2.1290    -0.0430 C.3   1 <1>  -0.0170 
  8 C        0.7470     3.6830     0.3330 C.ar  1 <1>   0.7200 
  9 C       -3.9710     1.5800     0.0140 C.ar  1 <1>  -0.1440 
 10 N        1.4590     4.2210     1.3110 N.ar  1 <1>  -0.6200 
 11 N        0.4840     4.2030    -0.8600 N.ar  1 <1>  -0.6200 
 12 C       -4.6820     1.2770    -1.1280 C.ar  1 <1>  -0.1500 
 13 C       -4.6170     1.3520     1.2130 C.ar  1 <1>  -0.1500 
 14 C        1.9540     5.4130     1.0620 C.ar  1 <1>   0.1600 
 15 C        0.9920     5.3960    -1.0780 C.ar  1 <1>   0.1600 
 16 C       -5.9670     0.7710    -1.0210 C.ar  1 <1>   0.1600 
 17 C       -5.9050     0.8430     1.2100 C.ar  1 <1>   0.1600 
 18 C        1.7500     6.0660    -0.1420 C.ar  1 <1>   0.0820 
 19 N       -6.5950     0.5440     0.1210 N.ar  1 <1>  -0.6200 
 20 O        2.2360     7.3020    -0.4590 O.3   1 <1>  -0.3620 
 21 C        3.0060     8.0280     0.4760 C.3   1 <1>   0.0400 
 22 H        1.6180     0.2950     0.3600 H     1 <1>   0.0800 
 23 H        0.6920    -0.5080    -0.9050 H     1 <1>   0.0800 
 24 H       -2.1510    -0.8550     0.6950 H     1 <1>   0.0800 
 25 H       -1.6850     0.4240     1.8140 H     1 <1>   0.0800 
 26 H        0.1640     1.7670    -1.3840 H     1 <1>   0.0800 
 27 H       -1.8000     0.4740    -1.1700 H     1 <1>   0.0800 
 28 H        0.5720     2.0970     1.5150 H     1 <1>   0.4000 
 29 H       -2.4760     2.8430    -0.8450 H     1 <1>   0.0800 
 30 H       -2.3380     2.6530     0.8720 H     1 <1>   0.0800 
 31 H       -4.2500     1.4310    -2.1000 H     1 <1>   0.1500 
 32 H       -4.1320     1.5670     2.1470 H     1 <1>   0.1500 
 33 H        2.5340     5.8720     1.8410 H     1 <1>   0.1500 
 34 H        0.8080     5.8640    -2.0290 H     1 <1>   0.1500 
 35 H       -6.5070     0.5410    -1.9230 H     1 <1>   0.1500 
 36 H       -6.3920     0.6730     2.1540 H     1 <1>   0.1500 
 37 H        3.2800     8.9650     0.0250 H     1 <1>   0.0800 
 38 H        3.8920     7.4660     0.7130 H     1 <1>   0.0800 
 39 H        2.4140     8.2070     1.3560 H     1 <1>   0.0800 
@<TRIPOS>BOND
  1   1   2  1   
  2   1   3  1   
  3   2   4  1   
  4   2  22  1   
  5   2  23  1   
  6   3   5  1   
  7   3  24  1   
  8   3  25  1   
  9   4   5  1   
 10   4   6  1   
 11   4  26  1   
 12   5   7  1   
 13   5  27  1   
 14   6   8  1   
 15   6  28  1   
 16   7   9  1   
 17   7  29  1   
 18   7  30  1   
 19   8  10  ar  
 20   8  11  ar  
 21   9  12  ar  
 22   9  13  ar  
 23  10  14  ar  
 24  11  15  ar  
 25  12  16  ar  
 26  12  31  1   
 27  13  17  ar  
 28  13  32  1   
 29  14  18  ar  
 30  14  33  1   
 31  15  18  ar  
 32  15  34  1   
 33  16  19  ar  
 34  16  35  1   
 35  17  19  ar  
 36  17  36  1   
 37  18  20  1   
 38  20  21  1   
 39  21  37  1   
 40  21  38  1   
 41  21  39  1   
@<TRIPOS>SUBSTRUCTURE
  1 ****   6 GROUP 4 **** **** 0

# MOE 2024.06 (io_trps.svl 2023.06)
