@<TRIPOS>MOLECULE
NONAME
53 54 1 0 0 
SMALL
USER_CHARGES


@<TRIPOS>ATOM
  1 S       -0.1300     0.1100    -0.8010 S.o2  1 <1>   1.3330 
  2 O       -0.9390    -1.0730    -0.6480 O.2   1 <1>  -0.6500 
  3 O        0.2860     0.5640    -2.1090 O.2   1 <1>  -0.6500 
  4 N        1.2630    -0.0510     0.1530 N.am  1 <1>  -0.8490 
  5 C       -0.9750     1.5040    -0.0420 C.3   1 <1>  -0.0550 
  6 C        2.3440    -0.7300    -0.5750 C.3   1 <1>   0.1160 
  7 C        1.0170    -0.7750     1.4090 C.3   1 <1>   0.1160 
  8 C       -0.0880     2.7570     0.1350 C.3   1 <1>  -0.0800 
  9 C       -0.8760     3.9580     0.6790 C.3   1 <1>   0.2000 
 10 C        0.5390     3.2410    -1.1860 C.3   1 <1>   0.3430 
 11 O       -0.2080     4.4580     1.7870 O.3   1 <1>  -0.6800 
 12 C       -0.8140     5.0120    -0.4330 C.3   1 <1>   0.3430 
 13 N        0.4380     4.7250    -1.1970 N.4   1 <1>  -0.9590 
 14 C        1.6580     5.3230    -0.5480 C.3   1 <1>   0.3430 
 15 C        1.6660     6.8520    -0.5840 C.3   1 <1>   0.1200 
 16 O        2.9270     7.2700    -0.1270 O.3   1 <1>  -0.3630 
 17 C        3.2540     8.5870    -0.0370 C.ar  1 <1>   0.0820 
 18 C        4.5170     8.9040     0.4530 C.ar  1 <1>  -0.1440 
 19 C        2.3850     9.6100    -0.4100 C.ar  1 <1>  -0.1500 
 20 C        4.8950    10.2320     0.5630 C.ar  1 <1>  -0.1500 
 21 C        5.4900     7.8100     0.8710 C.3   1 <1>  -0.0970 
 22 C        2.7760    10.9320    -0.2950 C.ar  1 <1>  -0.1500 
 23 C        4.0320    11.2500     0.1930 C.ar  1 <1>  -0.1440 
 24 C        4.4640    12.7000     0.3190 C.3   1 <1>  -0.0970 
 25 H       -1.8300     1.7470    -0.6430 H     1 <1>   0.0800 
 26 H       -1.3390     1.2000     0.9210 H     1 <1>   0.0800 
 27 H        3.2200    -0.8120     0.0450 H     1 <1>   0.0800 
 28 H        2.6090    -0.1710    -1.4570 H     1 <1>   0.0800 
 29 H        2.0310    -1.7170    -0.8760 H     1 <1>   0.0800 
 30 H        1.9130    -0.7950     2.0070 H     1 <1>   0.0800 
 31 H        0.7110    -1.7890     1.2080 H     1 <1>   0.0800 
 32 H        0.2430    -0.2900     1.9780 H     1 <1>   0.0800 
 33 H        0.7150     2.5070     0.8080 H     1 <1>   0.0800 
 34 H       -1.8910     3.7350     0.9630 H     1 <1>   0.0800 
 35 H       -0.0250     2.8460    -2.0160 H     1 <1>   0.0800 
 36 H        1.5600     2.9060    -1.2810 H     1 <1>   0.0800 
 37 H       -0.3550     3.9040     2.5830 H     1 <1>   0.4000 
 38 H       -0.8300     6.0090    -0.0240 H     1 <1>   0.0800 
 39 H       -1.6640     4.8840    -1.0840 H     1 <1>   0.0800 
 40 H        0.3720     5.0640    -2.1680 H     1 <1>   0.4500 
 41 H        1.7200     5.0020     0.4800 H     1 <1>   0.0800 
 42 H        2.5380     4.9740    -1.0620 H     1 <1>   0.0800 
 43 H        0.9210     7.2600     0.0770 H     1 <1>   0.0800 
 44 H        1.5400     7.2150    -1.5880 H     1 <1>   0.0800 
 45 H        1.4040     9.4100    -0.7920 H     1 <1>   0.1500 
 46 H        5.8710    10.4810     0.9410 H     1 <1>   0.1500 
 47 H        6.4210     8.2260     1.2100 H     1 <1>   0.0800 
 48 H        5.6890     7.1610     0.0370 H     1 <1>   0.0800 
 49 H        5.0630     7.2290     1.6690 H     1 <1>   0.0800 
 50 H        2.1000    11.7160    -0.5870 H     1 <1>   0.1500 
 51 H        3.6090    13.3420     0.4310 H     1 <1>   0.0800 
 52 H        5.0070    12.9950    -0.5600 H     1 <1>   0.0800 
 53 H        5.0970    12.8280     1.1780 H     1 <1>   0.0800 
@<TRIPOS>BOND
  1   1   2  2   
  2   1   3  2   
  3   1   4  am  
  4   1   5  1   
  5   4   6  1   
  6   4   7  1   
  7   5   8  1   
  8   5  25  1   
  9   5  26  1   
 10   6  27  1   
 11   6  28  1   
 12   6  29  1   
 13   7  30  1   
 14   7  31  1   
 15   7  32  1   
 16   8   9  1   
 17   8  10  1   
 18   8  33  1   
 19   9  11  1   
 20   9  12  1   
 21   9  34  1   
 22  10  13  1   
 23  10  35  1   
 24  10  36  1   
 25  11  37  1   
 26  12  13  1   
 27  12  38  1   
 28  12  39  1   
 29  13  14  1   
 30  13  40  1   
 31  14  15  1   
 32  14  41  1   
 33  14  42  1   
 34  15  16  1   
 35  15  43  1   
 36  15  44  1   
 37  16  17  1   
 38  17  18  ar  
 39  17  19  ar  
 40  18  20  ar  
 41  18  21  1   
 42  19  22  ar  
 43  19  45  1   
 44  20  23  ar  
 45  20  46  1   
 46  21  47  1   
 47  21  48  1   
 48  21  49  1   
 49  22  23  ar  
 50  22  50  1   
 51  23  24  1   
 52  24  51  1   
 53  24  52  1   
 54  24  53  1   
@<TRIPOS>SUBSTRUCTURE
  1 ****  14 GROUP 4 **** **** 0

# MOE 2024.06 (io_trps.svl 2023.06)
