@<TRIPOS>MOLECULE
NONAME
52 55 1 0 0 
SMALL
USER_CHARGES


@<TRIPOS>ATOM
  1 O        4.8860    -2.1620    -0.9710 O.2   1 <1>  -0.5700 
  2 C        3.8310    -1.8660    -0.4340 C.2   1 <1>   0.6160 
  3 N        3.6230    -0.5250    -0.2660 N.am  1 <1>  -0.6600 
  4 C        2.8770    -2.8850    -0.0720 C.2   1 <1>   0.0290 
  5 C        4.1820     0.1200     0.9790 C.3   1 <1>   0.2200 
  6 C        3.4000     0.3090    -1.4850 C.3   1 <1>   0.1400 
  7 C        1.9040    -2.6580     0.9590 C.2   1 <1>   0.6160 
  8 C        2.8680    -4.1070    -0.7030 C.2   1 <1>  -0.1500 
  9 C        3.3860     1.3660     1.3900 C.3   1 <1>   0.1200 
 10 C        5.6940     0.4320     0.8500 C.3   1 <1>   0.3430 
 11 C        4.1510     1.6540    -1.5070 C.3   1 <1>  -0.0800 
 12 O        1.8290    -1.6550     1.6550 O.2   1 <1>  -0.5700 
 13 N        0.9920    -3.6410     1.2260 N.am  1 <1>  -0.5390 
 14 C        1.9220    -5.1020    -0.3750 C.2   1 <1>  -0.1380 
 15 O        3.8730     2.5090     0.7520 O.3   1 <1>  -0.5600 
 16 N        6.1650     0.3830    -0.5730 N.4   1 <1>  -0.9590 
 17 C        3.5040     2.6910    -0.5730 C.3   1 <1>   0.1200 
 18 C        5.6840     1.5700    -1.3440 C.3   1 <1>   0.3430 
 19 C        0.9840    -4.8480     0.5830 C.2   1 <1>  -0.0290 
 20 C        1.9790    -6.4290    -1.1220 C.3   1 <1>  -0.0220 
 21 C        7.6840     0.3580    -0.5860 C.3   1 <1>   0.2370 
 22 C       -0.0830    -5.8500     0.9990 C.3   1 <1>  -0.0220 
 23 C        1.1730    -7.5270    -0.4140 C.3   1 <1>  -0.1600 
 24 C        8.3450     1.5850     0.0480 C.2   1 <1>   0.9060 
 25 C       -0.2090    -7.0080    -0.0010 C.3   1 <1>  -0.1600 
 26 O        8.5600     1.5630     1.2630 O.co2 1 <1>  -0.9000 
 27 O        8.5130     2.5810    -0.6630 O.co2 1 <1>  -0.9000 
 28 H        4.0770    -0.5810     1.7880 H     1 <1>   0.0800 
 29 H        3.6940    -0.2590    -2.3520 H     1 <1>   0.0800 
 30 H        2.3430     0.4950    -1.5740 H     1 <1>   0.0800 
 31 H        3.5910    -4.3270    -1.4710 H     1 <1>   0.1500 
 32 H        3.5140     1.5300     2.4450 H     1 <1>   0.0800 
 33 H        2.3340     1.2480     1.1930 H     1 <1>   0.0800 
 34 H        6.2400    -0.2970     1.4240 H     1 <1>   0.0800 
 35 H        5.9130     1.3970     1.2800 H     1 <1>   0.0800 
 36 H        3.9920     2.0530    -2.4920 H     1 <1>   0.0800 
 37 H        0.3230    -3.4150     1.9620 H     1 <1>   0.3700 
 38 H        5.7780    -0.4940    -0.9740 H     1 <1>   0.4500 
 39 H        2.4290     2.6710    -0.6390 H     1 <1>   0.0800 
 40 H        3.8380     3.6780    -0.8480 H     1 <1>   0.0800 
 41 H        6.0400     2.4730    -0.8690 H     1 <1>   0.0800 
 42 H        6.1290     1.5360    -2.3240 H     1 <1>   0.0800 
 43 H        1.5850    -6.2810    -2.1120 H     1 <1>   0.0800 
 44 H        3.0010    -6.7520    -1.2170 H     1 <1>   0.0800 
 45 H        8.0360    -0.5040    -0.0500 H     1 <1>   0.0800 
 46 H        8.0370     0.2940    -1.5980 H     1 <1>   0.0800 
 47 H        0.1780    -6.2420     1.9670 H     1 <1>   0.0800 
 48 H       -1.0350    -5.3570     1.0840 H     1 <1>   0.0800 
 49 H        1.0670    -8.3740    -1.0700 H     1 <1>   0.0800 
 50 H        1.7070    -7.8520     0.4620 H     1 <1>   0.0800 
 51 H       -0.7850    -7.8030     0.4400 H     1 <1>   0.0800 
 52 H       -0.7340    -6.6650    -0.8760 H     1 <1>   0.0800 
@<TRIPOS>BOND
  1   1   2  2   
  2   2   3  am  
  3   2   4  1   
  4   3   5  1   
  5   3   6  1   
  6   4   7  1   
  7   4   8  2   
  8   5   9  1   
  9   5  10  1   
 10   5  28  1   
 11   6  11  1   
 12   6  29  1   
 13   6  30  1   
 14   7  12  2   
 15   7  13  am  
 16   8  14  1   
 17   8  31  1   
 18   9  15  1   
 19   9  32  1   
 20   9  33  1   
 21  10  16  1   
 22  10  34  1   
 23  10  35  1   
 24  11  17  1   
 25  11  18  1   
 26  11  36  1   
 27  13  19  1   
 28  13  37  1   
 29  14  19  2   
 30  14  20  1   
 31  15  17  1   
 32  16  18  1   
 33  16  21  1   
 34  16  38  1   
 35  17  39  1   
 36  17  40  1   
 37  18  41  1   
 38  18  42  1   
 39  19  22  1   
 40  20  23  1   
 41  20  43  1   
 42  20  44  1   
 43  21  24  1   
 44  21  45  1   
 45  21  46  1   
 46  22  25  1   
 47  22  47  1   
 48  22  48  1   
 49  23  25  1   
 50  23  49  1   
 51  23  50  1   
 52  24  26  ar  
 53  24  27  ar  
 54  25  51  1   
 55  25  52  1   
@<TRIPOS>SUBSTRUCTURE
  1 ****   2 GROUP 4 **** **** 0

# MOE 2024.06 (io_trps.svl 2023.06)
