@<TRIPOS>MOLECULE
NONAME
52 54 1 0 0 
SMALL
USER_CHARGES


@<TRIPOS>ATOM
  1 O        1.0370     0.8200     0.7760 O.2   1 <1>  -0.5700 
  2 C        1.8480    -0.0020     0.4080 C.2   1 <1>   0.5690 
  3 N        1.9310    -1.2560     0.9540 N.am  1 <1>  -0.6600 
  4 C        2.7960     0.3970    -0.7350 C.3   1 <1>   0.1710 
  5 C        3.0510    -2.1810     0.6100 C.3   1 <1>   0.1400 
  6 C        0.9830    -1.7350     2.0420 C.3   1 <1>   0.0340 
  7 N        4.0400    -0.4250    -0.8700 N.3   1 <1>  -0.8100 
  8 C        3.6940    -1.8530    -0.7490 C.3   1 <1>   0.1100 
  9 C        0.6000    -3.2220     2.0440 C.2   1 <1>   0.9060 
 10 C        4.7340    -0.1500    -2.1360 C.3   1 <1>   0.2910 
 11 O        1.4010    -4.0440     2.5140 O.co2 1 <1>  -0.9000 
 12 O       -0.4940    -3.5720     1.5850 O.co2 1 <1>  -0.9000 
 13 C        5.3030     1.2590    -2.1660 C.2   1 <1>  -0.1810 
 14 C        5.5720     2.0010    -3.3090 C.2   1 <1>   0.1390 
 15 C        5.6700     2.0700    -1.1510 C.2   1 <1>  -0.3020 
 16 N        6.0590     3.1700    -3.0350 N.2   1 <1>  -0.7070 
 17 N        6.1320     3.2310    -1.6770 N.pl3 1 <1>   0.5930 
 18 C        6.6210     4.3660    -0.9620 C.ar  1 <1>  -0.0230 
 19 C        7.2120     4.2290     0.2920 C.ar  1 <1>  -0.1500 
 20 C        6.5200     5.6440    -1.5040 C.ar  1 <1>  -0.1500 
 21 C        7.6760     5.3350     0.9830 C.ar  1 <1>  -0.1500 
 22 C        6.9840     6.7490    -0.8130 C.ar  1 <1>  -0.1500 
 23 C        7.5640     6.6020     0.4360 C.ar  1 <1>  -0.1430 
 24 C        8.0760     7.8170     1.1940 C.3   1 <1>  -0.0170 
 25 C        9.5440     8.0870     0.8480 C.3   1 <1>  -0.1600 
 26 C       10.0850     9.3100     1.5990 C.3   1 <1>  -0.1600 
 27 C       11.5520     9.5690     1.2430 C.3   1 <1>  -0.2400 
 28 H        3.0670     1.4260    -0.5870 H     1 <1>   0.0800 
 29 H        2.2260     0.3370    -1.6440 H     1 <1>   0.0800 
 30 H        2.6930    -3.1940     0.5690 H     1 <1>   0.0800 
 31 H        3.7950    -2.1280     1.3860 H     1 <1>   0.0800 
 32 H        0.0680    -1.1770     1.9820 H     1 <1>   0.0800 
 33 H        1.4300    -1.5270     2.9950 H     1 <1>   0.0800 
 34 H        3.0070    -2.1340    -1.5300 H     1 <1>   0.0800 
 35 H        4.5820    -2.4510    -0.8540 H     1 <1>   0.0800 
 36 H        4.0550    -0.2890    -2.9610 H     1 <1>   0.0800 
 37 H        5.5500    -0.8430    -2.2510 H     1 <1>   0.0800 
 38 H        5.4000     1.6570    -4.3150 H     1 <1>   0.1500 
 39 H        5.6200     1.8830    -0.0960 H     1 <1>   0.1500 
 40 H        7.3170     3.2550     0.7360 H     1 <1>   0.1500 
 41 H        6.0740     5.7730    -2.4750 H     1 <1>   0.1500 
 42 H        8.1300     5.2050     1.9500 H     1 <1>   0.1500 
 43 H        6.8950     7.7260    -1.2560 H     1 <1>   0.1500 
 44 H        7.9760     7.6480     2.2520 H     1 <1>   0.0800 
 45 H        7.4780     8.6750     0.9430 H     1 <1>   0.0800 
 46 H        9.6310     8.2480    -0.2130 H     1 <1>   0.0800 
 47 H       10.1310     7.2200     1.0990 H     1 <1>   0.0800 
 48 H       10.0020     9.1500     2.6610 H     1 <1>   0.0800 
 49 H        9.5020    10.1790     1.3460 H     1 <1>   0.0800 
 50 H       12.1590     8.7210     1.5090 H     1 <1>   0.0800 
 51 H       11.9140    10.4290     1.7780 H     1 <1>   0.0800 
 52 H       11.6560     9.7530     0.1890 H     1 <1>   0.0800 
@<TRIPOS>BOND
  1   1   2  2   
  2   2   3  am  
  3   2   4  1   
  4   3   5  1   
  5   3   6  1   
  6   4   7  1   
  7   4  28  1   
  8   4  29  1   
  9   5   8  1   
 10   5  30  1   
 11   5  31  1   
 12   6   9  1   
 13   6  32  1   
 14   6  33  1   
 15   7   8  1   
 16   7  10  1   
 17   8  34  1   
 18   8  35  1   
 19   9  11  ar  
 20   9  12  ar  
 21  10  13  1   
 22  10  36  1   
 23  10  37  1   
 24  13  14  1   
 25  13  15  2   
 26  14  16  2   
 27  14  38  1   
 28  15  17  1   
 29  15  39  1   
 30  16  17  1   
 31  17  18  1   
 32  18  19  ar  
 33  18  20  ar  
 34  19  21  ar  
 35  19  40  1   
 36  20  22  ar  
 37  20  41  1   
 38  21  23  ar  
 39  21  42  1   
 40  22  23  ar  
 41  22  43  1   
 42  23  24  1   
 43  24  25  1   
 44  24  44  1   
 45  24  45  1   
 46  25  26  1   
 47  25  46  1   
 48  25  47  1   
 49  26  27  1   
 50  26  48  1   
 51  26  49  1   
 52  27  50  1   
 53  27  51  1   
 54  27  52  1   
@<TRIPOS>SUBSTRUCTURE
  1 ****  15 GROUP 4 **** **** 0

# MOE 2024.06 (io_trps.svl 2023.06)
