@<TRIPOS>MOLECULE
NONAME
51 55 1 0 0 
SMALL
USER_CHARGES


@<TRIPOS>ATOM
  1 F       -2.4420    -2.0960     0.8430 F     1 <1>  -0.1900 
  2 C       -2.3150    -0.8680     0.4190 C.ar  1 <1>   0.1900 
  3 C       -3.3390     0.0460     0.6560 C.ar  1 <1>   0.0860 
  4 C       -1.1520    -0.5410    -0.2530 C.ar  1 <1>  -0.1500 
  5 C       -4.5530    -0.3150     1.3490 C.2   1 <1>   0.5440 
  6 C       -3.1340     1.3430     0.1890 C.ar  1 <1>  -0.1500 
  7 C       -0.9790     0.7530    -0.7150 C.ar  1 <1>  -0.1440 
  8 O       -4.7320     0.1080     2.4750 O.2   1 <1>  -0.5700 
  9 N       -5.5250    -1.1020     0.7630 N.am  1 <1>  -0.6600 
 10 C       -1.9760     1.6910    -0.4870 C.ar  1 <1>  -0.1500 
 11 C        0.2850     1.1540    -1.4550 C.3   1 <1>  -0.0970 
 12 C       -6.7190    -1.5770     1.5140 C.3   1 <1>   0.1400 
 13 C       -5.4800    -1.5860    -0.6440 C.3   1 <1>   0.1400 
 14 C       -6.6990    -3.1050     1.5510 C.3   1 <1>  -0.1600 
 15 C       -5.4470    -3.1150    -0.6420 C.3   1 <1>  -0.1600 
 16 C       -6.6260    -3.7040     0.1390 C.3   1 <1>   0.4600 
 17 O       -7.7900    -3.3470    -0.5770 O.3   1 <1>  -0.5600 
 18 C       -6.5140    -5.2230     0.1930 C.2   1 <1>  -0.3320 
 19 C       -8.9560    -4.1080    -0.3700 C.3   1 <1>   0.1200 
 20 N       -5.4570    -5.9400     0.6820 N.pl3 1 <1>   0.0330 
 21 C       -7.4650    -6.0720    -0.2430 C.2   1 <1>  -0.1810 
 22 C       -8.7590    -5.5640    -0.8260 C.3   1 <1>   0.0210 
 23 C       -5.7500    -7.2750     0.5410 C.ar  1 <1>  -0.1520 
 24 C       -7.0100    -7.3910    -0.0430 C.ar  1 <1>   0.0000 
 25 C       -5.0100    -8.4110     0.8780 C.ar  1 <1>  -0.1500 
 26 C       -7.5410    -8.6600    -0.2960 C.ar  1 <1>  -0.1500 
 27 C       -5.5450    -9.6530     0.6240 C.ar  1 <1>  -0.1500 
 28 C       -6.8110    -9.7780     0.0370 C.ar  1 <1>  -0.1500 
 29 H       -0.3980    -1.2920    -0.4050 H     1 <1>   0.1500 
 30 H       -3.8960     2.0830     0.3650 H     1 <1>   0.1500 
 31 H       -1.8490     2.7030    -0.8350 H     1 <1>   0.1500 
 32 H        0.8680     0.2900    -1.7170 H     1 <1>   0.0800 
 33 H        0.8830     1.7960    -0.8340 H     1 <1>   0.0800 
 34 H        0.0330     1.6810    -2.3580 H     1 <1>   0.0800 
 35 H       -7.6100    -1.2300     1.0180 H     1 <1>   0.0800 
 36 H       -6.7220    -1.1900     2.5190 H     1 <1>   0.0800 
 37 H       -4.6210    -1.2020    -1.1640 H     1 <1>   0.0800 
 38 H       -6.3610    -1.2420    -1.1610 H     1 <1>   0.0800 
 39 H       -7.5630    -3.4750     2.0680 H     1 <1>   0.0800 
 40 H       -5.8370    -3.4150     2.1120 H     1 <1>   0.0800 
 41 H       -4.5240    -3.4370    -0.2020 H     1 <1>   0.0800 
 42 H       -5.4750    -3.4850    -1.6500 H     1 <1>   0.0800 
 43 H       -9.7510    -3.6480    -0.9280 H     1 <1>   0.0800 
 44 H       -9.2040    -4.0750     0.6760 H     1 <1>   0.0800 
 45 H       -4.5920    -5.5630     1.0790 H     1 <1>   0.2700 
 46 H       -8.7180    -5.6110    -1.8990 H     1 <1>   0.0800 
 47 H       -9.5820    -6.1650    -0.4850 H     1 <1>   0.0800 
 48 H       -4.0400    -8.3070     1.3290 H     1 <1>   0.1500 
 49 H       -8.5110    -8.7390    -0.7480 H     1 <1>   0.1500 
 50 H       -4.9950   -10.5430     0.8750 H     1 <1>   0.1500 
 51 H       -7.2050   -10.7600    -0.1520 H     1 <1>   0.1500 
@<TRIPOS>BOND
  1   1   2  1   
  2   2   3  ar  
  3   2   4  ar  
  4   3   5  1   
  5   3   6  ar  
  6   4   7  ar  
  7   4  29  1   
  8   5   8  2   
  9   5   9  am  
 10   6  10  ar  
 11   6  30  1   
 12   7  10  ar  
 13   7  11  1   
 14   9  12  1   
 15   9  13  1   
 16  10  31  1   
 17  11  32  1   
 18  11  33  1   
 19  11  34  1   
 20  12  14  1   
 21  12  35  1   
 22  12  36  1   
 23  13  15  1   
 24  13  37  1   
 25  13  38  1   
 26  14  16  1   
 27  14  39  1   
 28  14  40  1   
 29  15  16  1   
 30  15  41  1   
 31  15  42  1   
 32  16  17  1   
 33  16  18  1   
 34  17  19  1   
 35  18  20  1   
 36  18  21  2   
 37  19  22  1   
 38  19  43  1   
 39  19  44  1   
 40  20  23  1   
 41  20  45  1   
 42  21  22  1   
 43  21  24  1   
 44  22  46  1   
 45  22  47  1   
 46  23  24  ar  
 47  23  25  ar  
 48  24  26  ar  
 49  25  27  ar  
 50  25  48  1   
 51  26  28  ar  
 52  26  49  1   
 53  27  28  ar  
 54  27  50  1   
 55  28  51  1   
@<TRIPOS>SUBSTRUCTURE
  1 ****  15 GROUP 4 **** **** 0

# MOE 2024.06 (io_trps.svl 2023.06)
