@<TRIPOS>MOLECULE
NONAME
53 55 1 0 0 
SMALL
USER_CHARGES


@<TRIPOS>ATOM
  1 O        2.6110     3.6170    -0.6940 O.3   1 <1>  -0.0190 
  2 N        3.6190     2.8010    -0.6480 N.2   1 <1>  -0.4100 
  3 C        1.4810     2.9880    -0.8870 C.2   1 <1>  -0.0400 
  4 C        3.1350     1.6250    -0.8410 C.2   1 <1>   0.1080 
  5 C        1.7530     1.6800    -1.0030 C.2   1 <1>  -0.1500 
  6 C        0.1920     3.7840    -0.9430 C.3   1 <1>   0.0200 
  7 C        3.9640     0.3600    -0.8830 C.3   1 <1>  -0.0590 
  8 C       -0.3180     4.1980     0.4590 C.3   1 <1>  -0.0800 
  9 C       -1.1820     5.4590     0.3620 C.3   1 <1>   0.2000 
 10 C        0.7990     4.6420     1.4080 C.3   1 <1>   0.3430 
 11 O       -2.0760     5.4720     1.4260 O.3   1 <1>  -0.6800 
 12 C       -0.1940     6.6320     0.4990 C.3   1 <1>   0.3430 
 13 N        1.0850     6.0310     0.9930 N.4   1 <1>  -0.9590 
 14 C        1.8620     6.8570     1.9450 C.3   1 <1>   0.4860 
 15 C        2.2830     8.1300     1.2310 C.ar  1 <1>  -0.1430 
 16 C        3.0200     8.0670     0.0500 C.ar  1 <1>   0.0830 
 17 C        1.9270     9.3590     1.7610 C.ar  1 <1>  -0.1500 
 18 O        3.3330     6.8110    -0.3910 O.3   1 <1>  -0.3630 
 19 C        3.3720     9.2490    -0.6190 C.ar  1 <1>   0.0830 
 20 C        2.2820    10.5260     1.1130 C.ar  1 <1>  -0.1500 
 21 C        4.5840     6.5250    -0.9870 C.3   1 <1>   0.0400 
 22 O        4.0320     9.1630    -1.8130 O.3   1 <1>  -0.3630 
 23 C        2.9930    10.4870    -0.0830 C.ar  1 <1>   0.0830 
 24 C        5.2320     9.8900    -1.9850 C.3   1 <1>   0.0400 
 25 O        3.3090    11.6310    -0.7570 O.3   1 <1>  -0.3630 
 26 C        2.8370    12.9010    -0.3600 C.3   1 <1>   0.0400 
 27 H        1.0980     0.8460    -1.1760 H     1 <1>   0.1500 
 28 H        0.3700     4.6460    -1.5620 H     1 <1>   0.0800 
 29 H       -0.5650     3.1930    -1.4300 H     1 <1>   0.0800 
 30 H        3.8490    -0.1200    -1.8370 H     1 <1>   0.0800 
 31 H        3.6460    -0.3130    -0.1080 H     1 <1>   0.0800 
 32 H        5.0030     0.5940    -0.7360 H     1 <1>   0.0800 
 33 H       -0.8610     3.3700     0.8820 H     1 <1>   0.0800 
 34 H       -1.7590     5.5170    -0.5470 H     1 <1>   0.0800 
 35 H        1.6730     4.0130     1.3490 H     1 <1>   0.0800 
 36 H        0.4330     4.6320     2.4220 H     1 <1>   0.0800 
 37 H       -1.6510     5.3360     2.2940 H     1 <1>   0.4000 
 38 H       -0.5810     7.3650     1.1870 H     1 <1>   0.0800 
 39 H       -0.0260     7.0970    -0.4590 H     1 <1>   0.0800 
 40 H        1.7270     5.9780     0.1760 H     1 <1>   0.4500 
 41 H        1.2700     7.0900     2.8140 H     1 <1>   0.0800 
 42 H        2.7460     6.3230     2.2570 H     1 <1>   0.0800 
 43 H        1.3710     9.4250     2.6810 H     1 <1>   0.1500 
 44 H        1.9900    11.4600     1.5570 H     1 <1>   0.1500 
 45 H        4.7820     5.4740    -0.8730 H     1 <1>   0.0800 
 46 H        5.3500     7.1000    -0.4970 H     1 <1>   0.0800 
 47 H        4.5360     6.7690    -2.0330 H     1 <1>   0.0800 
 48 H        5.8400     9.3690    -2.7020 H     1 <1>   0.0800 
 49 H        5.7470     9.9570    -1.0430 H     1 <1>   0.0800 
 50 H        4.9970    10.8700    -2.3580 H     1 <1>   0.0800 
 51 H        3.1720    13.6220    -1.0840 H     1 <1>   0.0800 
 52 H        3.2440    13.1410     0.6060 H     1 <1>   0.0800 
 53 H        1.7610    12.8840    -0.3360 H     1 <1>   0.0800 
@<TRIPOS>BOND
  1   1   2  1   
  2   1   3  1   
  3   2   4  2   
  4   3   5  2   
  5   3   6  1   
  6   4   5  1   
  7   4   7  1   
  8   5  27  1   
  9   6   8  1   
 10   6  28  1   
 11   6  29  1   
 12   7  30  1   
 13   7  31  1   
 14   7  32  1   
 15   8   9  1   
 16   8  10  1   
 17   8  33  1   
 18   9  11  1   
 19   9  12  1   
 20   9  34  1   
 21  10  13  1   
 22  10  35  1   
 23  10  36  1   
 24  11  37  1   
 25  12  13  1   
 26  12  38  1   
 27  12  39  1   
 28  13  14  1   
 29  13  40  1   
 30  14  15  1   
 31  14  41  1   
 32  14  42  1   
 33  15  16  ar  
 34  15  17  ar  
 35  16  18  1   
 36  16  19  ar  
 37  17  20  ar  
 38  17  43  1   
 39  18  21  1   
 40  19  22  1   
 41  19  23  ar  
 42  20  23  ar  
 43  20  44  1   
 44  21  45  1   
 45  21  46  1   
 46  21  47  1   
 47  22  24  1   
 48  23  25  1   
 49  24  48  1   
 50  24  49  1   
 51  24  50  1   
 52  25  26  1   
 53  26  51  1   
 54  26  52  1   
 55  26  53  1   
@<TRIPOS>SUBSTRUCTURE
  1 ****  18 GROUP 4 **** **** 0

# MOE 2024.06 (io_trps.svl 2023.06)
