@<TRIPOS>MOLECULE
NONAME
48 49 1 0 0 
SMALL
USER_CHARGES


@<TRIPOS>ATOM
  1 S        0.3800     1.6400     0.0950 S.o2  1 <1>   1.3330 
  2 O       -0.9610     1.9850     0.5070 O.2   1 <1>  -0.6500 
  3 O        1.0180     2.4280    -0.9400 O.2   1 <1>  -0.6500 
  4 N        0.3580     0.0190    -0.4090 N.am  1 <1>  -0.8490 
  5 C        1.4400     1.6340     1.5480 C.3   1 <1>  -0.0550 
  6 C        0.0960    -0.1140    -1.8460 C.3   1 <1>   0.1160 
  7 C       -0.5940    -0.8090     0.3410 C.3   1 <1>   0.1160 
  8 C        2.8550     1.0260     1.4200 C.3   1 <1>  -0.0800 
  9 C        3.5470     1.1430     0.0760 C.3   1 <1>   0.2200 
 10 C        2.9850    -0.4750     1.6680 C.3   1 <1>   0.1200 
 11 N        3.8870     2.5400    -0.2810 N.am  1 <1>  -0.7300 
 12 C        4.6990     0.1640     0.2510 C.3   1 <1>   0.1200 
 13 O        4.1730    -0.8700     1.0410 O.3   1 <1>  -0.5600 
 14 C        4.7000     3.4210     0.3740 C.2   1 <1>   0.5440 
 15 O        5.3430     3.0330     1.3290 O.2   1 <1>  -0.5700 
 16 C        4.7410     4.8060    -0.0650 C.ar  1 <1>   0.0860 
 17 C        5.9310     5.5050    -0.3170 C.ar  1 <1>  -0.1440 
 18 C        3.5310     5.4770    -0.2540 C.ar  1 <1>  -0.1500 
 19 C        5.8900     6.8380    -0.7240 C.ar  1 <1>   0.0820 
 20 C        7.2760     4.7940    -0.1400 C.3   1 <1>  -0.0970 
 21 C        3.4890     6.7930    -0.6670 C.ar  1 <1>  -0.1500 
 22 O        7.0690     7.4810    -0.9380 O.3   1 <1>  -0.3630 
 23 C        4.6650     7.4760    -0.9000 C.ar  1 <1>  -0.1500 
 24 C        7.1300     8.8400    -1.3100 C.3   1 <1>   0.0400 
 25 H        1.5640     2.6570     1.8490 H     1 <1>   0.0800 
 26 H        0.9310     1.1400     2.3530 H     1 <1>   0.0800 
 27 H        0.1040    -1.1520    -2.1330 H     1 <1>   0.0800 
 28 H        0.8590     0.3950    -2.4100 H     1 <1>   0.0800 
 29 H       -0.8610     0.3150    -2.0930 H     1 <1>   0.0800 
 30 H       -0.4980    -1.8410     0.0480 H     1 <1>   0.0800 
 31 H       -1.6050    -0.4850     0.1550 H     1 <1>   0.0800 
 32 H       -0.3980    -0.7380     1.3970 H     1 <1>   0.0800 
 33 H        3.4710     1.4950     2.1680 H     1 <1>   0.0800 
 34 H        2.9250     0.7410    -0.7040 H     1 <1>   0.0800 
 35 H        2.1820    -1.0270     1.2120 H     1 <1>   0.0800 
 36 H        3.0480    -0.7120     2.7160 H     1 <1>   0.0800 
 37 H        3.2610     2.9200    -1.0010 H     1 <1>   0.3700 
 38 H        5.5170     0.6050     0.7920 H     1 <1>   0.0800 
 39 H        5.0360    -0.2430    -0.6850 H     1 <1>   0.0800 
 40 H        2.6060     4.9590    -0.0700 H     1 <1>   0.1500 
 41 H        7.2260     3.7890    -0.5170 H     1 <1>   0.0800 
 42 H        7.5270     4.7560     0.9050 H     1 <1>   0.0800 
 43 H        8.0720     5.2920    -0.6630 H     1 <1>   0.0800 
 44 H        2.5410     7.2850    -0.8050 H     1 <1>   0.1500 
 45 H        4.6040     8.4990    -1.2170 H     1 <1>   0.1500 
 46 H        8.1660     9.1150    -1.3990 H     1 <1>   0.0800 
 47 H        6.6600     9.4330    -0.5460 H     1 <1>   0.0800 
 48 H        6.6370     8.9650    -2.2570 H     1 <1>   0.0800 
@<TRIPOS>BOND
  1   1   2  2   
  2   1   3  2   
  3   1   4  am  
  4   1   5  1   
  5   4   6  1   
  6   4   7  1   
  7   5   8  1   
  8   5  25  1   
  9   5  26  1   
 10   6  27  1   
 11   6  28  1   
 12   6  29  1   
 13   7  30  1   
 14   7  31  1   
 15   7  32  1   
 16   8   9  1   
 17   8  10  1   
 18   8  33  1   
 19   9  11  1   
 20   9  12  1   
 21   9  34  1   
 22  10  13  1   
 23  10  35  1   
 24  10  36  1   
 25  11  14  am  
 26  11  37  1   
 27  12  13  1   
 28  12  38  1   
 29  12  39  1   
 30  14  15  2   
 31  14  16  1   
 32  16  17  ar  
 33  16  18  ar  
 34  17  19  ar  
 35  17  20  1   
 36  18  21  ar  
 37  18  40  1   
 38  19  22  1   
 39  19  23  ar  
 40  20  41  1   
 41  20  42  1   
 42  20  43  1   
 43  21  23  ar  
 44  21  44  1   
 45  22  24  1   
 46  23  45  1   
 47  24  46  1   
 48  24  47  1   
 49  24  48  1   
@<TRIPOS>SUBSTRUCTURE
  1 ****  11 GROUP 4 **** **** 0

# MOE 2024.06 (io_trps.svl 2023.06)
