@<TRIPOS>MOLECULE
NONAME
54 56 1 0 0 
SMALL
USER_CHARGES


@<TRIPOS>ATOM
  1 O       -0.6420     0.3260    -1.4270 O.co2 1 <1>  -0.9000 
  2 C       -1.1120     0.6750    -0.3390 C.2   1 <1>   0.9060 
  3 O       -1.8020    -0.0680     0.3650 O.co2 1 <1>  -0.9000 
  4 C       -0.8550     2.0890     0.1390 C.3   1 <1>  -0.1060 
  5 C       -2.2050     2.6840     0.5870 C.3   1 <1>   0.2000 
  6 C       -0.4330     2.8630    -1.1160 C.3   1 <1>   0.3430 
  7 C        0.2140     2.0360     1.2800 C.3   1 <1>  -0.0170 
  8 O       -2.5700     2.1200     1.7890 O.3   1 <1>  -0.6800 
  9 C       -2.2040     4.2150     0.7370 C.3   1 <1>  -0.1600 
 10 N       -0.3930     4.3570    -0.9520 N.4   1 <1>  -0.9590 
 11 C        1.6360     2.4000     0.8650 C.ar  1 <1>  -0.1430 
 12 C       -0.8590     4.8470     0.3790 C.3   1 <1>   0.3430 
 13 C        0.9880     4.8610    -1.2750 C.3   1 <1>   0.5240 
 14 C        2.2900     3.4640     1.4700 C.ar  1 <1>  -0.1500 
 15 C        2.2950     1.6680    -0.1120 C.ar  1 <1>  -0.1500 
 16 C        1.0380     6.3850    -1.4080 C.2   1 <1>   0.3350 
 17 C        3.5670     3.8210     1.0710 C.ar  1 <1>  -0.1500 
 18 C        3.5700     2.0240    -0.5130 C.ar  1 <1>  -0.1500 
 19 N        0.0650     7.1110    -1.8000 N.2   1 <1>  -0.4100 
 20 N        2.1240     7.0780    -1.1030 N.2   1 <1>  -0.5650 
 21 C        4.2050     3.1050     0.0730 C.ar  1 <1>  -0.1500 
 22 O        0.4760     8.3430    -1.7760 O.3   1 <1>  -0.0190 
 23 C        1.7130     8.2580    -1.3480 C.2   1 <1>   0.2980 
 24 C        2.5290     9.5300    -1.1930 C.3   1 <1>   0.0200 
 25 C        2.3560    10.1910     0.1890 C.3   1 <1>  -0.0800 
 26 C        0.9130    10.6530     0.4400 C.3   1 <1>  -0.2400 
 27 C        3.3050    11.3890     0.3240 C.3   1 <1>  -0.2400 
 28 H       -2.9670     2.4050    -0.1240 H     1 <1>   0.0800 
 29 H       -1.1410     2.6220    -1.8930 H     1 <1>   0.0800 
 30 H        0.5180     2.4900    -1.4560 H     1 <1>   0.0800 
 31 H       -0.0810     2.6820     2.0870 H     1 <1>   0.0800 
 32 H        0.2330     1.0460     1.7060 H     1 <1>   0.0800 
 33 H       -2.5270     1.1310     1.6520 H     1 <1>   0.4000 
 34 H       -2.9590     4.6270     0.0930 H     1 <1>   0.0800 
 35 H       -2.4570     4.4920     1.7450 H     1 <1>   0.0800 
 36 H       -1.0130     4.7710    -1.6600 H     1 <1>   0.4500 
 37 H       -0.1360     4.5850     1.1330 H     1 <1>   0.0800 
 38 H       -0.9550     5.9220     0.3680 H     1 <1>   0.0800 
 39 H        1.6780     4.5620    -0.5090 H     1 <1>   0.0800 
 40 H        1.3250     4.4300    -2.2020 H     1 <1>   0.0800 
 41 H        1.8150     4.0200     2.2600 H     1 <1>   0.1500 
 42 H        1.8150     0.8130    -0.5660 H     1 <1>   0.1500 
 43 H        4.0690     4.6500     1.5400 H     1 <1>   0.1500 
 44 H        4.0700     1.4510    -1.2750 H     1 <1>   0.1500 
 45 H        5.1990     3.3800    -0.2370 H     1 <1>   0.1500 
 46 H        3.5650     9.2760    -1.3310 H     1 <1>   0.0800 
 47 H        2.2560    10.2210    -1.9700 H     1 <1>   0.0800 
 48 H        2.6190     9.4700     0.9460 H     1 <1>   0.0800 
 49 H        0.5940    11.3400    -0.3250 H     1 <1>   0.0800 
 50 H        0.8410    11.1490     1.3920 H     1 <1>   0.0800 
 51 H        0.2380     9.8160     0.4560 H     1 <1>   0.0800 
 52 H        3.0770    12.1430    -0.4100 H     1 <1>   0.0800 
 53 H        4.3270    11.0780     0.1910 H     1 <1>   0.0800 
 54 H        3.2150    11.8290     1.3020 H     1 <1>   0.0800 
@<TRIPOS>BOND
  1   1   2  ar  
  2   2   3  ar  
  3   2   4  1   
  4   4   5  1   
  5   4   6  1   
  6   4   7  1   
  7   5   8  1   
  8   5   9  1   
  9   5  28  1   
 10   6  10  1   
 11   6  29  1   
 12   6  30  1   
 13   7  11  1   
 14   7  31  1   
 15   7  32  1   
 16   8  33  1   
 17   9  12  1   
 18   9  34  1   
 19   9  35  1   
 20  10  12  1   
 21  10  13  1   
 22  10  36  1   
 23  11  14  ar  
 24  11  15  ar  
 25  12  37  1   
 26  12  38  1   
 27  13  16  1   
 28  13  39  1   
 29  13  40  1   
 30  14  17  ar  
 31  14  41  1   
 32  15  18  ar  
 33  15  42  1   
 34  16  19  2   
 35  16  20  1   
 36  17  21  ar  
 37  17  43  1   
 38  18  21  ar  
 39  18  44  1   
 40  19  22  1   
 41  20  23  2   
 42  21  45  1   
 43  22  23  1   
 44  23  24  1   
 45  24  25  1   
 46  24  46  1   
 47  24  47  1   
 48  25  26  1   
 49  25  27  1   
 50  25  48  1   
 51  26  49  1   
 52  26  50  1   
 53  26  51  1   
 54  27  52  1   
 55  27  53  1   
 56  27  54  1   
@<TRIPOS>SUBSTRUCTURE
  1 ****  13 GROUP 4 **** **** 0

# MOE 2024.06 (io_trps.svl 2023.06)
