@<TRIPOS>MOLECULE
NONAME
45 47 1 0 0 
SMALL
USER_CHARGES


@<TRIPOS>ATOM
  1 F       -1.1120     0.0340     0.2240 F     1 <1>  -0.3400 
  2 C       -0.6400    -0.9650     0.9580 C.3   1 <1>   1.1640 
  3 F       -1.3680    -2.0320     0.6510 F     1 <1>  -0.3400 
  4 F       -0.9490    -0.6710     2.2160 F     1 <1>  -0.3400 
  5 C        0.8680    -1.2030     0.7260 C.ar  1 <1>  -0.1440 
  6 C        1.3900    -1.6160    -0.5090 C.ar  1 <1>  -0.1440 
  7 C        1.7550    -1.0010     1.7840 C.ar  1 <1>  -0.1500 
  8 C        2.7580    -1.8130    -0.6450 C.ar  1 <1>  -0.1500 
  9 C        0.5410    -1.8910    -1.7590 C.3   1 <1>   0.0450 
 10 C        3.1140    -1.2020     1.6330 C.ar  1 <1>  -0.1500 
 11 C        3.6170    -1.6090     0.4160 C.ar  1 <1>  -0.1500 
 12 C        0.2740    -3.3700    -1.9930 C.2   1 <1>   0.5690 
 13 O       -0.1220    -3.7260    -3.0760 O.2   1 <1>  -0.5700 
 14 N        0.4710    -4.2550    -0.9860 N.am  1 <1>  -0.7300 
 15 C        0.2910    -5.7220    -1.0730 C.3   1 <1>   0.2200 
 16 C       -1.0190    -6.1590    -0.4350 C.3   1 <1>  -0.0800 
 17 C        1.2870    -6.3880    -0.1320 C.3   1 <1>   0.1200 
 18 C       -0.6700    -6.1980     1.0560 C.3   1 <1>   0.1200 
 19 C       -2.2570    -5.3120    -0.7810 C.3   1 <1>  -0.0170 
 20 O        0.7260    -6.2680     1.1410 O.3   1 <1>  -0.5600 
 21 C       -3.5020    -5.8700    -0.1110 C.ar  1 <1>  -0.1430 
 22 C       -4.1760    -6.9610    -0.6200 C.ar  1 <1>  -0.1500 
 23 C       -4.0220    -5.3160     1.0420 C.ar  1 <1>  -0.1500 
 24 C       -5.3010    -7.4360     0.0330 C.ar  1 <1>   0.1600 
 25 C       -5.1540    -5.8690     1.6170 C.ar  1 <1>   0.1600 
 26 N       -5.8050    -6.9180     1.1410 N.ar  1 <1>  -0.6200 
 27 H        1.4020    -0.6810     2.7500 H     1 <1>   0.1500 
 28 H        3.1680    -2.1330    -1.5880 H     1 <1>   0.1500 
 29 H        1.0600    -1.5140    -2.6220 H     1 <1>   0.0800 
 30 H       -0.4020    -1.3820    -1.7300 H     1 <1>   0.0800 
 31 H        3.7800    -1.0410     2.4640 H     1 <1>   0.1500 
 32 H        4.6750    -1.7660     0.2940 H     1 <1>   0.1500 
 33 H        0.8190    -3.9290    -0.0790 H     1 <1>   0.3700 
 34 H        0.3950    -6.0580    -2.0910 H     1 <1>   0.0800 
 35 H       -1.2130    -7.1710    -0.7440 H     1 <1>   0.0800 
 36 H        2.2560    -5.9210    -0.1490 H     1 <1>   0.0800 
 37 H        1.3800    -7.4360    -0.3540 H     1 <1>   0.0800 
 38 H       -1.0980    -7.0550     1.5470 H     1 <1>   0.0800 
 39 H       -0.9800    -5.2970     1.5570 H     1 <1>   0.0800 
 40 H       -2.3970    -5.3030    -1.8480 H     1 <1>   0.0800 
 41 H       -2.1160    -4.2930    -0.4690 H     1 <1>   0.0800 
 42 H       -3.8370    -7.4440    -1.5180 H     1 <1>   0.1500 
 43 H       -3.5580    -4.4600     1.4980 H     1 <1>   0.1500 
 44 H       -5.8140    -8.2890    -0.3790 H     1 <1>   0.1500 
 45 H       -5.5450    -5.4230     2.5160 H     1 <1>   0.1500 
@<TRIPOS>BOND
  1   1   2  1   
  2   2   3  1   
  3   2   4  1   
  4   2   5  1   
  5   5   6  ar  
  6   5   7  ar  
  7   6   8  ar  
  8   6   9  1   
  9   7  10  ar  
 10   7  27  1   
 11   8  11  ar  
 12   8  28  1   
 13   9  12  1   
 14   9  29  1   
 15   9  30  1   
 16  10  11  ar  
 17  10  31  1   
 18  11  32  1   
 19  12  13  2   
 20  12  14  am  
 21  14  15  1   
 22  14  33  1   
 23  15  16  1   
 24  15  17  1   
 25  15  34  1   
 26  16  18  1   
 27  16  19  1   
 28  16  35  1   
 29  17  20  1   
 30  17  36  1   
 31  17  37  1   
 32  18  20  1   
 33  18  38  1   
 34  18  39  1   
 35  19  21  1   
 36  19  40  1   
 37  19  41  1   
 38  21  22  ar  
 39  21  23  ar  
 40  22  24  ar  
 41  22  42  1   
 42  23  25  ar  
 43  23  43  1   
 44  24  26  ar  
 45  24  44  1   
 46  25  26  ar  
 47  25  45  1   
@<TRIPOS>SUBSTRUCTURE
  1 ****  14 GROUP 4 **** **** 0

# MOE 2024.06 (io_trps.svl 2023.06)
