@<TRIPOS>MOLECULE
NONAME
48 50 1 0 0 
SMALL
USER_CHARGES


@<TRIPOS>ATOM
  1 O       -3.2180    -1.2130    -0.4310 O.co2 1 <1>  -0.9000 
  2 C       -3.1730    -0.7620     0.7200 C.2   1 <1>   0.9060 
  3 O       -3.1900    -1.5310     1.6890 O.co2 1 <1>  -0.9000 
  4 C       -3.2800     0.7380     0.9410 C.3   1 <1>   0.0140 
  5 O       -4.5490     1.0810     1.4980 O.3   1 <1>  -0.3630 
  6 C       -5.2730     2.0520     0.9090 C.ar  1 <1>   0.0830 
  7 C       -6.1630     1.7720    -0.1250 C.ar  1 <1>  -0.1440 
  8 C       -5.1560     3.3420     1.3970 C.ar  1 <1>  -0.1500 
  9 C       -6.9350     2.8000    -0.6380 C.ar  1 <1>  -0.1500 
 10 C       -6.3000     0.3750    -0.7200 C.3   1 <1>   0.2540 
 11 C       -5.9300     4.3550     0.8660 C.ar  1 <1>  -0.1500 
 12 C       -6.8460     4.1060    -0.1550 C.ar  1 <1>   0.0000 
 13 N       -7.4660    -0.3740    -0.1880 N.3   1 <1>  -0.8100 
 14 C       -7.6760     5.1670    -0.6880 C.ar  1 <1>   0.3100 
 15 C       -7.6060    -1.6700    -0.9070 C.3   1 <1>   0.1100 
 16 C       -7.3780    -0.5530     1.2860 C.3   1 <1>   0.1100 
 17 N       -7.0950     6.3320    -0.9850 N.ar  1 <1>  -0.6200 
 18 C       -9.0420     4.9530    -0.8710 C.ar  1 <1>  -0.1500 
 19 C       -7.6050    -2.9260    -0.0010 C.3   1 <1>   0.3430 
 20 C       -6.3160    -1.5970     1.6950 C.3   1 <1>   0.3430 
 21 C       -7.8780     7.2770    -1.4750 C.ar  1 <1>   0.1600 
 22 C       -9.8480     5.9460    -1.3820 C.ar  1 <1>  -0.1500 
 23 N       -6.4820    -2.9300     0.9970 N.4   1 <1>  -0.9590 
 24 C       -9.2370     7.1410    -1.6910 C.ar  1 <1>  -0.1500 
 25 C       -5.1800    -3.2780     0.3410 C.3   1 <1>   0.2630 
 26 H       -3.1530     1.2450     0.0020 H     1 <1>   0.0800 
 27 H       -2.5190     1.0490     1.6300 H     1 <1>   0.0800 
 28 H       -4.4630     3.5420     2.1930 H     1 <1>   0.1500 
 29 H       -7.6230     2.5850    -1.4360 H     1 <1>   0.1500 
 30 H       -5.4010    -0.1870    -0.5590 H     1 <1>   0.0800 
 31 H       -6.4110     0.4810    -1.7860 H     1 <1>   0.0800 
 32 H       -5.8330     5.3580     1.2450 H     1 <1>   0.1500 
 33 H       -6.8160    -1.7830    -1.6310 H     1 <1>   0.0800 
 34 H       -8.5300    -1.6480    -1.4580 H     1 <1>   0.0800 
 35 H       -8.3370    -0.8660     1.6570 H     1 <1>   0.0800 
 36 H       -7.1590     0.3840     1.7660 H     1 <1>   0.0800 
 37 H       -9.4660     4.0030    -0.6040 H     1 <1>   0.1500 
 38 H       -7.5540    -3.8100    -0.6150 H     1 <1>   0.0800 
 39 H       -8.5430    -2.9500     0.5280 H     1 <1>   0.0800 
 40 H       -6.3420    -1.7360     2.7620 H     1 <1>   0.0800 
 41 H       -5.3540    -1.1840     1.4620 H     1 <1>   0.0800 
 42 H       -7.4090     8.2150    -1.7180 H     1 <1>   0.1500 
 43 H      -10.9030     5.7960    -1.5300 H     1 <1>   0.1500 
 44 H       -6.6540    -3.6360     1.7200 H     1 <1>   0.4500 
 45 H       -9.8060     7.9590    -2.0940 H     1 <1>   0.1500 
 46 H       -4.9430    -2.5570    -0.4230 H     1 <1>   0.0800 
 47 H       -5.2260    -4.2540    -0.1100 H     1 <1>   0.0800 
 48 H       -4.3790    -3.2730     1.0630 H     1 <1>   0.0800 
@<TRIPOS>BOND
  1   1   2  ar  
  2   2   3  ar  
  3   2   4  1   
  4   4   5  1   
  5   4  26  1   
  6   4  27  1   
  7   5   6  1   
  8   6   7  ar  
  9   6   8  ar  
 10   7   9  ar  
 11   7  10  1   
 12   8  11  ar  
 13   8  28  1   
 14   9  12  ar  
 15   9  29  1   
 16  10  13  1   
 17  10  30  1   
 18  10  31  1   
 19  11  12  ar  
 20  11  32  1   
 21  12  14  1   
 22  13  15  1   
 23  13  16  1   
 24  14  17  ar  
 25  14  18  ar  
 26  15  19  1   
 27  15  33  1   
 28  15  34  1   
 29  16  20  1   
 30  16  35  1   
 31  16  36  1   
 32  17  21  ar  
 33  18  22  ar  
 34  18  37  1   
 35  19  23  1   
 36  19  38  1   
 37  19  39  1   
 38  20  23  1   
 39  20  40  1   
 40  20  41  1   
 41  21  24  ar  
 42  21  42  1   
 43  22  24  ar  
 44  22  43  1   
 45  23  25  1   
 46  23  44  1   
 47  24  45  1   
 48  25  46  1   
 49  25  47  1   
 50  25  48  1   
@<TRIPOS>SUBSTRUCTURE
  1 ****   7 GROUP 4 **** **** 0

# MOE 2024.06 (io_trps.svl 2023.06)
