@<TRIPOS>MOLECULE
NONAME
41 43 1 0 0 
SMALL
USER_CHARGES


@<TRIPOS>ATOM
  1 O       -1.1780     0.3880     2.7110 O.2   1 <1>  -0.5700 
  2 C       -1.4620     0.9560     1.6850 C.2   1 <1>   0.5690 
  3 N       -2.1260     0.3070     0.6790 N.am  1 <1>  -0.6600 
  4 C       -1.0450     2.4130     1.5380 C.3   1 <1>   0.0440 
  5 C       -2.4580     0.8480    -0.6670 C.3   1 <1>   0.1400 
  6 C       -2.4230    -1.1460     0.7330 C.3   1 <1>   0.1400 
  7 C       -0.0970     2.6440     0.3650 C.ar  1 <1>  -0.1440 
  8 C       -3.3480    -0.2200    -1.2980 C.3   1 <1>   0.2000 
  9 C       -2.8160    -1.5260    -0.6990 C.3   1 <1>  -0.0800 
 10 C        0.9500     1.7650     0.1170 C.ar  1 <1>   0.1600 
 11 C       -0.2700     3.7240    -0.4780 C.ar  1 <1>  -0.1500 
 12 O       -4.6490    -0.0070    -0.8680 O.3   1 <1>  -0.6800 
 13 C       -3.7810    -2.7240    -0.7840 C.3   1 <1>   0.0200 
 14 N        1.8010     1.8650    -0.8910 N.ar  1 <1>  -0.6200 
 15 C        0.6160     3.8490    -1.5270 C.ar  1 <1>  -0.1500 
 16 C       -3.1520    -4.0240    -0.3130 C.2   1 <1>  -0.0400 
 17 C        1.6170     2.9060    -1.6860 C.ar  1 <1>   0.1600 
 18 O       -3.9110    -5.0800    -0.1900 O.3   1 <1>  -0.0190 
 19 C       -1.9020    -4.3790     0.0300 C.2   1 <1>  -0.1500 
 20 N       -3.2400    -6.1180     0.2200 N.2   1 <1>  -0.4100 
 21 C       -2.0260    -5.7240     0.3620 C.2   1 <1>   0.1080 
 22 C       -0.8930    -6.6120     0.8260 C.3   1 <1>  -0.0590 
 23 H       -1.9330     3.0070     1.4250 H     1 <1>   0.0800 
 24 H       -0.5580     2.7260     2.4430 H     1 <1>   0.0800 
 25 H       -2.9550     1.8010    -0.6100 H     1 <1>   0.0800 
 26 H       -1.5520     0.9450    -1.2410 H     1 <1>   0.0800 
 27 H       -1.5620    -1.6960     1.0730 H     1 <1>   0.0800 
 28 H       -3.2390    -1.3110     1.4170 H     1 <1>   0.0800 
 29 H       -3.3340    -0.2020    -2.3740 H     1 <1>   0.0800 
 30 H       -1.9150    -1.7780    -1.2300 H     1 <1>   0.0800 
 31 H        1.0950     0.9280     0.7810 H     1 <1>   0.1500 
 32 H       -1.0570     4.4430    -0.3310 H     1 <1>   0.1500 
 33 H       -4.6460     0.1140     0.1030 H     1 <1>   0.4000 
 34 H       -4.1040    -2.8510    -1.8020 H     1 <1>   0.0800 
 35 H       -4.6570    -2.5340    -0.1880 H     1 <1>   0.0800 
 36 H        0.5360     4.6700    -2.2160 H     1 <1>   0.1500 
 37 H        2.3020     3.0140    -2.5100 H     1 <1>   0.1500 
 38 H       -0.9950    -3.8060     0.0570 H     1 <1>   0.1500 
 39 H       -0.4740    -6.2210     1.7350 H     1 <1>   0.0800 
 40 H       -0.1300    -6.6540     0.0720 H     1 <1>   0.0800 
 41 H       -1.2580    -7.6060     1.0100 H     1 <1>   0.0800 
@<TRIPOS>BOND
  1   1   2  2   
  2   2   3  am  
  3   2   4  1   
  4   3   5  1   
  5   3   6  1   
  6   4   7  1   
  7   4  23  1   
  8   4  24  1   
  9   5   8  1   
 10   5  25  1   
 11   5  26  1   
 12   6   9  1   
 13   6  27  1   
 14   6  28  1   
 15   7  10  ar  
 16   7  11  ar  
 17   8   9  1   
 18   8  12  1   
 19   8  29  1   
 20   9  13  1   
 21   9  30  1   
 22  10  14  ar  
 23  10  31  1   
 24  11  15  ar  
 25  11  32  1   
 26  12  33  1   
 27  13  16  1   
 28  13  34  1   
 29  13  35  1   
 30  14  17  ar  
 31  15  17  ar  
 32  15  36  1   
 33  16  18  1   
 34  16  19  2   
 35  17  37  1   
 36  18  20  1   
 37  19  21  1   
 38  19  38  1   
 39  20  21  2   
 40  21  22  1   
 41  22  39  1   
 42  22  40  1   
 43  22  41  1   
@<TRIPOS>SUBSTRUCTURE
  1 ****   6 GROUP 4 **** **** 0

# MOE 2024.06 (io_trps.svl 2023.06)
