@<TRIPOS>MOLECULE
NONAME
47 51 1 0 0 
SMALL
USER_CHARGES


@<TRIPOS>ATOM
  1 O       -0.5940     1.7180     2.5600 O.2   1 <1>  -0.5700 
  2 C       -0.7420     1.9150     1.3750 C.2   1 <1>   0.5440 
  3 N       -0.4110     0.9090     0.5360 N.am  1 <1>  -0.8000 
  4 C       -1.3470     3.1360     0.9220 C.ar  1 <1>   0.0860 
  5 C       -0.8780     3.9100    -0.1740 C.ar  1 <1>   0.1000 
  6 C       -2.4850     3.5390     1.5970 C.ar  1 <1>   0.2110 
  7 N        0.3200     3.7660    -0.8020 N.pl3 1 <1>  -0.8690 
  8 C       -1.7100     4.9620    -0.6000 C.ar  1 <1>   0.0000 
  9 N       -3.2270     4.6020     1.2130 N.ar  1 <1>  -0.1260 
 10 C        1.6320     3.3330    -0.2450 C.3   1 <1>   0.2890 
 11 C       -2.8610     5.3050     0.0960 C.ar  1 <1>   0.1560 
 12 C       -1.6270     5.8860    -1.6680 C.2   1 <1>  -0.1500 
 13 C        2.0500     4.2350     0.9410 C.3   1 <1>  -0.0800 
 14 C        2.7070     3.4150    -1.3520 C.3   1 <1>  -0.0800 
 15 N       -3.4590     6.3690    -0.5030 N.pl3 1 <1>   0.0330 
 16 C       -2.6930     6.7170    -1.5830 C.2   1 <1>  -0.3020 
 17 C        2.2460     5.6970     0.4750 C.3   1 <1>  -0.1600 
 18 C        3.3890     3.7150     1.5070 C.3   1 <1>  -0.1600 
 19 C        2.9100     4.8770    -1.8180 C.3   1 <1>  -0.1600 
 20 C        4.0450     2.8980    -0.7790 C.3   1 <1>  -0.1600 
 21 C        3.3270     5.7360    -0.6160 C.3   1 <1>   0.2800 
 22 C        4.4820     3.7650     0.4190 C.3   1 <1>  -0.0800 
 23 O        3.4830     7.0310    -1.0410 O.3   1 <1>  -0.6800 
 24 C        4.6590     5.2240    -0.0500 C.3   1 <1>  -0.1600 
 25 H        0.0000     0.0510     0.9130 H     1 <1>   0.3700 
 26 H       -0.3640     1.0290    -0.4790 H     1 <1>   0.3700 
 27 H       -2.8100     2.9780     2.4610 H     1 <1>   0.1500 
 28 H        0.4880     4.3290    -1.6460 H     1 <1>   0.4000 
 29 H       -4.0620     4.8730     1.7440 H     1 <1>   0.4570 
 30 H        1.5740     2.3150     0.0890 H     1 <1>   0.0800 
 31 H       -0.8390     5.9010    -2.4040 H     1 <1>   0.1500 
 32 H        1.3060     4.1880     1.7150 H     1 <1>   0.0800 
 33 H        2.4180     2.7970    -2.1840 H     1 <1>   0.0800 
 34 H       -4.3200     6.8570    -0.2280 H     1 <1>   0.2700 
 35 H       -2.9520     7.5410    -2.2300 H     1 <1>   0.1500 
 36 H        2.5450     6.3020     1.3120 H     1 <1>   0.0800 
 37 H        1.3230     6.0900     0.0870 H     1 <1>   0.0800 
 38 H        3.6870     4.3140     2.3500 H     1 <1>   0.0800 
 39 H        3.2700     2.7040     1.8570 H     1 <1>   0.0800 
 40 H        2.0100     5.2710    -2.2510 H     1 <1>   0.0800 
 41 H        3.6800     4.9130    -2.5690 H     1 <1>   0.0800 
 42 H        3.9390     1.8730    -0.4670 H     1 <1>   0.0800 
 43 H        4.8040     2.9260    -1.5430 H     1 <1>   0.0800 
 44 H        5.4120     3.3960     0.8180 H     1 <1>   0.0800 
 45 H        3.8320     7.5740    -0.3120 H     1 <1>   0.4000 
 46 H        5.4200     5.2690    -0.8090 H     1 <1>   0.0800 
 47 H        4.9700     5.8320     0.7810 H     1 <1>   0.0800 
@<TRIPOS>BOND
  1   1   2  2   
  2   2   3  am  
  3   2   4  1   
  4   3  25  1   
  5   3  26  1   
  6   4   5  ar  
  7   4   6  ar  
  8   5   7  1   
  9   5   8  ar  
 10   6   9  ar  
 11   6  27  1   
 12   7  10  1   
 13   7  28  1   
 14   8  11  ar  
 15   8  12  1   
 16   9  11  ar  
 17   9  29  1   
 18  10  13  1   
 19  10  14  1   
 20  10  30  1   
 21  11  15  1   
 22  12  16  2   
 23  12  31  1   
 24  13  17  1   
 25  13  18  1   
 26  13  32  1   
 27  14  19  1   
 28  14  20  1   
 29  14  33  1   
 30  15  16  1   
 31  15  34  1   
 32  16  35  1   
 33  17  21  1   
 34  17  36  1   
 35  17  37  1   
 36  18  22  1   
 37  18  38  1   
 38  18  39  1   
 39  19  21  1   
 40  19  40  1   
 41  19  41  1   
 42  20  22  1   
 43  20  42  1   
 44  20  43  1   
 45  21  23  1   
 46  21  24  1   
 47  22  24  1   
 48  22  44  1   
 49  23  45  1   
 50  24  46  1   
 51  24  47  1   
@<TRIPOS>SUBSTRUCTURE
  1 ****   7 GROUP 4 **** **** 0

# MOE 2024.06 (io_trps.svl 2023.06)
