@<TRIPOS>MOLECULE
NONAME
40 41 1 0 0 
SMALL
USER_CHARGES


@<TRIPOS>ATOM
  1 S        0.2040     0.3150    -0.7270 S.3   1 <1>  -0.4600 
  2 C        0.5890     1.7720     0.2860 C.3   1 <1>   0.0700 
  3 C       -0.1830    -0.9560     0.5060 C.3   1 <1>  -0.0100 
  4 C        0.9160     2.9360    -0.6460 C.3   1 <1>   0.2090 
  5 N        1.2740     4.1250     0.1620 N.pl3 1 <1>  -0.8690 
  6 C        2.5240     4.6650     0.1390 C.ar  1 <1>   0.4100 
  7 N        2.5540     5.9500     0.0420 N.ar  1 <1>  -0.6200 
  8 C        3.6760     3.8730     0.2200 C.ar  1 <1>  -0.1500 
  9 C        3.7680     6.5660     0.0020 C.ar  1 <1>   0.3100 
 10 C        4.9140     4.4340     0.1830 C.ar  1 <1>  -0.1430 
 11 C        5.0010     5.8540     0.0630 C.ar  1 <1>   0.0000 
 12 C        3.7840     7.9840    -0.1070 C.ar  1 <1>   0.0830 
 13 C        6.1140     3.4980     0.2780 C.3   1 <1>  -0.0970 
 14 C        6.2080     6.6110     0.0020 C.ar  1 <1>   0.0830 
 15 O        2.5820     8.6370    -0.1600 O.3   1 <1>  -0.3630 
 16 C        4.9730     8.6710    -0.1590 C.ar  1 <1>  -0.1500 
 17 O        7.3980     5.9530     0.0510 O.3   1 <1>  -0.3620 
 18 C        6.1790     7.9840    -0.1050 C.ar  1 <1>  -0.1500 
 19 C        2.4810    10.0420    -0.2040 C.3   1 <1>   0.0400 
 20 C        8.6490     6.6040     0.0070 C.3   1 <1>   0.0400 
 21 H        1.4310     1.5210     0.9050 H     1 <1>   0.0800 
 22 H       -0.2750     1.9870     0.8870 H     1 <1>   0.0800 
 23 H       -0.4220    -1.8610    -0.0220 H     1 <1>   0.0800 
 24 H       -1.0240    -0.6160     1.0820 H     1 <1>   0.0800 
 25 H        0.6840    -1.0920     1.1270 H     1 <1>   0.0800 
 26 H        0.0600     3.1640    -1.2560 H     1 <1>   0.0800 
 27 H        1.7330     2.6680    -1.2940 H     1 <1>   0.0800 
 28 H        0.5850     4.8810     0.1030 H     1 <1>   0.4000 
 29 H        3.5410     2.8140     0.3170 H     1 <1>   0.1500 
 30 H        5.8050     2.4730     0.3720 H     1 <1>   0.0800 
 31 H        6.7080     3.7460     1.1390 H     1 <1>   0.0800 
 32 H        6.7180     3.5820    -0.6080 H     1 <1>   0.0800 
 33 H        5.0130     9.7400    -0.2430 H     1 <1>   0.1500 
 34 H        7.0740     8.5730    -0.1510 H     1 <1>   0.1500 
 35 H        1.4370    10.2990    -0.2120 H     1 <1>   0.0800 
 36 H        2.9500    10.3980    -1.1040 H     1 <1>   0.0800 
 37 H        2.9510    10.4540     0.6710 H     1 <1>   0.0800 
 38 H        9.4170     5.8530     0.0660 H     1 <1>   0.0800 
 39 H        8.7270     7.2700     0.8480 H     1 <1>   0.0800 
 40 H        8.7330     7.1380    -0.9220 H     1 <1>   0.0800 
@<TRIPOS>BOND
  1   1   2  1   
  2   1   3  1   
  3   2   4  1   
  4   2  21  1   
  5   2  22  1   
  6   3  23  1   
  7   3  24  1   
  8   3  25  1   
  9   4   5  1   
 10   4  26  1   
 11   4  27  1   
 12   5   6  1   
 13   5  28  1   
 14   6   7  ar  
 15   6   8  ar  
 16   7   9  ar  
 17   8  10  ar  
 18   8  29  1   
 19   9  11  ar  
 20   9  12  ar  
 21  10  11  ar  
 22  10  13  1   
 23  11  14  ar  
 24  12  15  1   
 25  12  16  ar  
 26  13  30  1   
 27  13  31  1   
 28  13  32  1   
 29  14  17  1   
 30  14  18  ar  
 31  15  19  1   
 32  16  18  ar  
 33  16  33  1   
 34  17  20  1   
 35  18  34  1   
 36  19  35  1   
 37  19  36  1   
 38  19  37  1   
 39  20  38  1   
 40  20  39  1   
 41  20  40  1   
@<TRIPOS>SUBSTRUCTURE
  1 ****   9 GROUP 4 **** **** 0

# MOE 2024.06 (io_trps.svl 2023.06)
