@<TRIPOS>MOLECULE
NONAME
58 61 1 0 0 
SMALL
USER_CHARGES


@<TRIPOS>ATOM
  1 O       -1.3940    -0.5960    -1.6980 O.3   1 <1>  -0.6800 
  2 C       -1.8610    -1.5260    -0.7830 C.3   1 <1>   0.2000 
  3 C       -2.5820    -2.6680    -1.5230 C.3   1 <1>   0.2090 
  4 C       -2.8120    -0.8010     0.1740 C.3   1 <1>  -0.1600 
  5 N       -3.2100    -3.6190    -0.5450 N.pl3 1 <1>  -0.8380 
  6 C       -3.4960    -1.8030     1.1190 C.3   1 <1>  -0.1600 
  7 C       -3.0460    -4.9690    -0.5560 C.ar  1 <1>   0.4100 
  8 C       -4.1930    -2.9370     0.3560 C.3   1 <1>   0.2090 
  9 N       -4.0490    -5.7120    -0.1250 N.ar  1 <1>  -0.6200 
 10 C       -1.8480    -5.5590    -1.0110 C.ar  1 <1>  -0.1500 
 11 C       -3.9130    -7.0200    -0.1640 C.ar  1 <1>   0.7710 
 12 C       -1.7390    -6.9090    -1.0320 C.ar  1 <1>   0.2110 
 13 N       -2.8010    -7.6310    -0.6030 N.ar  1 <1>  -0.1790 
 14 N       -4.9550    -7.7340     0.2610 N.pl3 1 <1>  -0.8690 
 15 C       -5.2710    -9.1880     0.2370 C.3   1 <1>   0.2090 
 16 C       -6.7930    -9.5050     0.2150 C.3   1 <1>   0.1430 
 17 C       -6.8530   -11.0500     0.3250 C.ar  1 <1>  -0.1430 
 18 C       -7.5300    -8.8670     1.4360 C.3   1 <1>  -0.1600 
 19 C       -7.4360    -8.9980    -1.1090 C.3   1 <1>  -0.1600 
 20 C       -6.4930   -11.6620     1.5250 C.ar  1 <1>  -0.1500 
 21 C       -7.2230   -11.8790    -0.7320 C.ar  1 <1>  -0.1500 
 22 C       -8.5740    -7.7840     1.1050 C.3   1 <1>  -0.1600 
 23 C       -7.6280    -7.4720    -1.2390 C.3   1 <1>  -0.1600 
 24 C       -6.5040   -13.0380     1.6660 C.ar  1 <1>  -0.1500 
 25 C       -7.2350   -13.2560    -0.5940 C.ar  1 <1>  -0.1500 
 26 C       -8.0690    -6.7830     0.0630 C.3   1 <1>  -0.1600 
 27 C       -6.8750   -13.8390     0.6050 C.ar  1 <1>  -0.1500 
 28 H       -0.6020    -0.9250    -2.1640 H     1 <1>   0.4000 
 29 H       -1.0170    -1.9150    -0.2400 H     1 <1>   0.0800 
 30 H       -1.8940    -3.1750    -2.1730 H     1 <1>   0.0800 
 31 H       -3.3630    -2.2440    -2.1320 H     1 <1>   0.0800 
 32 H       -3.5650    -0.2860    -0.3970 H     1 <1>   0.0800 
 33 H       -2.2620    -0.0770     0.7490 H     1 <1>   0.0800 
 34 H       -4.2210    -1.2870     1.7220 H     1 <1>   0.0800 
 35 H       -2.7670    -2.2320     1.7830 H     1 <1>   0.0800 
 36 H       -4.6120    -3.6270     1.0670 H     1 <1>   0.0800 
 37 H       -4.9990    -2.5390    -0.2370 H     1 <1>   0.0800 
 38 H       -1.0360    -4.9300    -1.3190 H     1 <1>   0.1500 
 39 H       -0.8500    -7.4210    -1.3660 H     1 <1>   0.1500 
 40 H       -2.8080    -8.6450    -0.5720 H     1 <1>   0.4570 
 41 H       -5.7590    -7.1670     0.5580 H     1 <1>   0.4000 
 42 H       -4.8360    -9.6360     1.1130 H     1 <1>   0.0800 
 43 H       -4.8200    -9.6470    -0.6260 H     1 <1>   0.0800 
 44 H       -6.8130    -8.4550     2.1240 H     1 <1>   0.0800 
 45 H       -8.0630    -9.6280     1.9780 H     1 <1>   0.0800 
 46 H       -8.4160    -9.4390    -1.1830 H     1 <1>   0.0800 
 47 H       -6.8680    -9.3420    -1.9550 H     1 <1>   0.0800 
 48 H       -6.2000   -11.0730     2.3760 H     1 <1>   0.1500 
 49 H       -7.5120   -11.4880    -1.6900 H     1 <1>   0.1500 
 50 H       -8.8510    -7.2620     2.0050 H     1 <1>   0.0800 
 51 H       -9.4640    -8.2580     0.7260 H     1 <1>   0.0800 
 52 H       -8.3790    -7.2980    -1.9920 H     1 <1>   0.0800 
 53 H       -6.7260    -7.0100    -1.5980 H     1 <1>   0.0800 
 54 H       -6.2260   -13.4870     2.6050 H     1 <1>   0.1500 
 55 H       -7.5280   -13.8780    -1.4230 H     1 <1>   0.1500 
 56 H       -7.2540    -6.2170     0.4780 H     1 <1>   0.0800 
 57 H       -8.8530    -6.0790    -0.1590 H     1 <1>   0.0800 
 58 H       -6.8870   -14.9100     0.7120 H     1 <1>   0.1500 
@<TRIPOS>BOND
  1   1   2  1   
  2   1  28  1   
  3   2   3  1   
  4   2   4  1   
  5   2  29  1   
  6   3   5  1   
  7   3  30  1   
  8   3  31  1   
  9   4   6  1   
 10   4  32  1   
 11   4  33  1   
 12   5   7  1   
 13   5   8  1   
 14   6   8  1   
 15   6  34  1   
 16   6  35  1   
 17   7   9  ar  
 18   7  10  ar  
 19   8  36  1   
 20   8  37  1   
 21   9  11  ar  
 22  10  12  ar  
 23  10  38  1   
 24  11  13  ar  
 25  11  14  1   
 26  12  13  ar  
 27  12  39  1   
 28  13  40  1   
 29  14  15  1   
 30  14  41  1   
 31  15  16  1   
 32  15  42  1   
 33  15  43  1   
 34  16  17  1   
 35  16  18  1   
 36  16  19  1   
 37  17  20  ar  
 38  17  21  ar  
 39  18  22  1   
 40  18  44  1   
 41  18  45  1   
 42  19  23  1   
 43  19  46  1   
 44  19  47  1   
 45  20  24  ar  
 46  20  48  1   
 47  21  25  ar  
 48  21  49  1   
 49  22  26  1   
 50  22  50  1   
 51  22  51  1   
 52  23  26  1   
 53  23  52  1   
 54  23  53  1   
 55  24  27  ar  
 56  24  54  1   
 57  25  27  ar  
 58  25  55  1   
 59  26  56  1   
 60  26  57  1   
 61  27  58  1   
@<TRIPOS>SUBSTRUCTURE
  1 ****  14 GROUP 4 **** **** 0

# MOE 2024.06 (io_trps.svl 2023.06)
