@<TRIPOS>MOLECULE
NONAME
40 42 1 0 0 
SMALL
USER_CHARGES


@<TRIPOS>ATOM
  1 O        0.8410    -0.2250     1.6540 O.2   1 <1>  -0.5700 
  2 C        1.7190    -0.7740     1.0110 C.2   1 <1>   0.7150 
  3 N        2.8080    -0.0280     0.6190 N.am  1 <1>  -0.6600 
  4 C        1.5950    -2.1640     0.6450 C.2   1 <1>  -0.2370 
  5 C        2.9940     1.3960     0.9980 C.3   1 <1>   0.1400 
  6 C        3.6420    -0.3500    -0.5630 C.3   1 <1>   0.1400 
  7 N        0.4040    -2.7720     0.3280 N.pl3 1 <1>   0.0480 
  8 C        2.5770    -3.1200     0.5530 C.2   1 <1>  -0.1500 
  9 C        3.4900     2.0590    -0.2790 C.3   1 <1>   0.1760 
 10 C        4.3000     0.9650    -0.9800 C.3   1 <1>  -0.1600 
 11 C        0.6570    -4.0700     0.0310 C.2   1 <1>  -0.3020 
 12 C       -0.9360    -2.1530     0.3110 C.3   1 <1>   0.0160 
 13 C        1.9860    -4.3160     0.1610 C.2   1 <1>  -0.1500 
 14 N        4.2770     3.2890    -0.0040 N.pl3 1 <1>   0.3140 
 15 N        5.3640     3.2810     0.7980 N.2   1 <1>  -0.7070 
 16 C        4.0420     4.5330    -0.4860 C.2   1 <1>  -0.3320 
 17 C        5.7870     4.5030     0.8060 C.2   1 <1>   0.1080 
 18 C        5.0010     5.3360     0.0210 C.2   1 <1>  -0.1500 
 19 C        2.9050     4.9210    -1.4180 C.3   1 <1>  -0.0600 
 20 C        7.0010     4.9330     1.5940 C.3   1 <1>  -0.0590 
 21 H        3.7400     1.4520     1.7740 H     1 <1>   0.0800 
 22 H        2.0780     1.8460     1.3380 H     1 <1>   0.0800 
 23 H        3.0160    -0.7320    -1.3530 H     1 <1>   0.0800 
 24 H        4.3880    -1.0820    -0.3080 H     1 <1>   0.0800 
 25 H        3.6260    -2.9930     0.7550 H     1 <1>   0.1500 
 26 H        2.6370     2.3120    -0.8780 H     1 <1>   0.0800 
 27 H        4.3000     1.0860    -2.0480 H     1 <1>   0.0800 
 28 H        5.3160     0.9670    -0.6230 H     1 <1>   0.0800 
 29 H       -0.1170    -4.7600    -0.2530 H     1 <1>   0.1500 
 30 H       -0.9110    -1.2660    -0.2940 H     1 <1>   0.0800 
 31 H       -1.2150    -1.8920     1.3160 H     1 <1>   0.0800 
 32 H       -1.6510    -2.8450    -0.0930 H     1 <1>   0.0800 
 33 H        2.5010    -5.2480     0.0020 H     1 <1>   0.1500 
 34 H        5.1510     6.3890    -0.1300 H     1 <1>   0.1500 
 35 H        2.9730     4.3680    -2.3380 H     1 <1>   0.0800 
 36 H        2.9580     5.9700    -1.6460 H     1 <1>   0.0800 
 37 H        1.9570     4.7210    -0.9520 H     1 <1>   0.0800 
 38 H        7.8570     4.3750     1.2630 H     1 <1>   0.0800 
 39 H        6.8380     4.7370     2.6370 H     1 <1>   0.0800 
 40 H        7.1880     5.9820     1.4560 H     1 <1>   0.0800 
@<TRIPOS>BOND
  1   1   2  2   
  2   2   3  am  
  3   2   4  1   
  4   3   5  1   
  5   3   6  1   
  6   4   7  1   
  7   4   8  2   
  8   5   9  1   
  9   5  21  1   
 10   5  22  1   
 11   6  10  1   
 12   6  23  1   
 13   6  24  1   
 14   7  11  1   
 15   7  12  1   
 16   8  13  1   
 17   8  25  1   
 18   9  10  1   
 19   9  14  1   
 20   9  26  1   
 21  10  27  1   
 22  10  28  1   
 23  11  13  2   
 24  11  29  1   
 25  12  30  1   
 26  12  31  1   
 27  12  32  1   
 28  13  33  1   
 29  14  15  1   
 30  14  16  1   
 31  15  17  2   
 32  16  18  2   
 33  16  19  1   
 34  17  18  1   
 35  17  20  1   
 36  18  34  1   
 37  19  35  1   
 38  19  36  1   
 39  19  37  1   
 40  20  38  1   
 41  20  39  1   
 42  20  40  1   
@<TRIPOS>SUBSTRUCTURE
  1 ****   3 GROUP 4 **** **** 0

# MOE 2024.06 (io_trps.svl 2023.06)
