@<TRIPOS>MOLECULE
NONAME
52 55 1 0 0 
SMALL
USER_CHARGES


@<TRIPOS>ATOM
  1 O       -2.0890     0.0600    -0.7000 O.2   1 <1>  -0.5700 
  2 C       -2.3570     1.1550    -1.1590 C.2   1 <1>   0.7160 
  3 N       -3.6410     1.3220    -1.6160 N.am  1 <1>  -0.6600 
  4 C       -1.4350     2.2520    -1.1460 C.2   1 <1>  -0.0860 
  5 C       -4.6240     1.8930    -0.6430 C.3   1 <1>   0.1400 
  6 C       -4.2420     0.2280    -2.4520 C.3   1 <1>   0.1400 
  7 C       -0.3080     2.4860    -0.4160 C.2   1 <1>   0.0870 
  8 C       -1.5510     3.4100    -1.9150 C.2   1 <1>   0.1390 
  9 C       -5.1660     0.8020     0.3250 C.3   1 <1>   0.4230 
 10 C       -5.0680    -0.7740    -1.6060 C.3   1 <1>   0.3430 
 11 O        0.1240     3.6740    -0.7570 O.3   1 <1>  -0.0190 
 12 C        0.3950     1.7300     0.5880 C.ar  1 <1>   0.0530 
 13 N       -0.6130     4.2440    -1.6600 N.2   1 <1>  -0.4100 
 14 N       -4.8050    -0.5980    -0.1330 N.4   1 <1>  -0.9590 
 15 C       -6.6930     0.9420     0.5250 C.3   1 <1>   0.1200 
 16 C        0.7300     0.3890     0.4060 C.ar  1 <1>  -0.1500 
 17 C        0.7760     2.3330     1.7870 C.ar  1 <1>  -0.1500 
 18 C       -5.4150    -1.6230     0.7760 C.3   1 <1>   0.4230 
 19 O       -7.1770    -0.0630     1.3690 O.3   1 <1>  -0.5600 
 20 C        1.3990    -0.3250     1.3830 C.ar  1 <1>  -0.1500 
 21 C        1.4460     1.6250     2.7670 C.ar  1 <1>  -0.1500 
 22 C       -6.9340    -1.3770     0.9450 C.3   1 <1>   0.1200 
 23 C       -5.0850    -3.0440     0.2920 C.3   1 <1>  -0.1600 
 24 C        1.7570     0.2920     2.5680 C.ar  1 <1>  -0.1500 
 25 C       -5.3680    -4.1090     1.3620 C.3   1 <1>  -0.1600 
 26 C       -4.9540    -5.4990     0.8720 C.3   1 <1>  -0.2400 
 27 H       -4.1600     2.6770    -0.0670 H     1 <1>   0.0800 
 28 H       -5.4340     2.3420    -1.1920 H     1 <1>   0.0800 
 29 H       -4.8660     0.6570    -3.2170 H     1 <1>   0.0800 
 30 H       -3.4530    -0.3110    -2.9530 H     1 <1>   0.0800 
 31 H       -2.3280     3.5930    -2.6370 H     1 <1>   0.1500 
 32 H       -4.7100     0.9700     1.2870 H     1 <1>   0.0800 
 33 H       -4.8110    -1.7740    -1.9150 H     1 <1>   0.0800 
 34 H       -6.1160    -0.6300    -1.8080 H     1 <1>   0.0800 
 35 H       -3.7690    -0.6560    -0.0450 H     1 <1>   0.4500 
 36 H       -7.2200     0.8850    -0.4120 H     1 <1>   0.0800 
 37 H       -6.9210     1.8870     0.9870 H     1 <1>   0.0800 
 38 H        0.4680    -0.1010    -0.5150 H     1 <1>   0.1500 
 39 H        0.5430     3.3710     1.9490 H     1 <1>   0.1500 
 40 H       -4.9710    -1.5090     1.7520 H     1 <1>   0.0800 
 41 H        1.6460    -1.3600     1.2210 H     1 <1>   0.1500 
 42 H        1.7290     2.1110     3.6860 H     1 <1>   0.1500 
 43 H       -7.3360    -2.0320     1.6980 H     1 <1>   0.0800 
 44 H       -7.4650    -1.5500     0.0260 H     1 <1>   0.0800 
 45 H       -5.6580    -3.2820    -0.5870 H     1 <1>   0.0800 
 46 H       -4.0380    -3.0930     0.0460 H     1 <1>   0.0800 
 47 H        2.2790    -0.2610     3.3300 H     1 <1>   0.1500 
 48 H       -4.8210    -3.8820     2.2630 H     1 <1>   0.0800 
 49 H       -6.4170    -4.1330     1.6070 H     1 <1>   0.0800 
 50 H       -3.9010    -5.5280     0.6510 H     1 <1>   0.0800 
 51 H       -5.5010    -5.7710    -0.0140 H     1 <1>   0.0800 
 52 H       -5.1580    -6.2330     1.6320 H     1 <1>   0.0800 
@<TRIPOS>BOND
  1   1   2  2   
  2   2   3  am  
  3   2   4  1   
  4   3   5  1   
  5   3   6  1   
  6   4   7  2   
  7   4   8  1   
  8   5   9  1   
  9   5  27  1   
 10   5  28  1   
 11   6  10  1   
 12   6  29  1   
 13   6  30  1   
 14   7  11  1   
 15   7  12  1   
 16   8  13  2   
 17   8  31  1   
 18   9  14  1   
 19   9  15  1   
 20   9  32  1   
 21  10  14  1   
 22  10  33  1   
 23  10  34  1   
 24  11  13  1   
 25  12  16  ar  
 26  12  17  ar  
 27  14  18  1   
 28  14  35  1   
 29  15  19  1   
 30  15  36  1   
 31  15  37  1   
 32  16  20  ar  
 33  16  38  1   
 34  17  21  ar  
 35  17  39  1   
 36  18  22  1   
 37  18  23  1   
 38  18  40  1   
 39  19  22  1   
 40  20  24  ar  
 41  20  41  1   
 42  21  24  ar  
 43  21  42  1   
 44  22  43  1   
 45  22  44  1   
 46  23  25  1   
 47  23  45  1   
 48  23  46  1   
 49  24  47  1   
 50  25  26  1   
 51  25  48  1   
 52  25  49  1   
 53  26  50  1   
 54  26  51  1   
 55  26  52  1   
@<TRIPOS>SUBSTRUCTURE
  1 ****   1 GROUP 4 **** **** 0

# MOE 2024.06 (io_trps.svl 2023.06)
