@<TRIPOS>MOLECULE
NONAME
45 47 1 0 0 
SMALL
USER_CHARGES


@<TRIPOS>ATOM
  1 F       -0.6200     1.4590     2.1660 F     1 <1>  -0.1900 
  2 C       -0.2570     2.4130     1.3530 C.ar  1 <1>   0.1900 
  3 C        0.9500     3.0470     1.5730 C.ar  1 <1>  -0.1500 
  4 C       -1.0880     2.7520     0.3060 C.ar  1 <1>  -0.1500 
  5 C        1.3490     4.0630     0.7130 C.ar  1 <1>  -0.1440 
  6 C       -0.6930     3.7660    -0.5470 C.ar  1 <1>  -0.1500 
  7 C        0.5160     4.4220    -0.3490 C.ar  1 <1>  -0.1430 
  8 C        2.6890     4.7460     0.9580 C.3   1 <1>   0.5670 
  9 C        0.8910     5.5480    -1.3050 C.3   1 <1>  -0.0170 
 10 N        2.6760     6.0890     0.3260 N.4   1 <1>  -0.9590 
 11 C        3.8300     3.8790     0.4210 C.3   1 <1>  -0.2400 
 12 C        2.3310     6.0340    -1.1270 C.3   1 <1>   0.3430 
 13 C        3.8880     6.8960     0.6020 C.3   1 <1>   0.5240 
 14 C        3.5790     8.3150     0.1940 C.2   1 <1>  -0.1810 
 15 C        4.1330     9.0110    -0.8760 C.2   1 <1>   0.1080 
 16 C        2.7100     9.1860     0.7570 C.2   1 <1>  -0.3020 
 17 N        3.6400    10.2000    -0.9790 N.2   1 <1>  -0.7070 
 18 C        5.1880     8.5170    -1.8440 C.3   1 <1>  -0.0590 
 19 N        2.7660    10.3210     0.0320 N.pl3 1 <1>   0.3140 
 20 C        2.0210    11.5690     0.2650 C.3   1 <1>   0.0960 
 21 C        2.9530    12.6150     0.8730 C.3   1 <1>   0.1200 
 22 O        2.2250    13.7650     1.1410 O.3   1 <1>  -0.6800 
 23 H        1.5530     2.7330     2.4070 H     1 <1>   0.1500 
 24 H       -2.0210     2.2330     0.1680 H     1 <1>   0.1500 
 25 H       -1.3380     4.0410    -1.3650 H     1 <1>   0.1500 
 26 H        2.8170     4.8620     2.0230 H     1 <1>   0.0800 
 27 H        0.2230     6.3760    -1.1470 H     1 <1>   0.0800 
 28 H        0.7600     5.2210    -2.3220 H     1 <1>   0.0800 
 29 H        1.9030     6.5970     0.7700 H     1 <1>   0.4500 
 30 H        3.7120     3.6760    -0.6280 H     1 <1>   0.0800 
 31 H        3.8160     2.9320     0.9300 H     1 <1>   0.0800 
 32 H        4.7900     4.3240     0.6030 H     1 <1>   0.0800 
 33 H        2.4270     7.0100    -1.5770 H     1 <1>   0.0800 
 34 H        3.0020     5.3630    -1.6370 H     1 <1>   0.0800 
 35 H        4.7320     6.5200     0.0460 H     1 <1>   0.0800 
 36 H        4.1240     6.8720     1.6530 H     1 <1>   0.0800 
 37 H        2.0680     9.0840     1.6130 H     1 <1>   0.1500 
 38 H        5.1120     7.4590    -2.0020 H     1 <1>   0.0800 
 39 H        6.1640     8.7540    -1.4630 H     1 <1>   0.0800 
 40 H        5.0670     9.0150    -2.7910 H     1 <1>   0.0800 
 41 H        1.2050    11.3690     0.9340 H     1 <1>   0.0800 
 42 H        1.6420    11.9140    -0.6780 H     1 <1>   0.0800 
 43 H        3.7550    12.8650     0.1990 H     1 <1>   0.0800 
 44 H        3.3590    12.2620     1.8060 H     1 <1>   0.0800 
 45 H        2.0760    14.2850     0.3250 H     1 <1>   0.4000 
@<TRIPOS>BOND
  1   1   2  1   
  2   2   3  ar  
  3   2   4  ar  
  4   3   5  ar  
  5   3  23  1   
  6   4   6  ar  
  7   4  24  1   
  8   5   7  ar  
  9   5   8  1   
 10   6   7  ar  
 11   6  25  1   
 12   7   9  1   
 13   8  10  1   
 14   8  11  1   
 15   8  26  1   
 16   9  12  1   
 17   9  27  1   
 18   9  28  1   
 19  10  12  1   
 20  10  13  1   
 21  10  29  1   
 22  11  30  1   
 23  11  31  1   
 24  11  32  1   
 25  12  33  1   
 26  12  34  1   
 27  13  14  1   
 28  13  35  1   
 29  13  36  1   
 30  14  15  1   
 31  14  16  2   
 32  15  17  2   
 33  15  18  1   
 34  16  19  1   
 35  16  37  1   
 36  17  19  1   
 37  18  38  1   
 38  18  39  1   
 39  18  40  1   
 40  19  20  1   
 41  20  21  1   
 42  20  41  1   
 43  20  42  1   
 44  21  22  1   
 45  21  43  1   
 46  21  44  1   
 47  22  45  1   
@<TRIPOS>SUBSTRUCTURE
  1 ****  10 GROUP 4 **** **** 0

# MOE 2024.06 (io_trps.svl 2023.06)
