@<TRIPOS>MOLECULE
NONAME
40 41 1 0 0 
SMALL
USER_CHARGES


@<TRIPOS>ATOM
  1 S        0.2970    -0.0520    -0.5600 S.o2  1 <1>   1.3330 
  2 O       -0.3590    -0.1610    -1.8440 O.2   1 <1>  -0.6500 
  3 O        1.7400    -0.0060    -0.4950 O.2   1 <1>  -0.6500 
  4 N       -0.2270    -1.3390     0.4150 N.am  1 <1>  -0.8490 
  5 C       -0.3750     1.3850     0.2700 C.3   1 <1>  -0.0550 
  6 C       -0.3570    -2.5880    -0.3400 C.3   1 <1>   0.1160 
  7 C        0.6170    -1.5560     1.5960 C.3   1 <1>   0.1160 
  8 C       -0.1170     2.7010    -0.4900 C.3   1 <1>  -0.0800 
  9 C       -0.7990     3.9260     0.1250 C.3   1 <1>   0.2000 
 10 C        1.3640     3.0970    -0.5820 C.3   1 <1>   0.1400 
 11 O       -0.6070     3.9100     1.4990 O.3   1 <1>  -0.6800 
 12 C       -0.0150     5.1020    -0.4520 C.3   1 <1>   0.1400 
 13 N        1.3680     4.5820    -0.5990 N.am  1 <1>  -0.6600 
 14 C        2.5230     5.3350    -0.6930 C.2   1 <1>   0.7160 
 15 O        3.5790     4.7300    -0.6160 O.2   1 <1>  -0.5700 
 16 C        2.5300     6.7870    -0.8640 C.2   1 <1>   0.1410 
 17 N        1.4670     7.5280    -1.3210 N.2   1 <1>  -0.5650 
 18 C        3.5450     7.6600    -0.6340 C.2   1 <1>  -0.0400 
 19 C        1.9080     8.7300    -1.3320 C.2   1 <1>   0.3280 
 20 O        3.1440     8.8600    -0.9280 O.3   1 <1>  -0.2800 
 21 C        4.9670     7.5000    -0.1270 C.3   1 <1>  -0.0600 
 22 H       -1.4340     1.2540     0.3750 H     1 <1>   0.0800 
 23 H        0.0420     1.4500     1.2560 H     1 <1>   0.0800 
 24 H       -0.7070    -3.3780     0.3020 H     1 <1>   0.0800 
 25 H        0.5920    -2.8700    -0.7650 H     1 <1>   0.0800 
 26 H       -1.0700    -2.4640    -1.1380 H     1 <1>   0.0800 
 27 H        0.1900    -2.3240     2.2180 H     1 <1>   0.0800 
 28 H        0.6880    -0.6520     2.1740 H     1 <1>   0.0800 
 29 H        1.6090    -1.8560     1.3000 H     1 <1>   0.0800 
 30 H       -0.4850     2.5920    -1.4960 H     1 <1>   0.0800 
 31 H       -1.8560     3.9780    -0.0760 H     1 <1>   0.0800 
 32 H        1.8250     2.7050    -1.4740 H     1 <1>   0.0800 
 33 H        1.9150     2.7530     0.2780 H     1 <1>   0.0800 
 34 H        0.3370     4.0920     1.6840 H     1 <1>   0.4000 
 35 H       -0.0590     5.9630     0.1930 H     1 <1>   0.0800 
 36 H       -0.3960     5.3610    -1.4250 H     1 <1>   0.0800 
 37 H        1.3690     9.6120    -1.6340 H     1 <1>   0.1500 
 38 H        5.1770     6.4820     0.1450 H     1 <1>   0.0800 
 39 H        5.1150     8.1210     0.7370 H     1 <1>   0.0800 
 40 H        5.6590     7.8000    -0.8920 H     1 <1>   0.0800 
@<TRIPOS>BOND
  1   1   2  2   
  2   1   3  2   
  3   1   4  am  
  4   1   5  1   
  5   4   6  1   
  6   4   7  1   
  7   5   8  1   
  8   5  22  1   
  9   5  23  1   
 10   6  24  1   
 11   6  25  1   
 12   6  26  1   
 13   7  27  1   
 14   7  28  1   
 15   7  29  1   
 16   8   9  1   
 17   8  10  1   
 18   8  30  1   
 19   9  11  1   
 20   9  12  1   
 21   9  31  1   
 22  10  13  1   
 23  10  32  1   
 24  10  33  1   
 25  11  34  1   
 26  12  13  1   
 27  12  35  1   
 28  12  36  1   
 29  13  14  am  
 30  14  15  2   
 31  14  16  1   
 32  16  17  1   
 33  16  18  2   
 34  17  19  2   
 35  18  20  1   
 36  18  21  1   
 37  19  20  1   
 38  19  37  1   
 39  21  38  1   
 40  21  39  1   
 41  21  40  1   
@<TRIPOS>SUBSTRUCTURE
  1 ****  10 GROUP 4 **** **** 0

# MOE 2024.06 (io_trps.svl 2023.06)
