@<TRIPOS>MOLECULE
NONAME
50 54 1 0 0 
SMALL
USER_CHARGES


@<TRIPOS>ATOM
  1 S        1.0670    -0.2880     0.4820 S.3   1 <1>  -0.0800 
  2 C        0.5280     1.3700     0.3300 C.2   1 <1>  -0.1400 
  3 C        2.7390     0.2170     0.2830 C.2   1 <1>  -0.1100 
  4 C        1.5520     2.2160     0.1580 C.2   1 <1>  -0.1810 
  5 C       -0.9250     1.7590     0.3860 C.3   1 <1>   0.0200 
  6 C        2.8240     1.5530     0.1240 C.2   1 <1>  -0.1500 
  7 C        1.3140     3.7210     0.0200 C.3   1 <1>   0.4610 
  8 C       -1.0400     3.1700    -0.2160 C.3   1 <1>   0.1200 
  9 O       -0.0430     4.0250     0.2930 O.3   1 <1>  -0.5600 
 10 C        1.6630     4.2100    -1.3930 C.3   1 <1>  -0.1600 
 11 C        2.1310     4.4870     1.0660 C.3   1 <1>  -0.1600 
 12 C        1.4970     5.7250    -1.5210 C.3   1 <1>   0.1400 
 13 C        1.9740     6.0010     0.9140 C.3   1 <1>   0.1400 
 14 N        2.3250     6.3960    -0.4800 N.am  1 <1>  -0.6600 
 15 C        3.3580     7.2520    -0.8070 C.2   1 <1>   0.7160 
 16 O        3.6520     7.4140    -1.9750 O.2   1 <1>  -0.5700 
 17 C        4.0990     7.9430     0.2090 C.2   1 <1>  -0.0860 
 18 C        5.4340     7.7570     0.5580 C.2   1 <1>   0.2350 
 19 C        3.7170     8.9210     1.0520 C.2   1 <1>  -0.0400 
 20 N        5.7290     8.5680     1.5210 N.2   1 <1>  -0.4100 
 21 C        6.3760     6.8210    -0.0300 C.ar  1 <1>   0.0540 
 22 O        4.6870     9.2950     1.8450 O.3   1 <1>  -0.0190 
 23 C        2.3740     9.6130     1.1840 C.3   1 <1>  -0.0600 
 24 C        7.7140     7.1810    -0.1840 C.ar  1 <1>  -0.1500 
 25 C        6.0070     5.5420    -0.4490 C.ar  1 <1>  -0.1500 
 26 C        8.6390     6.3150    -0.7370 C.ar  1 <1>  -0.1500 
 27 C        6.9260     4.6700    -1.0050 C.ar  1 <1>  -0.1500 
 28 C        8.2460     5.0560    -1.1510 C.ar  1 <1>  -0.1500 
 29 H        3.4900    -0.5510     0.3070 H     1 <1>   0.1500 
 30 H       -1.2670     1.7580     1.4040 H     1 <1>   0.0800 
 31 H       -1.5210     1.0700    -0.1840 H     1 <1>   0.0800 
 32 H        3.7390     2.1000    -0.0170 H     1 <1>   0.1500 
 33 H       -1.9970     3.5980     0.0260 H     1 <1>   0.0800 
 34 H       -0.9430     3.1290    -1.2860 H     1 <1>   0.0800 
 35 H        1.0540     3.7080    -2.1200 H     1 <1>   0.0800 
 36 H        2.6850     3.9610    -1.6130 H     1 <1>   0.0800 
 37 H        3.1710     4.2380     0.9720 H     1 <1>   0.0800 
 38 H        1.8150     4.1840     2.0480 H     1 <1>   0.0800 
 39 H        0.4640     5.9950    -1.3780 H     1 <1>   0.0800 
 40 H        1.7870     6.0390    -2.5090 H     1 <1>   0.0800 
 41 H        2.6020     6.4950     1.6340 H     1 <1>   0.0800 
 42 H        0.9540     6.2840     1.1130 H     1 <1>   0.0800 
 43 H        1.6740     9.2250     0.4660 H     1 <1>   0.0800 
 44 H        2.4930    10.6680     1.0150 H     1 <1>   0.0800 
 45 H        1.9810     9.4610     2.1730 H     1 <1>   0.0800 
 46 H        8.0300     8.1590     0.1350 H     1 <1>   0.1500 
 47 H        4.9900     5.2170    -0.3400 H     1 <1>   0.1500 
 48 H        9.6650     6.6210    -0.8460 H     1 <1>   0.1500 
 49 H        6.6160     3.6910    -1.3260 H     1 <1>   0.1500 
 50 H        8.9630     4.3800    -1.5840 H     1 <1>   0.1500 
@<TRIPOS>BOND
  1   1   2  1   
  2   1   3  1   
  3   2   4  2   
  4   2   5  1   
  5   3   6  2   
  6   3  29  1   
  7   4   6  1   
  8   4   7  1   
  9   5   8  1   
 10   5  30  1   
 11   5  31  1   
 12   6  32  1   
 13   7   9  1   
 14   7  10  1   
 15   7  11  1   
 16   8   9  1   
 17   8  33  1   
 18   8  34  1   
 19  10  12  1   
 20  10  35  1   
 21  10  36  1   
 22  11  13  1   
 23  11  37  1   
 24  11  38  1   
 25  12  14  1   
 26  12  39  1   
 27  12  40  1   
 28  13  14  1   
 29  13  41  1   
 30  13  42  1   
 31  14  15  am  
 32  15  16  2   
 33  15  17  1   
 34  17  18  1   
 35  17  19  2   
 36  18  20  2   
 37  18  21  1   
 38  19  22  1   
 39  19  23  1   
 40  20  22  1   
 41  21  24  ar  
 42  21  25  ar  
 43  23  43  1   
 44  23  44  1   
 45  23  45  1   
 46  24  26  ar  
 47  24  46  1   
 48  25  27  ar  
 49  25  47  1   
 50  26  28  ar  
 51  26  48  1   
 52  27  28  ar  
 53  27  49  1   
 54  28  50  1   
@<TRIPOS>SUBSTRUCTURE
  1 ****  14 GROUP 4 **** **** 0

# MOE 2024.06 (io_trps.svl 2023.06)
