@<TRIPOS>MOLECULE
NONAME
50 52 1 0 0 
SMALL
USER_CHARGES


@<TRIPOS>ATOM
  1 O       -0.9380     0.3650    -0.5250 O.2   1 <1>  -0.5700 
  2 C       -1.5060     1.3570    -0.1290 C.2   1 <1>   0.5770 
  3 N       -2.7080     1.2610     0.5360 N.am  1 <1>  -0.6600 
  4 C       -0.8610     2.7180    -0.4010 C.3   1 <1>   0.0530 
  5 C       -3.2430    -0.0910     0.8800 C.3   1 <1>   0.1400 
  6 C       -3.5590     2.4280     0.9150 C.3   1 <1>   0.1400 
  7 C        0.6340     2.7060    -0.8320 C.3   1 <1>   0.0000 
  8 C       -0.3940     3.4800     0.8700 C.3   1 <1>   0.0000 
  9 C       -4.0640    -0.6750    -0.2790 C.3   1 <1>   0.1400 
 10 C       -5.0440     2.2490     0.5620 C.3   1 <1>  -0.1600 
 11 C        0.8120     3.9780     0.0340 C.3   1 <1>   0.0000 
 12 N       -5.3860     0.0120    -0.4370 N.am  1 <1>  -0.6600 
 13 C       -5.3030     1.4720    -0.7340 C.3   1 <1>   0.1400 
 14 C       -6.6160    -0.6230    -0.3810 C.2   1 <1>   0.5690 
 15 O       -7.6340     0.0330    -0.4580 O.2   1 <1>  -0.5700 
 16 C       -6.7310    -2.1580    -0.1700 C.3   1 <1>   0.4050 
 17 O       -6.0620    -2.8650    -1.1990 O.3   1 <1>  -0.5600 
 18 C       -8.1700    -2.6830    -0.0510 C.ar  1 <1>  -0.1440 
 19 C       -5.9130    -4.2370    -0.9930 C.3   1 <1>   0.0400 
 20 C       -9.0060    -2.7080    -1.1590 C.ar  1 <1>  -0.1500 
 21 C       -8.6500    -3.1510     1.1650 C.ar  1 <1>  -0.1500 
 22 C      -10.2970    -3.1960    -1.0570 C.ar  1 <1>  -0.1500 
 23 C       -9.9410    -3.6400     1.2690 C.ar  1 <1>  -0.1500 
 24 C      -10.7650    -3.6640     0.1580 C.ar  1 <1>  -0.1500 
 25 H       -1.4500     3.3390    -1.0540 H     1 <1>   0.0000 
 26 H       -2.4180    -0.7520     1.0820 H     1 <1>   0.0800 
 27 H       -3.8430    -0.0420     1.7720 H     1 <1>   0.0800 
 28 H       -3.4630     2.6050     1.9730 H     1 <1>   0.0800 
 29 H       -3.2120     3.3080     0.4070 H     1 <1>   0.0800 
 30 H        1.1950     1.8730    -0.4420 H     1 <1>   0.0000 
 31 H        0.7860     2.8710    -1.8840 H     1 <1>   0.0000 
 32 H       -1.0600     4.2660     1.1810 H     1 <1>   0.0000 
 33 H       -0.0990     2.8230     1.6720 H     1 <1>   0.0000 
 34 H       -4.2000    -1.7210    -0.0890 H     1 <1>   0.0800 
 35 H       -3.5030    -0.5900    -1.1940 H     1 <1>   0.0800 
 36 H       -5.4710     3.2300     0.4580 H     1 <1>   0.0800 
 37 H       -5.5650     1.7760     1.3750 H     1 <1>   0.0800 
 38 H        0.5970     4.8840    -0.5070 H     1 <1>   0.0000 
 39 H        1.7380     4.0090     0.5800 H     1 <1>   0.0000 
 40 H       -4.5280     1.6580    -1.4570 H     1 <1>   0.0800 
 41 H       -6.2310     1.8080    -1.1660 H     1 <1>   0.0800 
 42 H       -6.2160    -2.3770     0.7460 H     1 <1>   0.0800 
 43 H       -5.3160    -4.6310    -1.7960 H     1 <1>   0.0800 
 44 H       -6.8800    -4.7110    -1.0050 H     1 <1>   0.0800 
 45 H       -5.4190    -4.4100    -0.0540 H     1 <1>   0.0800 
 46 H       -8.6450    -2.3410    -2.1050 H     1 <1>   0.1500 
 47 H       -8.0250    -3.1380     2.0400 H     1 <1>   0.1500 
 48 H      -10.9350    -3.2070    -1.9230 H     1 <1>   0.1500 
 49 H      -10.3070    -4.0000     2.2150 H     1 <1>   0.1500 
 50 H      -11.7690    -4.0410     0.2380 H     1 <1>   0.1500 
@<TRIPOS>BOND
  1   1   2  2   
  2   2   3  am  
  3   2   4  1   
  4   3   5  1   
  5   3   6  1   
  6   4   7  1   
  7   4   8  1   
  8   4  25  1   
  9   5   9  1   
 10   5  26  1   
 11   5  27  1   
 12   6  10  1   
 13   6  28  1   
 14   6  29  1   
 15   7  11  1   
 16   7  30  1   
 17   7  31  1   
 18   8  11  1   
 19   8  32  1   
 20   8  33  1   
 21   9  12  1   
 22   9  34  1   
 23   9  35  1   
 24  10  13  1   
 25  10  36  1   
 26  10  37  1   
 27  11  38  1   
 28  11  39  1   
 29  12  13  1   
 30  12  14  am  
 31  13  40  1   
 32  13  41  1   
 33  14  15  2   
 34  14  16  1   
 35  16  17  1   
 36  16  18  1   
 37  16  42  1   
 38  17  19  1   
 39  18  20  ar  
 40  18  21  ar  
 41  19  43  1   
 42  19  44  1   
 43  19  45  1   
 44  20  22  ar  
 45  20  46  1   
 46  21  23  ar  
 47  21  47  1   
 48  22  24  ar  
 49  22  48  1   
 50  23  24  ar  
 51  23  49  1   
 52  24  50  1   
@<TRIPOS>SUBSTRUCTURE
  1 ****  12 GROUP 4 **** **** 0

# MOE 2024.06 (io_trps.svl 2023.06)
