@<TRIPOS>MOLECULE
NONAME
57 59 1 0 0 
SMALL
USER_CHARGES


@<TRIPOS>ATOM
  1 O       -1.3120    -1.1380    -0.9030 O.3   1 <1>  -0.5600 
  2 C       -2.0280    -2.1430    -1.5620 C.3   1 <1>   0.1200 
  3 C       -0.0240    -1.5160    -0.5200 C.3   1 <1>   0.1200 
  4 C       -2.1960    -3.3730    -0.6520 C.3   1 <1>   0.2090 
  5 C       -0.0780    -2.7060     0.4570 C.3   1 <1>   0.2090 
  6 N       -0.8620    -3.8520    -0.1250 N.pl3 1 <1>  -0.8380 
  7 C       -0.4810    -5.1540    -0.2270 C.ar  1 <1>   0.7710 
  8 N       -1.2160    -5.9930    -0.9390 N.ar  1 <1>  -0.6200 
  9 N        0.6330    -5.5630     0.4060 N.ar  1 <1>  -0.1790 
 10 C       -0.8460    -7.2570    -1.0180 C.ar  1 <1>   0.4100 
 11 C        1.0680    -6.8440     0.3440 C.ar  1 <1>   0.2180 
 12 N       -1.6360    -8.0950    -1.7400 N.pl3 1 <1>  -0.8380 
 13 C        0.3240    -7.7130    -0.3810 C.ar  1 <1>  -0.1500 
 14 C        2.3480    -7.2300     1.0740 C.3   1 <1>  -0.0170 
 15 C       -1.9010    -9.5200    -1.3880 C.3   1 <1>   0.2090 
 16 C       -2.4640    -7.5810    -2.8770 C.3   1 <1>   0.1290 
 17 C        2.2130    -7.0770     2.5950 C.3   1 <1>  -0.2400 
 18 C       -3.2770    -9.6390    -0.7330 C.3   1 <1>  -0.1600 
 19 C       -3.5610   -11.0820    -0.2950 C.3   1 <1>   0.0960 
 20 N       -4.9370   -11.1980     0.2220 N.pl3 1 <1>   0.3140 
 21 N       -5.9660   -11.4090    -0.6180 N.2   1 <1>  -0.7070 
 22 C       -5.3590   -11.1030     1.5040 C.2   1 <1>  -0.3320 
 23 C       -7.0140   -11.4450     0.1410 C.2   1 <1>   0.1080 
 24 C       -6.6990   -11.2590     1.4810 C.2   1 <1>  -0.1500 
 25 C       -4.4660   -10.8620     2.7090 C.3   1 <1>  -0.0600 
 26 C       -8.4030   -11.6640    -0.4090 C.3   1 <1>  -0.0590 
 27 H       -1.5080    -2.4070    -2.4660 H     1 <1>   0.0800 
 28 H       -2.9910    -1.7410    -1.8230 H     1 <1>   0.0800 
 29 H        0.4360    -0.6650    -0.0480 H     1 <1>   0.0800 
 30 H        0.5380    -1.7670    -1.4040 H     1 <1>   0.0800 
 31 H       -2.7120    -4.1360    -1.2070 H     1 <1>   0.0800 
 32 H       -2.8260    -3.1020     0.1770 H     1 <1>   0.0800 
 33 H       -0.5520    -2.3770     1.3670 H     1 <1>   0.0800 
 34 H        0.9300    -2.9930     0.6910 H     1 <1>   0.0800 
 35 H        1.1130    -4.8650     0.9550 H     1 <1>   0.4570 
 36 H        0.6130    -8.7390    -0.4970 H     1 <1>   0.1500 
 37 H        3.1660    -6.6260     0.7190 H     1 <1>   0.0800 
 38 H        2.5900    -8.2560     0.8520 H     1 <1>   0.0800 
 39 H       -1.1570    -9.8880    -0.7050 H     1 <1>   0.0800 
 40 H       -1.8600   -10.1230    -2.2800 H     1 <1>   0.0800 
 41 H       -2.0060    -6.7090    -3.3100 H     1 <1>   0.0800 
 42 H       -3.4460    -7.3160    -2.5240 H     1 <1>   0.0800 
 43 H       -2.5540    -8.3320    -3.6440 H     1 <1>   0.0800 
 44 H        2.0460    -6.0540     2.8780 H     1 <1>   0.0800 
 45 H        3.1170    -7.4120     3.0750 H     1 <1>   0.0800 
 46 H        1.3990    -7.6780     2.9640 H     1 <1>   0.0800 
 47 H       -4.0360    -9.3450    -1.4370 H     1 <1>   0.0800 
 48 H       -3.3240    -8.9900     0.1230 H     1 <1>   0.0800 
 49 H       -2.8740   -11.3940     0.4680 H     1 <1>   0.0800 
 50 H       -3.4720   -11.7470    -1.1350 H     1 <1>   0.0800 
 51 H       -7.3950   -11.2460     2.3000 H     1 <1>   0.1500 
 52 H       -3.9360    -9.9330     2.6010 H     1 <1>   0.0800 
 53 H       -3.7590   -11.6650     2.8150 H     1 <1>   0.0800 
 54 H       -5.0610   -10.8130     3.6040 H     1 <1>   0.0800 
 55 H       -8.6390   -10.8820    -1.1060 H     1 <1>   0.0800 
 56 H       -9.1260   -11.6610     0.3850 H     1 <1>   0.0800 
 57 H       -8.4400   -12.6090    -0.9180 H     1 <1>   0.0800 
@<TRIPOS>BOND
  1   1   2  1   
  2   1   3  1   
  3   2   4  1   
  4   2  27  1   
  5   2  28  1   
  6   3   5  1   
  7   3  29  1   
  8   3  30  1   
  9   4   6  1   
 10   4  31  1   
 11   4  32  1   
 12   5   6  1   
 13   5  33  1   
 14   5  34  1   
 15   6   7  1   
 16   7   8  ar  
 17   7   9  ar  
 18   8  10  ar  
 19   9  11  ar  
 20   9  35  1   
 21  10  12  1   
 22  10  13  ar  
 23  11  13  ar  
 24  11  14  1   
 25  12  15  1   
 26  12  16  1   
 27  13  36  1   
 28  14  17  1   
 29  14  37  1   
 30  14  38  1   
 31  15  18  1   
 32  15  39  1   
 33  15  40  1   
 34  16  41  1   
 35  16  42  1   
 36  16  43  1   
 37  17  44  1   
 38  17  45  1   
 39  17  46  1   
 40  18  19  1   
 41  18  47  1   
 42  18  48  1   
 43  19  20  1   
 44  19  49  1   
 45  19  50  1   
 46  20  21  1   
 47  20  22  1   
 48  21  23  2   
 49  22  24  2   
 50  22  25  1   
 51  23  24  1   
 52  23  26  1   
 53  24  51  1   
 54  25  52  1   
 55  25  53  1   
 56  25  54  1   
 57  26  55  1   
 58  26  56  1   
 59  26  57  1   
@<TRIPOS>SUBSTRUCTURE
  1 ****  10 GROUP 4 **** **** 0

# MOE 2024.06 (io_trps.svl 2023.06)
