@<TRIPOS>MOLECULE
NONAME
47 49 1 0 0 
SMALL
USER_CHARGES


@<TRIPOS>ATOM
  1 O       -0.6650    -0.2350     1.4670 O.2   1 <1>  -0.5700 
  2 C       -0.2750     0.4960     0.5850 C.2   1 <1>   0.5690 
  3 N       -0.9020     1.6860     0.3050 N.am  1 <1>  -0.6600 
  4 C        0.9270     0.0220    -0.2250 C.3   1 <1>   0.0440 
  5 C       -2.1590     2.0720     1.0240 C.3   1 <1>   0.1400 
  6 C       -0.4080     2.6490    -0.7280 C.3   1 <1>   0.1400 
  7 C        2.2020     0.8210     0.0380 C.ar  1 <1>  -0.1440 
  8 C       -3.2100     2.6120     0.0350 C.3   1 <1>   0.0000 
  9 C       -1.1320     3.9980    -0.6450 C.3   1 <1>  -0.1600 
 10 C        2.9850     1.2590    -1.0220 C.ar  1 <1>  -0.1500 
 11 C        2.5880     1.1140     1.3390 C.ar  1 <1>  -0.1500 
 12 C       -4.5460     2.8630     0.7600 C.3   1 <1>   0.2000 
 13 C       -2.6640     3.8630    -0.7210 C.3   1 <1>  -0.1600 
 14 C       -3.6350     1.5370    -0.9840 C.3   1 <1>  -0.1600 
 15 C        4.1350     1.9910    -0.7840 C.ar  1 <1>  -0.1500 
 16 C        3.7380     1.8460     1.5810 C.ar  1 <1>  -0.1500 
 17 O       -4.5430     4.0640     1.4720 O.3   1 <1>  -0.5600 
 18 C       -5.6060     2.8540    -0.3430 C.3   1 <1>  -0.1600 
 19 C       -5.0560     1.9150    -1.4260 C.3   1 <1>  -0.1600 
 20 C        4.5060     2.2830     0.5160 C.ar  1 <1>   0.0820 
 21 C       -5.5890     4.2140     2.3790 C.3   1 <1>   0.0400 
 22 O        5.6220     2.9950     0.7340 O.3   1 <1>  -0.5330 
 23 H        1.1170    -1.0070     0.0200 H     1 <1>   0.0800 
 24 H        0.6700     0.0580    -1.2660 H     1 <1>   0.0800 
 25 H       -2.5620     1.2240     1.5500 H     1 <1>   0.0800 
 26 H       -1.9300     2.8290     1.7540 H     1 <1>   0.0800 
 27 H        0.6460     2.8190    -0.5890 H     1 <1>   0.0800 
 28 H       -0.5600     2.2230    -1.7040 H     1 <1>   0.0800 
 29 H       -0.8620     4.4680     0.2840 H     1 <1>   0.0800 
 30 H       -0.7870     4.6400    -1.4360 H     1 <1>   0.0800 
 31 H        2.7060     1.0350    -2.0360 H     1 <1>   0.1500 
 32 H        1.9910     0.7750     2.1690 H     1 <1>   0.1500 
 33 H       -4.7310     2.0530     1.4460 H     1 <1>   0.0800 
 34 H       -2.9610     3.8280    -1.7540 H     1 <1>   0.0800 
 35 H       -3.0830     4.7680    -0.3200 H     1 <1>   0.0800 
 36 H       -2.9590     1.4650    -1.8170 H     1 <1>   0.0800 
 37 H       -3.6680     0.5760    -0.4970 H     1 <1>   0.0800 
 38 H        4.7470     2.3350    -1.5980 H     1 <1>   0.1500 
 39 H        4.0240     2.0680     2.5920 H     1 <1>   0.1500 
 40 H       -6.5510     2.5040     0.0310 H     1 <1>   0.0800 
 41 H       -5.7160     3.8450    -0.7480 H     1 <1>   0.0800 
 42 H       -5.6670     1.0340    -1.5270 H     1 <1>   0.0800 
 43 H       -5.0290     2.4290    -2.3720 H     1 <1>   0.0800 
 44 H       -5.4620     5.1580     2.8790 H     1 <1>   0.0800 
 45 H       -5.5540     3.4150     3.0980 H     1 <1>   0.0800 
 46 H       -6.5260     4.2100     1.8500 H     1 <1>   0.0800 
 47 H        5.8010     3.1400     1.6790 H     1 <1>   0.4500 
@<TRIPOS>BOND
  1   1   2  2   
  2   2   3  am  
  3   2   4  1   
  4   3   5  1   
  5   3   6  1   
  6   4   7  1   
  7   4  23  1   
  8   4  24  1   
  9   5   8  1   
 10   5  25  1   
 11   5  26  1   
 12   6   9  1   
 13   6  27  1   
 14   6  28  1   
 15   7  10  ar  
 16   7  11  ar  
 17   8  12  1   
 18   8  13  1   
 19   8  14  1   
 20   9  13  1   
 21   9  29  1   
 22   9  30  1   
 23  10  15  ar  
 24  10  31  1   
 25  11  16  ar  
 26  11  32  1   
 27  12  17  1   
 28  12  18  1   
 29  12  33  1   
 30  13  34  1   
 31  13  35  1   
 32  14  19  1   
 33  14  36  1   
 34  14  37  1   
 35  15  20  ar  
 36  15  38  1   
 37  16  20  ar  
 38  16  39  1   
 39  17  21  1   
 40  18  19  1   
 41  18  40  1   
 42  18  41  1   
 43  19  42  1   
 44  19  43  1   
 45  20  22  1   
 46  21  44  1   
 47  21  45  1   
 48  21  46  1   
 49  22  47  1   
@<TRIPOS>SUBSTRUCTURE
  1 ****   3 GROUP 4 **** **** 0

# MOE 2024.06 (io_trps.svl 2023.06)
