@<TRIPOS>MOLECULE
NONAME
52 55 1 0 0 
SMALL
USER_CHARGES


@<TRIPOS>ATOM
  1 O       -0.9580     0.6010    -1.4670 O.2   1 <1>  -0.5700 
  2 C       -1.7850     1.0680    -0.7090 C.2   1 <1>   0.7030 
  3 N       -2.8020     0.2260    -0.2720 N.am  1 <1>  -0.6600 
  4 C       -1.6260     2.4510    -0.2860 C.2   1 <1>   0.2770 
  5 C       -3.4260     0.3470     1.0900 C.3   1 <1>   0.1400 
  6 C       -2.8870    -1.1580    -0.8640 C.3   1 <1>   0.1400 
  7 N       -0.4280     3.0010     0.1870 N.pl3 1 <1>  -0.6290 
  8 C       -2.5310     3.4710    -0.2870 C.2   1 <1>   0.1820 
  9 C       -4.8250    -0.3170     1.1960 C.3   1 <1>   0.4230 
 10 C       -4.2870    -1.7880    -0.7480 C.3   1 <1>   0.3430 
 11 C       -0.6610     4.2940     0.4630 C.cat 1 <1>   0.9620 
 12 C        0.8410     2.5020     0.3040 C.2   1 <1>   0.2290 
 13 N       -1.9250     4.5860     0.2000 N.pl3 1 <1>  -0.7000 
 14 C       -3.9740     3.5220    -0.7540 C.3   1 <1>  -0.0720 
 15 N       -4.8340    -1.7320     0.6580 N.4   1 <1>  -0.9590 
 16 C       -5.9010     0.5400     0.4910 C.3   1 <1>   0.1200 
 17 N        0.2470     5.1560     0.9180 N.2   1 <1>  -0.6120 
 18 C        1.8020     3.3520     0.7490 C.2   1 <1>  -0.1360 
 19 C       -6.2310    -2.2920     0.7750 C.3   1 <1>   0.4230 
 20 O       -7.1570    -0.0520     0.6270 O.3   1 <1>  -0.5600 
 21 C        1.4480     4.6790     1.0510 C.2   1 <1>   0.3760 
 22 C       -7.2740    -1.3530     0.1190 C.3   1 <1>   0.1200 
 23 C       -6.2870    -3.7270     0.2250 C.3   1 <1>  -0.1600 
 24 C       -7.5640    -4.4680     0.6520 C.3   1 <1>  -0.1600 
 25 C       -7.5460    -5.9150     0.1540 C.3   1 <1>  -0.2400 
 26 H       -2.7750    -0.1250     1.8070 H     1 <1>   0.0800 
 27 H       -3.5090     1.3810     1.3740 H     1 <1>   0.0800 
 28 H       -2.6230    -1.1240    -1.9090 H     1 <1>   0.0800 
 29 H       -2.1670    -1.7950    -0.3770 H     1 <1>   0.0800 
 30 H       -5.0910    -0.3420     2.2410 H     1 <1>   0.0800 
 31 H       -4.2310    -2.8120    -1.0790 H     1 <1>   0.0800 
 32 H       -4.9520    -1.2680    -1.4170 H     1 <1>   0.0800 
 33 H        1.0370     1.4730     0.0370 H     1 <1>   0.1500 
 34 H       -2.2780     5.5380     0.3210 H     1 <1>   0.4500 
 35 H       -4.2670     2.5920    -1.2040 H     1 <1>   0.0800 
 36 H       -4.0890     4.2980    -1.4910 H     1 <1>   0.0800 
 37 H       -4.6270     3.7380     0.0720 H     1 <1>   0.0800 
 38 H       -4.2290    -2.3070     1.2580 H     1 <1>   0.4500 
 39 H       -5.6900     0.6630    -0.5570 H     1 <1>   0.0800 
 40 H       -5.9590     1.5130     0.9460 H     1 <1>   0.0800 
 41 H        2.8250     3.0420     0.8730 H     1 <1>   0.1500 
 42 H       -6.4820    -2.3470     1.8230 H     1 <1>   0.0800 
 43 H        2.2230     5.3350     1.4100 H     1 <1>   0.0600 
 44 H       -8.2710    -1.6910     0.3420 H     1 <1>   0.0800 
 45 H       -7.1600    -1.3210    -0.9500 H     1 <1>   0.0800 
 46 H       -6.2440    -3.7180    -0.8500 H     1 <1>   0.0800 
 47 H       -5.4440    -4.2810     0.5990 H     1 <1>   0.0800 
 48 H       -7.6490    -4.4730     1.7270 H     1 <1>   0.0800 
 49 H       -8.4390    -3.9820     0.2520 H     1 <1>   0.0800 
 50 H       -6.7060    -6.4510     0.5620 H     1 <1>   0.0800 
 51 H       -7.4900    -5.9500    -0.9200 H     1 <1>   0.0800 
 52 H       -8.4460    -6.4200     0.4600 H     1 <1>   0.0800 
@<TRIPOS>BOND
  1   1   2  2   
  2   2   3  am  
  3   2   4  1   
  4   3   5  1   
  5   3   6  1   
  6   4   7  1   
  7   4   8  2   
  8   5   9  1   
  9   5  26  1   
 10   5  27  1   
 11   6  10  1   
 12   6  28  1   
 13   6  29  1   
 14   7  11  ar  
 15   7  12  1   
 16   8  13  1   
 17   8  14  1   
 18   9  15  1   
 19   9  16  1   
 20   9  30  1   
 21  10  15  1   
 22  10  31  1   
 23  10  32  1   
 24  11  13  ar  
 25  11  17  1   
 26  12  18  2   
 27  12  33  1   
 28  13  34  1   
 29  14  35  1   
 30  14  36  1   
 31  14  37  1   
 32  15  19  1   
 33  15  38  1   
 34  16  20  1   
 35  16  39  1   
 36  16  40  1   
 37  17  21  2   
 38  18  21  1   
 39  18  41  1   
 40  19  22  1   
 41  19  23  1   
 42  19  42  1   
 43  20  22  1   
 44  21  43  1   
 45  22  44  1   
 46  22  45  1   
 47  23  24  1   
 48  23  46  1   
 49  23  47  1   
 50  24  25  1   
 51  24  48  1   
 52  24  49  1   
 53  25  50  1   
 54  25  51  1   
 55  25  52  1   
@<TRIPOS>SUBSTRUCTURE
  1 ****   3 GROUP 4 **** **** 0

# MOE 2024.06 (io_trps.svl 2023.06)
