@<TRIPOS>MOLECULE
NONAME
51 54 1 0 0 
SMALL
USER_CHARGES


@<TRIPOS>ATOM
  1 O       -1.5680    -1.1190    -2.9390 O.2   1 <1>  -0.5700 
  2 C       -1.8810    -1.3560    -1.8050 C.2   1 <1>   0.5690 
  3 N       -1.8520    -0.3870    -0.8740 N.am  1 <1>  -0.7300 
  4 C       -2.3470    -2.7380    -1.4350 C.3   1 <1>  -0.0190 
  5 C       -2.2260    -0.5440     0.5500 C.3   1 <1>   0.2200 
  6 C       -1.4310    -3.3820    -0.3690 C.3   1 <1>   0.1200 
  7 C       -3.8470    -2.6760    -1.1120 C.3   1 <1>   0.3430 
  8 C       -1.3170    -1.5990     1.2320 C.3   1 <1>   0.1200 
  9 C       -3.7450    -0.8500     0.6830 C.3   1 <1>   0.3430 
 10 O       -1.6870    -2.9220     0.9320 O.3   1 <1>  -0.5600 
 11 N       -4.1510    -2.2500     0.2970 N.4   1 <1>  -0.9590 
 12 C       -5.5380    -2.5860     0.7120 C.3   1 <1>   0.4860 
 13 C       -5.7130    -4.0900     0.6180 C.ar  1 <1>  -0.1440 
 14 C       -6.6020    -4.6360    -0.2990 C.ar  1 <1>  -0.1500 
 15 C       -4.9750    -4.9340     1.4370 C.ar  1 <1>  -0.1500 
 16 C       -6.7450    -6.0090    -0.4050 C.ar  1 <1>  -0.1500 
 17 C       -5.1170    -6.3050     1.3280 C.ar  1 <1>  -0.1500 
 18 C       -5.9960    -6.8520     0.4100 C.ar  1 <1>   0.0820 
 19 O       -6.0670    -8.2040     0.3710 O.3   1 <1>  -0.3620 
 20 C       -7.0150    -8.8760    -0.4310 C.3   1 <1>   0.2640 
 21 C       -6.8600   -10.3760    -0.2360 C.ar  1 <1>  -0.1440 
 22 C       -7.9280   -11.1450     0.2020 C.ar  1 <1>  -0.1500 
 23 C       -5.6460   -10.9910    -0.5030 C.ar  1 <1>  -0.1500 
 24 C       -7.7850   -12.5120     0.3660 C.ar  1 <1>  -0.1500 
 25 C       -5.5020   -12.3580    -0.3390 C.ar  1 <1>  -0.1500 
 26 C       -6.5720   -13.1200     0.0950 C.ar  1 <1>  -0.1500 
 27 H       -1.4730     0.5170    -1.1800 H     1 <1>   0.3700 
 28 H       -2.2450    -3.3290    -2.3270 H     1 <1>   0.0800 
 29 H       -2.0380     0.4030     1.0270 H     1 <1>   0.0800 
 30 H       -0.3920    -3.2090    -0.6000 H     1 <1>   0.0800 
 31 H       -1.5930    -4.4470    -0.3580 H     1 <1>   0.0800 
 32 H       -4.2470    -3.6650    -1.2680 H     1 <1>   0.0800 
 33 H       -4.3340    -2.0150    -1.8100 H     1 <1>   0.0800 
 34 H       -1.3950    -1.4940     2.3000 H     1 <1>   0.0800 
 35 H       -0.2840    -1.4520     0.9620 H     1 <1>   0.0800 
 36 H       -4.2930    -0.1350     0.0920 H     1 <1>   0.0800 
 37 H       -4.0150    -0.6920     1.7140 H     1 <1>   0.0800 
 38 H       -3.5220    -2.8610     0.8570 H     1 <1>   0.4500 
 39 H       -5.7080    -2.2760     1.7300 H     1 <1>   0.0800 
 40 H       -6.2500    -2.0880     0.0750 H     1 <1>   0.0800 
 41 H       -7.1940    -4.0030    -0.9390 H     1 <1>   0.1500 
 42 H       -4.2840    -4.5460     2.1670 H     1 <1>   0.1500 
 43 H       -7.4400    -6.4020    -1.1240 H     1 <1>   0.1500 
 44 H       -4.5480    -6.9670     1.9580 H     1 <1>   0.1500 
 45 H       -7.9960    -8.5500    -0.1360 H     1 <1>   0.0800 
 46 H       -6.8330    -8.6200    -1.4600 H     1 <1>   0.0800 
 47 H       -8.8770   -10.6860     0.4190 H     1 <1>   0.1500 
 48 H       -4.8080   -10.4040    -0.8350 H     1 <1>   0.1500 
 49 H       -8.6180   -13.1030     0.7060 H     1 <1>   0.1500 
 50 H       -4.5560   -12.8270    -0.5480 H     1 <1>   0.1500 
 51 H       -6.4610   -14.1830     0.2220 H     1 <1>   0.1500 
@<TRIPOS>BOND
  1   1   2  2   
  2   2   3  am  
  3   2   4  1   
  4   3   5  1   
  5   3  27  1   
  6   4   6  1   
  7   4   7  1   
  8   4  28  1   
  9   5   8  1   
 10   5   9  1   
 11   5  29  1   
 12   6  10  1   
 13   6  30  1   
 14   6  31  1   
 15   7  11  1   
 16   7  32  1   
 17   7  33  1   
 18   8  10  1   
 19   8  34  1   
 20   8  35  1   
 21   9  11  1   
 22   9  36  1   
 23   9  37  1   
 24  11  12  1   
 25  11  38  1   
 26  12  13  1   
 27  12  39  1   
 28  12  40  1   
 29  13  14  ar  
 30  13  15  ar  
 31  14  16  ar  
 32  14  41  1   
 33  15  17  ar  
 34  15  42  1   
 35  16  18  ar  
 36  16  43  1   
 37  17  18  ar  
 38  17  44  1   
 39  18  19  1   
 40  19  20  1   
 41  20  21  1   
 42  20  45  1   
 43  20  46  1   
 44  21  22  ar  
 45  21  23  ar  
 46  22  24  ar  
 47  22  47  1   
 48  23  25  ar  
 49  23  48  1   
 50  24  26  ar  
 51  24  49  1   
 52  25  26  ar  
 53  25  50  1   
 54  26  51  1   
@<TRIPOS>SUBSTRUCTURE
  1 ****  15 GROUP 4 **** **** 0

# MOE 2024.06 (io_trps.svl 2023.06)
