@<TRIPOS>MOLECULE
NONAME
49 51 1 0 0 
SMALL
USER_CHARGES


@<TRIPOS>ATOM
  1 S        0.1100    -0.1740     1.5990 S.o2  1 <1>   1.4470 
  2 O        0.8430    -1.2390     2.2480 O.2   1 <1>  -0.6500 
  3 O       -0.6470     0.7580     2.4030 O.2   1 <1>  -0.6500 
  4 N       -0.9850    -0.9400     0.5550 N.am  1 <1>  -0.8490 
  5 C        1.2270     0.7210     0.4790 C.ar  1 <1>  -0.0090 
  6 C       -1.8290    -1.8970     1.2940 C.3   1 <1>   0.1960 
  7 C       -1.8310     0.0110    -0.1810 C.3   1 <1>   0.1960 
  8 C        1.3260     2.1070     0.5080 C.ar  1 <1>  -0.1500 
  9 C        2.0070     0.0430    -0.4480 C.ar  1 <1>  -0.1500 
 10 C       -2.6800    -2.7390     0.3090 C.3   1 <1>   0.4230 
 11 C       -2.6780    -0.7560    -1.2070 C.3   1 <1>  -0.1600 
 12 C        2.1730     2.7860    -0.3500 C.ar  1 <1>  -0.1500 
 13 C        2.8530     0.7210    -1.3080 C.ar  1 <1>  -0.1500 
 14 N       -3.4920    -3.8360     0.9400 N.4   1 <1>  -0.9590 
 15 C       -3.5880    -1.8120    -0.5220 C.3   1 <1>  -0.1060 
 16 C        2.9640     2.1100    -1.2790 C.ar  1 <1>   0.0860 
 17 C       -4.1640    -4.6850    -0.0770 C.3   1 <1>   0.3430 
 18 C       -2.8030    -4.6320     1.9910 C.3   1 <1>   0.2630 
 19 C       -4.5970    -1.1240     0.4180 C.2   1 <1>   0.9060 
 20 C       -4.3200    -2.6420    -1.6020 C.3   1 <1>  -0.1600 
 21 C        3.8650     2.8060    -2.1840 C.2   1 <1>   0.5440 
 22 C       -5.0640    -3.8350    -0.9790 C.3   1 <1>  -0.1600 
 23 O       -4.9930     0.0080     0.1500 O.co2 1 <1>  -0.9000 
 24 O       -4.9790    -1.7260     1.4340 O.co2 1 <1>  -0.9000 
 25 O        4.1960     2.3250    -3.2440 O.2   1 <1>  -0.5700 
 26 N        4.3920     4.0160    -1.8860 N.am  1 <1>  -0.8000 
 27 H       -1.1890    -2.5580     1.8490 H     1 <1>   0.0800 
 28 H       -2.4610    -1.3680     1.9900 H     1 <1>   0.0800 
 29 H       -2.4670     0.5580     0.5000 H     1 <1>   0.0800 
 30 H       -1.2170     0.7250    -0.7040 H     1 <1>   0.0800 
 31 H        0.7280     2.6620     1.2140 H     1 <1>   0.1500 
 32 H        1.9500    -1.0320    -0.4960 H     1 <1>   0.1500 
 33 H       -1.9820    -3.2010    -0.3680 H     1 <1>   0.0800 
 34 H       -3.2870    -0.0500    -1.7460 H     1 <1>   0.0800 
 35 H       -2.0200    -1.2220    -1.9190 H     1 <1>   0.0800 
 36 H        2.2130     3.8600    -0.3020 H     1 <1>   0.1500 
 37 H        3.4450     0.1680    -2.0190 H     1 <1>   0.1500 
 38 H       -4.2600    -3.2690     1.3960 H     1 <1>   0.4500 
 39 H       -3.4210    -5.1830    -0.6770 H     1 <1>   0.0800 
 40 H       -4.7660    -5.4330     0.4130 H     1 <1>   0.0800 
 41 H       -1.9510    -5.1430     1.5750 H     1 <1>   0.0800 
 42 H       -3.4810    -5.3590     2.4070 H     1 <1>   0.0800 
 43 H       -2.4710    -3.9870     2.7880 H     1 <1>   0.0800 
 44 H       -5.0240    -2.0110    -2.1200 H     1 <1>   0.0800 
 45 H       -3.6110    -3.0070    -2.3250 H     1 <1>   0.0800 
 46 H       -5.4650    -4.4530    -1.7620 H     1 <1>   0.0800 
 47 H       -5.8990    -3.4780    -0.4010 H     1 <1>   0.0800 
 48 H        5.0470     4.4320    -2.5490 H     1 <1>   0.3700 
 49 H        4.3180     4.4610    -0.9740 H     1 <1>   0.3700 
@<TRIPOS>BOND
  1   1   2  2   
  2   1   3  2   
  3   1   4  am  
  4   1   5  1   
  5   4   6  1   
  6   4   7  1   
  7   5   8  ar  
  8   5   9  ar  
  9   6  10  1   
 10   6  27  1   
 11   6  28  1   
 12   7  11  1   
 13   7  29  1   
 14   7  30  1   
 15   8  12  ar  
 16   8  31  1   
 17   9  13  ar  
 18   9  32  1   
 19  10  14  1   
 20  10  15  1   
 21  10  33  1   
 22  11  15  1   
 23  11  34  1   
 24  11  35  1   
 25  12  16  ar  
 26  12  36  1   
 27  13  16  ar  
 28  13  37  1   
 29  14  17  1   
 30  14  18  1   
 31  14  38  1   
 32  15  19  1   
 33  15  20  1   
 34  16  21  1   
 35  17  22  1   
 36  17  39  1   
 37  17  40  1   
 38  18  41  1   
 39  18  42  1   
 40  18  43  1   
 41  19  23  ar  
 42  19  24  ar  
 43  20  22  1   
 44  20  44  1   
 45  20  45  1   
 46  21  25  2   
 47  21  26  am  
 48  22  46  1   
 49  22  47  1   
 50  26  48  1   
 51  26  49  1   
@<TRIPOS>SUBSTRUCTURE
  1 ****   4 GROUP 4 **** **** 0

# MOE 2024.06 (io_trps.svl 2023.06)
