@<TRIPOS>MOLECULE
NONAME
50 53 1 0 0 
SMALL
USER_CHARGES


@<TRIPOS>ATOM
  1 S       -0.6740     0.7300     1.2250 S.o2  1 <1>   1.4470 
  2 O       -0.6410    -0.4340     2.0880 O.2   1 <1>  -0.6500 
  3 O       -1.2750     1.9530     1.7130 O.2   1 <1>  -0.6500 
  4 N       -1.4880     0.3000    -0.2020 N.am  1 <1>  -0.8490 
  5 C        1.0000     1.0950     0.6270 C.ar  1 <1>  -0.0090 
  6 C       -2.9430     0.3140    -0.0650 C.3   1 <1>   0.1960 
  7 C       -1.1610    -1.0440    -0.6770 C.3   1 <1>   0.1960 
  8 C        1.2140     1.9160    -0.4500 C.ar  1 <1>  -0.1500 
  9 C        2.1240     0.5410     1.2650 C.ar  1 <1>  -0.1500 
 10 C       -3.3220    -1.0720     0.4600 C.3   1 <1>  -0.0800 
 11 C       -2.2770    -1.9880    -0.2020 C.3   1 <1>  -0.0800 
 12 C        2.5040     2.2100    -0.9370 C.ar  1 <1>   0.0000 
 13 C        3.3910     0.8040     0.8220 C.ar  1 <1>  -0.1500 
 14 C       -4.8050    -1.5060     0.2850 C.3   1 <1>   0.2800 
 15 C       -2.8570    -2.8070    -1.3670 C.3   1 <1>  -0.1600 
 16 C        3.6180     1.6400    -0.2870 C.ar  1 <1>   0.0000 
 17 C        2.7220     3.0490    -2.0480 C.ar  1 <1>  -0.1500 
 18 O       -5.3060    -1.0060    -0.9020 O.3   1 <1>  -0.6800 
 19 C       -4.8840    -3.0420     0.2050 C.3   1 <1>  -0.1600 
 20 C       -5.7300    -1.0050     1.4190 C.3   1 <1>  -0.1600 
 21 C       -4.0560    -3.6670    -0.9360 C.3   1 <1>  -0.1600 
 22 C        4.9080     1.9310    -0.7740 C.ar  1 <1>  -0.1500 
 23 C        3.9850     3.3140    -2.4990 C.ar  1 <1>  -0.1500 
 24 C       -5.8210     0.5190     1.6050 C.3   1 <1>  -0.2400 
 25 C        5.0910     2.7480    -1.8550 C.ar  1 <1>  -0.1500 
 26 H       -3.2790     1.1090     0.5760 H     1 <1>   0.0800 
 27 H       -3.3670     0.4680    -1.0420 H     1 <1>   0.0800 
 28 H       -1.1340    -1.0210    -1.7540 H     1 <1>   0.0800 
 29 H       -0.1960    -1.3700    -0.3260 H     1 <1>   0.0800 
 30 H        0.3710     2.3580    -0.9530 H     1 <1>   0.1500 
 31 H        1.9690    -0.1010     2.1170 H     1 <1>   0.1500 
 32 H       -3.1160    -1.0820     1.5150 H     1 <1>   0.0800 
 33 H       -1.8780    -2.6650     0.5350 H     1 <1>   0.0800 
 34 H        4.2420     0.3740     1.3200 H     1 <1>   0.1500 
 35 H       -3.1850    -2.1270    -2.1350 H     1 <1>   0.0800 
 36 H       -2.0970    -3.4370    -1.7960 H     1 <1>   0.0800 
 37 H        1.8680     3.4810    -2.5390 H     1 <1>   0.1500 
 38 H       -6.2170    -1.3280    -1.0260 H     1 <1>   0.4000 
 39 H       -4.5080    -3.4330     1.1350 H     1 <1>   0.0800 
 40 H       -5.9070    -3.3650     0.1260 H     1 <1>   0.0800 
 41 H       -6.7220    -1.3830     1.2450 H     1 <1>   0.0800 
 42 H       -5.3970    -1.4330     2.3480 H     1 <1>   0.0800 
 43 H       -3.7090    -4.6350    -0.6200 H     1 <1>   0.0800 
 44 H       -4.6880    -3.8170    -1.7950 H     1 <1>   0.0800 
 45 H        5.7540     1.4940    -0.2740 H     1 <1>   0.1500 
 46 H        4.1460     3.9560    -3.3480 H     1 <1>   0.1500 
 47 H       -6.0340     1.0100     0.6720 H     1 <1>   0.0800 
 48 H       -4.9050     0.9090     2.0100 H     1 <1>   0.0800 
 49 H       -6.6100     0.7530     2.2980 H     1 <1>   0.0800 
 50 H        6.0790     2.9670    -2.2220 H     1 <1>   0.1500 
@<TRIPOS>BOND
  1   1   2  2   
  2   1   3  2   
  3   1   4  am  
  4   1   5  1   
  5   4   6  1   
  6   4   7  1   
  7   5   8  ar  
  8   5   9  ar  
  9   6  10  1   
 10   6  26  1   
 11   6  27  1   
 12   7  11  1   
 13   7  28  1   
 14   7  29  1   
 15   8  12  ar  
 16   8  30  1   
 17   9  13  ar  
 18   9  31  1   
 19  10  11  1   
 20  10  14  1   
 21  10  32  1   
 22  11  15  1   
 23  11  33  1   
 24  12  16  ar  
 25  12  17  ar  
 26  13  16  ar  
 27  13  34  1   
 28  14  18  1   
 29  14  19  1   
 30  14  20  1   
 31  15  21  1   
 32  15  35  1   
 33  15  36  1   
 34  16  22  ar  
 35  17  23  ar  
 36  17  37  1   
 37  18  38  1   
 38  19  21  1   
 39  19  39  1   
 40  19  40  1   
 41  20  24  1   
 42  20  41  1   
 43  20  42  1   
 44  21  43  1   
 45  21  44  1   
 46  22  25  ar  
 47  22  45  1   
 48  23  25  ar  
 49  23  46  1   
 50  24  47  1   
 51  24  48  1   
 52  24  49  1   
 53  25  50  1   
@<TRIPOS>SUBSTRUCTURE
  1 ****   4 GROUP 4 **** **** 0

# MOE 2024.06 (io_trps.svl 2023.06)
