@<TRIPOS>MOLECULE
NONAME
49 52 1 0 0 
SMALL
USER_CHARGES


@<TRIPOS>ATOM
  1 O       -0.8970     1.7770     2.4780 O.3   1 <1>  -0.0190 
  2 N       -0.8100     3.0370     2.2570 N.2   1 <1>  -0.4100 
  3 C       -1.0100     1.1210     1.3540 C.2   1 <1>   0.4250 
  4 C       -0.8840     3.1200     0.9870 C.2   1 <1>   0.3350 
  5 N       -0.9950     1.9450     0.3580 N.2   1 <1>  -0.5650 
  6 C       -1.1170    -0.3220     1.3330 C.ar  1 <1>   0.0530 
  7 C       -0.8050     4.4360     0.2170 C.3   1 <1>   0.5240 
  8 C       -1.2780    -1.0150     0.1310 C.ar  1 <1>  -0.1500 
  9 C       -1.0620    -1.0810     2.5050 C.ar  1 <1>  -0.1500 
 10 N        0.6160     4.8160    -0.0890 N.4   1 <1>  -0.8520 
 11 C       -1.3750    -2.3930     0.0980 C.ar  1 <1>  -0.1500 
 12 C       -1.1590    -2.4600     2.4770 C.ar  1 <1>  -0.1500 
 13 C        0.8340     6.1790    -0.6310 C.3   1 <1>   0.2960 
 14 C        1.2920     3.8040    -0.9380 C.3   1 <1>   0.5240 
 15 C       -1.3150    -3.1200     1.2730 C.ar  1 <1>  -0.1500 
 16 C       -0.0620     7.3160    -0.2700 C.3   1 <1>  -0.2000 
 17 C       -0.0970     6.7350    -1.6560 C.3   1 <1>  -0.2000 
 18 C        2.7680     3.9660    -0.6820 C.2   1 <1>  -0.1810 
 19 C        3.6910     4.5920    -1.5140 C.2   1 <1>   0.1080 
 20 C        3.4820     3.5670     0.3970 C.2   1 <1>  -0.3320 
 21 N        4.8710     4.6060    -0.9920 N.2   1 <1>  -0.7070 
 22 C        3.4460     5.2130    -2.8740 C.3   1 <1>  -0.0590 
 23 N        4.7570     3.9670     0.1810 N.pl3 1 <1>   0.3140 
 24 C        3.0430     2.8060     1.6420 C.3   1 <1>  -0.0600 
 25 C        5.9270     3.7640     1.0470 C.3   1 <1>   0.0160 
 26 H       -1.2600     5.1980     0.8240 H     1 <1>   0.0800 
 27 H       -1.3710     4.3450    -0.6940 H     1 <1>   0.0800 
 28 H       -1.3290    -0.4670    -0.7940 H     1 <1>   0.1500 
 29 H       -0.9420    -0.5930     3.4570 H     1 <1>   0.1500 
 30 H        1.1370     4.7690     0.7970 H     1 <1>   0.4500 
 31 H       -1.4990    -2.9050    -0.8420 H     1 <1>   0.1500 
 32 H       -1.1130    -3.0240     3.3940 H     1 <1>   0.1500 
 33 H        1.8860     6.4110    -0.7330 H     1 <1>   0.1000 
 34 H        1.0590     3.9540    -1.9790 H     1 <1>   0.0800 
 35 H        1.0050     2.8050    -0.6570 H     1 <1>   0.0800 
 36 H       -1.3910    -4.1940     1.2500 H     1 <1>   0.1500 
 37 H        0.3760     8.2940    -0.1520 H     1 <1>   0.1000 
 38 H       -0.9240     7.1890     0.3590 H     1 <1>   0.1000 
 39 H       -0.9790     6.2020    -1.9600 H     1 <1>   0.1000 
 40 H        0.3080     7.3360    -2.4530 H     1 <1>   0.1000 
 41 H        2.5020     4.9110    -3.2850 H     1 <1>   0.0800 
 42 H        4.2260     4.9030    -3.5470 H     1 <1>   0.0800 
 43 H        3.4780     6.2830    -2.7920 H     1 <1>   0.0800 
 44 H        2.0110     2.5160     1.5800 H     1 <1>   0.0800 
 45 H        3.1790     3.4140     2.5190 H     1 <1>   0.0800 
 46 H        3.6320     1.9120     1.7510 H     1 <1>   0.0800 
 47 H        5.7380     4.2020     2.0090 H     1 <1>   0.0800 
 48 H        6.7820     4.2360     0.6000 H     1 <1>   0.0800 
 49 H        6.1120     2.7120     1.1500 H     1 <1>   0.0800 
@<TRIPOS>BOND
  1   1   2  1   
  2   1   3  1   
  3   2   4  2   
  4   3   5  2   
  5   3   6  1   
  6   4   5  1   
  7   4   7  1   
  8   6   8  ar  
  9   6   9  ar  
 10   7  10  1   
 11   7  26  1   
 12   7  27  1   
 13   8  11  ar  
 14   8  28  1   
 15   9  12  ar  
 16   9  29  1   
 17  10  13  1   
 18  10  14  1   
 19  10  30  1   
 20  11  15  ar  
 21  11  31  1   
 22  12  15  ar  
 23  12  32  1   
 24  13  16  1   
 25  13  17  1   
 26  13  33  1   
 27  14  18  1   
 28  14  34  1   
 29  14  35  1   
 30  15  36  1   
 31  16  17  1   
 32  16  37  1   
 33  16  38  1   
 34  17  39  1   
 35  17  40  1   
 36  18  19  1   
 37  18  20  2   
 38  19  21  2   
 39  19  22  1   
 40  20  23  1   
 41  20  24  1   
 42  21  23  1   
 43  22  41  1   
 44  22  42  1   
 45  22  43  1   
 46  23  25  1   
 47  24  44  1   
 48  24  45  1   
 49  24  46  1   
 50  25  47  1   
 51  25  48  1   
 52  25  49  1   
@<TRIPOS>SUBSTRUCTURE
  1 ****  14 GROUP 4 **** **** 0

# MOE 2024.06 (io_trps.svl 2023.06)
