@<TRIPOS>MOLECULE
NONAME
51 53 1 0 0 
SMALL
USER_CHARGES


@<TRIPOS>ATOM
  1 O        1.2800    -0.7880    -1.4670 O.3   1 <1>  -0.0190 
  2 N        1.2450     0.4400    -1.0520 N.2   1 <1>  -0.4100 
  3 C        1.4010    -1.6310    -0.4800 C.2   1 <1>  -0.0400 
  4 C        1.3600     0.3960     0.2300 C.2   1 <1>   0.1080 
  5 C        1.4640    -0.9250     0.6610 C.2   1 <1>  -0.1500 
  6 C        1.4380    -3.1160    -0.7700 C.3   1 <1>   0.5230 
  7 C        1.3770     1.6150     1.1490 C.3   1 <1>   0.1010 
  8 N        0.1260    -3.5410    -1.3490 N.4   1 <1>  -0.9590 
  9 C        0.0300     2.3470     1.1020 C.3   1 <1>  -0.2400 
 10 C        2.5170     2.5690     0.7720 C.3   1 <1>  -0.2400 
 11 C       -0.1900    -4.9790    -1.1030 C.3   1 <1>   0.3430 
 12 C        0.0450    -3.2330    -2.8120 C.3   1 <1>   0.2630 
 13 C       -0.4890    -5.2720     0.3760 C.3   1 <1>  -0.0800 
 14 C       -0.9810    -6.7090     0.4500 C.3   1 <1>   0.2090 
 15 C       -1.7060    -4.4980     0.9070 C.3   1 <1>  -0.1600 
 16 N       -2.3760    -6.5980    -0.0150 N.pl3 1 <1>  -0.8380 
 17 C       -2.9190    -5.2820     0.4030 C.3   1 <1>   0.2090 
 18 C       -3.1870    -7.7070     0.2120 C.ar  1 <1>   0.1000 
 19 C       -3.6660    -8.4320    -0.8710 C.ar  1 <1>  -0.1500 
 20 C       -3.5330    -8.1180     1.4950 C.ar  1 <1>  -0.1500 
 21 C       -4.4700    -9.5420    -0.6820 C.ar  1 <1>  -0.1500 
 22 C       -4.3370    -9.2270     1.6900 C.ar  1 <1>  -0.1500 
 23 C       -4.8060    -9.9410     0.6000 C.ar  1 <1>  -0.1500 
 24 H        1.5690    -1.2450     1.6820 H     1 <1>   0.1500 
 25 H        1.6230    -3.6370     0.1530 H     1 <1>   0.0800 
 26 H        2.2420    -3.3370    -1.4540 H     1 <1>   0.0800 
 27 H        1.5430     1.2790     2.1580 H     1 <1>   0.0800 
 28 H       -0.5930    -2.9740    -0.8780 H     1 <1>   0.4500 
 29 H       -0.1620     2.7110     0.1080 H     1 <1>   0.0800 
 30 H        0.0330     3.1820     1.7800 H     1 <1>   0.0800 
 31 H       -0.7650     1.6790     1.3820 H     1 <1>   0.0800 
 32 H        2.3780     2.9420    -0.2280 H     1 <1>   0.0800 
 33 H        3.4600     2.0540     0.8150 H     1 <1>   0.0800 
 34 H        2.5490     3.4030     1.4500 H     1 <1>   0.0800 
 35 H        0.6250    -5.6000    -1.4390 H     1 <1>   0.0800 
 36 H       -1.0630    -5.2540    -1.6760 H     1 <1>   0.0800 
 37 H        0.8070    -3.7700    -3.3540 H     1 <1>   0.0800 
 38 H        0.1770    -2.1770    -2.9870 H     1 <1>   0.0800 
 39 H       -0.9200    -3.5200    -3.2000 H     1 <1>   0.0800 
 40 H        0.3840    -5.1460     0.9900 H     1 <1>   0.0800 
 41 H       -0.9590    -7.0710     1.4650 H     1 <1>   0.0800 
 42 H       -0.4210    -7.3810    -0.1790 H     1 <1>   0.0800 
 43 H       -1.7500    -3.4680     0.6080 H     1 <1>   0.0800 
 44 H       -1.7110    -4.5320     1.9830 H     1 <1>   0.0800 
 45 H       -3.3650    -4.8000    -0.4510 H     1 <1>   0.0800 
 46 H       -3.6660    -5.3910     1.1730 H     1 <1>   0.0800 
 47 H       -3.4030    -8.1180    -1.8630 H     1 <1>   0.1500 
 48 H       -3.1740    -7.5680     2.3430 H     1 <1>   0.1500 
 49 H       -4.8330   -10.0940    -1.5300 H     1 <1>   0.1500 
 50 H       -4.5980    -9.5360     2.6860 H     1 <1>   0.1500 
 51 H       -5.4310   -10.8050     0.7490 H     1 <1>   0.1500 
@<TRIPOS>BOND
  1   1   2  1   
  2   1   3  1   
  3   2   4  2   
  4   3   5  2   
  5   3   6  1   
  6   4   5  1   
  7   4   7  1   
  8   5  24  1   
  9   6   8  1   
 10   6  25  1   
 11   6  26  1   
 12   7   9  1   
 13   7  10  1   
 14   7  27  1   
 15   8  11  1   
 16   8  12  1   
 17   8  28  1   
 18   9  29  1   
 19   9  30  1   
 20   9  31  1   
 21  10  32  1   
 22  10  33  1   
 23  10  34  1   
 24  11  13  1   
 25  11  35  1   
 26  11  36  1   
 27  12  37  1   
 28  12  38  1   
 29  12  39  1   
 30  13  14  1   
 31  13  15  1   
 32  13  40  1   
 33  14  16  1   
 34  14  41  1   
 35  14  42  1   
 36  15  17  1   
 37  15  43  1   
 38  15  44  1   
 39  16  17  1   
 40  16  18  1   
 41  17  45  1   
 42  17  46  1   
 43  18  19  ar  
 44  18  20  ar  
 45  19  21  ar  
 46  19  47  1   
 47  20  22  ar  
 48  20  48  1   
 49  21  23  ar  
 50  21  49  1   
 51  22  23  ar  
 52  22  50  1   
 53  23  51  1   
@<TRIPOS>SUBSTRUCTURE
  1 ****  15 GROUP 4 **** **** 0

# MOE 2024.06 (io_trps.svl 2023.06)
