@<TRIPOS>MOLECULE
NONAME
52 54 1 0 0 
SMALL
USER_CHARGES


@<TRIPOS>ATOM
  1 O       -0.0460     1.3600     1.2510 O.2   1 <1>  -0.5700 
  2 C        0.0390     2.4600     0.7310 C.2   1 <1>   0.7160 
  3 N       -1.0960     3.2400     0.6330 N.am  1 <1>  -0.6600 
  4 C        1.3160     2.9130     0.2300 C.2   1 <1>  -0.0860 
  5 C       -2.3690     2.8660     1.3180 C.3   1 <1>   0.1400 
  6 C       -1.2460     4.3660    -0.3270 C.3   1 <1>   0.1400 
  7 C        2.2240     2.1690    -0.5320 C.2   1 <1>   0.1080 
  8 C        1.9450     4.1140     0.3660 C.2   1 <1>  -0.3020 
  9 C       -3.4290     2.4230     0.2930 C.3   1 <1>   0.0000 
 10 C       -2.2930     4.0080    -1.3890 C.3   1 <1>  -0.1600 
 11 N        3.2870     2.8370    -0.8440 N.2   1 <1>  -0.7070 
 12 C        2.0210     0.7350    -0.9690 C.3   1 <1>  -0.0590 
 13 N        3.1170     4.0430    -0.2800 N.pl3 1 <1>   0.3140 
 14 C       -4.7370     2.0440     1.0100 C.3   1 <1>   0.2000 
 15 C       -3.6220     3.5480    -0.7620 C.3   1 <1>  -0.1600 
 16 C       -3.0650     1.0890    -0.3850 C.3   1 <1>  -0.1600 
 17 C        4.1380     5.1030    -0.3900 C.3   1 <1>   0.0960 
 18 O       -5.4960     3.1700     1.3360 O.3   1 <1>  -0.5600 
 19 C       -5.4810     1.1200     0.0430 C.3   1 <1>  -0.1600 
 20 C       -4.3960     0.4690    -0.8270 C.3   1 <1>  -0.1600 
 21 C        5.0440     5.1200     0.8500 C.3   1 <1>  -0.1600 
 22 C       -6.5410     2.9390     2.2270 C.3   1 <1>   0.0400 
 23 C        6.1070     6.2190     0.7510 C.3   1 <1>  -0.2400 
 24 H       -2.1960     2.0810     2.0340 H     1 <1>   0.0800 
 25 H       -2.7350     3.7220     1.8580 H     1 <1>   0.0800 
 26 H       -1.5610     5.2430     0.2130 H     1 <1>   0.0800 
 27 H       -0.3160     4.5890    -0.8170 H     1 <1>   0.0800 
 28 H        1.6120     4.9890     0.8920 H     1 <1>   0.1500 
 29 H       -2.4720     4.8680    -2.0080 H     1 <1>   0.0800 
 30 H       -1.8930     3.2380    -2.0240 H     1 <1>   0.0800 
 31 H        1.0560     0.6230    -1.4280 H     1 <1>   0.0800 
 32 H        2.0820     0.0870    -0.1140 H     1 <1>   0.0800 
 33 H        2.7810     0.4550    -1.6750 H     1 <1>   0.0800 
 34 H       -4.5010     1.5080     1.9140 H     1 <1>   0.0800 
 35 H       -4.2950     3.2280    -1.5380 H     1 <1>   0.0800 
 36 H       -4.0700     4.4020    -0.2860 H     1 <1>   0.0800 
 37 H       -2.3810     1.1990    -1.2050 H     1 <1>   0.0800 
 38 H       -2.6060     0.4370     0.3400 H     1 <1>   0.0800 
 39 H        4.7230     4.9140    -1.2720 H     1 <1>   0.0800 
 40 H        3.6390     6.0470    -0.5030 H     1 <1>   0.0800 
 41 H       -6.0410     0.3760     0.5800 H     1 <1>   0.0800 
 42 H       -6.1430     1.6960    -0.5800 H     1 <1>   0.0800 
 43 H       -4.3780    -0.6000    -0.7020 H     1 <1>   0.0800 
 44 H       -4.5800     0.6950    -1.8640 H     1 <1>   0.0800 
 45 H        4.4460     5.2830     1.7310 H     1 <1>   0.0800 
 46 H        5.5310     4.1630     0.9410 H     1 <1>   0.0800 
 47 H       -7.0280     3.8780     2.4210 H     1 <1>   0.0800 
 48 H       -6.1440     2.5410     3.1450 H     1 <1>   0.0800 
 49 H       -7.2430     2.2530     1.7880 H     1 <1>   0.0800 
 50 H        5.6450     7.1880     0.6750 H     1 <1>   0.0800 
 51 H        6.7310     6.0630    -0.1120 H     1 <1>   0.0800 
 52 H        6.7310     6.2060     1.6270 H     1 <1>   0.0800 
@<TRIPOS>BOND
  1   1   2  2   
  2   2   3  am  
  3   2   4  1   
  4   3   5  1   
  5   3   6  1   
  6   4   7  1   
  7   4   8  2   
  8   5   9  1   
  9   5  24  1   
 10   5  25  1   
 11   6  10  1   
 12   6  26  1   
 13   6  27  1   
 14   7  11  2   
 15   7  12  1   
 16   8  13  1   
 17   8  28  1   
 18   9  14  1   
 19   9  15  1   
 20   9  16  1   
 21  10  15  1   
 22  10  29  1   
 23  10  30  1   
 24  11  13  1   
 25  12  31  1   
 26  12  32  1   
 27  12  33  1   
 28  13  17  1   
 29  14  18  1   
 30  14  19  1   
 31  14  34  1   
 32  15  35  1   
 33  15  36  1   
 34  16  20  1   
 35  16  37  1   
 36  16  38  1   
 37  17  21  1   
 38  17  39  1   
 39  17  40  1   
 40  18  22  1   
 41  19  20  1   
 42  19  41  1   
 43  19  42  1   
 44  20  43  1   
 45  20  44  1   
 46  21  23  1   
 47  21  45  1   
 48  21  46  1   
 49  22  47  1   
 50  22  48  1   
 51  22  49  1   
 52  23  50  1   
 53  23  51  1   
 54  23  52  1   
@<TRIPOS>SUBSTRUCTURE
  1 ****   3 GROUP 4 **** **** 0

# MOE 2024.06 (io_trps.svl 2023.06)
