@<TRIPOS>MOLECULE
NONAME
59 62 1 0 0 
SMALL
USER_CHARGES


@<TRIPOS>ATOM
  1 O        0.4120    -0.8700     0.9670 O.3   1 <1>  -0.3630 
  2 C        0.1100    -2.1480     0.6300 C.ar  1 <1>   0.0830 
  3 C        1.4730    -0.5630     1.8400 C.3   1 <1>   0.1200 
  4 C       -0.9440    -2.3430    -0.2230 C.ar  1 <1>  -0.1500 
  5 C        0.8240    -3.2610     1.1130 C.ar  1 <1>  -0.1500 
  6 C        1.5270     0.9530     2.0010 C.3   1 <1>  -0.2400 
  7 C       -1.3320    -3.6330    -0.6310 C.ar  1 <1>   0.0000 
  8 C        0.4600    -4.5240     0.7260 C.ar  1 <1>  -0.1500 
  9 C       -0.6150    -4.7500    -0.1480 C.ar  1 <1>   0.3100 
 10 C       -2.4070    -3.8720    -1.5030 C.ar  1 <1>  -0.1500 
 11 N       -0.9220    -6.0250    -0.4950 N.ar  1 <1>  -0.6200 
 12 C       -2.6980    -5.1610    -1.8290 C.ar  1 <1>  -0.1500 
 13 C       -1.9310    -6.2120    -1.2960 C.ar  1 <1>   0.1670 
 14 C       -2.2800    -7.6490    -1.6870 C.3   1 <1>   0.2530 
 15 N       -3.1240    -8.3390    -0.6770 N.3   1 <1>  -0.8100 
 16 C       -3.1160    -9.7960    -0.8430 C.3   1 <1>   0.1100 
 17 C       -4.4810    -7.7770    -0.5920 C.3   1 <1>   0.1100 
 18 C       -3.8400   -10.4700     0.3470 C.3   1 <1>   0.4230 
 19 C       -5.2150    -8.4000     0.5990 C.3   1 <1>  -0.1600 
 20 N       -3.7210   -11.9890     0.3620 N.4   1 <1>  -0.9590 
 21 C       -5.2940    -9.9480     0.5270 C.3   1 <1>   0.0000 
 22 C       -4.7250   -12.6690     1.2450 C.3   1 <1>   0.3430 
 23 C       -3.7000   -12.6460    -0.9850 C.3   1 <1>   0.2630 
 24 C       -5.8740   -10.4860     1.8680 C.3   1 <1>  -0.1600 
 25 C       -6.1810   -10.3940    -0.6700 C.3   1 <1>   0.1200 
 26 C       -5.1660   -11.7530     2.3850 C.3   1 <1>  -0.1600 
 27 O       -7.4170    -9.7690    -0.6560 O.3   1 <1>  -0.6800 
 28 H        1.2850    -1.0400     2.7870 H     1 <1>   0.0800 
 29 H        2.3880    -0.9320     1.4090 H     1 <1>   0.0800 
 30 H       -1.4890    -1.4940    -0.5910 H     1 <1>   0.1500 
 31 H        1.6520    -3.1340     1.7820 H     1 <1>   0.1500 
 32 H        0.6030     1.3130     2.4170 H     1 <1>   0.0800 
 33 H        1.6980     1.4200     1.0480 H     1 <1>   0.0800 
 34 H        2.3300     1.2200     2.6640 H     1 <1>   0.0800 
 35 H        0.9910    -5.3860     1.0830 H     1 <1>   0.1500 
 36 H       -2.9720    -3.0430    -1.8900 H     1 <1>   0.1500 
 37 H       -3.5120    -5.3880    -2.4920 H     1 <1>   0.1500 
 38 H       -1.3500    -8.1800    -1.7930 H     1 <1>   0.0800 
 39 H       -2.7730    -7.6570    -2.6430 H     1 <1>   0.0800 
 40 H       -3.5800   -10.0470    -1.7800 H     1 <1>   0.0800 
 41 H       -2.0930   -10.1300    -0.8580 H     1 <1>   0.0800 
 42 H       -4.4240    -6.7140    -0.4310 H     1 <1>   0.0800 
 43 H       -5.0210    -7.9510    -1.5080 H     1 <1>   0.0800 
 44 H       -3.3130   -10.1180     1.2180 H     1 <1>   0.0800 
 45 H       -4.6870    -8.0980     1.4880 H     1 <1>   0.0800 
 46 H       -6.1990    -7.9690     0.6630 H     1 <1>   0.0800 
 47 H       -2.8020   -12.1630     0.7940 H     1 <1>   0.4500 
 48 H       -5.5950   -12.9360     0.6680 H     1 <1>   0.0800 
 49 H       -4.3030   -13.5770     1.6480 H     1 <1>   0.0800 
 50 H       -4.6230   -12.4630    -1.5090 H     1 <1>   0.0800 
 51 H       -3.5720   -13.7120    -0.8780 H     1 <1>   0.0800 
 52 H       -2.8840   -12.2670    -1.5790 H     1 <1>   0.0800 
 53 H       -5.7980    -9.7380     2.6400 H     1 <1>   0.0800 
 54 H       -6.9250   -10.6930     1.7590 H     1 <1>   0.0800 
 55 H       -6.3590   -11.4540    -0.6540 H     1 <1>   0.0800 
 56 H       -5.7270   -10.1400    -1.6110 H     1 <1>   0.0800 
 57 H       -5.8360   -12.2910     3.0340 H     1 <1>   0.0800 
 58 H       -4.3060   -11.4840     2.9750 H     1 <1>   0.0800 
 59 H       -7.9060    -9.9370     0.1740 H     1 <1>   0.4000 
@<TRIPOS>BOND
  1   1   2  1   
  2   1   3  1   
  3   2   4  ar  
  4   2   5  ar  
  5   3   6  1   
  6   3  28  1   
  7   3  29  1   
  8   4   7  ar  
  9   4  30  1   
 10   5   8  ar  
 11   5  31  1   
 12   6  32  1   
 13   6  33  1   
 14   6  34  1   
 15   7   9  ar  
 16   7  10  ar  
 17   8   9  ar  
 18   8  35  1   
 19   9  11  ar  
 20  10  12  ar  
 21  10  36  1   
 22  11  13  ar  
 23  12  13  ar  
 24  12  37  1   
 25  13  14  1   
 26  14  15  1   
 27  14  38  1   
 28  14  39  1   
 29  15  16  1   
 30  15  17  1   
 31  16  18  1   
 32  16  40  1   
 33  16  41  1   
 34  17  19  1   
 35  17  42  1   
 36  17  43  1   
 37  18  20  1   
 38  18  21  1   
 39  18  44  1   
 40  19  21  1   
 41  19  45  1   
 42  19  46  1   
 43  20  22  1   
 44  20  23  1   
 45  20  47  1   
 46  21  24  1   
 47  21  25  1   
 48  22  26  1   
 49  22  48  1   
 50  22  49  1   
 51  23  50  1   
 52  23  51  1   
 53  23  52  1   
 54  24  26  1   
 55  24  53  1   
 56  24  54  1   
 57  25  27  1   
 58  25  55  1   
 59  25  56  1   
 60  26  57  1   
 61  26  58  1   
 62  27  59  1   
@<TRIPOS>SUBSTRUCTURE
  1 ****  13 GROUP 4 **** **** 0

# MOE 2024.06 (io_trps.svl 2023.06)
