@<TRIPOS>MOLECULE
NONAME
52 55 1 0 0 
SMALL
USER_CHARGES


@<TRIPOS>ATOM
  1 O       -2.0910     1.5500     2.4650 O.2   1 <1>  -0.5700 
  2 C       -2.4350     1.9070     1.3610 C.2   1 <1>   0.5690 
  3 N       -2.8570     1.0120     0.3900 N.am  1 <1>  -0.4770 
  4 C       -2.3440     3.4190     1.0700 C.3   1 <1>   0.1710 
  5 C       -2.3550    -0.3130     0.2570 C.ar  1 <1>   0.1170 
  6 C       -3.9490     1.4020    -0.5440 C.3   1 <1>   0.1400 
  7 N       -1.0630     3.8840     0.4670 N.3   1 <1>  -0.8100 
  8 C       -3.0770    -1.2990    -0.4260 C.ar  1 <1>  -0.1440 
  9 C       -1.1120    -0.6690     0.7790 C.ar  1 <1>  -0.1500 
 10 C       -5.0170     0.3100    -0.5670 C.3   1 <1>  -0.1600 
 11 C        0.0780     3.5830     1.3620 C.3   1 <1>   0.2900 
 12 C       -0.8530     3.3220    -0.8780 C.3   1 <1>   0.0300 
 13 C       -2.5700    -2.5820    -0.5520 C.ar  1 <1>  -0.1500 
 14 C       -4.4220    -1.0030    -1.0720 C.3   1 <1>  -0.0170 
 15 C       -0.6110    -1.9510     0.6500 C.ar  1 <1>  -0.1500 
 16 C        1.3030     4.4100     1.0130 C.2   1 <1>  -0.0400 
 17 C       -1.3400    -2.9190    -0.0150 C.ar  1 <1>  -0.1440 
 18 O        2.4520     4.1080     1.5500 O.3   1 <1>  -0.0190 
 19 C        1.4970     5.4710     0.2190 C.2   1 <1>  -0.1500 
 20 C       -0.7980    -4.3290    -0.1590 C.3   1 <1>  -0.0970 
 21 N        3.4030     4.9000     1.1560 N.2   1 <1>  -0.4100 
 22 C        2.8640     5.7560     0.3350 C.2   1 <1>   0.2350 
 23 C        3.5550     6.8310    -0.3580 C.ar  1 <1>   0.3640 
 24 N        2.8600     7.5890    -1.2170 N.ar  1 <1>  -0.6200 
 25 C        4.9140     7.0560    -0.1230 C.ar  1 <1>  -0.1500 
 26 C        3.5170     8.5570    -1.8310 C.ar  1 <1>   0.1600 
 27 C        5.5880     8.0680    -0.7690 C.ar  1 <1>  -0.1500 
 28 C        4.8590     8.8370    -1.6480 C.ar  1 <1>  -0.1500 
 29 H       -2.4790     3.9320     2.0060 H     1 <1>   0.0800 
 30 H       -3.1490     3.7380     0.4390 H     1 <1>   0.0800 
 31 H       -3.5380     1.5440    -1.5290 H     1 <1>   0.0800 
 32 H       -4.4200     2.3130    -0.2280 H     1 <1>   0.0800 
 33 H       -0.5170     0.0570     1.2980 H     1 <1>   0.1500 
 34 H       -5.8330     0.6060    -1.2020 H     1 <1>   0.0800 
 35 H       -5.4000     0.1740     0.4300 H     1 <1>   0.0800 
 36 H        0.3230     2.5360     1.3040 H     1 <1>   0.0800 
 37 H       -0.1910     3.8030     2.3820 H     1 <1>   0.0800 
 38 H       -1.6930     3.5560    -1.5090 H     1 <1>   0.0800 
 39 H       -0.7310     2.2530    -0.8330 H     1 <1>   0.0800 
 40 H        0.0280     3.7470    -1.3260 H     1 <1>   0.0800 
 41 H       -3.1360    -3.3300    -1.0780 H     1 <1>   0.1500 
 42 H       -5.1100    -1.8070    -0.8720 H     1 <1>   0.0800 
 43 H       -4.2800    -0.9440    -2.1370 H     1 <1>   0.0800 
 44 H        0.3490    -2.1890     1.0710 H     1 <1>   0.1500 
 45 H        0.7890     6.0090    -0.3840 H     1 <1>   0.1500 
 46 H       -1.6020    -5.0430    -0.1490 H     1 <1>   0.0800 
 47 H       -0.1300    -4.5600     0.6520 H     1 <1>   0.0800 
 48 H       -0.2630    -4.4200    -1.0870 H     1 <1>   0.0800 
 49 H        5.4380     6.4270     0.5730 H     1 <1>   0.1500 
 50 H        2.9550     9.1640    -2.5200 H     1 <1>   0.1500 
 51 H        6.6350     8.2490    -0.5950 H     1 <1>   0.1500 
 52 H        5.3220     9.6440    -2.1860 H     1 <1>   0.1500 
@<TRIPOS>BOND
  1   1   2  2   
  2   2   3  am  
  3   2   4  1   
  4   3   5  1   
  5   3   6  1   
  6   4   7  1   
  7   4  29  1   
  8   4  30  1   
  9   5   8  ar  
 10   5   9  ar  
 11   6  10  1   
 12   6  31  1   
 13   6  32  1   
 14   7  11  1   
 15   7  12  1   
 16   8  13  ar  
 17   8  14  1   
 18   9  15  ar  
 19   9  33  1   
 20  10  14  1   
 21  10  34  1   
 22  10  35  1   
 23  11  16  1   
 24  11  36  1   
 25  11  37  1   
 26  12  38  1   
 27  12  39  1   
 28  12  40  1   
 29  13  17  ar  
 30  13  41  1   
 31  14  42  1   
 32  14  43  1   
 33  15  17  ar  
 34  15  44  1   
 35  16  18  1   
 36  16  19  2   
 37  17  20  1   
 38  18  21  1   
 39  19  22  1   
 40  19  45  1   
 41  20  46  1   
 42  20  47  1   
 43  20  48  1   
 44  21  22  2   
 45  22  23  1   
 46  23  24  ar  
 47  23  25  ar  
 48  24  26  ar  
 49  25  27  ar  
 50  25  49  1   
 51  26  28  ar  
 52  26  50  1   
 53  27  28  ar  
 54  27  51  1   
 55  28  52  1   
@<TRIPOS>SUBSTRUCTURE
  1 ****  12 GROUP 4 **** **** 0

# MOE 2024.06 (io_trps.svl 2023.06)
