@<TRIPOS>MOLECULE
NONAME
58 61 1 0 0 
SMALL
USER_CHARGES


@<TRIPOS>ATOM
  1 S       -0.0300     1.4430     0.9040 S.3   1 <1>  -0.0800 
  2 C        1.5850     1.1220     0.3100 C.2   1 <1>   0.1980 
  3 C       -0.6080     0.0840    -0.0150 C.2   1 <1>  -0.1100 
  4 N        1.6630     0.1230    -0.4770 N.2   1 <1>  -0.5650 
  5 C        2.6810     2.0550     0.7860 C.3   1 <1>   0.0200 
  6 C        0.4270    -0.4700    -0.6640 C.2   1 <1>   0.0460 
  7 C        4.0570     1.6160     0.2860 C.3   1 <1>   0.1400 
  8 C        0.3800    -1.6740    -1.5770 C.3   1 <1>  -0.0590 
  9 N        5.0730     2.6040     0.7110 N.am  1 <1>  -0.7300 
 10 C        6.1570     2.3600     1.4820 C.2   1 <1>   0.5690 
 11 O        6.4030     1.2600     1.9130 O.2   1 <1>  -0.5700 
 12 C        7.0850     3.5110     1.8310 C.3   1 <1>  -0.0990 
 13 C        8.1790     3.8270     0.7740 C.3   1 <1>   0.0000 
 14 C        8.9020     2.5130     0.3740 C.3   1 <1>  -0.1600 
 15 C        9.2250     4.7600     1.4370 C.3   1 <1>  -0.1600 
 16 C        7.5450     4.4680    -0.4970 C.3   1 <1>   0.1400 
 17 C       10.1690     2.7210    -0.4740 C.3   1 <1>  -0.1600 
 18 C       10.4650     5.0110     0.5630 C.3   1 <1>  -0.1600 
 19 N        6.9420     5.8180    -0.2770 N.am  1 <1>  -0.6600 
 20 C       11.1470     3.6870     0.2030 C.3   1 <1>  -0.1600 
 21 C        5.6070     6.1080    -0.2300 C.2   1 <1>   0.5440 
 22 C        7.7140     7.0540    -0.5960 C.3   1 <1>   0.2840 
 23 O        4.7390     5.2710    -0.0770 O.2   1 <1>  -0.5700 
 24 C        5.4010     7.5140    -0.4140 C.ar  1 <1>   0.0860 
 25 C        6.6260     8.1130    -0.6360 C.ar  1 <1>  -0.1430 
 26 C        4.2470     8.2880    -0.4070 C.ar  1 <1>  -0.1500 
 27 C        6.7320     9.4740    -0.8500 C.ar  1 <1>  -0.1500 
 28 C        4.3420     9.6530    -0.6200 C.ar  1 <1>  -0.1500 
 29 C        5.5790    10.2440    -0.8410 C.ar  1 <1>  -0.1500 
 30 H       -1.6550    -0.1500     0.0310 H     1 <1>   0.1500 
 31 H        2.6850     2.0660     1.8600 H     1 <1>   0.0800 
 32 H        2.4690     3.0450     0.4250 H     1 <1>   0.0800 
 33 H        4.0530     1.5540    -0.7890 H     1 <1>   0.0800 
 34 H        4.2960     0.6420     0.6810 H     1 <1>   0.0800 
 35 H       -0.6230    -2.0540    -1.6480 H     1 <1>   0.0800 
 36 H        1.0220    -2.4440    -1.1910 H     1 <1>   0.0800 
 37 H        0.7210    -1.3960    -2.5580 H     1 <1>   0.0800 
 38 H        4.9080     3.5730     0.3900 H     1 <1>   0.3700 
 39 H        7.5560     3.2500     2.7600 H     1 <1>   0.0800 
 40 H        6.4920     4.3870     2.0210 H     1 <1>   0.0800 
 41 H        8.2290     1.8700    -0.1680 H     1 <1>   0.0800 
 42 H        9.1840     1.9850     1.2700 H     1 <1>   0.0800 
 43 H        9.5640     4.3070     2.3530 H     1 <1>   0.0800 
 44 H        8.7720     5.6950     1.7120 H     1 <1>   0.0800 
 45 H        6.7880     3.8090    -0.8850 H     1 <1>   0.0800 
 46 H        8.2890     4.5610    -1.2660 H     1 <1>   0.0800 
 47 H        9.9080     3.0950    -1.4470 H     1 <1>   0.0800 
 48 H       10.6550     1.7710    -0.6180 H     1 <1>   0.0800 
 49 H       11.1600     5.6320     1.1010 H     1 <1>   0.0800 
 50 H       10.1930     5.5300    -0.3370 H     1 <1>   0.0800 
 51 H       11.9820     3.8740    -0.4500 H     1 <1>   0.0800 
 52 H       11.5290     3.2300     1.1010 H     1 <1>   0.0800 
 53 H        8.1990     6.9630    -1.5520 H     1 <1>   0.0800 
 54 H        8.4320     7.2710     0.1740 H     1 <1>   0.0800 
 55 H        3.2960     7.8150    -0.2360 H     1 <1>   0.1500 
 56 H        7.6900     9.9350    -1.0220 H     1 <1>   0.1500 
 57 H        3.4520    10.2600    -0.6160 H     1 <1>   0.1500 
 58 H        5.6420    11.3060    -1.0050 H     1 <1>   0.1500 
@<TRIPOS>BOND
  1   1   2  1   
  2   1   3  1   
  3   2   4  2   
  4   2   5  1   
  5   3   6  2   
  6   3  30  1   
  7   4   6  1   
  8   5   7  1   
  9   5  31  1   
 10   5  32  1   
 11   6   8  1   
 12   7   9  1   
 13   7  33  1   
 14   7  34  1   
 15   8  35  1   
 16   8  36  1   
 17   8  37  1   
 18   9  10  am  
 19   9  38  1   
 20  10  11  2   
 21  10  12  1   
 22  12  13  1   
 23  12  39  1   
 24  12  40  1   
 25  13  14  1   
 26  13  15  1   
 27  13  16  1   
 28  14  17  1   
 29  14  41  1   
 30  14  42  1   
 31  15  18  1   
 32  15  43  1   
 33  15  44  1   
 34  16  19  1   
 35  16  45  1   
 36  16  46  1   
 37  17  20  1   
 38  17  47  1   
 39  17  48  1   
 40  18  20  1   
 41  18  49  1   
 42  18  50  1   
 43  19  21  am  
 44  19  22  1   
 45  20  51  1   
 46  20  52  1   
 47  21  23  2   
 48  21  24  1   
 49  22  25  1   
 50  22  53  1   
 51  22  54  1   
 52  24  25  ar  
 53  24  26  ar  
 54  25  27  ar  
 55  26  28  ar  
 56  26  55  1   
 57  27  29  ar  
 58  27  56  1   
 59  28  29  ar  
 60  28  57  1   
 61  29  58  1   
@<TRIPOS>SUBSTRUCTURE
  1 ****  23 GROUP 4 **** **** 0

# MOE 2024.06 (io_trps.svl 2023.06)
