@<TRIPOS>MOLECULE
NONAME
50 53 1 0 0 
SMALL
USER_CHARGES


@<TRIPOS>ATOM
  1 O       -0.7730     0.2790    -2.0210 O.2   1 <1>  -0.5700 
  2 C       -1.5840     1.0010    -1.4680 C.2   1 <1>   0.5440 
  3 N       -2.8720     0.4970    -1.3210 N.am  1 <1>  -0.6600 
  4 C       -1.1500     2.3150    -0.9950 C.ar  1 <1>   0.3960 
  5 C       -3.1610    -0.9550    -1.4860 C.3   1 <1>   0.1400 
  6 C       -4.0420     1.2830    -0.8370 C.3   1 <1>   0.1400 
  7 N       -1.5380     2.7960     0.1680 N.ar  1 <1>  -0.6200 
  8 C       -0.2690     3.0450    -1.8370 C.ar  1 <1>   0.1600 
  9 C       -3.5910    -1.5460    -0.1240 C.3   1 <1>   0.4230 
 10 C       -4.4620     0.7290     0.5290 C.3   1 <1>  -0.1600 
 11 C       -1.0490     4.0230     0.4750 C.ar  1 <1>   0.3100 
 12 N        0.2150     4.2220    -1.5830 N.ar  1 <1>  -0.6200 
 13 N       -3.7430    -3.0630    -0.1300 N.4   1 <1>  -0.9590 
 14 C       -4.8040    -0.7900     0.4970 C.3   1 <1>   0.0000 
 15 C       -0.1810     4.7350    -0.3920 C.ar  1 <1>   0.3100 
 16 C       -1.4130     4.6170     1.6940 C.ar  1 <1>  -0.1500 
 17 C       -4.5330    -3.6040     1.0250 C.3   1 <1>   0.3430 
 18 C       -4.2450    -3.6560    -1.4140 C.3   1 <1>   0.2630 
 19 C       -5.0190    -1.2830     1.9590 C.3   1 <1>  -0.1600 
 20 C       -6.0830    -1.0390    -0.3540 C.3   1 <1>   0.1200 
 21 C        0.2760     6.0020    -0.0020 C.ar  1 <1>  -0.1500 
 22 C       -0.9520     5.8570     2.0510 C.ar  1 <1>  -0.1500 
 23 C       -4.4320    -2.6800     2.2380 C.3   1 <1>  -0.1600 
 24 O       -7.1300    -0.2230     0.0410 O.3   1 <1>  -0.6800 
 25 C       -0.0980     6.5580     1.1940 C.ar  1 <1>  -0.1500 
 26 H       -3.9320    -1.0650    -2.2250 H     1 <1>   0.0800 
 27 H       -2.2860    -1.4760    -1.8340 H     1 <1>   0.0800 
 28 H       -3.8070     2.3300    -0.7580 H     1 <1>   0.0800 
 29 H       -4.8510     1.1960    -1.5430 H     1 <1>   0.0800 
 30 H        0.0150     2.5750    -2.7630 H     1 <1>   0.1500 
 31 H       -2.7660    -1.3330     0.5360 H     1 <1>   0.0800 
 32 H       -3.6480     0.9120     1.2110 H     1 <1>   0.0800 
 33 H       -5.2980     1.3010     0.8910 H     1 <1>   0.0800 
 34 H       -2.7820    -3.4140    -0.0020 H     1 <1>   0.4500 
 35 H       -2.0700     4.0670     2.3440 H     1 <1>   0.1500 
 36 H       -5.5710    -3.6910     0.7490 H     1 <1>   0.0800 
 37 H       -4.1750    -4.5880     1.2840 H     1 <1>   0.0800 
 38 H       -5.2360    -3.2980    -1.6350 H     1 <1>   0.0800 
 39 H       -4.2780    -4.7320    -1.3400 H     1 <1>   0.0800 
 40 H       -3.5920    -3.3970    -2.2320 H     1 <1>   0.0800 
 41 H       -4.5650    -0.6000     2.6590 H     1 <1>   0.0800 
 42 H       -6.0690    -1.2920     2.1950 H     1 <1>   0.0800 
 43 H       -6.4220    -2.0550    -0.2710 H     1 <1>   0.0800 
 44 H       -5.9100    -0.8240    -1.3930 H     1 <1>   0.0800 
 45 H        0.9330     6.5240    -0.6740 H     1 <1>   0.1500 
 46 H       -1.2380     6.3040     2.9890 H     1 <1>   0.1500 
 47 H       -4.9580    -3.1240     3.0660 H     1 <1>   0.0800 
 48 H       -3.3990    -2.5970     2.5320 H     1 <1>   0.0800 
 49 H       -7.4160    -0.4010     0.9580 H     1 <1>   0.4000 
 50 H        0.2590     7.5310     1.4850 H     1 <1>   0.1500 
@<TRIPOS>BOND
  1   1   2  2   
  2   2   3  am  
  3   2   4  1   
  4   3   5  1   
  5   3   6  1   
  6   4   7  ar  
  7   4   8  ar  
  8   5   9  1   
  9   5  26  1   
 10   5  27  1   
 11   6  10  1   
 12   6  28  1   
 13   6  29  1   
 14   7  11  ar  
 15   8  12  ar  
 16   8  30  1   
 17   9  13  1   
 18   9  14  1   
 19   9  31  1   
 20  10  14  1   
 21  10  32  1   
 22  10  33  1   
 23  11  15  ar  
 24  11  16  ar  
 25  12  15  ar  
 26  13  17  1   
 27  13  18  1   
 28  13  34  1   
 29  14  19  1   
 30  14  20  1   
 31  15  21  ar  
 32  16  22  ar  
 33  16  35  1   
 34  17  23  1   
 35  17  36  1   
 36  17  37  1   
 37  18  38  1   
 38  18  39  1   
 39  18  40  1   
 40  19  23  1   
 41  19  41  1   
 42  19  42  1   
 43  20  24  1   
 44  20  43  1   
 45  20  44  1   
 46  21  25  ar  
 47  21  45  1   
 48  22  25  ar  
 49  22  46  1   
 50  23  47  1   
 51  23  48  1   
 52  24  49  1   
 53  25  50  1   
@<TRIPOS>SUBSTRUCTURE
  1 ****   3 GROUP 4 **** **** 0

# MOE 2024.06 (io_trps.svl 2023.06)
