@<TRIPOS>MOLECULE
NONAME
49 52 1 0 0 
SMALL
USER_CHARGES


@<TRIPOS>ATOM
  1 S        0.2720     0.2600    -0.1260 S.3   1 <1>  -0.0800 
  2 C        0.5150     1.8820     0.4500 C.2   1 <1>   0.4620 
  3 C       -1.2860     0.2830     0.6430 C.2   1 <1>   0.1980 
  4 N       -0.4980     2.3010     1.1250 N.2   1 <1>  -0.3380 
  5 N        1.6860     2.5600     0.1660 N.pl3 1 <1>  -0.8220 
  6 N       -1.5120     1.3940     1.2320 N.2   1 <1>  -0.3380 
  7 C       -2.1470    -0.9780     0.5210 C.3   1 <1>   1.2000 
  8 C        1.8530     3.9890     0.5800 C.3   1 <1>   0.2090 
  9 C        2.8770     1.9780    -0.5250 C.3   1 <1>   0.2090 
 10 F       -2.4300    -1.2770    -0.7440 F     1 <1>  -0.3400 
 11 F       -3.3160    -0.8880     1.1480 F     1 <1>  -0.3400 
 12 F       -1.5430    -2.0510     1.0240 F     1 <1>  -0.3400 
 13 C        3.1370     4.1750     1.4080 C.3   1 <1>   0.2090 
 14 C        4.1660     2.1980     0.3000 C.3   1 <1>   0.2090 
 15 N        4.3560     3.6470     0.6800 N.pl3 1 <1>  -0.8380 
 16 C        5.3990     4.4590     0.3620 C.ar  1 <1>   0.7710 
 17 N        5.2570     5.7710     0.4760 N.ar  1 <1>  -0.6200 
 18 N        6.5550     3.9130    -0.0580 N.ar  1 <1>  -0.1790 
 19 C        6.2730     6.5550     0.1700 C.ar  1 <1>   0.4100 
 20 C        7.6190     4.6770    -0.4040 C.ar  1 <1>   0.2110 
 21 N        6.1050     7.8950     0.3200 N.pl3 1 <1>  -0.8380 
 22 C        7.4880     6.0190    -0.2990 C.ar  1 <1>  -0.1500 
 23 C        7.2020     8.8550     0.6780 C.3   1 <1>   0.2090 
 24 C        4.7650     8.5540     0.2380 C.3   1 <1>   0.2090 
 25 C        7.2740     9.9940    -0.3530 C.3   1 <1>   0.2000 
 26 C        4.8110     9.6830    -0.8010 C.3   1 <1>  -0.1600 
 27 O        8.2150    10.9270     0.0470 O.3   1 <1>  -0.6800 
 28 C        5.9240    10.7040    -0.5080 C.3   1 <1>  -0.1600 
 29 H        1.0100     4.3160     1.1650 H     1 <1>   0.0800 
 30 H        1.9020     4.6110    -0.2970 H     1 <1>   0.0800 
 31 H        2.9830     2.4490    -1.4860 H     1 <1>   0.0800 
 32 H        2.7500     0.9240    -0.6910 H     1 <1>   0.0800 
 33 H        3.0210     3.6400     2.3350 H     1 <1>   0.0800 
 34 H        3.2350     5.2160     1.6590 H     1 <1>   0.0800 
 35 H        4.9960     1.8280    -0.2730 H     1 <1>   0.0800 
 36 H        4.0960     1.6060     1.1980 H     1 <1>   0.0800 
 37 H        6.5880     2.9010    -0.0630 H     1 <1>   0.4570 
 38 H        8.5240     4.2030    -0.7490 H     1 <1>   0.1500 
 39 H        8.2850     6.6820    -0.5770 H     1 <1>   0.1500 
 40 H        8.1530     8.3600     0.7350 H     1 <1>   0.0800 
 41 H        6.9850     9.2700     1.6470 H     1 <1>   0.0800 
 42 H        4.5050     8.9510     1.2050 H     1 <1>   0.0800 
 43 H        4.0050     7.8470    -0.0480 H     1 <1>   0.0800 
 44 H        7.5980     9.5950    -1.2990 H     1 <1>   0.0800 
 45 H        3.8600    10.1850    -0.8180 H     1 <1>   0.0800 
 46 H        4.9660     9.2480    -1.7730 H     1 <1>   0.0800 
 47 H        7.8630    11.4790     0.7710 H     1 <1>   0.4000 
 48 H        5.9810    11.4150    -1.3140 H     1 <1>   0.0800 
 49 H        5.6820    11.2280     0.4000 H     1 <1>   0.0800 
@<TRIPOS>BOND
  1   1   2  1   
  2   1   3  1   
  3   2   4  2   
  4   2   5  1   
  5   3   6  2   
  6   3   7  1   
  7   4   6  1   
  8   5   8  1   
  9   5   9  1   
 10   7  10  1   
 11   7  11  1   
 12   7  12  1   
 13   8  13  1   
 14   8  29  1   
 15   8  30  1   
 16   9  14  1   
 17   9  31  1   
 18   9  32  1   
 19  13  15  1   
 20  13  33  1   
 21  13  34  1   
 22  14  15  1   
 23  14  35  1   
 24  14  36  1   
 25  15  16  1   
 26  16  17  ar  
 27  16  18  ar  
 28  17  19  ar  
 29  18  20  ar  
 30  18  37  1   
 31  19  21  1   
 32  19  22  ar  
 33  20  22  ar  
 34  20  38  1   
 35  21  23  1   
 36  21  24  1   
 37  22  39  1   
 38  23  25  1   
 39  23  40  1   
 40  23  41  1   
 41  24  26  1   
 42  24  42  1   
 43  24  43  1   
 44  25  27  1   
 45  25  28  1   
 46  25  44  1   
 47  26  28  1   
 48  26  45  1   
 49  26  46  1   
 50  27  47  1   
 51  28  48  1   
 52  28  49  1   
@<TRIPOS>SUBSTRUCTURE
  1 ****  13 GROUP 4 **** **** 0

# MOE 2024.06 (io_trps.svl 2023.06)
