@<TRIPOS>MOLECULE
NONAME
54 56 1 0 0 
SMALL
USER_CHARGES


@<TRIPOS>ATOM
  1 S        0.0440    -0.5220     0.8420 S.3   1 <1>  -0.0800 
  2 C       -1.4610    -1.1050     0.2080 C.2   1 <1>   0.4420 
  3 C       -0.5460     1.0830     0.5710 C.2   1 <1>   0.1980 
  4 N       -2.2420    -0.1470    -0.1390 N.2   1 <1>  -0.3380 
  5 N       -1.6090    -2.4750     0.1490 N.am  1 <1>  -0.4940 
  6 N       -1.7140     1.0980     0.0730 N.2   1 <1>  -0.3380 
  7 C        0.3430     2.2540     0.9430 C.3   1 <1>   0.0200 
  8 C       -2.7060    -3.2310    -0.1870 C.2   1 <1>   0.5440 
  9 C        1.5200     2.4040    -0.0330 C.3   1 <1>  -0.1600 
 10 O       -3.7940    -2.7050    -0.2960 O.2   1 <1>  -0.5700 
 11 C       -2.5610    -4.6600    -0.3650 C.ar  1 <1>   0.0860 
 12 C        2.3990     3.6090     0.3280 C.3   1 <1>  -0.1600 
 13 C       -3.6170    -5.5290    -0.0770 C.ar  1 <1>  -0.1500 
 14 C       -1.3750    -5.2420    -0.8250 C.ar  1 <1>  -0.1500 
 15 C        3.5690     3.7510    -0.6520 C.3   1 <1>  -0.1600 
 16 C       -3.4940    -6.8960    -0.2200 C.ar  1 <1>  -0.1500 
 17 C       -1.2500    -6.6100    -0.9680 C.ar  1 <1>  -0.1500 
 18 C        4.4450     4.9530    -0.2930 C.3   1 <1>  -0.2400 
 19 C       -2.3040    -7.4630    -0.6650 C.ar  1 <1>   0.1000 
 20 N       -2.1580    -8.8350    -0.8100 N.pl3 1 <1>  -0.8380 
 21 C       -1.0790    -9.5630    -0.0780 C.3   1 <1>   0.2090 
 22 C       -3.2070    -9.6720    -1.4680 C.3   1 <1>   0.2090 
 23 C       -1.6740   -10.6390     0.8580 C.3   1 <1>   0.3430 
 24 C       -3.7500   -10.7470    -0.5020 C.3   1 <1>   0.3430 
 25 N       -2.6520   -11.5510     0.1550 N.4   1 <1>  -0.9590 
 26 C       -3.2130   -12.5680     1.0950 C.3   1 <1>   0.2630 
 27 H       -0.7900    -3.0030     0.4310 H     1 <1>   0.3700 
 28 H        0.7080     2.1130     1.9450 H     1 <1>   0.0800 
 29 H       -0.2510     3.1500     0.9280 H     1 <1>   0.0800 
 30 H        1.1320     2.5280    -1.0300 H     1 <1>   0.0800 
 31 H        2.1170     1.5090    -0.0160 H     1 <1>   0.0800 
 32 H        2.7850     3.4880     1.3270 H     1 <1>   0.0800 
 33 H        1.8050     4.5070     0.3050 H     1 <1>   0.0800 
 34 H       -4.5480    -5.1090     0.2650 H     1 <1>   0.1500 
 35 H       -0.5410    -4.6170    -1.0920 H     1 <1>   0.1500 
 36 H        3.1900     3.8770    -1.6530 H     1 <1>   0.0800 
 37 H        4.1700     2.8580    -0.6330 H     1 <1>   0.0800 
 38 H       -4.3280    -7.5250     0.0210 H     1 <1>   0.1500 
 39 H       -0.3310    -7.0290    -1.3350 H     1 <1>   0.1500 
 40 H        3.8710     5.8630    -0.3280 H     1 <1>   0.0800 
 41 H        5.2590     5.0370    -0.9910 H     1 <1>   0.0800 
 42 H        4.8550     4.8400     0.6960 H     1 <1>   0.0800 
 43 H       -0.5040    -8.8660     0.5080 H     1 <1>   0.0800 
 44 H       -0.4150   -10.0230    -0.7890 H     1 <1>   0.0800 
 45 H       -2.7820   -10.1470    -2.3360 H     1 <1>   0.0800 
 46 H       -4.0160    -9.0480    -1.8080 H     1 <1>   0.0800 
 47 H       -2.1740   -10.1330     1.6670 H     1 <1>   0.0800 
 48 H       -0.8690   -11.2180     1.2800 H     1 <1>   0.0800 
 49 H       -4.4110   -11.4030    -1.0450 H     1 <1>   0.0800 
 50 H       -4.3310   -10.2490     0.2560 H     1 <1>   0.0800 
 51 H       -2.1360   -12.0360    -0.5940 H     1 <1>   0.4500 
 52 H       -3.7580   -12.0830     1.8890 H     1 <1>   0.0800 
 53 H       -2.4200   -13.1550     1.5300 H     1 <1>   0.0800 
 54 H       -3.8830   -13.2320     0.5730 H     1 <1>   0.0800 
@<TRIPOS>BOND
  1   1   2  1   
  2   1   3  1   
  3   2   4  2   
  4   2   5  1   
  5   3   6  2   
  6   3   7  1   
  7   4   6  1   
  8   5   8  am  
  9   5  27  1   
 10   7   9  1   
 11   7  28  1   
 12   7  29  1   
 13   8  10  2   
 14   8  11  1   
 15   9  12  1   
 16   9  30  1   
 17   9  31  1   
 18  11  13  ar  
 19  11  14  ar  
 20  12  15  1   
 21  12  32  1   
 22  12  33  1   
 23  13  16  ar  
 24  13  34  1   
 25  14  17  ar  
 26  14  35  1   
 27  15  18  1   
 28  15  36  1   
 29  15  37  1   
 30  16  19  ar  
 31  16  38  1   
 32  17  19  ar  
 33  17  39  1   
 34  18  40  1   
 35  18  41  1   
 36  18  42  1   
 37  19  20  1   
 38  20  21  1   
 39  20  22  1   
 40  21  23  1   
 41  21  43  1   
 42  21  44  1   
 43  22  24  1   
 44  22  45  1   
 45  22  46  1   
 46  23  25  1   
 47  23  47  1   
 48  23  48  1   
 49  24  25  1   
 50  24  49  1   
 51  24  50  1   
 52  25  26  1   
 53  25  51  1   
 54  26  52  1   
 55  26  53  1   
 56  26  54  1   
@<TRIPOS>SUBSTRUCTURE
  1 ****   5 GROUP 4 **** **** 0

# MOE 2024.06 (io_trps.svl 2023.06)
