@<TRIPOS>MOLECULE
NONAME
46 47 1 0 0 
SMALL
USER_CHARGES


@<TRIPOS>ATOM
  1 O        3.7300     1.5030     1.9060 O.co2 1 <1>  -0.9000 
  2 C        2.9430     0.6720     1.4290 C.2   1 <1>   0.9060 
  3 O        2.9240    -0.4870     1.8400 O.co2 1 <1>  -0.9000 
  4 C        2.2080     0.9910     0.1090 C.3   1 <1>  -0.1060 
  5 C        2.8470     0.0030    -0.8980 C.3   1 <1>   0.2000 
  6 C        2.5260     2.4460    -0.3770 C.3   1 <1>  -0.1600 
  7 C        0.6810     0.7890     0.3500 C.3   1 <1>  -0.1600 
  8 O        2.4010     0.2730    -2.1920 O.3   1 <1>  -0.6800 
  9 C        4.3920     0.1530    -0.8820 C.3   1 <1>   0.3430 
 10 C        3.8990     2.5950    -1.0660 C.3   1 <1>   0.3430 
 11 C       -0.2620     0.8290    -0.8670 C.3   1 <1>  -0.1600 
 12 N        4.8350     1.5590    -0.5550 N.4   1 <1>  -0.9590 
 13 C       -1.7240     0.8030    -0.4150 C.3   1 <1>  -0.2400 
 14 C        6.2680     1.8110    -0.7970 C.3   1 <1>   0.4860 
 15 C        6.6350     3.2040    -0.3140 C.ar  1 <1>  -0.1430 
 16 C        6.3920     3.5760     1.0010 C.ar  1 <1>  -0.1500 
 17 C        7.2060     4.1180    -1.1870 C.ar  1 <1>  -0.1500 
 18 C        6.7050     4.8500     1.4410 C.ar  1 <1>  -0.1430 
 19 C        7.5250     5.3910    -0.7480 C.ar  1 <1>  -0.1500 
 20 C        7.2750     5.7560     0.5630 C.ar  1 <1>  -0.1500 
 21 C        6.4210     5.2430     2.8800 C.3   1 <1>  -0.0970 
 22 H        2.5780    -1.0140    -0.6630 H     1 <1>   0.0800 
 23 H        2.4780     3.1230     0.4580 H     1 <1>   0.0800 
 24 H        1.7890     2.7850    -1.0790 H     1 <1>   0.0800 
 25 H        0.5400    -0.1610     0.8390 H     1 <1>   0.0800 
 26 H        0.3660     1.5400     1.0560 H     1 <1>   0.0800 
 27 H        1.4230     0.2650    -2.1900 H     1 <1>   0.4000 
 28 H        4.7780    -0.1580    -1.8380 H     1 <1>   0.0800 
 29 H        4.7810    -0.5090    -0.1250 H     1 <1>   0.0800 
 30 H        4.2850     3.5830    -0.8770 H     1 <1>   0.0800 
 31 H        3.7800     2.4670    -2.1300 H     1 <1>   0.0800 
 32 H       -0.1020     1.7180    -1.4510 H     1 <1>   0.0800 
 33 H       -0.0950    -0.0320    -1.4890 H     1 <1>   0.0800 
 34 H        4.6990     1.6380     0.4870 H     1 <1>   0.4500 
 35 H       -1.9470     1.6630     0.1920 H     1 <1>   0.0800 
 36 H       -1.9240    -0.0850     0.1600 H     1 <1>   0.0800 
 37 H       -2.3770     0.8110    -1.2700 H     1 <1>   0.0800 
 38 H        6.8580     1.0860    -0.2620 H     1 <1>   0.0800 
 39 H        6.4810     1.7220    -1.8490 H     1 <1>   0.0800 
 40 H        5.9490     2.8780     1.6950 H     1 <1>   0.1500 
 41 H        7.4070     3.8530    -2.2110 H     1 <1>   0.1500 
 42 H        7.9700     6.1010    -1.4240 H     1 <1>   0.1500 
 43 H        7.5250     6.7470     0.8970 H     1 <1>   0.1500 
 44 H        6.2080     6.2940     2.9500 H     1 <1>   0.0800 
 45 H        7.2740     5.0170     3.4940 H     1 <1>   0.0800 
 46 H        5.5710     4.7000     3.2560 H     1 <1>   0.0800 
@<TRIPOS>BOND
  1   1   2  ar  
  2   2   3  ar  
  3   2   4  1   
  4   4   5  1   
  5   4   6  1   
  6   4   7  1   
  7   5   8  1   
  8   5   9  1   
  9   5  22  1   
 10   6  10  1   
 11   6  23  1   
 12   6  24  1   
 13   7  11  1   
 14   7  25  1   
 15   7  26  1   
 16   8  27  1   
 17   9  12  1   
 18   9  28  1   
 19   9  29  1   
 20  10  12  1   
 21  10  30  1   
 22  10  31  1   
 23  11  13  1   
 24  11  32  1   
 25  11  33  1   
 26  12  14  1   
 27  12  34  1   
 28  13  35  1   
 29  13  36  1   
 30  13  37  1   
 31  14  15  1   
 32  14  38  1   
 33  14  39  1   
 34  15  16  ar  
 35  15  17  ar  
 36  16  18  ar  
 37  16  40  1   
 38  17  19  ar  
 39  17  41  1   
 40  18  20  ar  
 41  18  21  1   
 42  19  20  ar  
 43  19  42  1   
 44  20  43  1   
 45  21  44  1   
 46  21  45  1   
 47  21  46  1   
@<TRIPOS>SUBSTRUCTURE
  1 ****  12 GROUP 4 **** **** 0

# MOE 2024.06 (io_trps.svl 2023.06)
