@<TRIPOS>MOLECULE
NONAME
51 53 1 0 0 
SMALL
USER_CHARGES


@<TRIPOS>ATOM
  1 O        1.7080    -1.2220     0.7270 O.co2 1 <1>  -0.9000 
  2 C        1.8600    -0.0050     0.9180 C.2   1 <1>   0.9060 
  3 O        1.7530     0.4720     2.0530 O.co2 1 <1>  -0.9000 
  4 C        2.1970     0.8950    -0.2890 C.3   1 <1>  -0.1060 
  5 C        3.3420     0.2420    -1.1060 C.3   1 <1>   0.2000 
  6 C        2.7050     2.2950     0.1630 C.3   1 <1>  -0.1600 
  7 C        0.9440     1.0340    -1.1960 C.3   1 <1>  -0.0160 
  8 O        2.9770    -1.0340    -1.5070 O.3   1 <1>  -0.6800 
  9 C        4.6550     0.1700    -0.3120 C.3   1 <1>   0.1400 
 10 C        4.0250     2.2210     0.9420 C.3   1 <1>   0.1400 
 11 C       -0.1010     2.0400    -0.7180 C.ar  1 <1>  -0.1440 
 12 N        5.0660     1.5490     0.1090 N.am  1 <1>  -0.6600 
 13 C       -0.8480     1.7930     0.4240 C.ar  1 <1>  -0.1500 
 14 C       -0.3180     3.2140    -1.4250 C.ar  1 <1>  -0.1500 
 15 C        6.2550     2.1000    -0.3070 C.2   1 <1>   0.5690 
 16 C       -1.7940     2.7060     0.8550 C.ar  1 <1>  -0.1500 
 17 C       -1.2660     4.1280    -0.9970 C.ar  1 <1>  -0.1500 
 18 O        6.9790     1.5160    -1.0830 O.2   1 <1>  -0.5700 
 19 C        6.7030     3.4860     0.1850 C.3   1 <1>  -0.0190 
 20 C       -2.0050     3.8740     0.1450 C.ar  1 <1>  -0.1500 
 21 C        6.0620     4.6050    -0.6620 C.3   1 <1>  -0.1600 
 22 C        8.2390     3.6530     0.1970 C.3   1 <1>  -0.1600 
 23 C        6.4730     5.9990    -0.1660 C.3   1 <1>  -0.1600 
 24 C        8.6540     5.0440     0.7000 C.3   1 <1>  -0.1600 
 25 C        7.9990     6.1500    -0.1370 C.3   1 <1>  -0.1600 
 26 H        3.5290     0.8060    -2.0030 H     1 <1>   0.0800 
 27 H        1.9700     2.7550     0.8010 H     1 <1>   0.0800 
 28 H        2.8380     2.9340    -0.6920 H     1 <1>   0.0800 
 29 H        1.2600     1.3180    -2.1830 H     1 <1>   0.0800 
 30 H        0.4710     0.0710    -1.2950 H     1 <1>   0.0800 
 31 H        2.4730    -1.4250    -0.7270 H     1 <1>   0.4000 
 32 H        5.4120    -0.2810    -0.9280 H     1 <1>   0.0800 
 33 H        4.5190    -0.4390     0.5650 H     1 <1>   0.0800 
 34 H        3.8880     1.6600     1.8520 H     1 <1>   0.0800 
 35 H        4.3150     3.2160     1.2200 H     1 <1>   0.0800 
 36 H       -0.6870     0.8890     0.9890 H     1 <1>   0.1500 
 37 H        0.2540     3.4210    -2.3110 H     1 <1>   0.1500 
 38 H       -2.3600     2.5000     1.7460 H     1 <1>   0.1500 
 39 H       -1.4270     5.0350    -1.5510 H     1 <1>   0.1500 
 40 H        6.3840     3.5940     1.2040 H     1 <1>   0.0800 
 41 H       -2.7410     4.5820     0.4820 H     1 <1>   0.1500 
 42 H        6.3690     4.4860    -1.6870 H     1 <1>   0.0800 
 43 H        4.9910     4.5180    -0.6330 H     1 <1>   0.0800 
 44 H        8.6750     2.8960     0.8250 H     1 <1>   0.0800 
 45 H        8.6220     3.5110    -0.8000 H     1 <1>   0.0800 
 46 H        6.0490     6.7490    -0.8100 H     1 <1>   0.0800 
 47 H        6.0800     6.1540     0.8250 H     1 <1>   0.0800 
 48 H        8.3620     5.1530     1.7300 H     1 <1>   0.0800 
 49 H        9.7240     5.1390     0.6480 H     1 <1>   0.0800 
 50 H        8.2590     7.1120     0.2700 H     1 <1>   0.0800 
 51 H        8.3790     6.1050    -1.1430 H     1 <1>   0.0800 
@<TRIPOS>BOND
  1   1   2  ar  
  2   2   3  ar  
  3   2   4  1   
  4   4   5  1   
  5   4   6  1   
  6   4   7  1   
  7   5   8  1   
  8   5   9  1   
  9   5  26  1   
 10   6  10  1   
 11   6  27  1   
 12   6  28  1   
 13   7  11  1   
 14   7  29  1   
 15   7  30  1   
 16   8  31  1   
 17   9  12  1   
 18   9  32  1   
 19   9  33  1   
 20  10  12  1   
 21  10  34  1   
 22  10  35  1   
 23  11  13  ar  
 24  11  14  ar  
 25  12  15  am  
 26  13  16  ar  
 27  13  36  1   
 28  14  17  ar  
 29  14  37  1   
 30  15  18  2   
 31  15  19  1   
 32  16  20  ar  
 33  16  38  1   
 34  17  20  ar  
 35  17  39  1   
 36  19  21  1   
 37  19  22  1   
 38  19  40  1   
 39  20  41  1   
 40  21  23  1   
 41  21  42  1   
 42  21  43  1   
 43  22  24  1   
 44  22  44  1   
 45  22  45  1   
 46  23  25  1   
 47  23  46  1   
 48  23  47  1   
 49  24  25  1   
 50  24  48  1   
 51  24  49  1   
 52  25  50  1   
 53  25  51  1   
@<TRIPOS>SUBSTRUCTURE
  1 ****   6 GROUP 4 **** **** 0

# MOE 2024.06 (io_trps.svl 2023.06)
