@<TRIPOS>MOLECULE
NONAME
50 53 1 0 0 
SMALL
USER_CHARGES


@<TRIPOS>ATOM
  1 N        0.3500    -0.5860    -2.0330 N.2   1 <1>  -0.5650 
  2 C        1.3230    -0.4330    -1.1940 C.2   1 <1>   0.0360 
  3 C        0.0020    -1.8750    -1.8720 C.2   1 <1>   0.0770 
  4 N        1.6310    -1.5450    -0.4900 N.pl3 1 <1>   0.2940 
  5 C        0.7590    -2.4760    -0.9260 C.2   1 <1>  -0.3320 
  6 C        2.6800    -1.6880     0.5480 C.3   1 <1>  -0.0910 
  7 C        0.7190    -3.8990    -0.4090 C.3   1 <1>   0.2900 
  8 C        4.0620    -1.1700     0.2820 C.3   1 <1>  -0.2000 
  9 C        3.8150    -2.6440     0.3290 C.3   1 <1>  -0.2000 
 10 N       -0.6200    -4.4710    -0.6310 N.3   1 <1>  -0.8100 
 11 C       -1.6400    -3.8550     0.2420 C.3   1 <1>   0.1100 
 12 C       -0.6240    -5.9360    -0.4960 C.3   1 <1>   0.1100 
 13 C       -3.0430    -4.4070    -0.0700 C.3   1 <1>   0.3430 
 14 C       -2.0170    -6.5180    -0.8140 C.3   1 <1>   0.3430 
 15 N       -3.1070    -5.9130     0.0400 N.4   1 <1>  -0.9590 
 16 C       -4.4650    -6.4570    -0.2840 C.3   1 <1>   0.4230 
 17 C       -5.5260    -5.8250     0.6400 C.3   1 <1>  -0.1600 
 18 C       -4.4740    -7.9910    -0.1300 C.3   1 <1>  -0.1600 
 19 C       -6.9200    -6.4280     0.4200 C.3   1 <1>  -0.1600 
 20 C       -5.8720    -8.5880    -0.3480 C.3   1 <1>  -0.1600 
 21 C       -6.9020    -7.9490     0.5870 C.3   1 <1>  -0.1600 
 22 H        1.8580     0.4880    -1.0490 H     1 <1>   0.1500 
 23 H       -0.7900    -2.3160    -2.4550 H     1 <1>   0.1500 
 24 H        2.2790    -1.5740     1.5400 H     1 <1>   0.1000 
 25 H        0.9580    -3.9270     0.6410 H     1 <1>   0.0800 
 26 H        1.4580    -4.4740    -0.9410 H     1 <1>   0.0800 
 27 H        4.6210    -0.7270     1.0880 H     1 <1>   0.1000 
 28 H        4.2900    -0.7220    -0.6710 H     1 <1>   0.1000 
 29 H        3.8790    -3.1950    -0.5940 H     1 <1>   0.1000 
 30 H        4.2160    -3.1910     1.1660 H     1 <1>   0.1000 
 31 H       -1.6550    -2.7890     0.0880 H     1 <1>   0.0800 
 32 H       -1.4000    -4.0320     1.2770 H     1 <1>   0.0800 
 33 H       -0.3280    -6.2200     0.4990 H     1 <1>   0.0800 
 34 H        0.0870    -6.3570    -1.1880 H     1 <1>   0.0800 
 35 H       -3.3100    -4.1050    -1.0700 H     1 <1>   0.0800 
 36 H       -3.7430    -3.9550     0.6110 H     1 <1>   0.0800 
 37 H       -1.9800    -7.5830    -0.6670 H     1 <1>   0.0800 
 38 H       -2.2300    -6.3330    -1.8540 H     1 <1>   0.0800 
 39 H       -2.9070    -6.1580     1.0150 H     1 <1>   0.4500 
 40 H       -4.7140    -6.2150    -1.3050 H     1 <1>   0.0800 
 41 H       -5.6090    -4.7700     0.4570 H     1 <1>   0.0800 
 42 H       -5.2480    -5.9770     1.6680 H     1 <1>   0.0800 
 43 H       -4.1410    -8.2590     0.8580 H     1 <1>   0.0800 
 44 H       -3.8230    -8.4500    -0.8510 H     1 <1>   0.0800 
 45 H       -7.2710    -6.1840    -0.5700 H     1 <1>   0.0800 
 46 H       -7.6150    -6.0020     1.1240 H     1 <1>   0.0800 
 47 H       -5.8440    -9.6510    -0.1740 H     1 <1>   0.0800 
 48 H       -6.1780    -8.4350    -1.3700 H     1 <1>   0.0800 
 49 H       -7.8790    -8.3470     0.3710 H     1 <1>   0.0800 
 50 H       -6.6680    -8.1990     1.6090 H     1 <1>   0.0800 
@<TRIPOS>BOND
  1   1   2  2   
  2   1   3  1   
  3   2   4  1   
  4   2  22  1   
  5   3   5  2   
  6   3  23  1   
  7   4   5  1   
  8   4   6  1   
  9   5   7  1   
 10   6   8  1   
 11   6   9  1   
 12   6  24  1   
 13   7  10  1   
 14   7  25  1   
 15   7  26  1   
 16   8   9  1   
 17   8  27  1   
 18   8  28  1   
 19   9  29  1   
 20   9  30  1   
 21  10  11  1   
 22  10  12  1   
 23  11  13  1   
 24  11  31  1   
 25  11  32  1   
 26  12  14  1   
 27  12  33  1   
 28  12  34  1   
 29  13  15  1   
 30  13  35  1   
 31  13  36  1   
 32  14  15  1   
 33  14  37  1   
 34  14  38  1   
 35  15  16  1   
 36  15  39  1   
 37  16  17  1   
 38  16  18  1   
 39  16  40  1   
 40  17  19  1   
 41  17  41  1   
 42  17  42  1   
 43  18  20  1   
 44  18  43  1   
 45  18  44  1   
 46  19  21  1   
 47  19  45  1   
 48  19  46  1   
 49  20  21  1   
 50  20  47  1   
 51  20  48  1   
 52  21  49  1   
 53  21  50  1   
@<TRIPOS>SUBSTRUCTURE
  1 ****  11 GROUP 4 **** **** 0

# MOE 2024.06 (io_trps.svl 2023.06)
