@<TRIPOS>MOLECULE
NONAME
49 51 1 0 0 
SMALL
USER_CHARGES


@<TRIPOS>ATOM
  1 O        3.2150     0.3660     3.2860 O.2   1 <1>  -0.5700 
  2 C        3.6030     0.1980     2.1510 C.2   1 <1>   0.7800 
  3 O        4.1570    -0.9420     1.7630 O.3   1 <1>  -0.4300 
  4 N        3.5890     1.1190     1.1620 N.am  1 <1>  -0.6600 
  5 C        4.5860    -0.8590     0.4200 C.3   1 <1>   0.1200 
  6 C        4.3300     0.5980     0.0070 C.3   1 <1>   0.2200 
  7 C        3.5870     2.5820     1.4140 C.3   1 <1>   0.1400 
  8 C        5.6270     1.4120    -0.1990 C.3   1 <1>   0.1100 
  9 C        4.0870     3.3490     0.1760 C.3   1 <1>   0.1100 
 10 N        5.4230     2.8860    -0.2960 N.3   1 <1>  -0.8100 
 11 C        5.7340     3.4210    -1.6600 C.3   1 <1>   0.1710 
 12 C        6.0390     4.9210    -1.6980 C.2   1 <1>   0.5690 
 13 O        5.9830     5.5010    -2.7560 O.2   1 <1>  -0.5700 
 14 N        6.3880     5.5030    -0.5150 N.am  1 <1>  -0.5470 
 15 C        6.9010     6.7710    -0.2130 C.ar  1 <1>   0.1170 
 16 C        8.1410     6.8780     0.4370 C.ar  1 <1>  -0.1430 
 17 C        6.1790     7.9310    -0.5180 C.ar  1 <1>  -0.1430 
 18 C        8.6340     8.1390     0.7410 C.ar  1 <1>  -0.1500 
 19 C        9.0200     5.6800     0.8390 C.3   1 <1>   0.0630 
 20 C        6.7010     9.1740    -0.2060 C.ar  1 <1>  -0.1500 
 21 C        4.8080     7.8950    -1.1850 C.3   1 <1>  -0.0970 
 22 C        7.9250     9.2810     0.4210 C.ar  1 <1>  -0.1500 
 23 C        9.5480     4.9090    -0.3760 C.3   1 <1>  -0.2400 
 24 C        8.3450     4.7440     1.8510 C.3   1 <1>  -0.2400 
 25 H        3.9960    -1.5400    -0.1670 H     1 <1>   0.0800 
 26 H        5.6260    -1.1300     0.3670 H     1 <1>   0.0800 
 27 H        3.7220     0.6360    -0.8800 H     1 <1>   0.0800 
 28 H        4.2220     2.8020     2.2550 H     1 <1>   0.0800 
 29 H        2.5870     2.8950     1.6590 H     1 <1>   0.0800 
 30 H        6.1420     1.0420    -1.0680 H     1 <1>   0.0800 
 31 H        6.2680     1.2290     0.6470 H     1 <1>   0.0800 
 32 H        4.1290     4.3980     0.4130 H     1 <1>   0.0800 
 33 H        3.3600     3.2240    -0.6090 H     1 <1>   0.0800 
 34 H        4.9190     3.2160    -2.3320 H     1 <1>   0.0800 
 35 H        6.6080     2.9290    -2.0460 H     1 <1>   0.0800 
 36 H        6.4410     4.8200     0.2430 H     1 <1>   0.3700 
 37 H        9.5840     8.2520     1.2320 H     1 <1>   0.1500 
 38 H        9.8890     6.0720     1.3400 H     1 <1>   0.0800 
 39 H        6.1570    10.0690    -0.4490 H     1 <1>   0.1500 
 40 H        4.2350     7.0560    -0.8360 H     1 <1>   0.0800 
 41 H        4.9260     7.8190    -2.2510 H     1 <1>   0.0800 
 42 H        4.2530     8.7890    -0.9670 H     1 <1>   0.0800 
 43 H        8.3250    10.2500     0.6610 H     1 <1>   0.1500 
 44 H        8.7600     4.3910    -0.8870 H     1 <1>   0.0800 
 45 H       10.2830     4.1880    -0.0670 H     1 <1>   0.0800 
 46 H       10.0080     5.5930    -1.0670 H     1 <1>   0.0800 
 47 H        7.5860     4.1370     1.3960 H     1 <1>   0.0800 
 48 H        7.9020     5.3210     2.6440 H     1 <1>   0.0800 
 49 H        9.0780     4.0850     2.2820 H     1 <1>   0.0800 
@<TRIPOS>BOND
  1   1   2  2   
  2   2   3  1   
  3   2   4  am  
  4   3   5  1   
  5   4   6  1   
  6   4   7  1   
  7   5   6  1   
  8   5  25  1   
  9   5  26  1   
 10   6   8  1   
 11   6  27  1   
 12   7   9  1   
 13   7  28  1   
 14   7  29  1   
 15   8  10  1   
 16   8  30  1   
 17   8  31  1   
 18   9  10  1   
 19   9  32  1   
 20   9  33  1   
 21  10  11  1   
 22  11  12  1   
 23  11  34  1   
 24  11  35  1   
 25  12  13  2   
 26  12  14  am  
 27  14  15  1   
 28  14  36  1   
 29  15  16  ar  
 30  15  17  ar  
 31  16  18  ar  
 32  16  19  1   
 33  17  20  ar  
 34  17  21  1   
 35  18  22  ar  
 36  18  37  1   
 37  19  23  1   
 38  19  24  1   
 39  19  38  1   
 40  20  22  ar  
 41  20  39  1   
 42  21  40  1   
 43  21  41  1   
 44  21  42  1   
 45  22  43  1   
 46  23  44  1   
 47  23  45  1   
 48  23  46  1   
 49  24  47  1   
 50  24  48  1   
 51  24  49  1   
@<TRIPOS>SUBSTRUCTURE
  1 ****  10 GROUP 4 **** **** 0

# MOE 2024.06 (io_trps.svl 2023.06)
