@<TRIPOS>MOLECULE
NONAME
51 54 1 0 0 
SMALL
USER_CHARGES


@<TRIPOS>ATOM
  1 O       -2.8390     0.6990     1.2920 O.2   1 <1>  -0.5700 
  2 C       -2.5760     1.2050     0.2260 C.2   1 <1>   0.5690 
  3 N       -2.8100     0.5130    -0.9250 N.am  1 <1>  -0.6600 
  4 C       -2.0760     2.6330     0.1670 C.3   1 <1>  -0.0990 
  5 C       -4.0980     0.7950    -1.6280 C.3   1 <1>   0.1400 
  6 C       -2.4800    -0.9520    -0.9390 C.3   1 <1>   0.1400 
  7 C       -0.6580     2.7540     0.7370 C.3   1 <1>  -0.0160 
  8 C       -5.2800     0.0610    -0.9310 C.3   1 <1>   0.4230 
  9 C       -3.6950    -1.8280    -0.5460 C.3   1 <1>   0.3430 
 10 C       -0.1840     4.1960     0.6620 C.ar  1 <1>  -0.1440 
 11 N       -4.7980    -0.9930     0.0450 N.4   1 <1>  -0.9590 
 12 C       -6.2530    -0.5450    -1.9670 C.3   1 <1>   0.1200 
 13 C        0.4850     4.6560    -0.4630 C.ar  1 <1>  -0.1500 
 14 C       -0.4200     5.0650     1.7190 C.ar  1 <1>  -0.1500 
 15 C       -5.9450    -1.7500     0.6340 C.3   1 <1>   0.5180 
 16 O       -7.2900    -1.2320    -1.3260 O.3   1 <1>  -0.5600 
 17 C        0.9130     5.9700    -0.5330 C.ar  1 <1>  -0.1500 
 18 C        0.0070     6.3800     1.6540 C.ar  1 <1>  -0.1500 
 19 C       -5.4100    -2.8350     1.5900 C.3   1 <1>  -0.1950 
 20 C       -6.8830    -2.2760    -0.4800 C.3   1 <1>   0.1200 
 21 C        0.6730     6.8280     0.5250 C.ar  1 <1>   0.0830 
 22 C       -5.0320    -4.2300     1.1810 C.3   1 <1>  -0.2000 
 23 C       -6.2380    -3.9990     2.0460 C.3   1 <1>  -0.2000 
 24 O        1.0940     8.1000     0.4480 O.3   1 <1>  -0.5330 
 25 H       -2.0780     2.9770    -0.8510 H     1 <1>   0.0800 
 26 H       -2.7420     3.2570     0.7340 H     1 <1>   0.0800 
 27 H       -4.2910     1.8550    -1.6370 H     1 <1>   0.0800 
 28 H       -4.0110     0.4800    -2.6540 H     1 <1>   0.0800 
 29 H       -2.1260    -1.2350    -1.9160 H     1 <1>   0.0800 
 30 H       -1.6780    -1.1410    -0.2450 H     1 <1>   0.0800 
 31 H        0.0140     2.1230     0.1820 H     1 <1>   0.0800 
 32 H       -0.6470     2.4220     1.7610 H     1 <1>   0.0800 
 33 H       -5.8350     0.8030    -0.3800 H     1 <1>   0.0800 
 34 H       -3.3640    -2.5680     0.1640 H     1 <1>   0.0800 
 35 H       -4.0570    -2.3500    -1.4170 H     1 <1>   0.0800 
 36 H       -4.3250    -0.4660     0.8080 H     1 <1>   0.4500 
 37 H       -5.7490    -1.2280    -2.6290 H     1 <1>   0.0800 
 38 H       -6.7020     0.2350    -2.5580 H     1 <1>   0.0800 
 39 H        0.6780     3.9950    -1.2900 H     1 <1>   0.1500 
 40 H       -0.9360     4.7200     2.5980 H     1 <1>   0.1500 
 41 H       -6.5300    -1.0670     1.2290 H     1 <1>   0.0800 
 42 H        1.4330     6.3340    -1.4010 H     1 <1>   0.1500 
 43 H       -0.1800     7.0440     2.4770 H     1 <1>   0.1500 
 44 H       -4.8230    -2.3820     2.3710 H     1 <1>   0.1000 
 45 H       -7.7720    -2.6970    -0.0450 H     1 <1>   0.0800 
 46 H       -6.4030    -3.0330    -1.0740 H     1 <1>   0.0800 
 47 H       -5.2090    -4.5990     0.1850 H     1 <1>   0.1000 
 48 H       -4.1740    -4.6970     1.6370 H     1 <1>   0.1000 
 49 H       -6.1870    -4.2970     3.0800 H     1 <1>   0.1000 
 50 H       -7.2070    -4.2020     1.6210 H     1 <1>   0.1000 
 51 H        0.8830     8.6190     1.2430 H     1 <1>   0.4500 
@<TRIPOS>BOND
  1   1   2  2   
  2   2   3  am  
  3   2   4  1   
  4   3   5  1   
  5   3   6  1   
  6   4   7  1   
  7   4  25  1   
  8   4  26  1   
  9   5   8  1   
 10   5  27  1   
 11   5  28  1   
 12   6   9  1   
 13   6  29  1   
 14   6  30  1   
 15   7  10  1   
 16   7  31  1   
 17   7  32  1   
 18   8  11  1   
 19   8  12  1   
 20   8  33  1   
 21   9  11  1   
 22   9  34  1   
 23   9  35  1   
 24  10  13  ar  
 25  10  14  ar  
 26  11  15  1   
 27  11  36  1   
 28  12  16  1   
 29  12  37  1   
 30  12  38  1   
 31  13  17  ar  
 32  13  39  1   
 33  14  18  ar  
 34  14  40  1   
 35  15  19  1   
 36  15  20  1   
 37  15  41  1   
 38  16  20  1   
 39  17  21  ar  
 40  17  42  1   
 41  18  21  ar  
 42  18  43  1   
 43  19  22  1   
 44  19  23  1   
 45  19  44  1   
 46  20  45  1   
 47  20  46  1   
 48  21  24  1   
 49  22  23  1   
 50  22  47  1   
 51  22  48  1   
 52  23  49  1   
 53  23  50  1   
 54  24  51  1   
@<TRIPOS>SUBSTRUCTURE
  1 ****   2 GROUP 4 **** **** 0

# MOE 2024.06 (io_trps.svl 2023.06)
