@<TRIPOS>MOLECULE
NONAME
39 41 1 0 0 
SMALL
USER_CHARGES


@<TRIPOS>ATOM
  1 O       -0.7320     0.5480     2.3250 O.2   1 <1>  -0.5700 
  2 C       -1.6530     1.0790     1.7280 C.2   1 <1>   0.5440 
  3 N       -2.8340     0.3940     1.5830 N.am  1 <1>  -0.6600 
  4 C       -1.5070     2.4330     1.2490 C.ar  1 <1>   0.0860 
  5 C       -4.0680     0.9090     0.9930 C.3   1 <1>   0.2350 
  6 C       -2.9120    -1.0590     1.4580 C.3   1 <1>   0.2350 
  7 C       -0.8950     2.7690     0.0280 C.ar  1 <1>   0.0820 
  8 C       -1.9800     3.4790     2.0430 C.ar  1 <1>  -0.1500 
  9 C       -4.3700     0.0300    -0.2170 C.3   1 <1>  -0.2420 
 10 C       -3.5700    -1.3360     0.1020 C.3   1 <1>  -0.2420 
 11 O       -0.3820     1.8580    -0.8300 O.3   1 <1>  -0.3620 
 12 C       -0.7680     4.0940    -0.3560 C.ar  1 <1>  -0.1500 
 13 C       -1.8560     4.7990     1.6540 C.ar  1 <1>  -0.1500 
 14 C       -5.2310     1.0060    -1.0170 C.2   1 <1>   0.9470 
 15 C       -4.4260    -1.1550    -1.0720 C.3   1 <1>  -0.2000 
 16 C       -3.0380    -2.7450    -0.1540 C.2   1 <1>   0.9470 
 17 C       -1.1950     0.7980    -1.3010 C.3   1 <1>   0.0400 
 18 C       -1.2510     5.1180     0.4490 C.ar  1 <1>   0.0820 
 19 O       -4.7090     1.6800    -1.9140 O.co2 1 <1>  -0.9000 
 20 O       -6.4090     1.1750    -0.6780 O.co2 1 <1>  -0.9000 
 21 O       -3.5630    -3.6960     0.4420 O.co2 1 <1>  -0.9000 
 22 O       -2.0590    -2.9010    -0.8950 O.co2 1 <1>  -0.9000 
 23 O       -1.1720     6.4300     0.1280 O.3   1 <1>  -0.3630 
 24 C       -0.7700     6.8390    -1.1600 C.3   1 <1>   0.0400 
 25 H       -4.8610     0.7870     1.7120 H     1 <1>   0.0800 
 26 H       -3.9950     1.9530     0.7390 H     1 <1>   0.0800 
 27 H       -1.9390    -1.5170     1.5480 H     1 <1>   0.0800 
 28 H       -3.5460    -1.4360     2.2410 H     1 <1>   0.0800 
 29 H       -2.4500     3.2390     2.9790 H     1 <1>   0.1500 
 30 H       -0.2910     4.2930    -1.2940 H     1 <1>   0.1500 
 31 H       -2.2290     5.5920     2.2760 H     1 <1>   0.1500 
 32 H       -3.9590    -1.1080    -2.0420 H     1 <1>   0.1000 
 33 H       -5.3500    -1.7070    -1.1120 H     1 <1>   0.1000 
 34 H       -0.8080     0.4640    -2.2460 H     1 <1>   0.0800 
 35 H       -2.2030     1.1510    -1.4310 H     1 <1>   0.0800 
 36 H       -1.1640    -0.0180    -0.6020 H     1 <1>   0.0800 
 37 H       -0.8620     7.9080    -1.2150 H     1 <1>   0.0800 
 38 H       -1.4140     6.3770    -1.8880 H     1 <1>   0.0800 
 39 H        0.2540     6.5500    -1.3140 H     1 <1>   0.0800 
@<TRIPOS>BOND
  1   1   2  2   
  2   2   3  am  
  3   2   4  1   
  4   3   5  1   
  5   3   6  1   
  6   4   7  ar  
  7   4   8  ar  
  8   5   9  1   
  9   5  25  1   
 10   5  26  1   
 11   6  10  1   
 12   6  27  1   
 13   6  28  1   
 14   7  11  1   
 15   7  12  ar  
 16   8  13  ar  
 17   8  29  1   
 18   9  10  1   
 19   9  14  1   
 20   9  15  1   
 21  10  15  1   
 22  10  16  1   
 23  11  17  1   
 24  12  18  ar  
 25  12  30  1   
 26  13  18  ar  
 27  13  31  1   
 28  14  19  ar  
 29  14  20  ar  
 30  15  32  1   
 31  15  33  1   
 32  16  21  ar  
 33  16  22  ar  
 34  17  34  1   
 35  17  35  1   
 36  17  36  1   
 37  18  23  1   
 38  23  24  1   
 39  24  37  1   
 40  24  38  1   
 41  24  39  1   
@<TRIPOS>SUBSTRUCTURE
  1 ****   3 GROUP 4 **** **** 0

# MOE 2024.06 (io_trps.svl 2023.06)
