@<TRIPOS>MOLECULE
NONAME
37 38 1 0 0 
SMALL
USER_CHARGES


@<TRIPOS>ATOM
  1 O        0.4360     0.2630     0.5800 O.2   1 <1>  -0.5700 
  2 C        1.3130    -0.5680     0.5030 C.2   1 <1>   0.5690 
  3 N        0.9890    -1.8750     0.6580 N.am  1 <1>  -0.7300 
  4 C        2.7690    -0.1260     0.2260 C.3   1 <1>   0.3500 
  5 C        1.8790    -3.0470     0.5480 C.3   1 <1>   0.1400 
  6 N        2.8920     1.3650     0.2010 N.pl3 1 <1>  -0.8690 
  7 C        3.2820    -0.6650    -1.1180 C.3   1 <1>  -0.1600 
  8 C        2.4980    -3.1260    -0.8510 C.3   1 <1>  -0.1600 
  9 C        3.9640     2.0700     0.7060 C.ar  1 <1>   0.4100 
 10 C        3.6670    -2.1540    -1.0850 C.3   1 <1>  -0.1600 
 11 N        5.0460     1.3370     0.9660 N.ar  1 <1>  -0.6200 
 12 C        3.8910     3.4630     0.9280 C.ar  1 <1>   0.0860 
 13 C        6.0800     1.9640     1.4880 C.ar  1 <1>   0.1600 
 14 C        2.7300     4.2550     0.5890 C.2   1 <1>   0.5440 
 15 C        5.0010     4.0800     1.4920 C.ar  1 <1>  -0.1500 
 16 C        6.1090     3.3160     1.7740 C.ar  1 <1>  -0.1500 
 17 O        2.4270     5.2210     1.2650 O.2   1 <1>  -0.5700 
 18 N        1.9630     3.9670    -0.5090 N.am  1 <1>  -0.7300 
 19 C        0.7130     4.6560    -0.9160 C.3   1 <1>   0.0600 
 20 H       -0.0010    -2.0650     0.8280 H     1 <1>   0.3700 
 21 H        3.3800    -0.5130     1.0210 H     1 <1>   0.0800 
 22 H        1.2960    -3.9340     0.7290 H     1 <1>   0.0800 
 23 H        2.6490    -2.9950     1.3000 H     1 <1>   0.0800 
 24 H        1.9610     1.7740     0.3740 H     1 <1>   0.4000 
 25 H        4.1640    -0.1110    -1.3870 H     1 <1>   0.0800 
 26 H        2.5400    -0.4940    -1.8780 H     1 <1>   0.0800 
 27 H        1.7350    -2.9840    -1.5970 H     1 <1>   0.0800 
 28 H        2.8800    -4.1250    -0.9780 H     1 <1>   0.0800 
 29 H        4.4220    -2.3090    -0.3330 H     1 <1>   0.0800 
 30 H        4.1170    -2.3980    -2.0330 H     1 <1>   0.0800 
 31 H        6.9530     1.3720     1.7040 H     1 <1>   0.1500 
 32 H        4.9860     5.1370     1.6980 H     1 <1>   0.1500 
 33 H        6.9870     3.7590     2.2080 H     1 <1>   0.1500 
 34 H        2.2330     3.1470    -1.0650 H     1 <1>   0.3700 
 35 H        0.5040     5.4800    -0.2540 H     1 <1>   0.0800 
 36 H       -0.1100     3.9640    -0.8780 H     1 <1>   0.0800 
 37 H        0.8160     5.0330    -1.9180 H     1 <1>   0.0800 
@<TRIPOS>BOND
  1   1   2  2   
  2   2   3  am  
  3   2   4  1   
  4   3   5  1   
  5   3  20  1   
  6   4   6  1   
  7   4   7  1   
  8   4  21  1   
  9   5   8  1   
 10   5  22  1   
 11   5  23  1   
 12   6   9  1   
 13   6  24  1   
 14   7  10  1   
 15   7  25  1   
 16   7  26  1   
 17   8  10  1   
 18   8  27  1   
 19   8  28  1   
 20   9  11  ar  
 21   9  12  ar  
 22  10  29  1   
 23  10  30  1   
 24  11  13  ar  
 25  12  14  1   
 26  12  15  ar  
 27  13  16  ar  
 28  13  31  1   
 29  14  17  2   
 30  14  18  am  
 31  15  16  ar  
 32  15  32  1   
 33  16  33  1   
 34  18  19  1   
 35  18  34  1   
 36  19  35  1   
 37  19  36  1   
 38  19  37  1   
@<TRIPOS>SUBSTRUCTURE
  1 ****   6 GROUP 4 **** **** 0

# MOE 2024.06 (io_trps.svl 2023.06)
