@<TRIPOS>MOLECULE
NONAME
44 46 1 0 0 
SMALL
USER_CHARGES


@<TRIPOS>ATOM
  1 CL      -3.0580     4.4610     2.3590 Cl    1 <1>  -0.1770 
  2 C       -1.9590     3.9000     1.1170 C.ar  1 <1>   0.1770 
  3 C       -2.2920     2.7980     0.3340 C.ar  1 <1>   0.0830 
  4 C       -0.7740     4.5850     0.9320 C.ar  1 <1>  -0.1500 
  5 O       -3.4700     2.1670     0.5680 O.3   1 <1>  -0.3630 
  6 C       -1.4080     2.3770    -0.6570 C.ar  1 <1>  -0.1500 
  7 C        0.0870     4.1520    -0.0590 C.ar  1 <1>   0.1770 
  8 C       -4.1980     1.5930    -0.5100 C.3   1 <1>   0.1810 
  9 C       -0.2170     3.0590    -0.8530 C.ar  1 <1>  -0.1500 
 10 CL       1.5890     5.0020    -0.3160 Cl    1 <1>  -0.1770 
 11 C       -5.6100     1.1940    -0.0860 C.2   1 <1>   0.5690 
 12 O       -5.9180     0.0360    -0.2560 O.2   1 <1>  -0.5700 
 13 N       -6.5020     2.1070     0.4300 N.am  1 <1>  -0.6600 
 14 C       -7.8590     1.6860     0.8920 C.3   1 <1>   0.1400 
 15 C       -6.2270     3.5560     0.6450 C.3   1 <1>   0.1400 
 16 C       -8.9700     2.4810     0.1620 C.3   1 <1>   0.0000 
 17 C       -7.2970     4.3990    -0.0580 C.3   1 <1>  -0.1600 
 18 C      -10.3820     2.0760     0.6320 C.3   1 <1>   0.2000 
 19 C       -8.7210     3.9930     0.3600 C.3   1 <1>  -0.1600 
 20 C       -9.0180     2.0900    -1.3260 C.3   1 <1>  -0.1600 
 21 O      -10.4480     1.8000     1.9870 O.3   1 <1>  -0.6800 
 22 C      -10.7810     0.8400    -0.1780 C.3   1 <1>  -0.1600 
 23 C       -9.8280     0.7920    -1.3790 C.3   1 <1>  -0.1600 
 24 H       -0.5270     5.4340     1.5410 H     1 <1>   0.1500 
 25 H       -1.6260     1.5220    -1.2700 H     1 <1>   0.1500 
 26 H       -4.2530     2.3100    -1.3080 H     1 <1>   0.0800 
 27 H       -3.6730     0.7180    -0.8420 H     1 <1>   0.0800 
 28 H        0.4780     2.7470    -1.6140 H     1 <1>   0.1500 
 29 H       -8.0010     0.6310     0.7390 H     1 <1>   0.0800 
 30 H       -7.9180     1.8710     1.9510 H     1 <1>   0.0800 
 31 H       -6.2390     3.7580     1.7030 H     1 <1>   0.0800 
 32 H       -5.2610     3.8340     0.2670 H     1 <1>   0.0800 
 33 H       -7.1380     5.4360     0.1800 H     1 <1>   0.0800 
 34 H       -7.1830     4.2910    -1.1220 H     1 <1>   0.0800 
 35 H      -11.0750     2.8760     0.4270 H     1 <1>   0.0800 
 36 H       -9.4390     4.5660    -0.2000 H     1 <1>   0.0800 
 37 H       -8.8590     4.2310     1.4020 H     1 <1>   0.0800 
 38 H       -9.5410     2.8470    -1.8830 H     1 <1>   0.0800 
 39 H       -8.0410     1.9620    -1.7590 H     1 <1>   0.0800 
 40 H       -9.9870     0.9620     2.1780 H     1 <1>   0.4000 
 41 H      -10.6850    -0.0630     0.3980 H     1 <1>   0.0800 
 42 H      -11.7990     0.9410    -0.5110 H     1 <1>   0.0800 
 43 H       -9.1620    -0.0490    -1.2780 H     1 <1>   0.0800 
 44 H      -10.3610     0.7010    -2.3100 H     1 <1>   0.0800 
@<TRIPOS>BOND
  1   1   2  1   
  2   2   3  ar  
  3   2   4  ar  
  4   3   5  1   
  5   3   6  ar  
  6   4   7  ar  
  7   4  24  1   
  8   5   8  1   
  9   6   9  ar  
 10   6  25  1   
 11   7   9  ar  
 12   7  10  1   
 13   8  11  1   
 14   8  26  1   
 15   8  27  1   
 16   9  28  1   
 17  11  12  2   
 18  11  13  am  
 19  13  14  1   
 20  13  15  1   
 21  14  16  1   
 22  14  29  1   
 23  14  30  1   
 24  15  17  1   
 25  15  31  1   
 26  15  32  1   
 27  16  18  1   
 28  16  19  1   
 29  16  20  1   
 30  17  19  1   
 31  17  33  1   
 32  17  34  1   
 33  18  21  1   
 34  18  22  1   
 35  18  35  1   
 36  19  36  1   
 37  19  37  1   
 38  20  23  1   
 39  20  38  1   
 40  20  39  1   
 41  21  40  1   
 42  22  23  1   
 43  22  41  1   
 44  22  42  1   
 45  23  43  1   
 46  23  44  1   
@<TRIPOS>SUBSTRUCTURE
  1 ****  13 GROUP 4 **** **** 0

# MOE 2024.06 (io_trps.svl 2023.06)
