@<TRIPOS>MOLECULE
NONAME
33 35 1 0 0 
SMALL
USER_CHARGES


@<TRIPOS>ATOM
  1 O       -1.1540    -0.1970    -1.6110 O.2   1 <1>  -0.5700 
  2 C       -1.7330     0.5030    -0.7930 C.2   1 <1>   0.5440 
  3 N       -2.5420    -0.1130     0.1360 N.am  1 <1>  -0.6600 
  4 C       -1.5730     1.9590    -0.8680 C.ar  1 <1>   0.3960 
  5 C       -3.4880     0.5940     1.0480 C.3   1 <1>   0.2350 
  6 C       -2.8670    -1.5690     0.1220 C.3   1 <1>   0.2350 
  7 N       -1.3780     2.6920     0.2440 N.ar  1 <1>  -0.6200 
  8 C       -1.6270     2.5640    -2.1240 C.ar  1 <1>  -0.1500 
  9 C       -4.7010    -0.3130     1.1490 C.3   1 <1>  -0.2420 
 10 C       -4.3140    -1.6580     0.5820 C.3   1 <1>  -0.2420 
 11 C       -1.2670     3.9960     0.1060 C.ar  1 <1>   0.1670 
 12 C       -1.5010     3.9280    -2.2650 C.ar  1 <1>  -0.1500 
 13 C       -5.5760     0.0950     2.3370 C.2   1 <1>   0.9470 
 14 C       -5.3770    -0.8320    -0.0950 C.3   1 <1>  -0.2000 
 15 C       -4.6570    -3.0810     1.0320 C.2   1 <1>   0.9470 
 16 C       -1.3200     4.6560    -1.1100 C.ar  1 <1>  -0.1500 
 17 C       -1.0730     4.7750     1.3900 C.3   1 <1>  -0.0970 
 18 O       -6.7430     0.4600     2.1350 O.co2 1 <1>  -0.9000 
 19 O       -5.0560     0.2190     3.4540 O.co2 1 <1>  -0.9000 
 20 O       -3.9010    -3.6610     1.8250 O.co2 1 <1>  -0.9000 
 21 O       -5.5900    -3.6880     0.4860 O.co2 1 <1>  -0.9000 
 22 H       -3.0290     0.7100     2.0160 H     1 <1>   0.0800 
 23 H       -3.7750     1.5560     0.6650 H     1 <1>   0.0800 
 24 H       -2.7530    -1.9920    -0.8600 H     1 <1>   0.0800 
 25 H       -2.2220    -2.0820     0.8150 H     1 <1>   0.0800 
 26 H       -1.7720     1.9420    -2.9890 H     1 <1>   0.1500 
 27 H       -1.5440     4.4020    -3.2300 H     1 <1>   0.1500 
 28 H       -5.1680    -0.3750    -1.0440 H     1 <1>   0.1000 
 29 H       -6.3990    -1.1620    -0.0110 H     1 <1>   0.1000 
 30 H       -1.2210     5.7250    -1.1570 H     1 <1>   0.1500 
 31 H       -1.0180     5.8310     1.2020 H     1 <1>   0.0800 
 32 H       -0.1660     4.4560     1.8690 H     1 <1>   0.0800 
 33 H       -1.8980     4.5800     2.0520 H     1 <1>   0.0800 
@<TRIPOS>BOND
  1   1   2  2   
  2   2   3  am  
  3   2   4  1   
  4   3   5  1   
  5   3   6  1   
  6   4   7  ar  
  7   4   8  ar  
  8   5   9  1   
  9   5  22  1   
 10   5  23  1   
 11   6  10  1   
 12   6  24  1   
 13   6  25  1   
 14   7  11  ar  
 15   8  12  ar  
 16   8  26  1   
 17   9  10  1   
 18   9  13  1   
 19   9  14  1   
 20  10  14  1   
 21  10  15  1   
 22  11  16  ar  
 23  11  17  1   
 24  12  16  ar  
 25  12  27  1   
 26  13  18  ar  
 27  13  19  ar  
 28  14  28  1   
 29  14  29  1   
 30  15  20  ar  
 31  15  21  ar  
 32  16  30  1   
 33  17  31  1   
 34  17  32  1   
 35  17  33  1   
@<TRIPOS>SUBSTRUCTURE
  1 ****   5 GROUP 4 **** **** 0

# MOE 2024.06 (io_trps.svl 2023.06)
