@<TRIPOS>MOLECULE
NONAME
54 56 1 0 0 
SMALL
USER_CHARGES


@<TRIPOS>ATOM
  1 S        0.8750     0.2010     0.7760 S.o2  1 <1>   1.3330 
  2 O        1.4650    -0.7150     1.7280 O.2   1 <1>  -0.6500 
  3 O       -0.3090     0.9420     1.1470 O.2   1 <1>  -0.6500 
  4 N        0.4990    -0.6850    -0.6240 N.am  1 <1>  -0.8490 
  5 C        2.1460     1.3400     0.2260 C.3   1 <1>  -0.0550 
  6 C       -0.1220    -1.9730    -0.3050 C.3   1 <1>   0.1160 
  7 C       -0.3520     0.0550    -1.5640 C.3   1 <1>   0.1160 
  8 C        3.4100     0.6500    -0.3290 C.3   1 <1>  -0.0800 
  9 C        4.3930     1.5840    -1.0170 C.3   1 <1>   0.2200 
 10 C        4.2740    -0.0360     0.7360 C.3   1 <1>   0.1200 
 11 N        4.5110     2.8640    -0.2840 N.am  1 <1>  -0.7300 
 12 C        5.6900     0.8010    -0.8650 C.3   1 <1>   0.1200 
 13 O        5.6090     0.1870     0.3840 O.3   1 <1>  -0.5600 
 14 C        3.9500     4.0520    -0.6520 C.2   1 <1>   0.5440 
 15 O        3.1520     4.0290    -1.5700 O.2   1 <1>  -0.5700 
 16 C        4.2500     5.2990     0.0390 C.ar  1 <1>   0.0860 
 17 C        5.4810     5.5650     0.6710 C.ar  1 <1>   0.0000 
 18 C        3.2710     6.2960     0.0820 C.ar  1 <1>  -0.1500 
 19 C        6.5800     4.6260     0.6750 C.ar  1 <1>   0.0000 
 20 C        5.6700     6.7830     1.3180 C.ar  1 <1>  -0.1500 
 21 C        3.4750     7.5000     0.7250 C.ar  1 <1>  -0.1500 
 22 C        7.4360     4.4770    -0.4190 C.ar  1 <1>  -0.1440 
 23 C        6.7820     3.8190     1.7920 C.ar  1 <1>  -0.1500 
 24 C        4.6820     7.7450     1.3500 C.ar  1 <1>  -0.1500 
 25 C        8.4540     3.5380    -0.3810 C.ar  1 <1>  -0.1500 
 26 C        7.2590     5.3340    -1.6650 C.3   1 <1>  -0.0970 
 27 C        7.7930     2.8790     1.8210 C.ar  1 <1>  -0.1500 
 28 C        8.6320     2.7380     0.7330 C.ar  1 <1>  -0.1500 
 29 H        1.7370     1.9690    -0.5400 H     1 <1>   0.0800 
 30 H        2.4190     1.9750     1.0450 H     1 <1>   0.0800 
 31 H       -0.3350    -2.5190    -1.2080 H     1 <1>   0.0800 
 32 H       -1.0360    -1.8230     0.2450 H     1 <1>   0.0800 
 33 H        0.5480    -2.5660     0.2950 H     1 <1>   0.0800 
 34 H       -0.5000    -0.5220    -2.4610 H     1 <1>   0.0800 
 35 H        0.1130     0.9870    -1.8360 H     1 <1>   0.0800 
 36 H       -1.3120     0.2640    -1.1200 H     1 <1>   0.0800 
 37 H        3.1150    -0.0990    -1.0430 H     1 <1>   0.0800 
 38 H        4.1450     1.7620    -2.0500 H     1 <1>   0.0800 
 39 H        4.0930    -1.0960     0.7760 H     1 <1>   0.0800 
 40 H        4.1200     0.3930     1.7120 H     1 <1>   0.0800 
 41 H        5.2600     2.8650     0.4180 H     1 <1>   0.3700 
 42 H        6.5630     1.4270    -0.9080 H     1 <1>   0.0800 
 43 H        5.7560     0.0260    -1.6090 H     1 <1>   0.0800 
 44 H        2.3260     6.1170    -0.4040 H     1 <1>   0.1500 
 45 H        6.6130     6.9770     1.8010 H     1 <1>   0.1500 
 46 H        2.6990     8.2470     0.7390 H     1 <1>   0.1500 
 47 H        6.1340     3.9280     2.6440 H     1 <1>   0.1500 
 48 H        4.8500     8.6810     1.8550 H     1 <1>   0.1500 
 49 H        9.1170     3.4200    -1.2210 H     1 <1>   0.1500 
 50 H        8.0770     5.1980    -2.3480 H     1 <1>   0.0800 
 51 H        7.2140     6.3750    -1.3970 H     1 <1>   0.0800 
 52 H        6.3470     5.0660    -2.1690 H     1 <1>   0.0800 
 53 H        7.9270     2.2550     2.6880 H     1 <1>   0.1500 
 54 H        9.4220     2.0070     0.7530 H     1 <1>   0.1500 
@<TRIPOS>BOND
  1   1   2  2   
  2   1   3  2   
  3   1   4  am  
  4   1   5  1   
  5   4   6  1   
  6   4   7  1   
  7   5   8  1   
  8   5  29  1   
  9   5  30  1   
 10   6  31  1   
 11   6  32  1   
 12   6  33  1   
 13   7  34  1   
 14   7  35  1   
 15   7  36  1   
 16   8   9  1   
 17   8  10  1   
 18   8  37  1   
 19   9  11  1   
 20   9  12  1   
 21   9  38  1   
 22  10  13  1   
 23  10  39  1   
 24  10  40  1   
 25  11  14  am  
 26  11  41  1   
 27  12  13  1   
 28  12  42  1   
 29  12  43  1   
 30  14  15  2   
 31  14  16  1   
 32  16  17  ar  
 33  16  18  ar  
 34  17  19  1   
 35  17  20  ar  
 36  18  21  ar  
 37  18  44  1   
 38  19  22  ar  
 39  19  23  ar  
 40  20  24  ar  
 41  20  45  1   
 42  21  24  ar  
 43  21  46  1   
 44  22  25  ar  
 45  22  26  1   
 46  23  27  ar  
 47  23  47  1   
 48  24  48  1   
 49  25  28  ar  
 50  25  49  1   
 51  26  50  1   
 52  26  51  1   
 53  26  52  1   
 54  27  28  ar  
 55  27  53  1   
 56  28  54  1   
@<TRIPOS>SUBSTRUCTURE
  1 ****  11 GROUP 4 **** **** 0

# MOE 2024.06 (io_trps.svl 2023.06)
