@<TRIPOS>MOLECULE
NONAME
40 42 1 0 0 
SMALL
USER_CHARGES


@<TRIPOS>ATOM
  1 O        1.4720     0.1400     1.3380 O.3   1 <1>  -0.6800 
  2 C        1.4020    -0.1180    -0.0290 C.3   1 <1>   0.2000 
  3 C        2.0790    -1.4520    -0.3430 C.3   1 <1>  -0.0800 
  4 C        2.3130     0.8770    -0.7530 C.3   1 <1>   0.3430 
  5 C        3.5770    -1.1260    -0.3410 C.3   1 <1>   0.3430 
  6 C        1.7200    -2.6370     0.5740 C.3   1 <1>  -0.0170 
  7 N        3.7070     0.3470    -0.5820 N.4   1 <1>  -0.9590 
  8 C        2.5790    -3.8420     0.2260 C.ar  1 <1>  -0.1440 
  9 C        4.3870     1.0060     0.5680 C.3   1 <1>   0.4860 
 10 C        2.3870    -4.5610    -0.9370 C.ar  1 <1>  -0.1500 
 11 C        3.5990    -4.2750     1.0510 C.ar  1 <1>  -0.1500 
 12 C        4.5980     2.4720     0.2400 C.ar  1 <1>  -0.1440 
 13 C        3.2160    -5.6340    -1.2230 C.ar  1 <1>   0.1600 
 14 C        4.3700    -5.3620     0.6720 C.ar  1 <1>   0.1600 
 15 C        3.8370     3.4610     0.8350 C.ar  1 <1>  -0.1500 
 16 C        5.5570     2.8940    -0.6620 C.ar  1 <1>  -0.1500 
 17 N        4.2090    -6.0410    -0.4500 N.ar  1 <1>  -0.6200 
 18 C        4.0540     4.7860     0.4950 C.ar  1 <1>   0.1600 
 19 C        5.6910     4.2460    -0.9310 C.ar  1 <1>   0.1600 
 20 N        4.9570     5.1950    -0.3780 N.ar  1 <1>  -0.6200 
 21 H        0.7230    -0.2800     1.8150 H     1 <1>   0.4000 
 22 H        0.3760    -0.0540    -0.3520 H     1 <1>   0.0800 
 23 H        1.8180    -1.7240    -1.3510 H     1 <1>   0.0800 
 24 H        2.1960     1.8730    -0.3580 H     1 <1>   0.0800 
 25 H        2.0600     0.8850    -1.8000 H     1 <1>   0.0800 
 26 H        4.0880    -1.6970    -1.1010 H     1 <1>   0.0800 
 27 H        3.9930    -1.3800     0.6200 H     1 <1>   0.0800 
 28 H        0.6810    -2.8930     0.4560 H     1 <1>   0.0800 
 29 H        1.8780    -2.3830     1.6080 H     1 <1>   0.0800 
 30 H        4.2560     0.5440    -1.4270 H     1 <1>   0.4500 
 31 H        3.7850     0.9130     1.4580 H     1 <1>   0.0800 
 32 H        5.3420     0.5420     0.7520 H     1 <1>   0.0800 
 33 H        1.6030    -4.3080    -1.6270 H     1 <1>   0.1500 
 34 H        3.8050    -3.7890     1.9870 H     1 <1>   0.1500 
 35 H        3.0550    -6.1870    -2.1330 H     1 <1>   0.1500 
 36 H        5.1600    -5.6910     1.3260 H     1 <1>   0.1500 
 37 H        3.0780     3.2250     1.5600 H     1 <1>   0.1500 
 38 H        6.2080     2.1990    -1.1610 H     1 <1>   0.1500 
 39 H        3.4550     5.5490     0.9650 H     1 <1>   0.1500 
 40 H        6.4410     4.5660    -1.6360 H     1 <1>   0.1500 
@<TRIPOS>BOND
  1   1   2  1   
  2   1  21  1   
  3   2   3  1   
  4   2   4  1   
  5   2  22  1   
  6   3   5  1   
  7   3   6  1   
  8   3  23  1   
  9   4   7  1   
 10   4  24  1   
 11   4  25  1   
 12   5   7  1   
 13   5  26  1   
 14   5  27  1   
 15   6   8  1   
 16   6  28  1   
 17   6  29  1   
 18   7   9  1   
 19   7  30  1   
 20   8  10  ar  
 21   8  11  ar  
 22   9  12  1   
 23   9  31  1   
 24   9  32  1   
 25  10  13  ar  
 26  10  33  1   
 27  11  14  ar  
 28  11  34  1   
 29  12  15  ar  
 30  12  16  ar  
 31  13  17  ar  
 32  13  35  1   
 33  14  17  ar  
 34  14  36  1   
 35  15  18  ar  
 36  15  37  1   
 37  16  19  ar  
 38  16  38  1   
 39  18  20  ar  
 40  18  39  1   
 41  19  20  ar  
 42  19  40  1   
@<TRIPOS>SUBSTRUCTURE
  1 ****   5 GROUP 4 **** **** 0

# MOE 2024.06 (io_trps.svl 2023.06)
