@<TRIPOS>MOLECULE
NONAME
59 61 1 0 0 
SMALL
USER_CHARGES


@<TRIPOS>ATOM
  1 N       -1.0870    -0.4910    -0.8990 N.2   1 <1>  -0.7070 
  2 N       -0.0140    -0.9230    -0.1870 N.pl3 1 <1>   0.5930 
  3 C       -1.4030    -1.4310    -1.7200 C.2   1 <1>   0.1080 
  4 C        0.6310    -0.0930     0.7760 C.ar  1 <1>  -0.0230 
  5 C        0.2420    -2.2210    -0.5330 C.2   1 <1>  -0.3320 
  6 C       -0.6380    -2.5700    -1.5010 C.2   1 <1>  -0.1810 
  7 C       -2.4900    -1.2280    -2.7580 C.3   1 <1>  -0.0590 
  8 C        0.9570     1.2190     0.4430 C.ar  1 <1>  -0.1500 
  9 C        0.9410    -0.5450     2.0580 C.ar  1 <1>  -0.1500 
 10 C        1.3660    -3.0610     0.0700 C.3   1 <1>  -0.0600 
 11 C       -0.8130    -3.9130    -2.1660 C.3   1 <1>   0.5240 
 12 C        1.5770     2.0530     1.3560 C.ar  1 <1>  -0.1500 
 13 C        1.5630     0.2870     2.9720 C.ar  1 <1>  -0.1500 
 14 N       -1.5630    -4.7110    -1.1680 N.4   1 <1>  -0.9590 
 15 C        1.8810     1.5870     2.6210 C.ar  1 <1>  -0.1500 
 16 C       -1.3180    -6.1750    -1.2710 C.3   1 <1>   0.5240 
 17 C       -3.0220    -4.3630    -1.0210 C.3   1 <1>   0.3430 
 18 C       -1.4300    -6.7250     0.1470 C.2   1 <1>   0.0460 
 19 C       -3.4170    -3.8870     0.4090 C.3   1 <1>   0.3430 
 20 N       -1.0970    -5.9490     1.2090 N.2   1 <1>  -0.5650 
 21 C       -1.8300    -7.9520     0.5530 C.2   1 <1>  -0.3320 
 22 N       -2.6810    -2.6590     0.8890 N.4   1 <1>  -0.9590 
 23 C       -1.2750    -6.7330     2.2270 C.2   1 <1>   0.0360 
 24 N       -1.7240    -7.9620     1.8960 N.pl3 1 <1>   0.0330 
 25 C       -2.2990    -9.1730    -0.2260 C.3   1 <1>  -0.0600 
 26 C       -2.0760    -2.8850     2.2390 C.3   1 <1>   0.2630 
 27 C       -3.5670    -1.4490     0.9470 C.3   1 <1>   0.2630 
 28 H       -2.4060    -0.2330    -3.1620 H     1 <1>   0.0800 
 29 H       -3.4610    -1.3250    -2.3130 H     1 <1>   0.0800 
 30 H       -2.3920    -1.9230    -3.5710 H     1 <1>   0.0800 
 31 H        0.7200     1.5950    -0.5390 H     1 <1>   0.1500 
 32 H        0.7050    -1.5460     2.3610 H     1 <1>   0.1500 
 33 H        2.2740    -2.4830     0.1220 H     1 <1>   0.0800 
 34 H        1.5690    -3.9290    -0.5320 H     1 <1>   0.0800 
 35 H        1.1150    -3.3930     1.0610 H     1 <1>   0.0800 
 36 H        0.1570    -4.3470    -2.3520 H     1 <1>   0.0800 
 37 H       -1.3520    -3.8310    -3.0950 H     1 <1>   0.0800 
 38 H        1.8220     3.0650     1.0820 H     1 <1>   0.1500 
 39 H        1.8040    -0.0690     3.9590 H     1 <1>   0.1500 
 40 H       -1.1100    -4.5170    -0.2560 H     1 <1>   0.4500 
 41 H        2.3650     2.2360     3.3310 H     1 <1>   0.1500 
 42 H       -0.3180    -6.3620    -1.6280 H     1 <1>   0.0800 
 43 H       -2.0240    -6.6540    -1.9290 H     1 <1>   0.0800 
 44 H       -3.6200    -5.2270    -1.2620 H     1 <1>   0.0800 
 45 H       -3.2870    -3.5900    -1.7220 H     1 <1>   0.0800 
 46 H       -3.2400    -4.7020     1.0920 H     1 <1>   0.0800 
 47 H       -4.4780    -3.6930     0.4260 H     1 <1>   0.0800 
 48 H       -1.9160    -2.4020     0.2330 H     1 <1>   0.4500 
 49 H       -1.0850    -6.4640     3.2540 H     1 <1>   0.1500 
 50 H       -1.9180    -8.7430     2.5350 H     1 <1>   0.2700 
 51 H       -2.3070    -8.9820    -1.2830 H     1 <1>   0.0800 
 52 H       -3.2930    -9.4510     0.0780 H     1 <1>   0.0800 
 53 H       -1.6410   -10.0050    -0.0390 H     1 <1>   0.0800 
 54 H       -2.8420    -3.1250     2.9590 H     1 <1>   0.0800 
 55 H       -1.5630    -1.9960     2.5710 H     1 <1>   0.0800 
 56 H       -1.3680    -3.6970     2.2060 H     1 <1>   0.0800 
 57 H       -4.3680    -1.5960     1.6530 H     1 <1>   0.0800 
 58 H       -3.9890    -1.2420    -0.0230 H     1 <1>   0.0800 
 59 H       -2.9940    -0.5860     1.2490 H     1 <1>   0.0800 
@<TRIPOS>BOND
  1   1   2  1   
  2   1   3  2   
  3   2   4  1   
  4   2   5  1   
  5   3   6  1   
  6   3   7  1   
  7   4   8  ar  
  8   4   9  ar  
  9   5   6  2   
 10   5  10  1   
 11   6  11  1   
 12   7  28  1   
 13   7  29  1   
 14   7  30  1   
 15   8  12  ar  
 16   8  31  1   
 17   9  13  ar  
 18   9  32  1   
 19  10  33  1   
 20  10  34  1   
 21  10  35  1   
 22  11  14  1   
 23  11  36  1   
 24  11  37  1   
 25  12  15  ar  
 26  12  38  1   
 27  13  15  ar  
 28  13  39  1   
 29  14  16  1   
 30  14  17  1   
 31  14  40  1   
 32  15  41  1   
 33  16  18  1   
 34  16  42  1   
 35  16  43  1   
 36  17  19  1   
 37  17  44  1   
 38  17  45  1   
 39  18  20  1   
 40  18  21  2   
 41  19  22  1   
 42  19  46  1   
 43  19  47  1   
 44  20  23  2   
 45  21  24  1   
 46  21  25  1   
 47  22  26  1   
 48  22  27  1   
 49  22  48  1   
 50  23  24  1   
 51  23  49  1   
 52  24  50  1   
 53  25  51  1   
 54  25  52  1   
 55  25  53  1   
 56  26  54  1   
 57  26  55  1   
 58  26  56  1   
 59  27  57  1   
 60  27  58  1   
 61  27  59  1   
@<TRIPOS>SUBSTRUCTURE
  1 ****   5 GROUP 4 **** **** 0

# MOE 2024.06 (io_trps.svl 2023.06)
