@<TRIPOS>MOLECULE
NONAME
45 47 1 0 0 
SMALL
USER_CHARGES


@<TRIPOS>ATOM
  1 O       -3.5060     1.6530    -2.0830 O.2   1 <1>  -0.5700 
  2 C       -2.7970     1.4660    -1.1230 C.2   1 <1>   0.5690 
  3 N       -2.3560     0.2240    -0.7960 N.am  1 <1>  -0.7300 
  4 C       -2.4150     2.6480    -0.2600 C.3   1 <1>   0.1570 
  5 C       -2.5720    -1.0160    -1.5730 C.3   1 <1>   0.2200 
  6 N       -1.0200     2.5060     0.1830 N.pl3 1 <1>   0.3140 
  7 C       -3.4030    -2.0200    -0.7890 C.3   1 <1>  -0.0800 
  8 C       -1.2510    -1.7680    -1.6930 C.3   1 <1>   0.1200 
  9 N       -0.7070     1.7120     1.2280 N.2   1 <1>  -0.7070 
 10 C        0.0900     3.0430    -0.3740 C.2   1 <1>  -0.3320 
 11 C       -2.3580    -2.7040     0.0960 C.3   1 <1>   0.1200 
 12 C       -4.6030    -1.4420    -0.0180 C.3   1 <1>  -0.0160 
 13 O       -1.1160    -2.5020    -0.5120 O.3   1 <1>  -0.5600 
 14 C        0.5830     1.7670     1.3130 C.2   1 <1>   0.1080 
 15 C        1.1400     2.5850     0.3390 C.2   1 <1>  -0.1500 
 16 C        0.1050     3.9660    -1.5810 C.3   1 <1>  -0.0600 
 17 C       -5.4060    -2.5490     0.6470 C.ar  1 <1>  -0.1440 
 18 C        1.3580     1.0060     2.3630 C.3   1 <1>  -0.0590 
 19 C       -5.2410    -2.8780     1.9770 C.ar  1 <1>  -0.1500 
 20 C       -6.3430    -3.2840    -0.0510 C.ar  1 <1>  -0.1500 
 21 C       -5.9950    -3.9010     2.5280 C.ar  1 <1>   0.1600 
 22 C       -7.0460    -4.2880     0.5960 C.ar  1 <1>   0.1600 
 23 N       -6.8930    -4.6150     1.8690 N.ar  1 <1>  -0.6200 
 24 H       -1.6910     0.1400    -0.0090 H     1 <1>   0.3700 
 25 H       -3.0500     2.6800     0.6030 H     1 <1>   0.0800 
 26 H       -2.5250     3.5580    -0.8160 H     1 <1>   0.0800 
 27 H       -2.9970    -0.7890    -2.5360 H     1 <1>   0.0800 
 28 H       -3.7690    -2.7570    -1.4820 H     1 <1>   0.0800 
 29 H       -0.4080    -1.1100    -1.8090 H     1 <1>   0.0800 
 30 H       -1.2870    -2.4670    -2.5090 H     1 <1>   0.0800 
 31 H       -2.5390    -3.7610     0.1920 H     1 <1>   0.0800 
 32 H       -2.3150    -2.2510     1.0720 H     1 <1>   0.0800 
 33 H       -5.2370    -0.9000    -0.6990 H     1 <1>   0.0800 
 34 H       -4.2680    -0.7470     0.7320 H     1 <1>   0.0800 
 35 H        2.1880     2.7860     0.2040 H     1 <1>   0.1500 
 36 H        1.1180     4.2210    -1.8380 H     1 <1>   0.0800 
 37 H       -0.4300     4.8740    -1.3640 H     1 <1>   0.0800 
 38 H       -0.3500     3.4820    -2.4270 H     1 <1>   0.0800 
 39 H        2.4100     1.2050     2.2720 H     1 <1>   0.0800 
 40 H        1.1860    -0.0480     2.2410 H     1 <1>   0.0800 
 41 H        1.0260     1.3040     3.3400 H     1 <1>   0.0800 
 42 H       -4.5330    -2.3500     2.5900 H     1 <1>   0.1500 
 43 H       -6.5340    -3.0870    -1.0890 H     1 <1>   0.1500 
 44 H       -5.8520    -4.1430     3.5670 H     1 <1>   0.1500 
 45 H       -7.7730    -4.8510     0.0360 H     1 <1>   0.1500 
@<TRIPOS>BOND
  1   1   2  2   
  2   2   3  am  
  3   2   4  1   
  4   3   5  1   
  5   3  24  1   
  6   4   6  1   
  7   4  25  1   
  8   4  26  1   
  9   5   7  1   
 10   5   8  1   
 11   5  27  1   
 12   6   9  1   
 13   6  10  1   
 14   7  11  1   
 15   7  12  1   
 16   7  28  1   
 17   8  13  1   
 18   8  29  1   
 19   8  30  1   
 20   9  14  2   
 21  10  15  2   
 22  10  16  1   
 23  11  13  1   
 24  11  31  1   
 25  11  32  1   
 26  12  17  1   
 27  12  33  1   
 28  12  34  1   
 29  14  15  1   
 30  14  18  1   
 31  15  35  1   
 32  16  36  1   
 33  16  37  1   
 34  16  38  1   
 35  17  19  ar  
 36  17  20  ar  
 37  18  39  1   
 38  18  40  1   
 39  18  41  1   
 40  19  21  ar  
 41  19  42  1   
 42  20  22  ar  
 43  20  43  1   
 44  21  23  ar  
 45  21  44  1   
 46  22  23  ar  
 47  22  45  1   
@<TRIPOS>SUBSTRUCTURE
  1 ****   3 GROUP 4 **** **** 0

# MOE 2024.06 (io_trps.svl 2023.06)
