@<TRIPOS>MOLECULE
NONAME
52 54 1 0 0 
SMALL
USER_CHARGES


@<TRIPOS>ATOM
  1 F       -1.1940     0.8440     3.3000 F     1 <1>  -0.1900 
  2 C       -1.5680     1.3490     2.1560 C.ar  1 <1>   0.1900 
  3 C       -1.4030     2.6990     1.9410 C.ar  1 <1>  -0.1500 
  4 C       -2.1100     0.5110     1.2050 C.ar  1 <1>  -0.1500 
  5 C       -1.7790     3.2690     0.7230 C.ar  1 <1>   0.0860 
  6 C       -2.5040     1.0620     0.0000 C.ar  1 <1>  -0.1500 
  7 C       -2.3520     2.4220    -0.2440 C.ar  1 <1>  -0.1440 
  8 C       -1.5470     4.6930     0.5300 C.2   1 <1>   0.5440 
  9 C       -2.8450     2.9540    -1.5850 C.3   1 <1>  -0.0960 
 10 O       -1.7240     5.4870     1.4360 O.2   1 <1>  -0.5700 
 11 N       -0.9700     5.1930    -0.6110 N.am  1 <1>  -0.6600 
 12 C        0.4800     4.9300    -0.8630 C.3   1 <1>   0.1400 
 13 C       -1.5340     6.3820    -1.3120 C.3   1 <1>   0.1400 
 14 C        1.3760     5.6840     0.1460 C.3   1 <1>   0.3430 
 15 C       -1.1620     7.7130    -0.6390 C.3   1 <1>  -0.1600 
 16 N        0.6800     6.8720     0.7520 N.4   1 <1>  -0.9590 
 17 C        0.3130     7.8840    -0.2700 C.3   1 <1>   0.3430 
 18 C        1.4330     7.4480     1.9070 C.3   1 <1>   0.5230 
 19 C        2.6590     8.2240     1.4390 C.2   1 <1>  -0.0400 
 20 O        3.5110     7.6340     0.6340 O.3   1 <1>  -0.2800 
 21 C        3.0710     9.4850     1.6950 C.2   1 <1>  -0.1500 
 22 C        4.4910     8.4750     0.3220 C.2   1 <1>   0.0550 
 23 C        4.2580     9.6480     0.9760 C.2   1 <1>  -0.1500 
 24 C        5.5390     8.0580    -0.5850 C.2   1 <1>   0.7150 
 25 O        5.4290     7.0280    -1.2250 O.2   1 <1>  -0.5700 
 26 N        6.6630     8.8230    -0.7450 N.am  1 <1>  -0.7300 
 27 C        7.8060     8.5110    -1.6440 C.3   1 <1>   0.0600 
 28 H       -0.9850     3.3070     2.7220 H     1 <1>   0.1500 
 29 H       -2.2230    -0.5390     1.4070 H     1 <1>   0.1500 
 30 H       -2.9380     0.4180    -0.7460 H     1 <1>   0.1500 
 31 H       -3.4280     3.8460    -1.4420 H     1 <1>   0.0800 
 32 H       -3.4680     2.2320    -2.0820 H     1 <1>   0.0800 
 33 H       -2.0110     3.1770    -2.2260 H     1 <1>   0.0800 
 34 H        0.7350     5.2350    -1.8630 H     1 <1>   0.0800 
 35 H        0.6760     3.8740    -0.7930 H     1 <1>   0.0800 
 36 H       -2.6080     6.2930    -1.3370 H     1 <1>   0.0800 
 37 H       -1.1900     6.3820    -2.3330 H     1 <1>   0.0800 
 38 H        2.2870     5.9850    -0.3470 H     1 <1>   0.0800 
 39 H        1.6470     4.9980     0.9300 H     1 <1>   0.0800 
 40 H       -1.7670     7.8480     0.2410 H     1 <1>   0.0800 
 41 H       -1.4320     8.5070    -1.3130 H     1 <1>   0.0800 
 42 H       -0.2260     6.4950     1.1060 H     1 <1>   0.4500 
 43 H        0.4590     8.8750     0.1280 H     1 <1>   0.0800 
 44 H        0.9380     7.7790    -1.1420 H     1 <1>   0.0800 
 45 H        1.7460     6.6560     2.5660 H     1 <1>   0.0800 
 46 H        0.7900     8.1100     2.4630 H     1 <1>   0.0800 
 47 H        2.6150    10.2400     2.3140 H     1 <1>   0.1500 
 48 H        4.8480    10.5470     0.9570 H     1 <1>   0.1500 
 49 H        6.7700     9.6590    -0.1700 H     1 <1>   0.3700 
 50 H        7.6100     7.6160    -2.2120 H     1 <1>   0.0800 
 51 H        8.6980     8.3600    -1.0610 H     1 <1>   0.0800 
 52 H        7.9640     9.3260    -2.3290 H     1 <1>   0.0800 
@<TRIPOS>BOND
  1   1   2  1   
  2   2   3  ar  
  3   2   4  ar  
  4   3   5  ar  
  5   3  28  1   
  6   4   6  ar  
  7   4  29  1   
  8   5   7  ar  
  9   5   8  1   
 10   6   7  ar  
 11   6  30  1   
 12   7   9  1   
 13   8  10  2   
 14   8  11  am  
 15   9  31  1   
 16   9  32  1   
 17   9  33  1   
 18  11  12  1   
 19  11  13  1   
 20  12  14  1   
 21  12  34  1   
 22  12  35  1   
 23  13  15  1   
 24  13  36  1   
 25  13  37  1   
 26  14  16  1   
 27  14  38  1   
 28  14  39  1   
 29  15  17  1   
 30  15  40  1   
 31  15  41  1   
 32  16  17  1   
 33  16  18  1   
 34  16  42  1   
 35  17  43  1   
 36  17  44  1   
 37  18  19  1   
 38  18  45  1   
 39  18  46  1   
 40  19  20  1   
 41  19  21  2   
 42  20  22  1   
 43  21  23  1   
 44  21  47  1   
 45  22  23  2   
 46  22  24  1   
 47  23  48  1   
 48  24  25  2   
 49  24  26  am  
 50  26  27  1   
 51  26  49  1   
 52  27  50  1   
 53  27  51  1   
 54  27  52  1   
@<TRIPOS>SUBSTRUCTURE
  1 ****  14 GROUP 4 **** **** 0

# MOE 2024.06 (io_trps.svl 2023.06)
