@<TRIPOS>MOLECULE
NONAME
52 55 1 0 0 
SMALL
USER_CHARGES


@<TRIPOS>ATOM
  1 S        0.7190    -0.0100     0.7850 S.3   1 <1>  -0.0800 
  2 C       -0.3890    -1.2920     0.4090 C.2   1 <1>  -0.1400 
  3 C       -0.6170     1.1230     0.6580 C.2   1 <1>   0.1980 
  4 C       -1.6110    -0.7790     0.2410 C.2   1 <1>   0.0460 
  5 C        0.0390    -2.7380     0.3090 C.3   1 <1>   0.0200 
  6 N       -1.7400     0.5930     0.3760 N.2   1 <1>  -0.5650 
  7 C       -0.3160     2.5870     0.8870 C.3   1 <1>   0.0200 
  8 C       -2.8120    -1.6420    -0.0880 C.3   1 <1>   0.0210 
  9 C       -1.0960    -3.5430    -0.3560 C.3   1 <1>  -0.1600 
 10 C        0.3900     3.1780    -0.3300 C.3   1 <1>   0.2090 
 11 C       -2.4940    -3.1340     0.1630 C.3   1 <1>  -0.1600 
 12 N        0.6120     4.6360    -0.1240 N.pl3 1 <1>  -0.8690 
 13 C        1.5940     5.3360    -0.7870 C.ar  1 <1>   0.4100 
 14 N        2.4960     4.6440    -1.4680 N.ar  1 <1>  -0.6200 
 15 C        1.5940     6.7210    -0.7160 C.ar  1 <1>  -0.1500 
 16 C        3.4110     5.3540    -2.1030 C.ar  1 <1>   0.1600 
 17 C        2.5570     7.4680    -1.3650 C.ar  1 <1>   0.0860 
 18 C        3.4850     6.7310    -2.0880 C.ar  1 <1>  -0.1500 
 19 C        2.5810     8.9160    -1.2990 C.2   1 <1>   0.5440 
 20 O        1.5720     9.5280    -1.5940 O.2   1 <1>  -0.5700 
 21 N        3.7060     9.6120    -0.9060 N.am  1 <1>  -0.6600 
 22 C        3.7900    11.0950    -1.0380 C.3   1 <1>   0.1400 
 23 C        4.8370     9.0030    -0.1490 C.3   1 <1>   0.1400 
 24 C        3.8630    11.7350     0.3520 C.3   1 <1>  -0.1600 
 25 C        4.9230     9.6300     1.2470 C.3   1 <1>  -0.1600 
 26 C        5.0210    11.1610     1.1800 C.3   1 <1>  -0.1600 
 27 H        0.2310    -3.1130     1.2990 H     1 <1>   0.0800 
 28 H        0.9390    -2.8200    -0.2730 H     1 <1>   0.0800 
 29 H        0.3050     2.6920     1.7570 H     1 <1>   0.0800 
 30 H       -1.2430     3.1040     1.0510 H     1 <1>   0.0800 
 31 H       -3.0690    -1.4860    -1.1200 H     1 <1>   0.0800 
 32 H       -3.6470    -1.3410     0.5190 H     1 <1>   0.0800 
 33 H       -0.9350    -4.5930    -0.1890 H     1 <1>   0.0800 
 34 H       -1.0630    -3.3710    -1.4190 H     1 <1>   0.0800 
 35 H       -0.2100     3.0300    -1.2120 H     1 <1>   0.0800 
 36 H        1.3310     2.6740    -0.4710 H     1 <1>   0.0800 
 37 H       -3.2500    -3.7420    -0.3030 H     1 <1>   0.0800 
 38 H       -2.5330    -3.3190     1.2230 H     1 <1>   0.0800 
 39 H       -0.2480     5.1610     0.0440 H     1 <1>   0.4000 
 40 H        0.8350     7.2220    -0.1470 H     1 <1>   0.1500 
 41 H        4.1420     4.8010    -2.6690 H     1 <1>   0.1500 
 42 H        4.2570     7.2410    -2.6360 H     1 <1>   0.1500 
 43 H        2.9380    11.4810    -1.5700 H     1 <1>   0.0800 
 44 H        4.6720    11.3450    -1.6010 H     1 <1>   0.0800 
 45 H        5.7530     9.1810    -0.6860 H     1 <1>   0.0800 
 46 H        4.7080     7.9410    -0.0460 H     1 <1>   0.0800 
 47 H        2.9290    11.5600     0.8590 H     1 <1>   0.0800 
 48 H        3.9830    12.7990     0.2470 H     1 <1>   0.0800 
 49 H        5.7800     9.2360     1.7620 H     1 <1>   0.0800 
 50 H        4.0470     9.3490     1.8060 H     1 <1>   0.0800 
 51 H        4.9960    11.5710     2.1740 H     1 <1>   0.0800 
 52 H        5.9570    11.4400     0.7260 H     1 <1>   0.0800 
@<TRIPOS>BOND
  1   1   2  1   
  2   1   3  1   
  3   2   4  2   
  4   2   5  1   
  5   3   6  2   
  6   3   7  1   
  7   4   6  1   
  8   4   8  1   
  9   5   9  1   
 10   5  27  1   
 11   5  28  1   
 12   7  10  1   
 13   7  29  1   
 14   7  30  1   
 15   8  11  1   
 16   8  31  1   
 17   8  32  1   
 18   9  11  1   
 19   9  33  1   
 20   9  34  1   
 21  10  12  1   
 22  10  35  1   
 23  10  36  1   
 24  11  37  1   
 25  11  38  1   
 26  12  13  1   
 27  12  39  1   
 28  13  14  ar  
 29  13  15  ar  
 30  14  16  ar  
 31  15  17  ar  
 32  15  40  1   
 33  16  18  ar  
 34  16  41  1   
 35  17  18  ar  
 36  17  19  1   
 37  18  42  1   
 38  19  20  2   
 39  19  21  am  
 40  21  22  1   
 41  21  23  1   
 42  22  24  1   
 43  22  43  1   
 44  22  44  1   
 45  23  25  1   
 46  23  45  1   
 47  23  46  1   
 48  24  26  1   
 49  24  47  1   
 50  24  48  1   
 51  25  26  1   
 52  25  49  1   
 53  25  50  1   
 54  26  51  1   
 55  26  52  1   
@<TRIPOS>SUBSTRUCTURE
  1 ****  12 GROUP 4 **** **** 0

# MOE 2024.06 (io_trps.svl 2023.06)
