@<TRIPOS>MOLECULE
NONAME
47 48 1 0 0 
SMALL
USER_CHARGES


@<TRIPOS>ATOM
  1 F        0.2320     1.0270    -0.0660 F     1 <1>  -0.1900 
  2 C        1.4270     1.5110     0.1430 C.ar  1 <1>   0.1900 
  3 C        2.5240     0.7740    -0.2620 C.ar  1 <1>  -0.1500 
  4 C        1.5500     2.7400     0.7610 C.ar  1 <1>  -0.1500 
  5 C        3.7890     1.2910    -0.0390 C.ar  1 <1>  -0.1500 
  6 C        2.8210     3.2450     0.9780 C.ar  1 <1>  -0.1500 
  7 C        3.9430     2.5260     0.5810 C.ar  1 <1>  -0.1430 
  8 C        5.3350     3.0950     0.8330 C.3   1 <1>   0.2540 
  9 N        5.4540     4.4700     0.3210 N.3   1 <1>  -0.8100 
 10 C        6.7070     5.1200     0.8070 C.3   1 <1>   0.1710 
 11 C        5.2910     4.5400    -1.1380 C.3   1 <1>   0.0300 
 12 C        6.8560     6.6270     0.5150 C.2   1 <1>   0.5690 
 13 O        6.4360     7.3920     1.3540 O.2   1 <1>  -0.5700 
 14 N        7.4780     7.1030    -0.6220 N.am  1 <1>  -0.6600 
 15 C        7.5010     8.5780    -0.8930 C.3   1 <1>   0.1400 
 16 C        8.1040     6.2780    -1.6940 C.3   1 <1>   0.0600 
 17 C        8.4750     9.3450     0.0180 C.3   1 <1>   0.2000 
 18 O        8.5050    10.6710    -0.4270 O.3   1 <1>  -0.5600 
 19 C        9.9120     8.7930    -0.0020 C.3   1 <1>  -0.1600 
 20 C        9.2180    11.5470     0.3920 C.3   1 <1>   0.1200 
 21 C       10.8530     9.6760     0.8270 C.3   1 <1>  -0.1600 
 22 C       10.6960    11.1400     0.4030 C.3   1 <1>  -0.1600 
 23 H        2.3850    -0.1780    -0.7400 H     1 <1>   0.1500 
 24 H        0.6760     3.2870     1.0610 H     1 <1>   0.1500 
 25 H        4.6520     0.7280    -0.3500 H     1 <1>   0.1500 
 26 H        2.9460     4.2050     1.4510 H     1 <1>   0.1500 
 27 H        6.0830     2.4710     0.3730 H     1 <1>   0.0800 
 28 H        5.5050     3.0960     1.8960 H     1 <1>   0.0800 
 29 H        7.5610     4.5920     0.4320 H     1 <1>   0.0800 
 30 H        6.7330     5.0260     1.8780 H     1 <1>   0.0800 
 31 H        4.3410     4.1230    -1.4260 H     1 <1>   0.0800 
 32 H        6.0750     3.9940    -1.6340 H     1 <1>   0.0800 
 33 H        5.3060     5.5660    -1.4620 H     1 <1>   0.0800 
 34 H        6.5120     8.9720    -0.7380 H     1 <1>   0.0800 
 35 H        7.7740     8.7530    -1.9180 H     1 <1>   0.0800 
 36 H        8.1130     5.2350    -1.4460 H     1 <1>   0.0800 
 37 H        9.1200     6.5990    -1.8500 H     1 <1>   0.0800 
 38 H        7.5560     6.4080    -2.6110 H     1 <1>   0.0800 
 39 H        8.0870     9.3430     1.0230 H     1 <1>   0.0800 
 40 H       10.2560     8.7490    -1.0200 H     1 <1>   0.0800 
 41 H        9.9210     7.7940     0.3970 H     1 <1>   0.0800 
 42 H        8.7940    11.5140     1.3810 H     1 <1>   0.0800 
 43 H        9.1010    12.5390    -0.0080 H     1 <1>   0.0800 
 44 H       11.8730     9.3580     0.6970 H     1 <1>   0.0800 
 45 H       10.6010     9.5790     1.8690 H     1 <1>   0.0800 
 46 H       11.2400    11.7780     1.0770 H     1 <1>   0.0800 
 47 H       11.0990    11.2810    -0.5840 H     1 <1>   0.0800 
@<TRIPOS>BOND
  1   1   2  1   
  2   2   3  ar  
  3   2   4  ar  
  4   3   5  ar  
  5   3  23  1   
  6   4   6  ar  
  7   4  24  1   
  8   5   7  ar  
  9   5  25  1   
 10   6   7  ar  
 11   6  26  1   
 12   7   8  1   
 13   8   9  1   
 14   8  27  1   
 15   8  28  1   
 16   9  10  1   
 17   9  11  1   
 18  10  12  1   
 19  10  29  1   
 20  10  30  1   
 21  11  31  1   
 22  11  32  1   
 23  11  33  1   
 24  12  13  2   
 25  12  14  am  
 26  14  15  1   
 27  14  16  1   
 28  15  17  1   
 29  15  34  1   
 30  15  35  1   
 31  16  36  1   
 32  16  37  1   
 33  16  38  1   
 34  17  18  1   
 35  17  19  1   
 36  17  39  1   
 37  18  20  1   
 38  19  21  1   
 39  19  40  1   
 40  19  41  1   
 41  20  22  1   
 42  20  42  1   
 43  20  43  1   
 44  21  22  1   
 45  21  44  1   
 46  21  45  1   
 47  22  46  1   
 48  22  47  1   
@<TRIPOS>SUBSTRUCTURE
  1 ****  10 GROUP 4 **** **** 0

# MOE 2024.06 (io_trps.svl 2023.06)
