@<TRIPOS>MOLECULE
NONAME
26 26 1 0 0 
SMALL
USER_CHARGES


@<TRIPOS>ATOM
  1 F        0.3200    -0.3420    -0.9650 F     1 <1>  -0.3400 
  2 C        1.4440     0.0710    -0.3820 C.3   1 <1>   0.8230 
  3 F        2.3990    -0.3090    -1.2260 F     1 <1>  -0.3400 
  4 C        1.4390     1.6050    -0.2670 C.ar  1 <1>  -0.1440 
  5 C        1.6070    -0.6720     0.9780 C.3   1 <1>   0.1100 
  6 C        0.2530     2.3160    -0.1290 C.ar  1 <1>  -0.1500 
  7 C        2.6300     2.3210    -0.2850 C.ar  1 <1>  -0.1500 
  8 N        1.6230    -2.1630     0.9580 N.3   1 <1>  -0.9900 
  9 C        0.2600     3.6950    -0.0160 C.ar  1 <1>  -0.1500 
 10 C        2.6310     3.7000    -0.1710 C.ar  1 <1>  -0.1500 
 11 C        1.4490     4.4280    -0.0340 C.ar  1 <1>   0.0860 
 12 C        1.4700     5.8770     0.0800 C.2   1 <1>   0.6340 
 13 O        2.4930     6.5300     0.0770 O.2   1 <1>  -0.5700 
 14 O        0.3000     6.5170     0.1950 O.3   1 <1>  -0.4300 
 15 C        0.2280     7.9250     0.3080 C.3   1 <1>   0.0400 
 16 H        0.8060    -0.3430     1.6150 H     1 <1>   0.0800 
 17 H        2.5210    -0.3260     1.4290 H     1 <1>   0.0800 
 18 H       -0.6930     1.7990    -0.1120 H     1 <1>   0.1500 
 19 H        3.5720     1.8060    -0.3930 H     1 <1>   0.1500 
 20 H        0.8160    -2.5130     0.4230 H     1 <1>   0.3600 
 21 H        1.5540    -2.5410     1.9110 H     1 <1>   0.3600 
 22 H       -0.6780     4.2140     0.0860 H     1 <1>   0.1500 
 23 H        3.5690     4.2290    -0.1910 H     1 <1>   0.1500 
 24 H       -0.8050     8.2090     0.3870 H     1 <1>   0.0800 
 25 H        0.6690     8.3670    -0.5690 H     1 <1>   0.0800 
 26 H        0.7670     8.2310     1.1880 H     1 <1>   0.0800 
@<TRIPOS>BOND
  1   1   2  1   
  2   2   3  1   
  3   2   4  1   
  4   2   5  1   
  5   4   6  ar  
  6   4   7  ar  
  7   5   8  1   
  8   5  16  1   
  9   5  17  1   
 10   6   9  ar  
 11   6  18  1   
 12   7  10  ar  
 13   7  19  1   
 14   8  20  1   
 15   8  21  1   
 16   9  11  ar  
 17   9  22  1   
 18  10  11  ar  
 19  10  23  1   
 20  11  12  1   
 21  12  13  2   
 22  12  14  1   
 23  14  15  1   
 24  15  24  1   
 25  15  25  1   
 26  15  26  1   
@<TRIPOS>SUBSTRUCTURE
  1 ****   4 GROUP 4 **** **** 0

# MOE 2024.06 (io_trps.svl 2023.06)
