@<TRIPOS>MOLECULE
NONAME
49 53 1 0 0 
SMALL
USER_CHARGES


@<TRIPOS>ATOM
  1 O        2.1990    -0.4130     0.4960 O.3   1 <1>  -0.5600 
  2 C        2.7370    -1.3740    -0.3940 C.3   1 <1>   0.4600 
  3 C        0.8080    -0.1760     0.4530 C.3   1 <1>   0.1200 
  4 C        1.7870    -2.5560    -0.5130 C.2   1 <1>  -0.3320 
  5 C        4.0760    -1.8050     0.2170 C.3   1 <1>  -0.1600 
  6 C        2.9930    -0.6980    -1.7430 C.3   1 <1>  -0.1600 
  7 C        0.0190    -1.4340     0.8470 C.3   1 <1>   0.0210 
  8 N        2.0030    -3.7320    -1.1850 N.pl3 1 <1>   0.0330 
  9 C        0.5630    -2.5920     0.0510 C.2   1 <1>  -0.1810 
 10 C        5.1900    -0.7630     0.0570 C.3   1 <1>   0.3430 
 11 C        3.8940     0.5350    -1.6170 C.3   1 <1>   0.3430 
 12 C        0.8910    -4.5210    -1.0280 C.ar  1 <1>  -0.1520 
 13 C       -0.0350    -3.8330    -0.2500 C.ar  1 <1>   0.0000 
 14 N        4.6150     0.5580    -0.3030 N.4   1 <1>  -0.9590 
 15 C        0.6100    -5.8030    -1.5090 C.ar  1 <1>  -0.1500 
 16 C       -1.2620    -4.4290     0.0580 C.ar  1 <1>  -0.1500 
 17 C        5.5790     1.6890    -0.1620 C.3   1 <1>   0.5230 
 18 C       -0.6010    -6.3780    -1.1990 C.ar  1 <1>  -0.1500 
 19 C       -1.5370    -5.6920    -0.4160 C.ar  1 <1>  -0.1500 
 20 C        4.8540     3.0150    -0.2560 C.2   1 <1>  -0.0400 
 21 O        4.4560     3.4440    -1.4220 O.3   1 <1>  -0.0190 
 22 C        4.4980     3.9270     0.6640 C.2   1 <1>  -0.1500 
 23 N        3.8390     4.5820    -1.3340 N.2   1 <1>  -0.4100 
 24 C        3.8530     4.9040    -0.0900 C.2   1 <1>   0.1080 
 25 C        3.2470     6.1750     0.4650 C.3   1 <1>  -0.0590 
 26 H        0.5420     0.1310    -0.5430 H     1 <1>   0.0800 
 27 H        0.5860     0.6270     1.1340 H     1 <1>   0.0800 
 28 H        4.4110    -2.7140    -0.2450 H     1 <1>   0.0800 
 29 H        3.9260    -2.0290     1.2590 H     1 <1>   0.0800 
 30 H        2.0610    -0.4240    -2.2040 H     1 <1>   0.0800 
 31 H        3.4630    -1.4030    -2.4040 H     1 <1>   0.0800 
 32 H       -1.0240    -1.2910     0.6280 H     1 <1>   0.0800 
 33 H        0.1260    -1.6280     1.8980 H     1 <1>   0.0800 
 34 H        2.8310    -4.0120    -1.7170 H     1 <1>   0.2700 
 35 H        5.8700    -1.0800    -0.7180 H     1 <1>   0.0800 
 36 H        5.7420    -0.6930     0.9810 H     1 <1>   0.0800 
 37 H        3.2760     1.4170    -1.6920 H     1 <1>   0.0800 
 38 H        4.5980     0.5550    -2.4330 H     1 <1>   0.0800 
 39 H        3.8510     0.7100     0.3850 H     1 <1>   0.4500 
 40 H        1.3320    -6.3260    -2.1090 H     1 <1>   0.1500 
 41 H       -1.9700    -3.8930     0.6600 H     1 <1>   0.1500 
 42 H        6.3340     1.6370    -0.9300 H     1 <1>   0.0800 
 43 H        6.0650     1.6290     0.7970 H     1 <1>   0.0800 
 44 H       -0.8410    -7.3640    -1.5570 H     1 <1>   0.1500 
 45 H       -2.4750    -6.1640    -0.1880 H     1 <1>   0.1500 
 46 H        4.6460     3.9500     1.7290 H     1 <1>   0.1500 
 47 H        4.0010     6.7540     0.9660 H     1 <1>   0.0800 
 48 H        2.4640     5.9350     1.1610 H     1 <1>   0.0800 
 49 H        2.8320     6.7650    -0.3330 H     1 <1>   0.0800 
@<TRIPOS>BOND
  1   1   2  1   
  2   1   3  1   
  3   2   4  1   
  4   2   5  1   
  5   2   6  1   
  6   3   7  1   
  7   3  26  1   
  8   3  27  1   
  9   4   8  1   
 10   4   9  2   
 11   5  10  1   
 12   5  28  1   
 13   5  29  1   
 14   6  11  1   
 15   6  30  1   
 16   6  31  1   
 17   7   9  1   
 18   7  32  1   
 19   7  33  1   
 20   8  12  1   
 21   8  34  1   
 22   9  13  1   
 23  10  14  1   
 24  10  35  1   
 25  10  36  1   
 26  11  14  1   
 27  11  37  1   
 28  11  38  1   
 29  12  13  ar  
 30  12  15  ar  
 31  13  16  ar  
 32  14  17  1   
 33  14  39  1   
 34  15  18  ar  
 35  15  40  1   
 36  16  19  ar  
 37  16  41  1   
 38  17  20  1   
 39  17  42  1   
 40  17  43  1   
 41  18  19  ar  
 42  18  44  1   
 43  19  45  1   
 44  20  21  1   
 45  20  22  2   
 46  21  23  1   
 47  22  24  1   
 48  22  46  1   
 49  23  24  2   
 50  24  25  1   
 51  25  47  1   
 52  25  48  1   
 53  25  49  1   
@<TRIPOS>SUBSTRUCTURE
  1 ****   2 GROUP 4 **** **** 0

# MOE 2024.06 (io_trps.svl 2023.06)
