@<TRIPOS>MOLECULE
NONAME
59 63 1 0 0 
SMALL
USER_CHARGES


@<TRIPOS>ATOM
  1 O        0.1570     0.7580     0.9410 O.2   1 <1>  -0.5700 
  2 C       -0.7720     1.2060     0.3110 C.2   1 <1>   0.5690 
  3 N       -1.8660     0.4470     0.0370 N.am  1 <1>  -0.6550 
  4 C       -0.7110     2.6440    -0.2380 C.3   1 <1>   0.0610 
  5 C       -2.0570    -0.9520     0.4670 C.3   1 <1>   0.2250 
  6 C        0.2250     3.5710     0.5840 C.3   1 <1>   0.2200 
  7 C       -2.0610     3.4200    -0.1120 C.3   1 <1>  -0.1600 
  8 C       -0.2940     2.5990    -1.7380 C.3   1 <1>  -0.1600 
  9 C       -2.3770    -1.9060    -0.7120 C.3   1 <1>   0.0000 
 10 C       -3.4880    -1.2280     0.9930 C.3   1 <1>   0.0000 
 11 N       -0.3040     4.8780     0.2050 N.am  1 <1>  -0.6600 
 12 C       -0.1300     3.6030     2.0850 C.3   1 <1>  -0.1600 
 13 C       -1.6820     4.7090     0.6350 C.3   1 <1>   0.2200 
 14 C        1.0810     1.9670    -2.0090 C.3   1 <1>  -0.2400 
 15 C       -3.4300    -2.5670     0.2130 C.3   1 <1>   0.0000 
 16 C        0.3840     5.8960    -0.3810 C.2   1 <1>   0.5690 
 17 C       -1.4620     4.3750     2.1130 C.3   1 <1>  -0.1600 
 18 O        1.5500     5.7960    -0.6710 O.2   1 <1>  -0.5700 
 19 C       -0.2940     7.2170    -0.6540 C.3   1 <1>  -0.0990 
 20 C       -0.0640     8.1490     0.5360 C.3   1 <1>   0.0960 
 21 N       -0.7720     9.4250     0.3310 N.pl3 1 <1>   0.0480 
 22 C       -0.3980    10.4500    -0.4790 C.ar  1 <1>  -0.1520 
 23 C       -1.9580     9.8080     0.8720 C.2   1 <1>   0.0360 
 24 C       -1.4030    11.3930    -0.3700 C.ar  1 <1>   0.2270 
 25 C        0.7100    10.6690    -1.3040 C.ar  1 <1>  -0.1500 
 26 N       -2.3720    10.9640     0.4860 N.2   1 <1>  -0.5650 
 27 C       -1.3240    12.5840    -1.0900 C.ar  1 <1>  -0.1500 
 28 C        0.7800    11.8480    -2.0120 C.ar  1 <1>  -0.1500 
 29 C       -0.2360    12.8060    -1.9060 C.ar  1 <1>  -0.1500 
 30 H       -2.6010     0.8160    -0.5640 H     1 <1>   0.3700 
 31 H       -1.2860    -1.3240     1.1190 H     1 <1>   0.0000 
 32 H        1.2770     3.4470     0.3910 H     1 <1>   0.0800 
 33 H       -2.8090     2.8790     0.4390 H     1 <1>   0.0800 
 34 H       -2.4680     3.6710    -1.0750 H     1 <1>   0.0800 
 35 H       -1.0310     2.0410    -2.2890 H     1 <1>   0.0800 
 36 H       -0.2840     3.5960    -2.1450 H     1 <1>   0.0800 
 37 H       -2.8280    -1.4110    -1.5560 H     1 <1>   0.0000 
 38 H       -1.5680    -2.5650    -0.9720 H     1 <1>   0.0000 
 39 H       -3.5440    -1.3600     2.0590 H     1 <1>   0.0000 
 40 H       -4.2300    -0.5560     0.5950 H     1 <1>   0.0000 
 41 H       -0.2130     2.6290     2.5290 H     1 <1>   0.0800 
 42 H        0.6310     4.1490     2.6140 H     1 <1>   0.0800 
 43 H       -2.3320     5.5480     0.4550 H     1 <1>   0.0800 
 44 H        1.1270     0.9580    -1.6390 H     1 <1>   0.0800 
 45 H        1.8660     2.5400    -1.5480 H     1 <1>   0.0800 
 46 H        1.2680     1.9450    -3.0680 H     1 <1>   0.0800 
 47 H       -3.0200    -3.3710     0.8000 H     1 <1>   0.0000 
 48 H       -4.3490    -2.8210    -0.2840 H     1 <1>   0.0000 
 49 H       -1.3630     5.2790     2.6880 H     1 <1>   0.0800 
 50 H       -2.2660     3.7860     2.5190 H     1 <1>   0.0800 
 51 H        0.1390     7.6440    -1.5400 H     1 <1>   0.0800 
 52 H       -1.3430     7.0700    -0.8280 H     1 <1>   0.0800 
 53 H        0.9880     8.3480     0.6500 H     1 <1>   0.0800 
 54 H       -0.4240     7.6920     1.4400 H     1 <1>   0.0800 
 55 H       -2.4910     9.1800     1.5640 H     1 <1>   0.1500 
 56 H        1.4880     9.9290    -1.3800 H     1 <1>   0.1500 
 57 H       -2.1180    13.2990    -0.9880 H     1 <1>   0.1500 
 58 H        1.6200    12.0450    -2.6550 H     1 <1>   0.1500 
 59 H       -0.1590    13.7200    -2.4690 H     1 <1>   0.1500 
@<TRIPOS>BOND
  1   1   2  2   
  2   2   3  am  
  3   2   4  1   
  4   3   5  1   
  5   3  30  1   
  6   4   6  1   
  7   4   7  1   
  8   4   8  1   
  9   5   9  1   
 10   5  10  1   
 11   5  31  1   
 12   6  11  1   
 13   6  12  1   
 14   6  32  1   
 15   7  13  1   
 16   7  33  1   
 17   7  34  1   
 18   8  14  1   
 19   8  35  1   
 20   8  36  1   
 21   9  15  1   
 22   9  37  1   
 23   9  38  1   
 24  10  15  1   
 25  10  39  1   
 26  10  40  1   
 27  11  13  1   
 28  11  16  am  
 29  12  17  1   
 30  12  41  1   
 31  12  42  1   
 32  13  17  1   
 33  13  43  1   
 34  14  44  1   
 35  14  45  1   
 36  14  46  1   
 37  15  47  1   
 38  15  48  1   
 39  16  18  2   
 40  16  19  1   
 41  17  49  1   
 42  17  50  1   
 43  19  20  1   
 44  19  51  1   
 45  19  52  1   
 46  20  21  1   
 47  20  53  1   
 48  20  54  1   
 49  21  22  1   
 50  21  23  1   
 51  22  24  ar  
 52  22  25  ar  
 53  23  26  2   
 54  23  55  1   
 55  24  26  1   
 56  24  27  ar  
 57  25  28  ar  
 58  25  56  1   
 59  27  29  ar  
 60  27  57  1   
 61  28  29  ar  
 62  28  58  1   
 63  29  59  1   
@<TRIPOS>SUBSTRUCTURE
  1 ****  11 GROUP 4 **** **** 0

# MOE 2024.06 (io_trps.svl 2023.06)
