@<TRIPOS>MOLECULE
NONAME
54 56 1 0 0 
SMALL
USER_CHARGES


@<TRIPOS>ATOM
  1 S        0.6370     0.2100     0.0470 S.3   1 <1>  -0.3320 
  2 C        0.2670     1.9510     0.1280 C.ar  1 <1>   0.7720 
  3 C       -0.9200    -0.7580     0.3200 C.3   1 <1>  -0.0100 
  4 N        1.2430     2.7780    -0.0460 N.ar  1 <1>  -0.6200 
  5 N       -1.0120     2.3030     0.3680 N.ar  1 <1>  -0.1790 
  6 C        0.9500     4.0810     0.0160 C.ar  1 <1>   0.4100 
  7 C       -1.3510     3.6000     0.4390 C.ar  1 <1>   0.4610 
  8 N        2.0230     4.8660    -0.1840 N.pl3 1 <1>  -0.8690 
  9 C       -0.3380     4.5210     0.2560 C.ar  1 <1>  -0.1500 
 10 N       -2.6330     3.9470     0.6780 N.pl3 1 <1>  -0.9000 
 11 C        2.1680     6.3550    -0.1800 C.3   1 <1>   0.2090 
 12 C        3.5160     6.8110     0.4490 C.3   1 <1>   0.5660 
 13 N        3.7270     8.3030     0.4160 N.4   1 <1>  -0.9590 
 14 C        4.7200     6.0850    -0.1570 C.ar  1 <1>  -0.1430 
 15 C        3.8490     8.8700    -0.9550 C.3   1 <1>   0.3430 
 16 C        4.9450     8.6690     1.1940 C.3   1 <1>   0.3430 
 17 C        5.6760     5.5540     0.7010 C.ar  1 <1>  -0.1500 
 18 C        4.8890     5.9200    -1.5300 C.ar  1 <1>  -0.1500 
 19 C        3.0600    10.1740    -1.0650 C.3   1 <1>  -0.1600 
 20 C        4.8380    10.0860     1.7650 C.3   1 <1>  -0.1600 
 21 C        6.7840     4.8930     0.2020 C.ar  1 <1>  -0.1500 
 22 C        5.9980     5.2590    -2.0270 C.ar  1 <1>  -0.1500 
 23 C        3.1740    11.1450     0.1240 C.3   1 <1>  -0.1600 
 24 C        4.5760    11.2110     0.7470 C.3   1 <1>  -0.1600 
 25 C        6.9470     4.7480    -1.1620 C.ar  1 <1>  -0.1500 
 26 H       -0.6560    -1.8000     0.2610 H     1 <1>   0.0800 
 27 H       -1.6210    -0.5130    -0.4590 H     1 <1>   0.0800 
 28 H       -1.3020    -0.5320     1.3000 H     1 <1>   0.0800 
 29 H       -1.7040     1.5790     0.4900 H     1 <1>   0.4570 
 30 H        2.8830     4.3500    -0.4360 H     1 <1>   0.4000 
 31 H       -0.5600     5.5680     0.2970 H     1 <1>   0.1500 
 32 H       -2.9320     4.9320     0.7300 H     1 <1>   0.4000 
 33 H       -3.4310     3.3170     0.8260 H     1 <1>   0.4000 
 34 H        1.3600     6.7910     0.3790 H     1 <1>   0.0800 
 35 H        2.1050     6.6970    -1.1970 H     1 <1>   0.0800 
 36 H        3.4670     6.5170     1.4850 H     1 <1>   0.0800 
 37 H        2.9370     8.7720     0.8720 H     1 <1>   0.4500 
 38 H        3.4780     8.1790    -1.6920 H     1 <1>   0.0800 
 39 H        4.8880     9.0570    -1.1780 H     1 <1>   0.0800 
 40 H        5.8190     8.5900     0.5660 H     1 <1>   0.0800 
 41 H        5.0730     7.9840     2.0170 H     1 <1>   0.0800 
 42 H        5.5740     5.6390     1.7700 H     1 <1>   0.1500 
 43 H        4.1700     6.2880    -2.2390 H     1 <1>   0.1500 
 44 H        2.0210     9.9500    -1.2360 H     1 <1>   0.0800 
 45 H        3.4090    10.6800    -1.9500 H     1 <1>   0.0800 
 46 H        5.7700    10.3010     2.2600 H     1 <1>   0.0800 
 47 H        4.0800    10.1050     2.5280 H     1 <1>   0.0800 
 48 H        7.5210     4.4840     0.8730 H     1 <1>   0.1500 
 49 H        6.1260     5.1340    -3.0900 H     1 <1>   0.1500 
 50 H        2.4520    10.8950     0.8830 H     1 <1>   0.0800 
 51 H        2.9120    12.1290    -0.2300 H     1 <1>   0.0800 
 52 H        5.3340    11.2210    -0.0190 H     1 <1>   0.0800 
 53 H        4.6560    12.1480     1.2740 H     1 <1>   0.0800 
 54 H        7.8090     4.2310    -1.5500 H     1 <1>   0.1500 
@<TRIPOS>BOND
  1   1   2  1   
  2   1   3  1   
  3   2   4  ar  
  4   2   5  ar  
  5   3  26  1   
  6   3  27  1   
  7   3  28  1   
  8   4   6  ar  
  9   5   7  ar  
 10   5  29  1   
 11   6   8  1   
 12   6   9  ar  
 13   7   9  ar  
 14   7  10  1   
 15   8  11  1   
 16   8  30  1   
 17   9  31  1   
 18  10  32  1   
 19  10  33  1   
 20  11  12  1   
 21  11  34  1   
 22  11  35  1   
 23  12  13  1   
 24  12  14  1   
 25  12  36  1   
 26  13  15  1   
 27  13  16  1   
 28  13  37  1   
 29  14  17  ar  
 30  14  18  ar  
 31  15  19  1   
 32  15  38  1   
 33  15  39  1   
 34  16  20  1   
 35  16  40  1   
 36  16  41  1   
 37  17  21  ar  
 38  17  42  1   
 39  18  22  ar  
 40  18  43  1   
 41  19  23  1   
 42  19  44  1   
 43  19  45  1   
 44  20  24  1   
 45  20  46  1   
 46  20  47  1   
 47  21  25  ar  
 48  21  48  1   
 49  22  25  ar  
 50  22  49  1   
 51  23  24  1   
 52  23  50  1   
 53  23  51  1   
 54  24  52  1   
 55  24  53  1   
 56  25  54  1   
@<TRIPOS>SUBSTRUCTURE
  1 ****  11 GROUP 4 **** **** 0

# MOE 2024.06 (io_trps.svl 2023.06)
