@<TRIPOS>MOLECULE
NONAME
46 49 1 0 0 
SMALL
USER_CHARGES


@<TRIPOS>ATOM
  1 F        1.2590    -2.0470     2.2790 F     1 <1>  -0.1900 
  2 C        1.8160    -2.0380     1.0950 C.ar  1 <1>   0.1900 
  3 C        1.0750    -2.4070    -0.0210 C.ar  1 <1>  -0.0320 
  4 C        3.1400    -1.6500     1.0140 C.ar  1 <1>  -0.1500 
  5 C        1.7140    -2.3850    -1.2530 C.ar  1 <1>  -0.1500 
  6 C       -0.3900    -2.8400     0.0730 C.3   1 <1>   0.0320 
  7 C        3.7560    -1.6290    -0.2250 C.ar  1 <1>  -0.1500 
  8 C        3.0430    -1.9970    -1.3550 C.ar  1 <1>  -0.1500 
  9 C       -0.5240    -4.3620     0.3480 C.2   1 <1>   0.6300 
 10 C       -1.3640    -1.8940     0.7240 C.3   1 <1>  -0.2000 
 11 C       -1.3340    -2.0130    -0.7650 C.3   1 <1>  -0.2000 
 12 O        0.4290    -4.9170     0.8470 O.2   1 <1>  -0.5700 
 13 N       -1.6390    -5.1200     0.0560 N.am  1 <1>  -0.6600 
 14 C       -3.0210    -4.7040    -0.3050 C.3   1 <1>   0.1400 
 15 C       -1.6100    -6.5970     0.2450 C.3   1 <1>   0.1400 
 16 C       -3.9060    -5.8540     0.1690 C.3   1 <1>   0.2000 
 17 C       -3.0310    -7.0890    -0.0490 C.3   1 <1>  -0.0800 
 18 O       -4.1410    -5.6820     1.5250 O.3   1 <1>  -0.6800 
 19 C       -3.4360    -8.3380     0.7570 C.3   1 <1>  -0.0160 
 20 C       -2.5520    -9.5230     0.3990 C.ar  1 <1>  -0.1430 
 21 C       -1.4330    -9.8510     1.1370 C.ar  1 <1>  -0.1500 
 22 C       -2.8240   -10.3300    -0.6870 C.ar  1 <1>  -0.1500 
 23 C       -0.6590   -10.9370     0.7600 C.ar  1 <1>   0.1600 
 24 C       -1.9860   -11.3930    -0.9770 C.ar  1 <1>   0.1600 
 25 N       -0.9080   -11.7150    -0.2800 N.ar  1 <1>  -0.6200 
 26 H        3.6740    -1.3740     1.9050 H     1 <1>   0.1500 
 27 H        1.1780    -2.6740    -2.1390 H     1 <1>   0.1500 
 28 H        4.7870    -1.3320    -0.3110 H     1 <1>   0.1500 
 29 H        3.5240    -1.9850    -2.3180 H     1 <1>   0.1500 
 30 H       -2.1800    -2.3070     1.2880 H     1 <1>   0.1000 
 31 H       -0.9810    -0.9960     1.1780 H     1 <1>   0.1000 
 32 H       -0.9370    -1.1800    -1.3180 H     1 <1>   0.1000 
 33 H       -2.1490    -2.4720    -1.2870 H     1 <1>   0.1000 
 34 H       -3.3170    -3.7830     0.1610 H     1 <1>   0.0800 
 35 H       -3.0900    -4.6130    -1.3750 H     1 <1>   0.0800 
 36 H       -0.8920    -7.0510    -0.4180 H     1 <1>   0.0800 
 37 H       -1.3330    -6.8130     1.2630 H     1 <1>   0.0800 
 38 H       -4.8530    -5.9010    -0.3410 H     1 <1>   0.0800 
 39 H       -3.0720    -7.3360    -1.0950 H     1 <1>   0.0800 
 40 H       -3.2880    -5.5030     1.9710 H     1 <1>   0.4000 
 41 H       -4.4630    -8.5810     0.5460 H     1 <1>   0.0800 
 42 H       -3.3630    -8.1440     1.8130 H     1 <1>   0.0800 
 43 H       -1.1520    -9.2760     2.0000 H     1 <1>   0.1500 
 44 H       -3.6790   -10.1430    -1.3100 H     1 <1>   0.1500 
 45 H        0.2120   -11.1770     1.3460 H     1 <1>   0.1500 
 46 H       -2.2140   -12.0130    -1.8280 H     1 <1>   0.1500 
@<TRIPOS>BOND
  1   1   2  1   
  2   2   3  ar  
  3   2   4  ar  
  4   3   5  ar  
  5   3   6  1   
  6   4   7  ar  
  7   4  26  1   
  8   5   8  ar  
  9   5  27  1   
 10   6   9  1   
 11   6  10  1   
 12   6  11  1   
 13   7   8  ar  
 14   7  28  1   
 15   8  29  1   
 16   9  12  2   
 17   9  13  am  
 18  10  11  1   
 19  10  30  1   
 20  10  31  1   
 21  11  32  1   
 22  11  33  1   
 23  13  14  1   
 24  13  15  1   
 25  14  16  1   
 26  14  34  1   
 27  14  35  1   
 28  15  17  1   
 29  15  36  1   
 30  15  37  1   
 31  16  17  1   
 32  16  18  1   
 33  16  38  1   
 34  17  19  1   
 35  17  39  1   
 36  18  40  1   
 37  19  20  1   
 38  19  41  1   
 39  19  42  1   
 40  20  21  ar  
 41  20  22  ar  
 42  21  23  ar  
 43  21  43  1   
 44  22  24  ar  
 45  22  44  1   
 46  23  25  ar  
 47  23  45  1   
 48  24  25  ar  
 49  24  46  1   
@<TRIPOS>SUBSTRUCTURE
  1 ****  13 GROUP 4 **** **** 0

# MOE 2024.06 (io_trps.svl 2023.06)
