@<TRIPOS>MOLECULE
NONAME
58 60 1 0 0 
SMALL
USER_CHARGES


@<TRIPOS>ATOM
  1 O        0.0680    -0.2750     2.1950 O.2   1 <1>  -0.5700 
  2 C       -0.1720    -1.2730     1.5620 C.2   1 <1>   0.5690 
  3 N        0.7590    -1.8700     0.7670 N.am  1 <1>  -0.7300 
  4 C       -1.6000    -1.8400     1.6400 C.3   1 <1>   0.4040 
  5 C        2.1470    -1.3950     0.5990 C.3   1 <1>   0.2200 
  6 N       -2.6240    -1.0640     0.8410 N.4   1 <1>  -0.9590 
  7 C        2.3500    -1.0520    -0.8830 C.3   1 <1>  -0.1600 
  8 C        3.0790    -2.4830     1.1440 C.3   1 <1>  -0.1600 
  9 C       -3.9450    -1.7690     0.8390 C.3   1 <1>   0.3430 
 10 C       -2.7560     0.3340     1.3590 C.3   1 <1>   0.3430 
 11 C        3.6340    -0.2420    -1.1240 C.3   1 <1>  -0.1600 
 12 C        4.5800    -2.1940     0.9780 C.3   1 <1>  -0.1600 
 13 C       -4.9810    -1.0400    -0.0440 C.3   1 <1>   0.0000 
 14 C       -3.7460     1.1190     0.4960 C.3   1 <1>  -0.1600 
 15 C        4.9000    -1.0850    -1.3400 C.3   1 <1>  -0.1600 
 16 C        5.0510    -2.3460    -0.4750 C.3   1 <1>  -0.1600 
 17 C       -6.3240    -1.7860     0.0330 C.3   1 <1>   0.2000 
 18 C       -5.1150     0.4260     0.4170 C.3   1 <1>  -0.1600 
 19 C       -4.6170    -1.1600    -1.5340 C.3   1 <1>  -0.1600 
 20 O       -6.4930    -2.3230     1.3100 O.3   1 <1>  -0.5600 
 21 C       -6.2580    -2.8960    -1.0230 C.3   1 <1>  -0.1600 
 22 C       -5.0780    -2.5600    -1.9430 C.3   1 <1>  -0.1600 
 23 C       -7.8010    -2.7060     1.6130 C.3   1 <1>   0.0400 
 24 H        0.5690    -2.7320     0.2530 H     1 <1>   0.3700 
 25 H       -1.8900    -1.8500     2.6770 H     1 <1>   0.0800 
 26 H       -1.5730    -2.8590     1.2970 H     1 <1>   0.0800 
 27 H        2.2890    -0.4980     1.1820 H     1 <1>   0.0800 
 28 H       -2.3000    -0.9930    -0.1310 H     1 <1>   0.4500 
 29 H        2.3510    -1.9410    -1.4890 H     1 <1>   0.0800 
 30 H        1.5260    -0.4360    -1.1950 H     1 <1>   0.0800 
 31 H        2.8810    -2.5840     2.1970 H     1 <1>   0.0800 
 32 H        2.8520    -3.4250     0.6770 H     1 <1>   0.0800 
 33 H       -3.8310    -2.7790     0.4820 H     1 <1>   0.0800 
 34 H       -4.3250    -1.8160     1.8470 H     1 <1>   0.0800 
 35 H       -3.1060     0.3130     2.3780 H     1 <1>   0.0800 
 36 H       -1.7980     0.8310     1.3440 H     1 <1>   0.0800 
 37 H        3.4970     0.3700    -1.9990 H     1 <1>   0.0800 
 38 H        3.7910     0.4330    -0.3000 H     1 <1>   0.0800 
 39 H        4.8290    -1.2190     1.3610 H     1 <1>   0.0800 
 40 H        5.1150    -2.9140     1.5730 H     1 <1>   0.0800 
 41 H       -3.8710     2.1000     0.9200 H     1 <1>   0.0800 
 42 H       -3.3360     1.2510    -0.4900 H     1 <1>   0.0800 
 43 H        4.9420    -1.3870    -2.3730 H     1 <1>   0.0800 
 44 H        5.7510    -0.4480    -1.1700 H     1 <1>   0.0800 
 45 H        6.0940    -2.6130    -0.4700 H     1 <1>   0.0800 
 46 H        4.5280    -3.1640    -0.9400 H     1 <1>   0.0800 
 47 H       -7.1340    -1.1080    -0.1840 H     1 <1>   0.0800 
 48 H       -5.7620     0.9720    -0.2490 H     1 <1>   0.0800 
 49 H       -5.5710     0.4440     1.3930 H     1 <1>   0.0800 
 50 H       -5.1840    -0.4390    -2.1010 H     1 <1>   0.0800 
 51 H       -3.5740    -1.0060    -1.7440 H     1 <1>   0.0800 
 52 H       -6.1090    -3.8610    -0.5690 H     1 <1>   0.0800 
 53 H       -7.1740    -2.9100    -1.5870 H     1 <1>   0.0800 
 54 H       -4.2850    -3.2720    -1.7880 H     1 <1>   0.0800 
 55 H       -5.3660    -2.5890    -2.9820 H     1 <1>   0.0800 
 56 H       -7.8120    -3.1030     2.6130 H     1 <1>   0.0800 
 57 H       -8.1270    -3.4630     0.9210 H     1 <1>   0.0800 
 58 H       -8.4460    -1.8450     1.5610 H     1 <1>   0.0800 
@<TRIPOS>BOND
  1   1   2  2   
  2   2   3  am  
  3   2   4  1   
  4   3   5  1   
  5   3  24  1   
  6   4   6  1   
  7   4  25  1   
  8   4  26  1   
  9   5   7  1   
 10   5   8  1   
 11   5  27  1   
 12   6   9  1   
 13   6  10  1   
 14   6  28  1   
 15   7  11  1   
 16   7  29  1   
 17   7  30  1   
 18   8  12  1   
 19   8  31  1   
 20   8  32  1   
 21   9  13  1   
 22   9  33  1   
 23   9  34  1   
 24  10  14  1   
 25  10  35  1   
 26  10  36  1   
 27  11  15  1   
 28  11  37  1   
 29  11  38  1   
 30  12  16  1   
 31  12  39  1   
 32  12  40  1   
 33  13  17  1   
 34  13  18  1   
 35  13  19  1   
 36  14  18  1   
 37  14  41  1   
 38  14  42  1   
 39  15  16  1   
 40  15  43  1   
 41  15  44  1   
 42  16  45  1   
 43  16  46  1   
 44  17  20  1   
 45  17  21  1   
 46  17  47  1   
 47  18  48  1   
 48  18  49  1   
 49  19  22  1   
 50  19  50  1   
 51  19  51  1   
 52  20  23  1   
 53  21  22  1   
 54  21  52  1   
 55  21  53  1   
 56  22  54  1   
 57  22  55  1   
 58  23  56  1   
 59  23  57  1   
 60  23  58  1   
@<TRIPOS>SUBSTRUCTURE
  1 ****   6 GROUP 4 **** **** 0

# MOE 2024.06 (io_trps.svl 2023.06)
