@<TRIPOS>MOLECULE
NONAME
56 57 1 0 0 
SMALL
USER_CHARGES


@<TRIPOS>ATOM
  1 S       -2.2120    -0.9480    -2.0510 S.o2  1 <1>   1.3330 
  2 O       -1.9610    -0.2500    -3.2840 O.2   1 <1>  -0.6500 
  3 O       -1.8070    -0.3970    -0.7830 O.2   1 <1>  -0.6500 
  4 N       -1.3120    -2.3270    -2.1900 N.am  1 <1>  -0.9780 
  5 C       -3.9140    -1.5170    -1.9810 C.3   1 <1>  -0.0550 
  6 C       -4.2160    -2.4370    -0.7840 C.3   1 <1>  -0.1600 
  7 C       -5.7110    -2.7850    -0.7020 C.3   1 <1>  -0.0990 
  8 C       -6.0170    -3.7010     0.4730 C.2   1 <1>   0.5690 
  9 O       -6.3120    -4.8490     0.2220 O.2   1 <1>  -0.5700 
 10 N       -5.9950    -3.2360     1.7600 N.am  1 <1>  -0.6600 
 11 C       -6.0860    -4.1860     2.9080 C.3   1 <1>   0.1400 
 12 C       -6.1590    -1.8070     2.1460 C.3   1 <1>   0.1400 
 13 C       -7.5350    -4.6000     3.2300 C.3   1 <1>   0.1400 
 14 C       -7.6440    -1.4180     2.1930 C.3   1 <1>  -0.1600 
 15 N       -8.5680    -3.6950     2.6240 N.am  1 <1>  -0.6600 
 16 C       -8.5210    -2.2860     3.1110 C.3   1 <1>   0.1400 
 17 C       -9.3770    -4.0390     1.5650 C.2   1 <1>   0.5690 
 18 O      -10.1620    -3.2460     1.0890 O.2   1 <1>  -0.5700 
 19 C       -9.3170    -5.4480     0.9050 C.3   1 <1>   0.4840 
 20 N       -9.7900    -5.4580    -0.5290 N.4   1 <1>  -0.9590 
 21 C      -10.1810    -6.4360     1.7000 C.3   1 <1>  -0.2400 
 22 C       -9.7650    -6.7650    -1.2240 C.3   1 <1>   0.3430 
 23 C       -9.0190    -4.5340    -1.3910 C.3   1 <1>   0.3430 
 24 C       -9.8090    -6.4140    -2.7070 C.3   1 <1>  -0.1600 
 25 C       -9.4130    -4.9380    -2.8020 C.3   1 <1>  -0.1600 
 26 H       -0.6430    -2.2540    -1.4250 H     1 <1>   0.4200 
 27 H       -0.7740    -2.1760    -3.0420 H     1 <1>   0.4200 
 28 H       -4.1430    -2.0380    -2.8910 H     1 <1>   0.0800 
 29 H       -4.5540    -0.6570    -1.9290 H     1 <1>   0.0800 
 30 H       -3.9050    -1.9500     0.1240 H     1 <1>   0.0800 
 31 H       -3.6430    -3.3450    -0.8780 H     1 <1>   0.0800 
 32 H       -6.0020    -3.2850    -1.6080 H     1 <1>   0.0800 
 33 H       -6.3020    -1.8910    -0.6230 H     1 <1>   0.0800 
 34 H       -5.6430    -3.7380     3.7800 H     1 <1>   0.0800 
 35 H       -5.5090    -5.0680     2.6870 H     1 <1>   0.0800 
 36 H       -5.6420    -1.1690     1.4510 H     1 <1>   0.0800 
 37 H       -5.7120    -1.6420     3.1130 H     1 <1>   0.0800 
 38 H       -7.6630    -4.6170     4.2980 H     1 <1>   0.0800 
 39 H       -7.6700    -5.6100     2.8920 H     1 <1>   0.0800 
 40 H       -8.0530    -1.4300     1.1990 H     1 <1>   0.0800 
 41 H       -7.7080    -0.4020     2.5380 H     1 <1>   0.0800 
 42 H       -9.5220    -1.8850     3.1250 H     1 <1>   0.0800 
 43 H       -8.1460    -2.2570     4.1200 H     1 <1>   0.0800 
 44 H       -8.2930    -5.7780     0.9330 H     1 <1>   0.0800 
 45 H      -10.7490    -5.0870    -0.5120 H     1 <1>   0.4500 
 46 H      -11.2220    -6.1770     1.6170 H     1 <1>   0.0800 
 47 H       -9.9160    -6.3940     2.7410 H     1 <1>   0.0800 
 48 H      -10.0280    -7.4470     1.3700 H     1 <1>   0.0800 
 49 H      -10.5970    -7.3860    -0.9350 H     1 <1>   0.0800 
 50 H       -8.8400    -7.2750    -1.0030 H     1 <1>   0.0800 
 51 H       -7.9650    -4.7020    -1.2550 H     1 <1>   0.0800 
 52 H       -9.2540    -3.5010    -1.1830 H     1 <1>   0.0800 
 53 H      -10.8020    -6.5660    -3.0940 H     1 <1>   0.0800 
 54 H       -9.1290    -7.0440    -3.2540 H     1 <1>   0.0800 
 55 H       -8.5960    -4.7820    -3.4850 H     1 <1>   0.0800 
 56 H      -10.2510    -4.3450    -3.1250 H     1 <1>   0.0800 
@<TRIPOS>BOND
  1   1   2  2   
  2   1   3  2   
  3   1   4  am  
  4   1   5  1   
  5   4  26  1   
  6   4  27  1   
  7   5   6  1   
  8   5  28  1   
  9   5  29  1   
 10   6   7  1   
 11   6  30  1   
 12   6  31  1   
 13   7   8  1   
 14   7  32  1   
 15   7  33  1   
 16   8   9  2   
 17   8  10  am  
 18  10  11  1   
 19  10  12  1   
 20  11  13  1   
 21  11  34  1   
 22  11  35  1   
 23  12  14  1   
 24  12  36  1   
 25  12  37  1   
 26  13  15  1   
 27  13  38  1   
 28  13  39  1   
 29  14  16  1   
 30  14  40  1   
 31  14  41  1   
 32  15  16  1   
 33  15  17  am  
 34  16  42  1   
 35  16  43  1   
 36  17  18  2   
 37  17  19  1   
 38  19  20  1   
 39  19  21  1   
 40  19  44  1   
 41  20  22  1   
 42  20  23  1   
 43  20  45  1   
 44  21  46  1   
 45  21  47  1   
 46  21  48  1   
 47  22  24  1   
 48  22  49  1   
 49  22  50  1   
 50  23  25  1   
 51  23  51  1   
 52  23  52  1   
 53  24  25  1   
 54  24  53  1   
 55  24  54  1   
 56  25  55  1   
 57  25  56  1   
@<TRIPOS>SUBSTRUCTURE
  1 ****   8 GROUP 4 **** **** 0

# MOE 2024.06 (io_trps.svl 2023.06)
