@<TRIPOS>MOLECULE
NONAME
33 32 1 0 0 
SMALL
USER_CHARGES


@<TRIPOS>ATOM
  1 O       -1.4520    -0.2040     0.1530 O.co2 1 <1>  -0.9000 
  2 C       -0.8850     0.6570    -0.5320 C.2   1 <1>   0.9060 
  3 O       -0.1680     0.3560    -1.4990 O.co2 1 <1>  -0.9000 
  4 C       -1.0160     2.1540    -0.1270 C.3   1 <1>   0.0840 
  5 N        0.2640     2.9210    -0.1240 N.3   1 <1>  -0.9000 
  6 C       -1.9830     2.9200    -1.0450 C.3   1 <1>  -0.1600 
  7 C        1.2060     2.3540     0.8750 C.3   1 <1>   0.1710 
  8 C       -3.4220     2.3950    -0.9550 C.3   1 <1>  -0.2400 
  9 C        2.5980     2.9950     0.8870 C.2   1 <1>   0.6590 
 10 O        3.0900     3.4080     1.9100 O.2   1 <1>  -0.5700 
 11 O        3.2240     3.0390    -0.2880 O.3   1 <1>  -0.4300 
 12 C        4.5000     3.5590    -0.5750 C.3   1 <1>   0.2800 
 13 C        5.5700     2.7740     0.1910 C.3   1 <1>  -0.2400 
 14 C        4.6900     3.3510    -2.0780 C.3   1 <1>  -0.2400 
 15 C        4.5360     5.0580    -0.2570 C.3   1 <1>  -0.2400 
 16 H       -1.4210     2.1700     0.8690 H     1 <1>   0.0800 
 17 H        0.6760     2.7030    -1.0470 H     1 <1>   0.3600 
 18 H       -1.9760     3.9600    -0.7690 H     1 <1>   0.0800 
 19 H       -1.6380     2.8320    -2.0610 H     1 <1>   0.0800 
 20 H        0.7800     2.4590     1.8560 H     1 <1>   0.0800 
 21 H        1.3420     1.3040     0.6820 H     1 <1>   0.0800 
 22 H       -3.7790     2.4590     0.0580 H     1 <1>   0.0800 
 23 H       -3.4640     1.3650    -1.2670 H     1 <1>   0.0800 
 24 H       -4.0670     2.9730    -1.5900 H     1 <1>   0.0800 
 25 H        6.5490     3.0860    -0.1220 H     1 <1>   0.0800 
 26 H        5.4680     1.7210    -0.0030 H     1 <1>   0.0800 
 27 H        5.4930     2.9480     1.2480 H     1 <1>   0.0800 
 28 H        5.6490     3.7220    -2.3900 H     1 <1>   0.0800 
 29 H        3.9260     3.8750    -2.6240 H     1 <1>   0.0800 
 30 H        4.6320     2.3040    -2.3170 H     1 <1>   0.0800 
 31 H        5.4640     5.4830    -0.5930 H     1 <1>   0.0800 
 32 H        4.4620     5.2290     0.8010 H     1 <1>   0.0800 
 33 H        3.7270     5.5630    -0.7530 H     1 <1>   0.0800 
@<TRIPOS>BOND
  1   1   2  ar  
  2   2   3  ar  
  3   2   4  1   
  4   4   5  1   
  5   4   6  1   
  6   4  16  1   
  7   5   7  1   
  8   5  17  1   
  9   6   8  1   
 10   6  18  1   
 11   6  19  1   
 12   7   9  1   
 13   7  20  1   
 14   7  21  1   
 15   8  22  1   
 16   8  23  1   
 17   8  24  1   
 18   9  10  2   
 19   9  11  1   
 20  11  12  1   
 21  12  13  1   
 22  12  14  1   
 23  12  15  1   
 24  13  25  1   
 25  13  26  1   
 26  13  27  1   
 27  14  28  1   
 28  14  29  1   
 29  14  30  1   
 30  15  31  1   
 31  15  32  1   
 32  15  33  1   
@<TRIPOS>SUBSTRUCTURE
  1 ****   7 GROUP 4 **** **** 0

# MOE 2024.06 (io_trps.svl 2023.06)
