@<TRIPOS>MOLECULE
NONAME
44 46 1 0 0 
SMALL
USER_CHARGES


@<TRIPOS>ATOM
  1 F        1.4710    -0.5350    -2.8640 F     1 <1>  -0.1900 
  2 C        2.0450    -1.0760    -1.8250 C.ar  1 <1>   0.1900 
  3 C        2.7760    -0.2690    -0.9790 C.ar  1 <1>  -0.1500 
  4 C        1.8980    -2.4310    -1.6170 C.ar  1 <1>  -0.1500 
  5 C        3.3940    -0.8370     0.1280 C.ar  1 <1>   0.0730 
  6 C        2.5000    -3.0240    -0.5090 C.ar  1 <1>   0.0860 
  7 C        4.1630    -0.0300     1.0320 C.1   1 <1>   0.4840 
  8 C        3.2470    -2.2050     0.3390 C.ar  1 <1>  -0.1500 
  9 C        2.3710    -4.4440    -0.2390 C.2   1 <1>   0.5440 
 10 N        4.7670     0.6180     1.7490 N.1   1 <1>  -0.5570 
 11 O        3.3660    -5.0930     0.0200 O.2   1 <1>  -0.5700 
 12 N        1.1510    -5.0730    -0.2510 N.am  1 <1>  -0.6600 
 13 C       -0.1630    -4.3970    -0.1690 C.3   1 <1>   0.1400 
 14 C        1.0020    -6.5300    -0.0410 C.3   1 <1>   0.1400 
 15 C       -1.0950    -5.4130     0.5060 C.3   1 <1>  -0.0800 
 16 C       -0.5000    -6.7810     0.1230 C.3   1 <1>  -0.0800 
 17 C       -2.6180    -5.2480     0.2120 C.3   1 <1>   0.2800 
 18 C       -1.1500    -7.3210    -1.1600 C.3   1 <1>  -0.1600 
 19 O       -2.8050    -4.6170    -1.0040 O.3   1 <1>  -0.6800 
 20 C       -3.2910    -6.6280     0.0980 C.3   1 <1>  -0.1600 
 21 C       -3.3410    -4.3930     1.2770 C.3   1 <1>  -0.1600 
 22 C       -2.6650    -7.5340    -0.9840 C.3   1 <1>  -0.1600 
 23 C       -2.8250    -2.9520     1.4380 C.3   1 <1>  -0.2400 
 24 H        2.8610     0.7850    -1.1830 H     1 <1>   0.1500 
 25 H        1.3260    -3.0230    -2.3090 H     1 <1>   0.1500 
 26 H        3.7270    -2.6630     1.1890 H     1 <1>   0.1500 
 27 H       -0.1000    -3.4850     0.3960 H     1 <1>   0.0800 
 28 H       -0.4830    -4.1760    -1.1720 H     1 <1>   0.0800 
 29 H        1.4150    -7.0720    -0.8740 H     1 <1>   0.0800 
 30 H        1.5290    -6.8080     0.8570 H     1 <1>   0.0800 
 31 H       -0.9490    -5.3160     1.5670 H     1 <1>   0.0800 
 32 H       -0.6550    -7.4980     0.9110 H     1 <1>   0.0800 
 33 H       -0.9890    -6.6110    -1.9540 H     1 <1>   0.0800 
 34 H       -0.6870    -8.2470    -1.4550 H     1 <1>   0.0800 
 35 H       -3.7560    -4.5990    -1.2120 H     1 <1>   0.4000 
 36 H       -3.1900    -7.1230     1.0490 H     1 <1>   0.0800 
 37 H       -4.3460    -6.5210    -0.0840 H     1 <1>   0.0800 
 38 H       -4.3900    -4.3560     1.0390 H     1 <1>   0.0800 
 39 H       -3.2590    -4.8890     2.2290 H     1 <1>   0.0800 
 40 H       -2.8570    -8.5610    -0.7250 H     1 <1>   0.0800 
 41 H       -3.1450    -7.3460    -1.9300 H     1 <1>   0.0800 
 42 H       -2.8430    -2.4320     0.4970 H     1 <1>   0.0800 
 43 H       -1.8220    -2.9450     1.8230 H     1 <1>   0.0800 
 44 H       -3.4510    -2.4180     2.1310 H     1 <1>   0.0800 
@<TRIPOS>BOND
  1   1   2  1   
  2   2   3  ar  
  3   2   4  ar  
  4   3   5  ar  
  5   3  24  1   
  6   4   6  ar  
  7   4  25  1   
  8   5   7  1   
  9   5   8  ar  
 10   6   8  ar  
 11   6   9  1   
 12   7  10  3   
 13   8  26  1   
 14   9  11  2   
 15   9  12  am  
 16  12  13  1   
 17  12  14  1   
 18  13  15  1   
 19  13  27  1   
 20  13  28  1   
 21  14  16  1   
 22  14  29  1   
 23  14  30  1   
 24  15  16  1   
 25  15  17  1   
 26  15  31  1   
 27  16  18  1   
 28  16  32  1   
 29  17  19  1   
 30  17  20  1   
 31  17  21  1   
 32  18  22  1   
 33  18  33  1   
 34  18  34  1   
 35  19  35  1   
 36  20  22  1   
 37  20  36  1   
 38  20  37  1   
 39  21  23  1   
 40  21  38  1   
 41  21  39  1   
 42  22  40  1   
 43  22  41  1   
 44  23  42  1   
 45  23  43  1   
 46  23  44  1   
@<TRIPOS>SUBSTRUCTURE
  1 ****  13 GROUP 4 **** **** 0

# MOE 2024.06 (io_trps.svl 2023.06)
