@<TRIPOS>MOLECULE
NONAME
50 52 1 0 0 
SMALL
USER_CHARGES


@<TRIPOS>ATOM
  1 S        0.7550     2.2510     0.5620 S.o2  1 <1>   1.3330 
  2 O        1.2430     3.5410     0.9910 O.2   1 <1>  -0.6500 
  3 O        1.0760     1.1080     1.3830 O.2   1 <1>  -0.6500 
  4 N        1.4880     1.9560    -0.9390 N.am  1 <1>  -0.8490 
  5 C       -0.9910     2.2800     0.2180 C.3   1 <1>  -0.1350 
  6 C        2.7020     1.1160    -0.8820 C.3   1 <1>   0.1960 
  7 C        1.5170     3.0270    -1.9480 C.3   1 <1>   0.1960 
  8 C        3.7980     1.6620     0.0670 C.3   1 <1>   0.3430 
  9 C        2.5190     4.1690    -1.6930 C.3   1 <1>  -0.1600 
 10 N        3.8800     3.1580     0.0750 N.4   1 <1>  -0.9590 
 11 C        3.9330     3.7550    -1.2830 C.3   1 <1>   0.3430 
 12 C        4.9270     3.6780     0.9960 C.3   1 <1>   0.5230 
 13 C        4.6220     5.1160     1.3710 C.2   1 <1>  -0.0400 
 14 O        4.6900     6.0520     0.4450 O.3   1 <1>  -0.2800 
 15 C        4.2790     5.6580     2.5590 C.2   1 <1>  -0.1500 
 16 C        4.4110     7.2130     1.0100 C.2   1 <1>  -0.0400 
 17 C        4.1430     7.0310     2.3230 C.2   1 <1>  -0.1500 
 18 C        4.4350     8.4740     0.1490 C.3   1 <1>   0.3800 
 19 O        5.6910     8.5760    -0.4590 O.3   1 <1>  -0.5600 
 20 C        4.1670     9.7540     0.9590 C.3   1 <1>  -0.1600 
 21 C        5.8220     9.6160    -1.3800 C.3   1 <1>   0.1200 
 22 C        4.3010    11.0050     0.0820 C.3   1 <1>  -0.1600 
 23 C        5.6370    10.9610    -0.6680 C.3   1 <1>  -0.1600 
 24 H       -1.5420     2.4230     1.1270 H     1 <1>   0.0800 
 25 H       -1.2970     1.3510    -0.2220 H     1 <1>   0.0800 
 26 H       -1.2300     3.0790    -0.4550 H     1 <1>   0.0800 
 27 H        3.1090     1.0030    -1.8720 H     1 <1>   0.0800 
 28 H        2.4290     0.1280    -0.5490 H     1 <1>   0.0800 
 29 H        0.5300     3.4500    -2.0410 H     1 <1>   0.0800 
 30 H        1.7480     2.5800    -2.9010 H     1 <1>   0.0800 
 31 H        4.7470     1.2380    -0.2150 H     1 <1>   0.0800 
 32 H        3.5710     1.3180     1.0640 H     1 <1>   0.0800 
 33 H        2.1240     4.8570    -0.9680 H     1 <1>   0.0800 
 34 H        2.6010     4.7300    -2.6070 H     1 <1>   0.0800 
 35 H        2.9840     3.5020     0.4820 H     1 <1>   0.4500 
 36 H        4.5610     4.6310    -1.2790 H     1 <1>   0.0800 
 37 H        4.3440     3.0560    -1.9920 H     1 <1>   0.0800 
 38 H        5.8980     3.6220     0.5320 H     1 <1>   0.0800 
 39 H        4.9410     3.0880     1.8970 H     1 <1>   0.0800 
 40 H        4.1330     5.1830     3.5150 H     1 <1>   0.1500 
 41 H        3.8800     7.7620     3.0680 H     1 <1>   0.1500 
 42 H        3.7000     8.3720    -0.6310 H     1 <1>   0.0800 
 43 H        4.8740     9.8050     1.7680 H     1 <1>   0.0800 
 44 H        3.1790     9.7120     1.3820 H     1 <1>   0.0800 
 45 H        5.0910     9.4820    -2.1590 H     1 <1>   0.0800 
 46 H        6.8070     9.5510    -1.8090 H     1 <1>   0.0800 
 47 H        4.2460    11.8920     0.6900 H     1 <1>   0.0800 
 48 H        3.4930    11.0340    -0.6290 H     1 <1>   0.0800 
 49 H        5.6800    11.7600    -1.3870 H     1 <1>   0.0800 
 50 H        6.4500    11.0990     0.0240 H     1 <1>   0.0800 
@<TRIPOS>BOND
  1   1   2  2   
  2   1   3  2   
  3   1   4  am  
  4   1   5  1   
  5   4   6  1   
  6   4   7  1   
  7   5  24  1   
  8   5  25  1   
  9   5  26  1   
 10   6   8  1   
 11   6  27  1   
 12   6  28  1   
 13   7   9  1   
 14   7  29  1   
 15   7  30  1   
 16   8  10  1   
 17   8  31  1   
 18   8  32  1   
 19   9  11  1   
 20   9  33  1   
 21   9  34  1   
 22  10  11  1   
 23  10  12  1   
 24  10  35  1   
 25  11  36  1   
 26  11  37  1   
 27  12  13  1   
 28  12  38  1   
 29  12  39  1   
 30  13  14  1   
 31  13  15  2   
 32  14  16  1   
 33  15  17  1   
 34  15  40  1   
 35  16  17  2   
 36  16  18  1   
 37  17  41  1   
 38  18  19  1   
 39  18  20  1   
 40  18  42  1   
 41  19  21  1   
 42  20  22  1   
 43  20  43  1   
 44  20  44  1   
 45  21  23  1   
 46  21  45  1   
 47  21  46  1   
 48  22  23  1   
 49  22  47  1   
 50  22  48  1   
 51  23  49  1   
 52  23  50  1   
@<TRIPOS>SUBSTRUCTURE
  1 ****  14 GROUP 4 **** **** 0

# MOE 2024.06 (io_trps.svl 2023.06)
