@<TRIPOS>MOLECULE
NONAME
54 57 1 0 0 
SMALL
USER_CHARGES


@<TRIPOS>ATOM
  1 O       -0.9840    -0.9340     0.4220 O.co2 1 <1>  -0.9000 
  2 C       -1.7720    -1.8360     0.7190 C.2   1 <1>   0.9060 
  3 O       -1.8600    -2.3300     1.8460 O.co2 1 <1>  -0.9000 
  4 C       -2.7990    -2.2620    -0.3330 C.3   1 <1>   0.2370 
  5 N       -4.0510    -1.4010    -0.3680 N.4   1 <1>  -0.9590 
  6 C       -4.7530    -1.4880     0.9500 C.3   1 <1>   0.3430 
  7 C       -3.6990     0.0120    -0.6910 C.3   1 <1>   0.3430 
  8 C       -6.2210    -1.0150     0.8050 C.3   1 <1>   0.1900 
  9 C       -4.9250     0.9300    -0.9120 C.3   1 <1>  -0.0800 
 10 N       -6.6210    -0.9560    -0.6470 N.3   1 <1>  -0.8100 
 11 C       -6.4520     0.3040     1.5680 C.3   1 <1>   0.1200 
 12 C       -5.1830     1.8530     0.2910 C.3   1 <1>   0.1200 
 13 C       -6.2300     0.2560    -1.3950 C.3   1 <1>   0.1100 
 14 C       -8.0040    -1.3850    -0.9090 C.3   1 <1>   0.2530 
 15 O       -5.3430     1.1480     1.4750 O.3   1 <1>  -0.5600 
 16 C       -8.1070    -2.8690    -0.6190 C.ar  1 <1>  -0.1430 
 17 C       -7.3310    -3.7750    -1.3000 C.ar  1 <1>   0.1600 
 18 C       -8.9440    -3.3770     0.3450 C.ar  1 <1>   0.1600 
 19 N       -7.3580    -5.0580    -1.0430 N.ar  1 <1>  -0.6200 
 20 N       -8.9910    -4.6540     0.6270 N.ar  1 <1>  -0.6200 
 21 C       -8.1870    -5.4510    -0.0780 C.ar  1 <1>   0.7200 
 22 N       -8.2120    -6.7970     0.2210 N.pl3 1 <1>  -0.8380 
 23 C       -9.0810    -7.3760     1.2930 C.3   1 <1>   0.2090 
 24 C       -7.5930    -7.8390    -0.6560 C.3   1 <1>   0.2090 
 25 C       -8.3710    -8.5370     2.0120 C.3   1 <1>   0.1200 
 26 C       -6.9710    -8.9670     0.1850 C.3   1 <1>   0.1200 
 27 O       -7.8970    -9.4880     1.0980 O.3   1 <1>  -0.5600 
 28 H       -3.0650    -3.2810    -0.1210 H     1 <1>   0.0800 
 29 H       -2.3080    -2.2290    -1.2880 H     1 <1>   0.0800 
 30 H       -4.7560    -1.7200    -1.0480 H     1 <1>   0.4500 
 31 H       -4.7540    -2.5110     1.2860 H     1 <1>   0.0800 
 32 H       -4.2310    -0.9070     1.6940 H     1 <1>   0.0800 
 33 H       -3.0800     0.4160     0.0960 H     1 <1>   0.0800 
 34 H       -3.1050     0.0130    -1.5900 H     1 <1>   0.0800 
 35 H       -6.8220    -1.7560     1.3010 H     1 <1>   0.0800 
 36 H       -4.6390     1.6030    -1.6990 H     1 <1>   0.0800 
 37 H       -6.5700     0.0830     2.6140 H     1 <1>   0.0800 
 38 H       -7.3340     0.8180     1.2300 H     1 <1>   0.0800 
 39 H       -6.0530     2.4690     0.1370 H     1 <1>   0.0800 
 40 H       -4.3360     2.5030     0.4340 H     1 <1>   0.0800 
 41 H       -6.1120    -0.0180    -2.4310 H     1 <1>   0.0800 
 42 H       -7.0290     0.9780    -1.3470 H     1 <1>   0.0800 
 43 H       -8.6910    -0.8200    -0.3010 H     1 <1>   0.0800 
 44 H       -8.2510    -1.2190    -1.9450 H     1 <1>   0.0800 
 45 H       -6.6650    -3.4340    -2.0730 H     1 <1>   0.1500 
 46 H       -9.5870    -2.7210     0.9080 H     1 <1>   0.1500 
 47 H       -9.3370    -6.6300     2.0250 H     1 <1>   0.0800 
 48 H       -9.9930    -7.7350     0.8510 H     1 <1>   0.0800 
 49 H       -8.3500    -8.2530    -1.2980 H     1 <1>   0.0800 
 50 H       -6.8260    -7.4180    -1.2810 H     1 <1>   0.0800 
 51 H       -9.0560    -9.0330     2.6760 H     1 <1>   0.0800 
 52 H       -7.5400    -8.1670     2.5850 H     1 <1>   0.0800 
 53 H       -6.1190    -8.6000     0.7300 H     1 <1>   0.0800 
 54 H       -6.6520    -9.7710    -0.4540 H     1 <1>   0.0800 
@<TRIPOS>BOND
  1   1   2  ar  
  2   2   3  ar  
  3   2   4  1   
  4   4   5  1   
  5   4  28  1   
  6   4  29  1   
  7   5   6  1   
  8   5   7  1   
  9   5  30  1   
 10   6   8  1   
 11   6  31  1   
 12   6  32  1   
 13   7   9  1   
 14   7  33  1   
 15   7  34  1   
 16   8  10  1   
 17   8  11  1   
 18   8  35  1   
 19   9  12  1   
 20   9  13  1   
 21   9  36  1   
 22  10  13  1   
 23  10  14  1   
 24  11  15  1   
 25  11  37  1   
 26  11  38  1   
 27  12  15  1   
 28  12  39  1   
 29  12  40  1   
 30  13  41  1   
 31  13  42  1   
 32  14  16  1   
 33  14  43  1   
 34  14  44  1   
 35  16  17  ar  
 36  16  18  ar  
 37  17  19  ar  
 38  17  45  1   
 39  18  20  ar  
 40  18  46  1   
 41  19  21  ar  
 42  20  21  ar  
 43  21  22  1   
 44  22  23  1   
 45  22  24  1   
 46  23  25  1   
 47  23  47  1   
 48  23  48  1   
 49  24  26  1   
 50  24  49  1   
 51  24  50  1   
 52  25  27  1   
 53  25  51  1   
 54  25  52  1   
 55  26  27  1   
 56  26  53  1   
 57  26  54  1   
@<TRIPOS>SUBSTRUCTURE
  1 ****  17 GROUP 4 **** **** 0

# MOE 2024.06 (io_trps.svl 2023.06)
