@<TRIPOS>MOLECULE
NONAME
39 42 1 0 0 
SMALL
USER_CHARGES


@<TRIPOS>ATOM
  1 S       -0.5590     0.4920     1.6730 S.3   1 <1>  -0.0800 
  2 C       -0.2880     1.8140     0.5560 C.2   1 <1>  -0.1400 
  3 C        0.9890     0.8030     2.4460 C.2   1 <1>  -0.1100 
  4 C        0.8900     2.4140     0.7680 C.2   1 <1>  -0.1810 
  5 C       -1.2870     2.2030    -0.4990 C.3   1 <1>   0.0200 
  6 C        1.6230     1.8370     1.8590 C.2   1 <1>  -0.1500 
  7 C        1.3450     3.5870    -0.1040 C.3   1 <1>   0.4610 
  8 C       -0.9300     3.6260    -0.9580 C.3   1 <1>   0.1200 
  9 O        0.4540     3.7560    -1.1920 O.3   1 <1>  -0.5600 
 10 C        2.7160     3.2920    -0.7210 C.3   1 <1>  -0.1600 
 11 C        1.3980     4.8910     0.7050 C.3   1 <1>  -0.1600 
 12 C        3.2270     4.4710    -1.5500 C.3   1 <1>   0.1400 
 13 C        1.9140     6.0600    -0.1370 C.3   1 <1>   0.1400 
 14 N        3.2390     5.7010    -0.7110 N.am  1 <1>  -0.6600 
 15 C        4.4180     6.2190    -0.2220 C.2   1 <1>   0.7150 
 16 O        5.3950     5.4970    -0.1460 O.2   1 <1>  -0.5700 
 17 C        4.5070     7.5910     0.1940 C.2   1 <1>  -0.2370 
 18 N        3.8520     8.6090    -0.4450 N.pl3 1 <1>   0.0330 
 19 C        5.2260     8.1490     1.2190 C.2   1 <1>  -0.1500 
 20 C        4.1450     9.7740     0.1810 C.2   1 <1>  -0.3020 
 21 C        4.9920     9.5220     1.2140 C.2   1 <1>  -0.1500 
 22 H        1.2640     0.1690     3.2700 H     1 <1>   0.1500 
 23 H       -2.2840     2.1880    -0.0980 H     1 <1>   0.0800 
 24 H       -1.2330     1.5190    -1.3260 H     1 <1>   0.0800 
 25 H        2.5860     2.2200     2.1510 H     1 <1>   0.1500 
 26 H       -1.2180     4.3430    -0.2100 H     1 <1>   0.0800 
 27 H       -1.4420     3.8600    -1.8740 H     1 <1>   0.0800 
 28 H        2.6470     2.4140    -1.3360 H     1 <1>   0.0800 
 29 H        3.4320     3.0910     0.0540 H     1 <1>   0.0800 
 30 H        2.0580     4.7570     1.5420 H     1 <1>   0.0800 
 31 H        0.4280     5.1190     1.1030 H     1 <1>   0.0800 
 32 H        2.5850     4.6290    -2.4000 H     1 <1>   0.0800 
 33 H        4.2170     4.2580    -1.9170 H     1 <1>   0.0800 
 34 H        1.9900     6.9330     0.4870 H     1 <1>   0.0800 
 35 H        1.2260     6.2700    -0.9380 H     1 <1>   0.0800 
 36 H        3.2570     8.4880    -1.2720 H     1 <1>   0.2700 
 37 H        5.8650     7.6250     1.9090 H     1 <1>   0.1500 
 38 H        3.7460    10.7210    -0.1360 H     1 <1>   0.1500 
 39 H        5.4180    10.2300     1.9060 H     1 <1>   0.1500 
@<TRIPOS>BOND
  1   1   2  1   
  2   1   3  1   
  3   2   4  2   
  4   2   5  1   
  5   3   6  2   
  6   3  22  1   
  7   4   6  1   
  8   4   7  1   
  9   5   8  1   
 10   5  23  1   
 11   5  24  1   
 12   6  25  1   
 13   7   9  1   
 14   7  10  1   
 15   7  11  1   
 16   8   9  1   
 17   8  26  1   
 18   8  27  1   
 19  10  12  1   
 20  10  28  1   
 21  10  29  1   
 22  11  13  1   
 23  11  30  1   
 24  11  31  1   
 25  12  14  1   
 26  12  32  1   
 27  12  33  1   
 28  13  14  1   
 29  13  34  1   
 30  13  35  1   
 31  14  15  am  
 32  15  16  2   
 33  15  17  1   
 34  17  18  1   
 35  17  19  2   
 36  18  20  1   
 37  18  36  1   
 38  19  21  1   
 39  19  37  1   
 40  20  21  2   
 41  20  38  1   
 42  21  39  1   
@<TRIPOS>SUBSTRUCTURE
  1 ****  11 GROUP 4 **** **** 0

# MOE 2024.06 (io_trps.svl 2023.06)
