@<TRIPOS>MOLECULE
NONAME
47 49 1 0 0 
SMALL
USER_CHARGES


@<TRIPOS>ATOM
  1 O        1.1420     1.4730     1.0250 O.3   1 <1>  -0.0190 
  2 N        2.0560     0.5510     0.9830 N.2   1 <1>  -0.4100 
  3 C        0.8960     1.9670    -0.1580 C.2   1 <1>  -0.0400 
  4 C        2.3880     0.4300    -0.2520 C.2   1 <1>   0.1080 
  5 C        1.6740     1.3250    -1.0430 C.2   1 <1>  -0.1500 
  6 C       -0.1120     3.0900    -0.3120 C.3   1 <1>   0.0200 
  7 C        3.4160    -0.5560    -0.7620 C.3   1 <1>  -0.0590 
  8 C        0.0720     4.1590     0.7850 C.3   1 <1>  -0.0800 
  9 C       -0.6930     5.4440     0.4650 C.3   1 <1>   0.2000 
 10 C        1.5420     4.5950     0.9220 C.3   1 <1>   0.3430 
 11 O       -1.0340     6.0480     1.6690 O.3   1 <1>  -0.6800 
 12 C        0.3640     6.3210    -0.2060 C.3   1 <1>   0.3430 
 13 N        1.5930     6.0500     0.5920 N.4   1 <1>  -0.9590 
 14 C        2.8840     6.4890    -0.0020 C.3   1 <1>   0.3430 
 15 C        2.9250     8.0130    -0.1130 C.3   1 <1>  -0.1600 
 16 C        4.2950     8.4920    -0.6150 C.3   1 <1>   0.0960 
 17 N        4.2830     9.9590    -0.7720 N.pl3 1 <1>   0.0480 
 18 C        4.6560    10.9210     0.1090 C.2   1 <1>   0.0060 
 19 C        3.8520    10.6340    -1.8540 C.2   1 <1>  -0.3020 
 20 N        4.4890    12.1220    -0.3360 N.2   1 <1>  -0.5650 
 21 C        5.2170    10.6400     1.4880 C.3   1 <1>  -0.0600 
 22 C        3.9850    11.9460    -1.5700 C.2   1 <1>   0.0770 
 23 H        1.7600     1.4360    -2.1090 H     1 <1>   0.1500 
 24 H       -0.0010     3.5180    -1.2920 H     1 <1>   0.0800 
 25 H       -1.1030     2.6740    -0.2420 H     1 <1>   0.0800 
 26 H        4.1800    -0.0410    -1.3130 H     1 <1>   0.0800 
 27 H        2.9420    -1.2780    -1.4020 H     1 <1>   0.0800 
 28 H        3.8710    -1.0730     0.0640 H     1 <1>   0.0800 
 29 H       -0.2620     3.7330     1.7170 H     1 <1>   0.0800 
 30 H       -1.5820     5.3110    -0.1290 H     1 <1>   0.0800 
 31 H        2.1600     4.0330     0.2410 H     1 <1>   0.0800 
 32 H        1.8940     4.4220     1.9270 H     1 <1>   0.0800 
 33 H       -1.8010     5.6020     2.0900 H     1 <1>   0.4000 
 34 H        0.0810     7.3610    -0.1770 H     1 <1>   0.0800 
 35 H        0.5060     6.0090    -1.2270 H     1 <1>   0.0800 
 36 H        1.4290     6.5450     1.4850 H     1 <1>   0.4500 
 37 H        3.6950     6.1590     0.6260 H     1 <1>   0.0800 
 38 H        3.0100     6.0450    -0.9770 H     1 <1>   0.0800 
 39 H        2.7400     8.4510     0.8520 H     1 <1>   0.0800 
 40 H        2.1730     8.3490    -0.8050 H     1 <1>   0.0800 
 41 H        4.5240     8.0550    -1.5710 H     1 <1>   0.0800 
 42 H        5.0730     8.2240     0.0780 H     1 <1>   0.0800 
 43 H        3.4850    10.1670    -2.7490 H     1 <1>   0.1500 
 44 H        5.4200    11.5690     1.9900 H     1 <1>   0.0800 
 45 H        6.1370    10.0900     1.4090 H     1 <1>   0.0800 
 46 H        4.5100    10.0840     2.0740 H     1 <1>   0.0800 
 47 H        3.7430    12.7890    -2.1980 H     1 <1>   0.1500 
@<TRIPOS>BOND
  1   1   2  1   
  2   1   3  1   
  3   2   4  2   
  4   3   5  2   
  5   3   6  1   
  6   4   5  1   
  7   4   7  1   
  8   5  23  1   
  9   6   8  1   
 10   6  24  1   
 11   6  25  1   
 12   7  26  1   
 13   7  27  1   
 14   7  28  1   
 15   8   9  1   
 16   8  10  1   
 17   8  29  1   
 18   9  11  1   
 19   9  12  1   
 20   9  30  1   
 21  10  13  1   
 22  10  31  1   
 23  10  32  1   
 24  11  33  1   
 25  12  13  1   
 26  12  34  1   
 27  12  35  1   
 28  13  14  1   
 29  13  36  1   
 30  14  15  1   
 31  14  37  1   
 32  14  38  1   
 33  15  16  1   
 34  15  39  1   
 35  15  40  1   
 36  16  17  1   
 37  16  41  1   
 38  16  42  1   
 39  17  18  1   
 40  17  19  1   
 41  18  20  2   
 42  18  21  1   
 43  19  22  2   
 44  19  43  1   
 45  20  22  1   
 46  21  44  1   
 47  21  45  1   
 48  21  46  1   
 49  22  47  1   
@<TRIPOS>SUBSTRUCTURE
  1 ****  14 GROUP 4 **** **** 0

# MOE 2024.06 (io_trps.svl 2023.06)
