@<TRIPOS>MOLECULE
NONAME
41 42 1 0 0 
SMALL
USER_CHARGES


@<TRIPOS>ATOM
  1 CL      -1.4740     0.8810     0.8220 Cl    1 <1>  -0.1770 
  2 C       -0.7900     2.4240     0.3580 C.ar  1 <1>   0.1770 
  3 C       -0.3590     3.3200     1.3250 C.ar  1 <1>  -0.1440 
  4 C       -0.6940     2.7210    -0.9890 C.ar  1 <1>  -0.1500 
  5 C        0.1760     4.5310     0.9120 C.ar  1 <1>  -0.1500 
  6 C       -0.4670     2.9880     2.8060 C.3   1 <1>  -0.0960 
  7 C       -0.1580     3.9340    -1.3830 C.ar  1 <1>  -0.1500 
  8 C        0.2860     4.8550    -0.4370 C.ar  1 <1>   0.1170 
  9 N        0.8330     6.1000    -0.7800 N.am  1 <1>  -0.5470 
 10 C        1.2750     6.6320    -1.9580 C.2   1 <1>   0.5690 
 11 O        1.2780     6.0500    -3.0150 O.2   1 <1>  -0.5700 
 12 C        1.7910     8.0730    -1.9070 C.3   1 <1>   0.1710 
 13 N        2.2040     8.5350    -0.5330 N.3   1 <1>  -0.8100 
 14 C        2.3410    10.0160    -0.4460 C.3   1 <1>   0.1900 
 15 C        3.4960     7.8840    -0.2030 C.3   1 <1>   0.0300 
 16 C        2.7280    10.5100     0.9860 C.3   1 <1>   0.2000 
 17 C        1.0420    10.7300    -0.8370 C.3   1 <1>  -0.0550 
 18 O        3.9640    11.1410     0.9310 O.3   1 <1>  -0.6800 
 19 C        1.7090    11.5210     1.4960 C.3   1 <1>  -0.0550 
 20 S        1.0550    12.2680     0.0370 S.o2  1 <1>   1.0900 
 21 O        2.0840    13.1050    -0.5370 O.2   1 <1>  -0.6500 
 22 O       -0.2910    12.7360     0.2600 O.2   1 <1>  -0.6500 
 23 H       -1.0360     2.0090    -1.7180 H     1 <1>   0.1500 
 24 H        0.5160     5.2380     1.6460 H     1 <1>   0.1500 
 25 H       -0.0830     3.7880     3.4130 H     1 <1>   0.0800 
 26 H        0.0930     2.0960     3.0240 H     1 <1>   0.0800 
 27 H       -1.4970     2.8230     3.0710 H     1 <1>   0.0800 
 28 H       -0.0910     4.1560    -2.4310 H     1 <1>   0.1500 
 29 H        1.0060     6.7430    -0.0030 H     1 <1>   0.3700 
 30 H        0.9910     8.6780    -2.2880 H     1 <1>   0.0800 
 31 H        2.6180     8.1650    -2.5910 H     1 <1>   0.0800 
 32 H        3.1100    10.3330    -1.1330 H     1 <1>   0.0800 
 33 H        3.4310     6.8170    -0.3320 H     1 <1>   0.0800 
 34 H        3.7750     8.0660     0.8190 H     1 <1>   0.0800 
 35 H        4.2800     8.2560    -0.8420 H     1 <1>   0.0800 
 36 H        2.8080     9.6990     1.6870 H     1 <1>   0.0800 
 37 H        0.2010    10.1470    -0.5150 H     1 <1>   0.0800 
 38 H        0.9880    10.8960    -1.8950 H     1 <1>   0.0800 
 39 H        3.9210    11.9630     0.3920 H     1 <1>   0.4000 
 40 H        2.1460    12.2350     2.1680 H     1 <1>   0.0800 
 41 H        0.9250    10.9940     2.0040 H     1 <1>   0.0800 
@<TRIPOS>BOND
  1   1   2  1   
  2   2   3  ar  
  3   2   4  ar  
  4   3   5  ar  
  5   3   6  1   
  6   4   7  ar  
  7   4  23  1   
  8   5   8  ar  
  9   5  24  1   
 10   6  25  1   
 11   6  26  1   
 12   6  27  1   
 13   7   8  ar  
 14   7  28  1   
 15   8   9  1   
 16   9  10  am  
 17   9  29  1   
 18  10  11  2   
 19  10  12  1   
 20  12  13  1   
 21  12  30  1   
 22  12  31  1   
 23  13  14  1   
 24  13  15  1   
 25  14  16  1   
 26  14  17  1   
 27  14  32  1   
 28  15  33  1   
 29  15  34  1   
 30  15  35  1   
 31  16  18  1   
 32  16  19  1   
 33  16  36  1   
 34  17  20  1   
 35  17  37  1   
 36  17  38  1   
 37  18  39  1   
 38  19  20  1   
 39  19  40  1   
 40  19  41  1   
 41  20  21  2   
 42  20  22  2   
@<TRIPOS>SUBSTRUCTURE
  1 ****   9 GROUP 4 **** **** 0

# MOE 2024.06 (io_trps.svl 2023.06)
