@<TRIPOS>MOLECULE
NONAME
49 51 1 0 0 
SMALL
USER_CHARGES


@<TRIPOS>ATOM
  1 O        1.0010     2.6100    -0.5210 O.2   1 <1>  -0.5700 
  2 C        0.1930     3.5020    -0.4670 C.2   1 <1>   0.5690 
  3 N       -0.7650     3.5060     0.4850 N.am  1 <1>  -0.7300 
  4 C        0.2500     4.6480    -1.4810 C.3   1 <1>   0.1810 
  5 C       -1.8360     4.5260     0.5650 C.3   1 <1>   0.3640 
  6 O       -0.9630     5.3770    -1.5770 O.3   1 <1>  -0.5600 
  7 C       -3.1560     3.8680     0.1860 C.ar  1 <1>  -0.1440 
  8 C       -1.5450     5.7620    -0.3330 C.3   1 <1>   0.2610 
  9 C       -3.3390     3.2880    -1.0630 C.ar  1 <1>   0.1600 
 10 C       -4.2060     3.8440     1.0840 C.ar  1 <1>  -0.1500 
 11 C       -0.7090     6.8320     0.3850 C.2   1 <1>   0.5690 
 12 N       -4.4560     2.7090    -1.4750 N.ar  1 <1>  -0.6200 
 13 C       -5.3750     3.2420     0.6710 C.ar  1 <1>  -0.1500 
 14 O       -0.7540     6.9220     1.5890 O.2   1 <1>  -0.5700 
 15 N        0.0480     7.6780    -0.3630 N.am  1 <1>  -0.7300 
 16 C       -5.4460     2.6980    -0.6000 C.ar  1 <1>   0.1600 
 17 C        0.9240     8.7450     0.1500 C.3   1 <1>   0.2200 
 18 C        0.4950    10.0600    -0.5150 C.3   1 <1>  -0.1600 
 19 C        2.3670     8.3120    -0.1430 C.3   1 <1>  -0.1600 
 20 C        0.8390    11.3180     0.3080 C.3   1 <1>  -0.1600 
 21 C        3.4550     9.2390     0.4230 C.3   1 <1>  -0.1600 
 22 C        1.9340    12.1950    -0.3150 C.3   1 <1>  -0.1600 
 23 C        3.8160    10.4230    -0.4940 C.3   1 <1>  -0.1600 
 24 C        3.3710    11.7910     0.0430 C.3   1 <1>  -0.1600 
 25 H       -0.8330     2.6980     1.1050 H     1 <1>   0.3700 
 26 H        0.4660     4.2460    -2.4540 H     1 <1>   0.0800 
 27 H        1.0410     5.3210    -1.2070 H     1 <1>   0.0800 
 28 H       -1.9170     4.8460     1.5890 H     1 <1>   0.0800 
 29 H       -2.4840     6.2270    -0.5670 H     1 <1>   0.0800 
 30 H       -2.5240     3.2990    -1.7670 H     1 <1>   0.1500 
 31 H       -4.1280     4.2740     2.0690 H     1 <1>   0.1500 
 32 H       -6.2270     3.1910     1.3260 H     1 <1>   0.1500 
 33 H        0.0360     7.5700    -1.3800 H     1 <1>   0.3700 
 34 H       -6.3650     2.2310    -0.9120 H     1 <1>   0.1500 
 35 H        0.7850     8.8210     1.2170 H     1 <1>   0.0800 
 36 H        0.9020    10.1230    -1.5080 H     1 <1>   0.0800 
 37 H       -0.5770    10.0430    -0.6110 H     1 <1>   0.0800 
 38 H        2.5040     7.3500     0.3190 H     1 <1>   0.0800 
 39 H        2.5090     8.1850    -1.2010 H     1 <1>   0.0800 
 40 H       -0.0530    11.9180     0.3600 H     1 <1>   0.0800 
 41 H        1.0950    11.0670     1.3230 H     1 <1>   0.0800 
 42 H        3.1840     9.5730     1.4100 H     1 <1>   0.0800 
 43 H        4.3450     8.6440     0.5370 H     1 <1>   0.0800 
 44 H        1.8180    12.2360    -1.3840 H     1 <1>   0.0800 
 45 H        1.7910    13.1990     0.0480 H     1 <1>   0.0800 
 46 H        4.8900    10.4500    -0.5670 H     1 <1>   0.0800 
 47 H        3.4470    10.2770    -1.4950 H     1 <1>   0.0800 
 48 H        3.5120    11.8360     1.1090 H     1 <1>   0.0800 
 49 H        4.0220    12.5340    -0.3840 H     1 <1>   0.0800 
@<TRIPOS>BOND
  1   1   2  2   
  2   2   3  am  
  3   2   4  1   
  4   3   5  1   
  5   3  25  1   
  6   4   6  1   
  7   4  26  1   
  8   4  27  1   
  9   5   7  1   
 10   5   8  1   
 11   5  28  1   
 12   6   8  1   
 13   7   9  ar  
 14   7  10  ar  
 15   8  11  1   
 16   8  29  1   
 17   9  12  ar  
 18   9  30  1   
 19  10  13  ar  
 20  10  31  1   
 21  11  14  2   
 22  11  15  am  
 23  12  16  ar  
 24  13  16  ar  
 25  13  32  1   
 26  15  17  1   
 27  15  33  1   
 28  16  34  1   
 29  17  18  1   
 30  17  19  1   
 31  17  35  1   
 32  18  20  1   
 33  18  36  1   
 34  18  37  1   
 35  19  21  1   
 36  19  38  1   
 37  19  39  1   
 38  20  22  1   
 39  20  40  1   
 40  20  41  1   
 41  21  23  1   
 42  21  42  1   
 43  21  43  1   
 44  22  24  1   
 45  22  44  1   
 46  22  45  1   
 47  23  24  1   
 48  23  46  1   
 49  23  47  1   
 50  24  48  1   
 51  24  49  1   
@<TRIPOS>SUBSTRUCTURE
  1 ****  11 GROUP 4 **** **** 0

# MOE 2024.06 (io_trps.svl 2023.06)
