@<TRIPOS>MOLECULE
NONAME
42 45 1 0 0 
SMALL
USER_CHARGES


@<TRIPOS>ATOM
  1 O       -0.7390    -0.0550    -0.7660 O.3   1 <1>  -0.2800 
  2 C       -0.7600    -0.5000     0.4840 C.2   1 <1>   0.5620 
  3 C       -0.2010     1.1470    -0.6860 C.ar  1 <1>   0.1400 
  4 N       -0.2880     0.3000     1.3690 N.2   1 <1>  -0.5650 
  5 N       -1.2690    -1.7300     0.7550 N.pl3 1 <1>  -0.8530 
  6 C        0.0840     1.3790     0.6360 C.ar  1 <1>   0.2270 
  7 C        0.0690     2.0740    -1.6790 C.ar  1 <1>  -0.1500 
  8 C       -1.6350    -2.7520    -0.2510 C.3   1 <1>   0.2890 
  9 C        0.6650     2.5850     1.0130 C.ar  1 <1>  -0.1500 
 10 C        0.6470     3.2730    -1.3010 C.ar  1 <1>  -0.1500 
 11 C       -3.1330    -3.0150    -0.2400 C.3   1 <1>  -0.0800 
 12 C       -1.1050    -4.1110     0.1910 C.3   1 <1>   0.1200 
 13 C        0.9460     3.5320     0.0410 C.ar  1 <1>  -0.1430 
 14 C       -3.2900    -4.0170     0.9070 C.3   1 <1>   0.1200 
 15 C       -4.0350    -1.7720    -0.1180 C.3   1 <1>  -0.0160 
 16 O       -2.0410    -4.6170     1.0970 O.3   1 <1>  -0.5600 
 17 C        1.5800     4.8590     0.4160 C.3   1 <1>  -0.0970 
 18 C       -5.5040    -2.1610    -0.1730 C.ar  1 <1>  -0.1430 
 19 C       -6.1450    -2.4210    -1.3670 C.ar  1 <1>  -0.1500 
 20 C       -6.2720    -2.2780     0.9680 C.ar  1 <1>  -0.1500 
 21 C       -7.4830    -2.7810    -1.3630 C.ar  1 <1>   0.1600 
 22 C       -7.6040    -2.6440     0.8630 C.ar  1 <1>   0.1600 
 23 N       -8.2280    -2.9010    -0.2750 N.ar  1 <1>  -0.6200 
 24 H       -1.1980    -2.0560     1.7210 H     1 <1>   0.4000 
 25 H       -0.1690     1.8550    -2.7040 H     1 <1>   0.1500 
 26 H       -1.2710    -2.4770    -1.2260 H     1 <1>   0.0800 
 27 H        0.8810     2.7490     2.0520 H     1 <1>   0.1500 
 28 H        0.8700     4.0160    -2.0470 H     1 <1>   0.1500 
 29 H       -3.3850    -3.5280    -1.1510 H     1 <1>   0.0800 
 30 H       -0.1410    -4.0460     0.6640 H     1 <1>   0.0800 
 31 H       -1.0600    -4.7890    -0.6430 H     1 <1>   0.0800 
 32 H       -4.0180    -4.7780     0.6820 H     1 <1>   0.0800 
 33 H       -3.5520    -3.5220     1.8250 H     1 <1>   0.0800 
 34 H       -3.8150    -1.0900    -0.9210 H     1 <1>   0.0800 
 35 H       -3.8390    -1.2540     0.8040 H     1 <1>   0.0800 
 36 H        2.5230     4.9700    -0.0900 H     1 <1>   0.0800 
 37 H        1.7520     4.9180     1.4760 H     1 <1>   0.0800 
 38 H        0.9330     5.6680     0.1290 H     1 <1>   0.0800 
 39 H       -5.6180    -2.3480    -2.3000 H     1 <1>   0.1500 
 40 H       -5.8490    -2.0870     1.9370 H     1 <1>   0.1500 
 41 H       -7.9670    -2.9800    -2.3040 H     1 <1>   0.1500 
 42 H       -8.1870    -2.7290     1.7640 H     1 <1>   0.1500 
@<TRIPOS>BOND
  1   1   2  1   
  2   1   3  1   
  3   2   4  2   
  4   2   5  1   
  5   3   6  ar  
  6   3   7  ar  
  7   4   6  1   
  8   5   8  1   
  9   5  24  1   
 10   6   9  ar  
 11   7  10  ar  
 12   7  25  1   
 13   8  11  1   
 14   8  12  1   
 15   8  26  1   
 16   9  13  ar  
 17   9  27  1   
 18  10  13  ar  
 19  10  28  1   
 20  11  14  1   
 21  11  15  1   
 22  11  29  1   
 23  12  16  1   
 24  12  30  1   
 25  12  31  1   
 26  13  17  1   
 27  14  16  1   
 28  14  32  1   
 29  14  33  1   
 30  15  18  1   
 31  15  34  1   
 32  15  35  1   
 33  17  36  1   
 34  17  37  1   
 35  17  38  1   
 36  18  19  ar  
 37  18  20  ar  
 38  19  21  ar  
 39  19  39  1   
 40  20  22  ar  
 41  20  40  1   
 42  21  23  ar  
 43  21  41  1   
 44  22  23  ar  
 45  22  42  1   
@<TRIPOS>SUBSTRUCTURE
  1 ****   5 GROUP 4 **** **** 0

# MOE 2024.06 (io_trps.svl 2023.06)
