@<TRIPOS>MOLECULE
NONAME
49 51 1 0 0 
SMALL
USER_CHARGES


@<TRIPOS>ATOM
  1 O       -0.9020     4.1840     2.1510 O.2   1 <1>  -0.5700 
  2 C       -1.4160     3.4020     1.3660 C.2   1 <1>   0.5440 
  3 N       -1.3570     2.0560     1.6560 N.am  1 <1>  -0.6600 
  4 C       -2.0490     3.9080     0.1540 C.ar  1 <1>   0.3960 
  5 C       -0.7340     1.5430     2.9000 C.3   1 <1>   0.1400 
  6 C       -1.5350     0.9610     0.6710 C.3   1 <1>   0.1400 
  7 N       -1.3720     4.7660    -0.6210 N.ar  1 <1>  -0.6200 
  8 C       -3.3430     3.4960    -0.1650 C.ar  1 <1>   0.1600 
  9 C       -0.6940     0.0290     2.7290 C.3   1 <1>  -0.1600 
 10 C       -0.7010    -0.1900     1.2190 C.3   1 <1>  -0.1600 
 11 C       -2.0390     5.1880    -1.6810 C.ar  1 <1>   0.4100 
 12 N       -4.0240     3.8780    -1.2340 N.ar  1 <1>  -0.6200 
 13 N       -1.3530     6.1180    -2.4640 N.pl3 1 <1>  -0.8380 
 14 C       -3.3390     4.7310    -1.9700 C.ar  1 <1>   0.1600 
 15 C       -0.4300     7.0910    -1.8010 C.3   1 <1>   0.2090 
 16 C       -1.7800     6.4540    -3.8550 C.3   1 <1>   0.1290 
 17 C        0.9720     6.4680    -1.6300 C.3   1 <1>   0.3430 
 18 N        1.6290     6.7910    -0.3140 N.4   1 <1>  -0.9590 
 19 C        3.1010     6.4970    -0.3640 C.3   1 <1>   0.3430 
 20 C        0.9980     5.9930     0.8030 C.3   1 <1>   0.3430 
 21 C        3.7610     6.6890     1.0140 C.3   1 <1>   0.1200 
 22 C        1.7510     6.1580     2.1360 C.3   1 <1>   0.1200 
 23 O        3.1190     5.9000     1.9710 O.3   1 <1>  -0.5600 
 24 H       -1.3100     1.8310     3.7630 H     1 <1>   0.0800 
 25 H        0.2640     1.9380     2.9860 H     1 <1>   0.0800 
 26 H       -1.2010     1.2520    -0.3110 H     1 <1>   0.0800 
 27 H       -2.5730     0.6770     0.6380 H     1 <1>   0.0800 
 28 H       -3.8370     2.8150     0.5070 H     1 <1>   0.1500 
 29 H       -1.5820    -0.3950     3.1650 H     1 <1>   0.0800 
 30 H        0.1690    -0.4040     3.2030 H     1 <1>   0.0800 
 31 H        0.3020    -0.1120     0.8340 H     1 <1>   0.0800 
 32 H       -1.1080    -1.1470     0.9440 H     1 <1>   0.0800 
 33 H       -3.8270     5.1080    -2.8480 H     1 <1>   0.1500 
 34 H       -0.8420     7.3500    -0.8400 H     1 <1>   0.0800 
 35 H       -0.3610     7.9900    -2.3870 H     1 <1>   0.0800 
 36 H       -2.1860     5.5850    -4.3440 H     1 <1>   0.0800 
 37 H       -0.9370     6.7960    -4.4300 H     1 <1>   0.0800 
 38 H       -2.5280     7.2290    -3.8330 H     1 <1>   0.0800 
 39 H        1.5920     6.8080    -2.4410 H     1 <1>   0.0800 
 40 H        0.8720     5.3980    -1.7150 H     1 <1>   0.0800 
 41 H        1.5060     7.7860    -0.0940 H     1 <1>   0.4500 
 42 H        3.5820     7.1400    -1.0820 H     1 <1>   0.0800 
 43 H        3.2570     5.4760    -0.6730 H     1 <1>   0.0800 
 44 H        0.9960     4.9460     0.5470 H     1 <1>   0.0800 
 45 H       -0.0310     6.2850     0.9400 H     1 <1>   0.0800 
 46 H        3.7210     7.7180     1.3290 H     1 <1>   0.0800 
 47 H        4.7910     6.3810     0.9780 H     1 <1>   0.0800 
 48 H        1.3690     5.4560     2.8580 H     1 <1>   0.0800 
 49 H        1.6290     7.1510     2.5290 H     1 <1>   0.0800 
@<TRIPOS>BOND
  1   1   2  2   
  2   2   3  am  
  3   2   4  1   
  4   3   5  1   
  5   3   6  1   
  6   4   7  ar  
  7   4   8  ar  
  8   5   9  1   
  9   5  24  1   
 10   5  25  1   
 11   6  10  1   
 12   6  26  1   
 13   6  27  1   
 14   7  11  ar  
 15   8  12  ar  
 16   8  28  1   
 17   9  10  1   
 18   9  29  1   
 19   9  30  1   
 20  10  31  1   
 21  10  32  1   
 22  11  13  1   
 23  11  14  ar  
 24  12  14  ar  
 25  13  15  1   
 26  13  16  1   
 27  14  33  1   
 28  15  17  1   
 29  15  34  1   
 30  15  35  1   
 31  16  36  1   
 32  16  37  1   
 33  16  38  1   
 34  17  18  1   
 35  17  39  1   
 36  17  40  1   
 37  18  19  1   
 38  18  20  1   
 39  18  41  1   
 40  19  21  1   
 41  19  42  1   
 42  19  43  1   
 43  20  22  1   
 44  20  44  1   
 45  20  45  1   
 46  21  23  1   
 47  21  46  1   
 48  21  47  1   
 49  22  23  1   
 50  22  48  1   
 51  22  49  1   
@<TRIPOS>SUBSTRUCTURE
  1 ****   7 GROUP 4 **** **** 0

# MOE 2024.06 (io_trps.svl 2023.06)
