@<TRIPOS>MOLECULE
NONAME
53 56 1 0 0 
SMALL
USER_CHARGES


@<TRIPOS>ATOM
  1 O       -0.1530     0.6120    -0.2810 O.2   1 <1>  -0.5700 
  2 C        0.9160     1.0350     0.0900 C.2   1 <1>   0.5690 
  3 N        1.0480     2.1510     0.8860 N.am  1 <1>  -0.6600 
  4 C        2.1550     0.2790    -0.3690 C.3   1 <1>  -0.0990 
  5 C       -0.0070     3.2030     1.1290 C.3   1 <1>   0.2200 
  6 C        2.3010     2.4800     1.6350 C.3   1 <1>   0.1400 
  7 C        1.9120    -0.6070    -1.6030 C.3   1 <1>  -0.0160 
  8 C        0.4470     4.6090     0.6200 C.3   1 <1>   0.1380 
  9 C       -1.4610     2.9010     0.7390 C.3   1 <1>  -0.1600 
 10 C        2.8000     3.8860     1.2730 C.3   1 <1>  -0.1600 
 11 C        3.1810    -1.3300    -2.0210 C.ar  1 <1>   0.1660 
 12 C        0.7920     4.7140    -0.8950 C.2   1 <1>  -0.2760 
 13 C       -0.6950     5.6230     0.9000 C.3   1 <1>   0.1200 
 14 C        1.7030     4.9530     1.4600 C.3   1 <1>  -0.1600 
 15 C       -2.3960     4.0330     1.2000 C.3   1 <1>   0.1200 
 16 N        4.1560    -0.5790    -2.5100 N.ar  1 <1>  -0.6200 
 17 C        3.2750    -2.7140    -1.8800 C.ar  1 <1>   0.1600 
 18 C        0.6100     3.7710    -1.8300 C.2   1 <1>  -0.2880 
 19 C        1.4020     6.0430    -1.3530 C.3   1 <1>  -0.0220 
 20 O       -1.6710     5.0960     1.7530 O.3   1 <1>  -0.5600 
 21 C        5.2150    -1.2960    -2.8460 C.ar  1 <1>   0.1600 
 22 N        4.3350    -3.4320    -2.2120 N.ar  1 <1>  -0.6200 
 23 C        0.9990     3.9150    -3.2960 C.3   1 <1>   0.2580 
 24 C        1.3120     6.2030    -2.8770 C.3   1 <1>   0.1200 
 25 C        5.3020    -2.6750    -2.7010 C.ar  1 <1>   0.1600 
 26 O        1.7920     5.0500    -3.4920 O.3   1 <1>  -0.5600 
 27 H        2.9180     0.9920    -0.6210 H     1 <1>   0.0800 
 28 H        2.5060    -0.3300     0.4430 H     1 <1>   0.0800 
 29 H       -0.0590     3.2850     2.2030 H     1 <1>   0.0800 
 30 H        2.0850     2.4440     2.6890 H     1 <1>   0.0800 
 31 H        3.0800     1.7650     1.4480 H     1 <1>   0.0800 
 32 H        1.5760     0.0060    -2.4210 H     1 <1>   0.0800 
 33 H        1.1370    -1.3210    -1.3900 H     1 <1>   0.0800 
 34 H       -1.7780     1.9830     1.2010 H     1 <1>   0.0800 
 35 H       -1.5640     2.7890    -0.3220 H     1 <1>   0.0800 
 36 H        3.6450     4.1290     1.8920 H     1 <1>   0.0800 
 37 H        3.1390     3.8810     0.2510 H     1 <1>   0.0800 
 38 H       -1.1860     5.9010    -0.0170 H     1 <1>   0.0800 
 39 H       -0.3090     6.5160     1.3580 H     1 <1>   0.0800 
 40 H        2.0900     5.9220     1.2070 H     1 <1>   0.0800 
 41 H        1.4310     4.9920     2.5010 H     1 <1>   0.0800 
 42 H       -3.0680     3.6760     1.9610 H     1 <1>   0.0800 
 43 H       -2.9780     4.4090     0.3760 H     1 <1>   0.0800 
 44 H        2.4360    -3.2500    -1.4730 H     1 <1>   0.1500 
 45 H        0.1740     2.8110    -1.6460 H     1 <1>   0.1500 
 46 H        2.4390     6.0860    -1.0710 H     1 <1>   0.0800 
 47 H        0.8990     6.8780    -0.9030 H     1 <1>   0.0800 
 48 H        6.0570    -0.7660    -3.2560 H     1 <1>   0.1500 
 49 H        0.1230     3.9990    -3.9150 H     1 <1>   0.0800 
 50 H        1.5750     3.0640    -3.6130 H     1 <1>   0.0800 
 51 H        1.9150     7.0300    -3.2070 H     1 <1>   0.0800 
 52 H        0.2940     6.3590    -3.1890 H     1 <1>   0.0800 
 53 H        6.2080    -3.1700    -3.0020 H     1 <1>   0.1500 
@<TRIPOS>BOND
  1   1   2  2   
  2   2   3  am  
  3   2   4  1   
  4   3   5  1   
  5   3   6  1   
  6   4   7  1   
  7   4  27  1   
  8   4  28  1   
  9   5   8  1   
 10   5   9  1   
 11   5  29  1   
 12   6  10  1   
 13   6  30  1   
 14   6  31  1   
 15   7  11  1   
 16   7  32  1   
 17   7  33  1   
 18   8  12  1   
 19   8  13  1   
 20   8  14  1   
 21   9  15  1   
 22   9  34  1   
 23   9  35  1   
 24  10  14  1   
 25  10  36  1   
 26  10  37  1   
 27  11  16  ar  
 28  11  17  ar  
 29  12  18  2   
 30  12  19  1   
 31  13  20  1   
 32  13  38  1   
 33  13  39  1   
 34  14  40  1   
 35  14  41  1   
 36  15  20  1   
 37  15  42  1   
 38  15  43  1   
 39  16  21  ar  
 40  17  22  ar  
 41  17  44  1   
 42  18  23  1   
 43  18  45  1   
 44  19  24  1   
 45  19  46  1   
 46  19  47  1   
 47  21  25  ar  
 48  21  48  1   
 49  22  25  ar  
 50  23  26  1   
 51  23  49  1   
 52  23  50  1   
 53  24  26  1   
 54  24  51  1   
 55  24  52  1   
 56  25  53  1   
@<TRIPOS>SUBSTRUCTURE
  1 ****   2 GROUP 4 **** **** 0

# MOE 2024.06 (io_trps.svl 2023.06)
