@<TRIPOS>MOLECULE
NONAME
46 46 1 0 0 
SMALL
USER_CHARGES


@<TRIPOS>ATOM
  1 O        0.1350     1.7940    -0.6190 O.3   1 <1>  -0.6800 
  2 C        0.5950     2.1840     0.6120 C.3   1 <1>   0.2800 
  3 C        0.8090     3.7100     0.5940 C.3   1 <1>  -0.1600 
  4 C       -0.4810     1.7990     1.6240 C.3   1 <1>  -0.2400 
  5 C        1.8800     1.3990     0.8700 C.3   1 <1>  -0.2400 
  6 C        1.7810     4.2290    -0.4830 C.3   1 <1>  -0.1600 
  7 C        1.8780     5.7630    -0.4430 C.3   1 <1>  -0.1600 
  8 C        2.9360     6.3260    -1.4010 C.3   1 <1>   0.2890 
  9 N        3.0480     7.7720    -1.1640 N.pl3 1 <1>  -0.8690 
 10 C        2.5740     6.1370    -2.8710 C.3   1 <1>  -0.2400 
 11 C        3.8760     8.3640    -0.2390 C.ar  1 <1>   0.4100 
 12 N        4.6770     7.5750     0.4450 N.ar  1 <1>  -0.6200 
 13 C        3.8590     9.7390    -0.0300 C.ar  1 <1>  -0.1430 
 14 C        5.4510     8.1600     1.3320 C.ar  1 <1>   0.4770 
 15 C        4.7170    10.2200     0.9300 C.ar  1 <1>   0.1600 
 16 C        2.9200    10.6330    -0.8470 C.3   1 <1>  -0.0170 
 17 N        5.5220     9.4430     1.6250 N.ar  1 <1>  -0.6200 
 18 C        6.3650     7.2490     2.1160 C.3   1 <1>  -0.0970 
 19 C        3.0350    12.1360    -0.5660 C.3   1 <1>  -0.2400 
 20 H       -0.7000     2.2570    -0.8110 H     1 <1>   0.4000 
 21 H        1.1810     4.0070     1.5590 H     1 <1>   0.0800 
 22 H       -0.1440     4.1920     0.4650 H     1 <1>   0.0800 
 23 H       -1.4000     2.3200     1.4250 H     1 <1>   0.0800 
 24 H       -0.1570     2.0530     2.6160 H     1 <1>   0.0800 
 25 H       -0.6630     0.7390     1.5910 H     1 <1>   0.0800 
 26 H        2.5940     1.5640     0.0840 H     1 <1>   0.0800 
 27 H        1.6680     0.3460     0.9210 H     1 <1>   0.0800 
 28 H        2.3180     1.7030     1.8020 H     1 <1>   0.0800 
 29 H        1.4440     3.9100    -1.4530 H     1 <1>   0.0800 
 30 H        2.7610     3.8160    -0.3160 H     1 <1>   0.0800 
 31 H        2.1480     6.0590     0.5560 H     1 <1>   0.0800 
 32 H        0.9200     6.1920    -0.6730 H     1 <1>   0.0800 
 33 H        3.8870     5.8550    -1.2080 H     1 <1>   0.0800 
 34 H        2.3020     8.3300    -1.5730 H     1 <1>   0.4000 
 35 H        1.6040     6.5490    -3.0810 H     1 <1>   0.0800 
 36 H        2.5650     5.0920    -3.1190 H     1 <1>   0.0800 
 37 H        3.3100     6.6170    -3.4890 H     1 <1>   0.0800 
 38 H        4.7640    11.2700     1.1530 H     1 <1>   0.1500 
 39 H        1.9060    10.3280    -0.6550 H     1 <1>   0.0800 
 40 H        3.1200    10.4690    -1.8920 H     1 <1>   0.0800 
 41 H        6.6440     6.4030     1.5160 H     1 <1>   0.0800 
 42 H        5.8530     6.9070     2.9940 H     1 <1>   0.0800 
 43 H        7.2530     7.7780     2.4060 H     1 <1>   0.0800 
 44 H        2.7910    12.3490     0.4600 H     1 <1>   0.0800 
 45 H        2.3510    12.6770    -1.1950 H     1 <1>   0.0800 
 46 H        4.0320    12.4830    -0.7750 H     1 <1>   0.0800 
@<TRIPOS>BOND
  1   1   2  1   
  2   1  20  1   
  3   2   3  1   
  4   2   4  1   
  5   2   5  1   
  6   3   6  1   
  7   3  21  1   
  8   3  22  1   
  9   4  23  1   
 10   4  24  1   
 11   4  25  1   
 12   5  26  1   
 13   5  27  1   
 14   5  28  1   
 15   6   7  1   
 16   6  29  1   
 17   6  30  1   
 18   7   8  1   
 19   7  31  1   
 20   7  32  1   
 21   8   9  1   
 22   8  10  1   
 23   8  33  1   
 24   9  11  1   
 25   9  34  1   
 26  10  35  1   
 27  10  36  1   
 28  10  37  1   
 29  11  12  ar  
 30  11  13  ar  
 31  12  14  ar  
 32  13  15  ar  
 33  13  16  1   
 34  14  17  ar  
 35  14  18  1   
 36  15  17  ar  
 37  15  38  1   
 38  16  19  1   
 39  16  39  1   
 40  16  40  1   
 41  18  41  1   
 42  18  42  1   
 43  18  43  1   
 44  19  44  1   
 45  19  45  1   
 46  19  46  1   
@<TRIPOS>SUBSTRUCTURE
  1 ****   7 GROUP 4 **** **** 0

# MOE 2024.06 (io_trps.svl 2023.06)
