@<TRIPOS>MOLECULE
NONAME
44 47 1 0 0 
SMALL
USER_CHARGES


@<TRIPOS>ATOM
  1 N        0.4230     0.0950     1.7750 N.ar  1 <1>  -0.6200 
  2 C       -0.7390     0.5080     2.2630 C.ar  1 <1>   0.7200 
  3 C        0.8350     0.7900     0.7450 C.ar  1 <1>   0.1660 
  4 N       -1.5080     1.4990     1.8370 N.ar  1 <1>  -0.6200 
  5 N       -1.2050    -0.1700     3.3120 N.pl3 1 <1>  -0.9000 
  6 C        0.1460     1.8400     0.2160 C.ar  1 <1>  -0.1430 
  7 C        2.1350     0.5460     0.0180 C.3   1 <1>   0.1430 
  8 C       -1.0530     2.1700     0.8020 C.ar  1 <1>   0.1600 
  9 C        0.8770     2.4540    -0.9500 C.3   1 <1>  -0.0170 
 10 C        3.2450     0.3820     1.0710 C.3   1 <1>   0.3430 
 11 C        2.0290    -0.7230    -0.8540 C.3   1 <1>  -0.1600 
 12 C        2.2840     1.8320    -0.8400 C.3   1 <1>  -0.1600 
 13 N        4.5600    -0.0110     0.4600 N.4   1 <1>  -0.9590 
 14 C        3.3990    -1.1550    -1.4070 C.3   1 <1>  -0.1600 
 15 C        4.4480    -1.2930    -0.3010 C.3   1 <1>   0.3430 
 16 C        5.6230    -0.0800     1.5000 C.3   1 <1>   0.4860 
 17 C        6.9630    -0.2690     0.8140 C.ar  1 <1>  -0.1430 
 18 C        7.5930     0.7640     0.1440 C.ar  1 <1>  -0.1500 
 19 C        7.6200    -1.4850     0.8240 C.ar  1 <1>  -0.1500 
 20 C        8.8060     0.5300    -0.4820 C.ar  1 <1>   0.1600 
 21 C        8.8310    -1.6120     0.1660 C.ar  1 <1>   0.1600 
 22 N        9.4290    -0.6350    -0.4910 N.ar  1 <1>  -0.6200 
 23 H       -2.1870    -0.0070     3.5190 H     1 <1>   0.4000 
 24 H       -0.8790    -1.1260     3.4110 H     1 <1>   0.4000 
 25 H       -1.6430     2.9880     0.4230 H     1 <1>   0.1500 
 26 H        0.9070     3.5290    -0.8820 H     1 <1>   0.0800 
 27 H        0.3980     2.1620    -1.8700 H     1 <1>   0.0800 
 28 H        2.9340    -0.3780     1.7700 H     1 <1>   0.0800 
 29 H        3.3460     1.3060     1.6170 H     1 <1>   0.0800 
 30 H        1.3370    -0.5600    -1.6640 H     1 <1>   0.0800 
 31 H        1.6310    -1.5250    -0.2540 H     1 <1>   0.0800 
 32 H        2.6990     1.6460    -1.8150 H     1 <1>   0.0800 
 33 H        2.9160     2.5380    -0.3290 H     1 <1>   0.0800 
 34 H        4.8440     0.7120    -0.2120 H     1 <1>   0.4500 
 35 H        3.7480    -0.4540    -2.1450 H     1 <1>   0.0800 
 36 H        3.2920    -2.1050    -1.9020 H     1 <1>   0.0800 
 37 H        4.1600    -2.0890     0.3670 H     1 <1>   0.0800 
 38 H        5.3990    -1.5480    -0.7420 H     1 <1>   0.0800 
 39 H        5.4340    -0.9000     2.1730 H     1 <1>   0.0800 
 40 H        5.6440     0.8330     2.0720 H     1 <1>   0.0800 
 41 H        7.1700     1.7510     0.0980 H     1 <1>   0.1500 
 42 H        7.2150    -2.3420     1.3330 H     1 <1>   0.1500 
 43 H        9.2920     1.3400    -1.0020 H     1 <1>   0.1500 
 44 H        9.3370    -2.5650     0.1790 H     1 <1>   0.1500 
@<TRIPOS>BOND
  1   1   2  ar  
  2   1   3  ar  
  3   2   4  ar  
  4   2   5  1   
  5   3   6  ar  
  6   3   7  1   
  7   4   8  ar  
  8   5  23  1   
  9   5  24  1   
 10   6   8  ar  
 11   6   9  1   
 12   7  10  1   
 13   7  11  1   
 14   7  12  1   
 15   8  25  1   
 16   9  12  1   
 17   9  26  1   
 18   9  27  1   
 19  10  13  1   
 20  10  28  1   
 21  10  29  1   
 22  11  14  1   
 23  11  30  1   
 24  11  31  1   
 25  12  32  1   
 26  12  33  1   
 27  13  15  1   
 28  13  16  1   
 29  13  34  1   
 30  14  15  1   
 31  14  35  1   
 32  14  36  1   
 33  15  37  1   
 34  15  38  1   
 35  16  17  1   
 36  16  39  1   
 37  16  40  1   
 38  17  18  ar  
 39  17  19  ar  
 40  18  20  ar  
 41  18  41  1   
 42  19  21  ar  
 43  19  42  1   
 44  20  22  ar  
 45  20  43  1   
 46  21  22  ar  
 47  21  44  1   
@<TRIPOS>SUBSTRUCTURE
  1 ****  10 GROUP 4 **** **** 0

# MOE 2024.06 (io_trps.svl 2023.06)
