@<TRIPOS>MOLECULE
NONAME
49 51 1 0 0 
SMALL
USER_CHARGES


@<TRIPOS>ATOM
  1 F        0.6920     1.5420     0.7460 F     1 <1>  -0.1900 
  2 C        1.9950     1.7340     0.7220 C.ar  1 <1>   0.1900 
  3 C        2.9010     0.6860     0.5710 C.ar  1 <1>   0.4100 
  4 C        2.4650     3.0090     0.8540 C.ar  1 <1>   0.1600 
  5 N        4.1920     0.9540     0.5910 N.ar  1 <1>  -0.6200 
  6 N        2.5450    -0.6510     0.4070 N.pl3 1 <1>  -0.8380 
  7 N        3.7580     3.2810     0.8450 N.ar  1 <1>  -0.6200 
  8 C        4.5650     2.2190     0.7450 C.ar  1 <1>   0.7200 
  9 C        1.2850    -1.0920    -0.2370 C.3   1 <1>   0.2090 
 10 C        3.5570    -1.7350     0.3630 C.3   1 <1>   0.2090 
 11 N        5.9330     2.4650     0.7780 N.pl3 1 <1>  -0.8380 
 12 C        1.6120    -2.4410    -0.8660 C.3   1 <1>  -0.1600 
 13 C        2.7770    -2.9780    -0.0430 C.3   1 <1>  -0.1600 
 14 C        6.4790     3.7330     1.3500 C.3   1 <1>   0.2090 
 15 C        6.8720     1.2990     0.8470 C.3   1 <1>   0.1290 
 16 C        7.0340     4.6760     0.2520 C.3   1 <1>   0.0000 
 17 C        6.0490     4.7680    -0.9250 C.3   1 <1>   0.3430 
 18 C        7.0970     6.1130     0.7880 C.3   1 <1>  -0.1600 
 19 C        8.4240     4.2190    -0.2310 C.3   1 <1>  -0.2400 
 20 N        5.4100     6.1200    -0.8680 N.4   1 <1>  -0.9590 
 21 C        5.7320     6.6910     0.4610 C.3   1 <1>   0.3430 
 22 C        3.9410     6.0350    -1.1110 C.3   1 <1>   0.2630 
 23 H        1.7660     3.8170     0.9720 H     1 <1>   0.1500 
 24 H        0.9560    -0.3870    -0.9820 H     1 <1>   0.0800 
 25 H        0.5260    -1.2050     0.5190 H     1 <1>   0.0800 
 26 H        4.0290    -1.8540     1.3230 H     1 <1>   0.0800 
 27 H        4.3000    -1.5010    -0.3810 H     1 <1>   0.0800 
 28 H        1.9250    -2.2830    -1.8830 H     1 <1>   0.0800 
 29 H        0.7630    -3.1010    -0.8580 H     1 <1>   0.0800 
 30 H        2.4080    -3.4610     0.8450 H     1 <1>   0.0800 
 31 H        3.3880    -3.6700    -0.5940 H     1 <1>   0.0800 
 32 H        7.2590     3.5030     2.0570 H     1 <1>   0.0800 
 33 H        5.7120     4.2370     1.9120 H     1 <1>   0.0800 
 34 H        6.7460     0.6780    -0.0230 H     1 <1>   0.0800 
 35 H        6.6570     0.7120     1.7240 H     1 <1>   0.0800 
 36 H        7.8950     1.6250     0.8920 H     1 <1>   0.0800 
 37 H        5.3060     3.9930    -0.8610 H     1 <1>   0.0800 
 38 H        6.5750     4.6490    -1.8580 H     1 <1>   0.0800 
 39 H        7.8460     6.6880     0.2710 H     1 <1>   0.0800 
 40 H        7.3040     6.1580     1.8430 H     1 <1>   0.0800 
 41 H        8.3640     3.2470    -0.6870 H     1 <1>   0.0800 
 42 H        9.1140     4.1660     0.5940 H     1 <1>   0.0800 
 43 H        8.8230     4.9020    -0.9610 H     1 <1>   0.0800 
 44 H        5.8520     6.7050    -1.5890 H     1 <1>   0.4500 
 45 H        5.7420     7.7700     0.4430 H     1 <1>   0.0800 
 46 H        5.0130     6.3480     1.1880 H     1 <1>   0.0800 
 47 H        3.4760     5.4230    -0.3560 H     1 <1>   0.0800 
 48 H        3.7470     5.5960    -2.0760 H     1 <1>   0.0800 
 49 H        3.4980     7.0170    -1.0830 H     1 <1>   0.0800 
@<TRIPOS>BOND
  1   1   2  1   
  2   2   3  ar  
  3   2   4  ar  
  4   3   5  ar  
  5   3   6  1   
  6   4   7  ar  
  7   4  23  1   
  8   5   8  ar  
  9   6   9  1   
 10   6  10  1   
 11   7   8  ar  
 12   8  11  1   
 13   9  12  1   
 14   9  24  1   
 15   9  25  1   
 16  10  13  1   
 17  10  26  1   
 18  10  27  1   
 19  11  14  1   
 20  11  15  1   
 21  12  13  1   
 22  12  28  1   
 23  12  29  1   
 24  13  30  1   
 25  13  31  1   
 26  14  16  1   
 27  14  32  1   
 28  14  33  1   
 29  15  34  1   
 30  15  35  1   
 31  15  36  1   
 32  16  17  1   
 33  16  18  1   
 34  16  19  1   
 35  17  20  1   
 36  17  37  1   
 37  17  38  1   
 38  18  21  1   
 39  18  39  1   
 40  18  40  1   
 41  19  41  1   
 42  19  42  1   
 43  19  43  1   
 44  20  21  1   
 45  20  22  1   
 46  20  44  1   
 47  21  45  1   
 48  21  46  1   
 49  22  47  1   
 50  22  48  1   
 51  22  49  1   
@<TRIPOS>SUBSTRUCTURE
  1 ****   8 GROUP 4 **** **** 0

# MOE 2024.06 (io_trps.svl 2023.06)
