@<TRIPOS>MOLECULE
NONAME
58 60 1 0 0 
SMALL
USER_CHARGES


@<TRIPOS>ATOM
  1 O        0.9020     0.1120    -1.6590 O.2   1 <1>  -0.5700 
  2 C        1.5110     0.2500    -0.6160 C.2   1 <1>   0.7800 
  3 O        2.0230     1.4420    -0.3220 O.3   1 <1>  -0.4300 
  4 N        1.7190    -0.7660     0.2810 N.am  1 <1>  -0.5850 
  5 C        1.8460     2.5340    -1.1930 C.3   1 <1>   0.2640 
  6 C        1.1320    -2.1360     0.1310 C.3   1 <1>   0.2250 
  7 C        2.8460    -0.7190     1.2520 C.3   1 <1>   0.1400 
  8 C        2.5560     3.7370    -0.5970 C.ar  1 <1>  -0.1440 
  9 C        2.2120    -3.1180    -0.3580 C.3   1 <1>  -0.1600 
 10 C       -0.2510    -2.2560    -0.5800 C.3   1 <1>   0.2250 
 11 C        0.3790    -2.6050     1.4100 C.3   1 <1>   0.2250 
 12 C        3.9600    -1.6550     0.7660 C.3   1 <1>  -0.1600 
 13 C        3.7530     4.1870    -1.1330 C.ar  1 <1>  -0.1500 
 14 C        2.0090     4.3950     0.4940 C.ar  1 <1>  -0.1500 
 15 C        3.4620    -3.1010     0.5470 C.3   1 <1>  -0.0800 
 16 N       -0.6880    -3.1680     0.5250 N.am  1 <1>  -0.5100 
 17 C        4.3950     5.2850    -0.5860 C.ar  1 <1>  -0.1500 
 18 C        2.6490     5.4930     1.0420 C.ar  1 <1>  -0.1500 
 19 C        4.5460    -4.0100    -0.0520 C.3   1 <1>   0.1200 
 20 C       -1.9800    -3.3120     0.9180 C.2   1 <1>   0.7800 
 21 C        3.8430     5.9390     0.5010 C.ar  1 <1>  -0.1500 
 22 O        5.6450    -4.0470     0.7880 O.3   1 <1>  -0.6800 
 23 O       -2.2790    -3.4890     2.0820 O.2   1 <1>  -0.5700 
 24 O       -2.9070    -3.2390    -0.0400 O.3   1 <1>  -0.4300 
 25 C       -4.3060    -3.3270     0.1150 C.3   1 <1>   0.2800 
 26 C       -4.6940    -4.7030     0.6690 C.3   1 <1>  -0.2400 
 27 C       -4.8740    -3.1720    -1.2960 C.3   1 <1>  -0.2400 
 28 C       -4.8130    -2.1770     0.9940 C.3   1 <1>  -0.2400 
 29 H        0.7910     2.7240    -1.2940 H     1 <1>   0.0800 
 30 H        2.2580     2.2760    -2.1540 H     1 <1>   0.0800 
 31 H        2.4970    -1.0310     2.2210 H     1 <1>   0.0800 
 32 H        3.2320     0.2810     1.3520 H     1 <1>   0.0800 
 33 H        2.4830    -2.8430    -1.3630 H     1 <1>   0.0800 
 34 H        1.8060    -4.1140    -0.3930 H     1 <1>   0.0800 
 35 H       -0.2180    -2.7690    -1.5250 H     1 <1>   0.0000 
 36 H       -0.8430    -1.3580    -0.5790 H     1 <1>   0.0000 
 37 H       -0.0050    -1.8010     2.0150 H     1 <1>   0.0000 
 38 H        0.8760    -3.3790     1.9650 H     1 <1>   0.0000 
 39 H        4.7470    -1.6460     1.4980 H     1 <1>   0.0800 
 40 H        4.3610    -1.2620    -0.1530 H     1 <1>   0.0800 
 41 H        4.1930     3.6840    -1.9760 H     1 <1>   0.1500 
 42 H        1.0830     4.0510     0.9220 H     1 <1>   0.1500 
 43 H        3.1850    -3.5160     1.5020 H     1 <1>   0.0800 
 44 H        5.3230     5.6300    -1.0060 H     1 <1>   0.1500 
 45 H        2.2200     6.0000     1.8880 H     1 <1>   0.1500 
 46 H        4.8680    -3.6530    -1.0160 H     1 <1>   0.0800 
 47 H        4.1800    -5.0180    -0.1550 H     1 <1>   0.0800 
 48 H        4.3410     6.7920     0.9270 H     1 <1>   0.1500 
 49 H        6.0570    -3.1650     0.8500 H     1 <1>   0.4000 
 50 H       -4.2620    -5.4830     0.0680 H     1 <1>   0.0800 
 51 H       -5.7630    -4.8150     0.6550 H     1 <1>   0.0800 
 52 H       -4.3700    -4.8190     1.6860 H     1 <1>   0.0800 
 53 H       -4.5070    -3.9550    -1.9340 H     1 <1>   0.0800 
 54 H       -4.5900    -2.2210    -1.7100 H     1 <1>   0.0800 
 55 H       -5.9480    -3.2260    -1.2760 H     1 <1>   0.0800 
 56 H       -4.4900    -2.2940     2.0120 H     1 <1>   0.0800 
 57 H       -5.8880    -2.1630     0.9950 H     1 <1>   0.0800 
 58 H       -4.4600    -1.2340     0.6160 H     1 <1>   0.0800 
@<TRIPOS>BOND
  1   1   2  2   
  2   2   3  1   
  3   2   4  am  
  4   3   5  1   
  5   4   6  1   
  6   4   7  1   
  7   5   8  1   
  8   5  29  1   
  9   5  30  1   
 10   6   9  1   
 11   6  10  1   
 12   6  11  1   
 13   7  12  1   
 14   7  31  1   
 15   7  32  1   
 16   8  13  ar  
 17   8  14  ar  
 18   9  15  1   
 19   9  33  1   
 20   9  34  1   
 21  10  16  1   
 22  10  35  1   
 23  10  36  1   
 24  11  16  1   
 25  11  37  1   
 26  11  38  1   
 27  12  15  1   
 28  12  39  1   
 29  12  40  1   
 30  13  17  ar  
 31  13  41  1   
 32  14  18  ar  
 33  14  42  1   
 34  15  19  1   
 35  15  43  1   
 36  16  20  am  
 37  17  21  ar  
 38  17  44  1   
 39  18  21  ar  
 40  18  45  1   
 41  19  22  1   
 42  19  46  1   
 43  19  47  1   
 44  20  23  2   
 45  20  24  1   
 46  21  48  1   
 47  22  49  1   
 48  24  25  1   
 49  25  26  1   
 50  25  27  1   
 51  25  28  1   
 52  26  50  1   
 53  26  51  1   
 54  26  52  1   
 55  27  53  1   
 56  27  54  1   
 57  27  55  1   
 58  28  56  1   
 59  28  57  1   
 60  28  58  1   
@<TRIPOS>SUBSTRUCTURE
  1 ****   4 GROUP 4 **** **** 0

# MOE 2024.06 (io_trps.svl 2023.06)
