@<TRIPOS>MOLECULE
NONAME
52 54 1 0 0 
SMALL
USER_CHARGES


@<TRIPOS>ATOM
  1 S        0.0350     0.5330     1.9520 S.o2  1 <1>   1.4470 
  2 O        1.1160    -0.2050     2.5720 O.2   1 <1>  -0.6500 
  3 O       -0.8330     1.3470     2.7740 O.2   1 <1>  -0.6500 
  4 N        0.7620     1.5820     0.8360 N.am  1 <1>  -0.8490 
  5 C       -0.9660    -0.5610     0.9060 C.ar  1 <1>  -0.0090 
  6 C        1.4050     2.7160     1.5220 C.3   1 <1>   0.1960 
  7 C        1.7590     0.8960    -0.0100 C.3   1 <1>   0.1960 
  8 C       -2.0150    -0.0570     0.1470 C.ar  1 <1>  -0.1500 
  9 C       -0.7040    -1.9240     0.8250 C.ar  1 <1>  -0.1500 
 10 C        2.0260     3.7270     0.5360 C.3   1 <1>   0.2090 
 11 C        2.3660     1.8410    -1.0640 C.3   1 <1>   0.2090 
 12 C       -2.7740    -0.8800    -0.6670 C.ar  1 <1>  -0.1500 
 13 C       -1.4590    -2.7530     0.0130 C.ar  1 <1>  -0.1500 
 14 N        2.9620     3.0640    -0.4300 N.pl3 1 <1>  -0.8380 
 15 C       -2.4980    -2.2340    -0.7390 C.ar  1 <1>  -0.1430 
 16 C        4.2930     3.3220    -0.4630 C.ar  1 <1>   0.4100 
 17 C       -3.3310    -3.1400    -1.6280 C.3   1 <1>  -0.0970 
 18 N        5.0810     2.2850    -0.2530 N.ar  1 <1>  -0.6200 
 19 C        4.8060     4.6290    -0.6990 C.ar  1 <1>  -0.1430 
 20 C        6.3720     2.5070    -0.2000 C.ar  1 <1>   0.7710 
 21 C        6.1560     4.8150    -0.6060 C.ar  1 <1>   0.2180 
 22 C        3.8470     5.7650    -1.0820 C.3   1 <1>  -0.0970 
 23 N        6.9150     3.7230    -0.3520 N.ar  1 <1>  -0.1790 
 24 N        7.1490     1.4500     0.0200 N.pl3 1 <1>  -0.9000 
 25 C        6.9050     6.1410    -0.7740 C.3   1 <1>  -0.0170 
 26 C        7.8420     6.4500     0.4040 C.3   1 <1>  -0.2400 
 27 H        2.1750     2.3520     2.1840 H     1 <1>   0.0800 
 28 H        0.6750     3.2330     2.1220 H     1 <1>   0.0800 
 29 H        1.2940     0.0700    -0.5210 H     1 <1>   0.0800 
 30 H        2.5570     0.5030     0.5990 H     1 <1>   0.0800 
 31 H       -2.2390     0.9960     0.1960 H     1 <1>   0.1500 
 32 H        0.1000    -2.3440     1.4060 H     1 <1>   0.1500 
 33 H        2.5490     4.4780     1.1000 H     1 <1>   0.0800 
 34 H        1.2340     4.2080    -0.0110 H     1 <1>   0.0800 
 35 H        1.5930     2.1420    -1.7490 H     1 <1>   0.0800 
 36 H        3.1150     1.3130    -1.6280 H     1 <1>   0.0800 
 37 H       -3.5820    -0.4610    -1.2410 H     1 <1>   0.1500 
 38 H       -1.2340    -3.8050    -0.0280 H     1 <1>   0.1500 
 39 H       -3.6770    -2.6040    -2.4940 H     1 <1>   0.0800 
 40 H       -4.1830    -3.5020    -1.0810 H     1 <1>   0.0800 
 41 H       -2.7500    -3.9810    -1.9610 H     1 <1>   0.0800 
 42 H        2.9780     5.3790    -1.5860 H     1 <1>   0.0800 
 43 H        4.3020     6.4590    -1.7640 H     1 <1>   0.0800 
 44 H        3.5250     6.2970    -0.2040 H     1 <1>   0.0800 
 45 H        7.9230     3.7920    -0.2750 H     1 <1>   0.4570 
 46 H        8.1670     1.4010     0.0900 H     1 <1>   0.4000 
 47 H        6.6830     0.5450     0.1430 H     1 <1>   0.4000 
 48 H        6.2160     6.9620    -0.8550 H     1 <1>   0.0800 
 49 H        7.4740     6.1160    -1.6880 H     1 <1>   0.0800 
 50 H        7.2940     6.4490     1.3320 H     1 <1>   0.0800 
 51 H        8.2720     7.4290     0.2750 H     1 <1>   0.0800 
 52 H        8.6500     5.7440     0.4720 H     1 <1>   0.0800 
@<TRIPOS>BOND
  1   1   2  2   
  2   1   3  2   
  3   1   4  am  
  4   1   5  1   
  5   4   6  1   
  6   4   7  1   
  7   5   8  ar  
  8   5   9  ar  
  9   6  10  1   
 10   6  27  1   
 11   6  28  1   
 12   7  11  1   
 13   7  29  1   
 14   7  30  1   
 15   8  12  ar  
 16   8  31  1   
 17   9  13  ar  
 18   9  32  1   
 19  10  14  1   
 20  10  33  1   
 21  10  34  1   
 22  11  14  1   
 23  11  35  1   
 24  11  36  1   
 25  12  15  ar  
 26  12  37  1   
 27  13  15  ar  
 28  13  38  1   
 29  14  16  1   
 30  15  17  1   
 31  16  18  ar  
 32  16  19  ar  
 33  17  39  1   
 34  17  40  1   
 35  17  41  1   
 36  18  20  ar  
 37  19  21  ar  
 38  19  22  1   
 39  20  23  ar  
 40  20  24  1   
 41  21  23  ar  
 42  21  25  1   
 43  22  42  1   
 44  22  43  1   
 45  22  44  1   
 46  23  45  1   
 47  24  46  1   
 48  24  47  1   
 49  25  26  1   
 50  25  48  1   
 51  25  49  1   
 52  26  50  1   
 53  26  51  1   
 54  26  52  1   
@<TRIPOS>SUBSTRUCTURE
  1 ****   7 GROUP 4 **** **** 0

# MOE 2024.06 (io_trps.svl 2023.06)
