@<TRIPOS>MOLECULE
NONAME
53 55 1 0 0 
SMALL
USER_CHARGES


@<TRIPOS>ATOM
  1 O        2.2600    -1.0860     0.5110 O.2   1 <1>  -0.5700 
  2 C        1.5770    -2.0580     0.2290 C.2   1 <1>   0.5440 
  3 N        1.1020    -2.1470    -1.0760 N.am  1 <1>  -0.6600 
  4 C        1.3260    -3.0670     1.2680 C.ar  1 <1>   0.3960 
  5 C        1.1750    -0.9950    -2.0180 C.3   1 <1>   0.0600 
  6 C        0.5260    -3.3850    -1.6650 C.3   1 <1>   0.0600 
  7 N        0.1530    -3.7220     1.3090 N.ar  1 <1>  -0.6200 
  8 C        2.3260    -3.3140     2.2110 C.ar  1 <1>  -0.1500 
  9 C       -0.0220    -4.6000     2.2820 C.ar  1 <1>   0.4100 
 10 C        2.1450    -4.2370     3.2190 C.ar  1 <1>  -0.1500 
 11 N       -1.2260    -5.2680     2.3090 N.pl3 1 <1>  -0.8380 
 12 C        0.9380    -4.8880     3.2430 C.ar  1 <1>  -0.1500 
 13 C       -1.2790    -6.5570     1.5520 C.3   1 <1>   0.2090 
 14 C       -2.4770    -4.4620     2.1240 C.3   1 <1>   0.2090 
 15 C       -1.7440    -6.3450     0.0980 C.3   1 <1>   0.3430 
 16 C       -2.9190    -4.3790     0.6400 C.3   1 <1>   0.2000 
 17 O       -2.9710    -5.6650     0.0760 O.3   1 <1>  -0.5600 
 18 C       -1.8850    -7.6820    -0.6240 C.ar  1 <1>  -0.1430 
 19 C       -4.3010    -3.7120     0.4480 C.3   1 <1>  -0.0800 
 20 C       -3.0590    -8.4190    -0.5550 C.ar  1 <1>  -0.1500 
 21 C       -0.8170    -8.1840    -1.3550 C.ar  1 <1>  -0.1500 
 22 C       -4.7080    -3.6740    -1.0350 C.3   1 <1>  -0.2400 
 23 C       -4.3320    -2.2770     1.0020 C.3   1 <1>  -0.2400 
 24 C       -3.1640    -9.6390    -1.2010 C.ar  1 <1>  -0.1500 
 25 C       -0.9200    -9.4040    -2.0030 C.ar  1 <1>  -0.1500 
 26 C       -2.0940   -10.1320    -1.9260 C.ar  1 <1>  -0.1500 
 27 H        0.2390    -0.8870    -2.5370 H     1 <1>   0.0800 
 28 H        1.9620    -1.1610    -2.7320 H     1 <1>   0.0800 
 29 H        1.3760    -0.0790    -1.4880 H     1 <1>   0.0800 
 30 H        0.7980    -3.4620    -2.7040 H     1 <1>   0.0800 
 31 H       -0.5470    -3.3590    -1.5820 H     1 <1>   0.0800 
 32 H        0.8980    -4.2550    -1.1540 H     1 <1>   0.0800 
 33 H        3.2490    -2.7660     2.1480 H     1 <1>   0.1500 
 34 H        2.9110    -4.4320     3.9510 H     1 <1>   0.1500 
 35 H        0.7110    -5.6180     3.9970 H     1 <1>   0.1500 
 36 H       -0.3070    -7.0160     1.5470 H     1 <1>   0.0800 
 37 H       -1.9580    -7.2310     2.0440 H     1 <1>   0.0800 
 38 H       -3.2670    -4.9030     2.7050 H     1 <1>   0.0800 
 39 H       -2.3080    -3.4690     2.5020 H     1 <1>   0.0800 
 40 H       -1.0230    -5.7380    -0.4210 H     1 <1>   0.0800 
 41 H       -2.1900    -3.8090     0.0910 H     1 <1>   0.0800 
 42 H       -5.0310    -4.2940     0.9850 H     1 <1>   0.0800 
 43 H       -3.8980    -8.0410     0.0040 H     1 <1>   0.1500 
 44 H        0.1030    -7.6300    -1.4250 H     1 <1>   0.1500 
 45 H       -3.9880    -3.1190    -1.6100 H     1 <1>   0.0800 
 46 H       -5.6730    -3.2130    -1.1500 H     1 <1>   0.0800 
 47 H       -4.7670    -4.6720    -1.4350 H     1 <1>   0.0800 
 48 H       -3.5640    -1.6790     0.5440 H     1 <1>   0.0800 
 49 H       -4.1880    -2.2690     2.0670 H     1 <1>   0.0800 
 50 H       -5.2850    -1.8200     0.8000 H     1 <1>   0.0800 
 51 H       -4.0790   -10.2010    -1.1410 H     1 <1>   0.1500 
 52 H       -0.0880    -9.7870    -2.5680 H     1 <1>   0.1500 
 53 H       -2.1750   -11.0800    -2.4290 H     1 <1>   0.1500 
@<TRIPOS>BOND
  1   1   2  2   
  2   2   3  am  
  3   2   4  1   
  4   3   5  1   
  5   3   6  1   
  6   4   7  ar  
  7   4   8  ar  
  8   5  27  1   
  9   5  28  1   
 10   5  29  1   
 11   6  30  1   
 12   6  31  1   
 13   6  32  1   
 14   7   9  ar  
 15   8  10  ar  
 16   8  33  1   
 17   9  11  1   
 18   9  12  ar  
 19  10  12  ar  
 20  10  34  1   
 21  11  13  1   
 22  11  14  1   
 23  12  35  1   
 24  13  15  1   
 25  13  36  1   
 26  13  37  1   
 27  14  16  1   
 28  14  38  1   
 29  14  39  1   
 30  15  17  1   
 31  15  18  1   
 32  15  40  1   
 33  16  17  1   
 34  16  19  1   
 35  16  41  1   
 36  18  20  ar  
 37  18  21  ar  
 38  19  22  1   
 39  19  23  1   
 40  19  42  1   
 41  20  24  ar  
 42  20  43  1   
 43  21  25  ar  
 44  21  44  1   
 45  22  45  1   
 46  22  46  1   
 47  22  47  1   
 48  23  48  1   
 49  23  49  1   
 50  23  50  1   
 51  24  26  ar  
 52  24  51  1   
 53  25  26  ar  
 54  25  52  1   
 55  26  53  1   
@<TRIPOS>SUBSTRUCTURE
  1 ****  15 GROUP 4 **** **** 0

# MOE 2024.06 (io_trps.svl 2023.06)
