@<TRIPOS>MOLECULE
NONAME
48 51 1 0 0 
SMALL
USER_CHARGES


@<TRIPOS>ATOM
  1 CL      -0.6060    -0.6210    -1.2290 Cl    1 <1>  -0.1770 
  2 C        0.2000    -2.0990    -0.7720 C.ar  1 <1>   0.1770 
  3 C       -0.5440    -3.1500    -0.2740 C.ar  1 <1>  -0.1500 
  4 C        1.5710    -2.1930    -0.9170 C.ar  1 <1>  -0.1500 
  5 C        0.0830    -4.3390     0.0900 C.ar  1 <1>  -0.0230 
  6 C        2.2070    -3.3670    -0.5510 C.ar  1 <1>  -0.1500 
  7 N       -0.6800    -5.4330     0.5930 N.pl3 1 <1>   0.5930 
  8 C        1.4690    -4.4270    -0.0510 C.ar  1 <1>  -0.1500 
  9 N       -1.8130    -5.2840     1.3250 N.2   1 <1>  -0.7070 
 10 C       -0.4430    -6.7570     0.4040 C.2   1 <1>  -0.3020 
 11 C       -2.2330    -6.4760     1.5930 C.2   1 <1>   0.1390 
 12 C       -1.4190    -7.4510     1.0310 C.2   1 <1>  -0.1810 
 13 C       -1.6530    -8.9420     1.1350 C.3   1 <1>   0.5240 
 14 N       -2.1060    -9.4350    -0.1930 N.4   1 <1>  -0.9590 
 15 C       -3.4580    -8.8810    -0.5370 C.3   1 <1>   0.3430 
 16 C       -2.2460   -10.9250    -0.1830 C.3   1 <1>   0.3430 
 17 C       -4.4620    -9.9540    -0.1100 C.3   1 <1>   0.2000 
 18 C       -3.7200   -11.2390    -0.4720 C.3   1 <1>  -0.0800 
 19 O       -4.6260    -9.8760     1.2710 O.3   1 <1>  -0.6800 
 20 C       -4.2080   -12.5360     0.2040 C.3   1 <1>   0.0200 
 21 C       -3.2490   -13.6730    -0.0900 C.2   1 <1>  -0.0400 
 22 O       -2.8330   -13.8710    -1.3120 O.3   1 <1>  -0.0190 
 23 C       -2.6670   -14.5900     0.6970 C.2   1 <1>  -0.1500 
 24 N       -1.9900   -14.8560    -1.3820 N.2   1 <1>  -0.4100 
 25 C       -1.8770   -15.3190    -0.1890 C.2   1 <1>   0.1080 
 26 C       -1.0040   -16.4950     0.1890 C.3   1 <1>  -0.0590 
 27 H       -1.6100    -3.0380    -0.1680 H     1 <1>   0.1500 
 28 H        2.1270    -1.3590    -1.3070 H     1 <1>   0.1500 
 29 H        3.2760    -3.4520    -0.6540 H     1 <1>   0.1500 
 30 H        1.9860    -5.3260     0.2370 H     1 <1>   0.1500 
 31 H        0.4020    -7.1020    -0.1630 H     1 <1>   0.1500 
 32 H       -3.1170    -6.6650     2.1820 H     1 <1>   0.1500 
 33 H       -2.3970    -9.1500     1.8880 H     1 <1>   0.0800 
 34 H       -0.7320    -9.4280     1.4160 H     1 <1>   0.0800 
 35 H       -1.4160    -9.1250    -0.8880 H     1 <1>   0.4500 
 36 H       -3.6590    -7.9400    -0.0520 H     1 <1>   0.0800 
 37 H       -3.5260    -8.7440    -1.6040 H     1 <1>   0.0800 
 38 H       -1.6130   -11.3860    -0.9260 H     1 <1>   0.0800 
 39 H       -1.9810   -11.3160     0.7860 H     1 <1>   0.0800 
 40 H       -5.4200    -9.8440    -0.5910 H     1 <1>   0.0800 
 41 H       -3.8050   -11.3760    -1.5370 H     1 <1>   0.0800 
 42 H       -5.4730   -10.2860     1.5510 H     1 <1>   0.4000 
 43 H       -5.1840   -12.7950    -0.1690 H     1 <1>   0.0800 
 44 H       -4.2770   -12.4200     1.2720 H     1 <1>   0.0800 
 45 H       -2.7560   -14.7600     1.7550 H     1 <1>   0.1500 
 46 H       -0.3020   -16.2040     0.9480 H     1 <1>   0.0800 
 47 H       -0.4610   -16.8410    -0.6730 H     1 <1>   0.0800 
 48 H       -1.6140   -17.2980     0.5580 H     1 <1>   0.0800 
@<TRIPOS>BOND
  1   1   2  1   
  2   2   3  ar  
  3   2   4  ar  
  4   3   5  ar  
  5   3  27  1   
  6   4   6  ar  
  7   4  28  1   
  8   5   7  1   
  9   5   8  ar  
 10   6   8  ar  
 11   6  29  1   
 12   7   9  1   
 13   7  10  1   
 14   8  30  1   
 15   9  11  2   
 16  10  12  2   
 17  10  31  1   
 18  11  12  1   
 19  11  32  1   
 20  12  13  1   
 21  13  14  1   
 22  13  33  1   
 23  13  34  1   
 24  14  15  1   
 25  14  16  1   
 26  14  35  1   
 27  15  17  1   
 28  15  36  1   
 29  15  37  1   
 30  16  18  1   
 31  16  38  1   
 32  16  39  1   
 33  17  18  1   
 34  17  19  1   
 35  17  40  1   
 36  18  20  1   
 37  18  41  1   
 38  19  42  1   
 39  20  21  1   
 40  20  43  1   
 41  20  44  1   
 42  21  22  1   
 43  21  23  2   
 44  22  24  1   
 45  23  25  1   
 46  23  45  1   
 47  24  25  2   
 48  25  26  1   
 49  26  46  1   
 50  26  47  1   
 51  26  48  1   
@<TRIPOS>SUBSTRUCTURE
  1 ****  14 GROUP 4 **** **** 0

# MOE 2024.06 (io_trps.svl 2023.06)
