@<TRIPOS>MOLECULE
NONAME
51 53 1 0 0 
SMALL
USER_CHARGES


@<TRIPOS>ATOM
  1 S        0.2640    -0.9100     0.7060 S.o2  1 <1>   1.4470 
  2 O        0.9260    -2.1920     0.7860 O.2   1 <1>  -0.6500 
  3 O       -0.4590    -0.4710     1.8790 O.2   1 <1>  -0.6500 
  4 N       -0.8950    -1.0630    -0.5330 N.am  1 <1>  -0.8490 
  5 C        1.3930     0.3700     0.0940 C.ar  1 <1>  -0.0090 
  6 C       -1.5770    -2.3580    -0.5320 C.3   1 <1>   0.1960 
  7 C       -1.8780     0.0360    -0.6090 C.3   1 <1>   0.1960 
  8 C        1.5390     1.5800     0.7620 C.ar  1 <1>  -0.1500 
  9 C        2.1310     0.1760    -1.0690 C.ar  1 <1>  -0.1500 
 10 C       -2.6500    -2.3130     0.5740 C.3   1 <1>   0.4230 
 11 C       -3.1390    -0.1660     0.2870 C.3   1 <1>  -0.1600 
 12 C        2.3920     2.5500     0.2700 C.ar  1 <1>   0.1900 
 13 C        2.9850     1.1520    -1.5580 C.ar  1 <1>  -0.1500 
 14 N       -2.8120    -3.5480     1.4240 N.4   1 <1>  -0.9590 
 15 C       -3.9390    -1.5540     0.0220 C.3   1 <1>   0.0000 
 16 F        2.4620     3.6600     0.9610 F     1 <1>  -0.1900 
 17 C        3.1350     2.3620    -0.8990 C.ar  1 <1>   0.0830 
 18 C       -3.1770    -4.7490     0.6600 C.3   1 <1>   0.3430 
 19 C       -1.6030    -3.7740     2.2820 C.3   1 <1>   0.2630 
 20 C       -4.7220    -2.9270    -0.3180 C.3   1 <1>  -0.1600 
 21 C       -5.2280    -0.7270    -0.4530 C.3   1 <1>   0.1200 
 22 O        4.0000     3.2400    -1.4780 O.3   1 <1>  -0.3630 
 23 C       -4.0470    -4.3120    -0.5010 C.3   1 <1>  -0.1600 
 24 O       -5.8500    -0.2220     0.6860 O.3   1 <1>  -0.6800 
 25 C        4.3070     4.4990    -0.9230 C.3   1 <1>   0.0400 
 26 H       -2.0420    -2.5020    -1.4910 H     1 <1>   0.0800 
 27 H       -0.8800    -3.1620    -0.3800 H     1 <1>   0.0800 
 28 H       -1.4010     0.9710    -0.3580 H     1 <1>   0.0800 
 29 H       -2.2040     0.1200    -1.6330 H     1 <1>   0.0800 
 30 H        0.9910     1.7730     1.6680 H     1 <1>   0.1500 
 31 H        2.0370    -0.7550    -1.6050 H     1 <1>   0.1500 
 32 H       -2.1970    -1.6810     1.3100 H     1 <1>   0.0800 
 33 H       -2.8920    -0.0450     1.3300 H     1 <1>   0.0800 
 34 H       -3.6650     0.7640     0.1420 H     1 <1>   0.0800 
 35 H        3.5460     0.9780    -2.4600 H     1 <1>   0.1500 
 36 H       -3.6060    -3.3310     2.0450 H     1 <1>   0.4500 
 37 H       -2.2970    -5.2470     0.2870 H     1 <1>   0.0800 
 38 H       -3.7180    -5.4330     1.2950 H     1 <1>   0.0800 
 39 H       -0.7390    -3.9880     1.6720 H     1 <1>   0.0800 
 40 H       -1.7660    -4.6010     2.9540 H     1 <1>   0.0800 
 41 H       -1.3900    -2.8930     2.8670 H     1 <1>   0.0800 
 42 H       -5.5080    -3.0530     0.4130 H     1 <1>   0.0800 
 43 H       -5.1900    -2.8760    -1.2890 H     1 <1>   0.0800 
 44 H       -6.0300    -1.2210    -0.9740 H     1 <1>   0.0800 
 45 H       -4.9940     0.0860    -1.1220 H     1 <1>   0.0800 
 46 H       -3.4480    -4.3090    -1.3960 H     1 <1>   0.0800 
 47 H       -4.8040    -5.0630    -0.6560 H     1 <1>   0.0800 
 48 H       -6.6400     0.3100     0.4540 H     1 <1>   0.4000 
 49 H        5.0280     4.9780    -1.5600 H     1 <1>   0.0800 
 50 H        4.7240     4.3580     0.0580 H     1 <1>   0.0800 
 51 H        3.4100     5.0920    -0.8810 H     1 <1>   0.0800 
@<TRIPOS>BOND
  1   1   2  2   
  2   1   3  2   
  3   1   4  am  
  4   1   5  1   
  5   4   6  1   
  6   4   7  1   
  7   5   8  ar  
  8   5   9  ar  
  9   6  10  1   
 10   6  26  1   
 11   6  27  1   
 12   7  11  1   
 13   7  28  1   
 14   7  29  1   
 15   8  12  ar  
 16   8  30  1   
 17   9  13  ar  
 18   9  31  1   
 19  10  14  1   
 20  10  15  1   
 21  10  32  1   
 22  11  15  1   
 23  11  33  1   
 24  11  34  1   
 25  12  16  1   
 26  12  17  ar  
 27  13  17  ar  
 28  13  35  1   
 29  14  18  1   
 30  14  19  1   
 31  14  36  1   
 32  15  20  1   
 33  15  21  1   
 34  17  22  1   
 35  18  23  1   
 36  18  37  1   
 37  18  38  1   
 38  19  39  1   
 39  19  40  1   
 40  19  41  1   
 41  20  23  1   
 42  20  42  1   
 43  20  43  1   
 44  21  24  1   
 45  21  44  1   
 46  21  45  1   
 47  22  25  1   
 48  23  46  1   
 49  23  47  1   
 50  24  48  1   
 51  25  49  1   
 52  25  50  1   
 53  25  51  1   
@<TRIPOS>SUBSTRUCTURE
  1 ****   4 GROUP 4 **** **** 0

# MOE 2024.06 (io_trps.svl 2023.06)
