@<TRIPOS>MOLECULE
NONAME
51 54 1 0 0 
SMALL
USER_CHARGES


@<TRIPOS>ATOM
  1 S        0.1310     0.4980     0.6590 S.3   1 <1>  -0.0800 
  2 C        0.5770     1.5470    -0.6520 C.2   1 <1>   0.4620 
  3 C       -1.4210     0.3150    -0.0970 C.2   1 <1>   0.1980 
  4 N       -0.3820     1.6840    -1.5010 N.2   1 <1>  -0.3380 
  5 N        1.8310     2.1190    -0.6840 N.pl3 1 <1>  -0.8220 
  6 N       -1.5100     0.9830    -1.1820 N.2   1 <1>  -0.3380 
  7 C       -2.4390    -0.5880     0.6060 C.3   1 <1>   1.2000 
  8 C        2.1700     3.1210    -1.7450 C.3   1 <1>   0.2090 
  9 C        2.8760     1.8820     0.3630 C.3   1 <1>   0.2090 
 10 F       -2.7260    -0.1660     1.8340 F     1 <1>  -0.3400 
 11 F       -3.6010    -0.6780    -0.0330 F     1 <1>  -0.3400 
 12 F       -1.9980    -1.8360     0.7430 F     1 <1>  -0.3400 
 13 C        3.1240     4.2130    -1.2260 C.3   1 <1>   0.2090 
 14 C        4.2950     2.2500    -0.1210 C.3   1 <1>   0.2090 
 15 N        4.3980     3.6630    -0.6320 N.pl3 1 <1>  -0.8380 
 16 C        5.5020     4.4470    -0.5010 C.ar  1 <1>   0.4100 
 17 N        5.3350     5.7520    -0.5990 N.ar  1 <1>  -0.6200 
 18 C        6.7770     3.8930    -0.2740 C.ar  1 <1>  -0.1500 
 19 C        6.3850     6.5460    -0.4540 C.ar  1 <1>   0.7710 
 20 C        7.8420     4.7170    -0.1260 C.ar  1 <1>   0.2170 
 21 N        7.6110     6.0470    -0.2160 N.ar  1 <1>  -0.1790 
 22 N        6.2280     7.8950    -0.5400 N.pl3 1 <1>  -0.8380 
 23 C        9.2580     4.2300     0.1270 C.3   1 <1>  -0.0970 
 24 C        4.8670     8.5270    -0.6020 C.3   1 <1>   0.2090 
 25 C        7.3040     8.9350    -0.5520 C.3   1 <1>   0.2090 
 26 C        4.6710     9.4110     0.6340 C.3   1 <1>  -0.1600 
 27 C        7.1660     9.8120     0.6960 C.3   1 <1>  -0.1600 
 28 C        5.7790    10.4660     0.7670 C.3   1 <1>  -0.1600 
 29 H        1.2710     3.5900    -2.1060 H     1 <1>   0.0800 
 30 H        2.6320     2.6140    -2.5740 H     1 <1>   0.0800 
 31 H        2.8720     0.8450     0.6500 H     1 <1>   0.0800 
 32 H        2.6410     2.4720     1.2320 H     1 <1>   0.0800 
 33 H        2.6110     4.7910    -0.4780 H     1 <1>   0.0800 
 34 H        3.3640     4.8720    -2.0430 H     1 <1>   0.0800 
 35 H        4.5740     1.5710    -0.9080 H     1 <1>   0.0800 
 36 H        4.9730     2.1080     0.7010 H     1 <1>   0.0800 
 37 H        6.8840     2.8270    -0.2320 H     1 <1>   0.1500 
 38 H        8.3400     6.7340    -0.0900 H     1 <1>   0.4570 
 39 H        9.2850     3.1550     0.1700 H     1 <1>   0.0800 
 40 H        9.6260     4.6120     1.0630 H     1 <1>   0.0800 
 41 H        9.9130     4.5500    -0.6650 H     1 <1>   0.0800 
 42 H        4.0770     7.7970    -0.6370 H     1 <1>   0.0800 
 43 H        4.7930     9.1270    -1.4940 H     1 <1>   0.0800 
 44 H        7.1880     9.5490    -1.4310 H     1 <1>   0.0800 
 45 H        8.2870     8.5040    -0.5880 H     1 <1>   0.0800 
 46 H        4.6550     8.7860     1.5100 H     1 <1>   0.0800 
 47 H        3.7150     9.9020     0.5700 H     1 <1>   0.0800 
 48 H        7.9190    10.5810     0.6780 H     1 <1>   0.0800 
 49 H        7.3290     9.2140     1.5760 H     1 <1>   0.0800 
 50 H        5.6690    10.9950     1.6990 H     1 <1>   0.0800 
 51 H        5.6820    11.1840    -0.0310 H     1 <1>   0.0800 
@<TRIPOS>BOND
  1   1   2  1   
  2   1   3  1   
  3   2   4  2   
  4   2   5  1   
  5   3   6  2   
  6   3   7  1   
  7   4   6  1   
  8   5   8  1   
  9   5   9  1   
 10   7  10  1   
 11   7  11  1   
 12   7  12  1   
 13   8  13  1   
 14   8  29  1   
 15   8  30  1   
 16   9  14  1   
 17   9  31  1   
 18   9  32  1   
 19  13  15  1   
 20  13  33  1   
 21  13  34  1   
 22  14  15  1   
 23  14  35  1   
 24  14  36  1   
 25  15  16  1   
 26  16  17  ar  
 27  16  18  ar  
 28  17  19  ar  
 29  18  20  ar  
 30  18  37  1   
 31  19  21  ar  
 32  19  22  1   
 33  20  21  ar  
 34  20  23  1   
 35  21  38  1   
 36  22  24  1   
 37  22  25  1   
 38  23  39  1   
 39  23  40  1   
 40  23  41  1   
 41  24  26  1   
 42  24  42  1   
 43  24  43  1   
 44  25  27  1   
 45  25  44  1   
 46  25  45  1   
 47  26  28  1   
 48  26  46  1   
 49  26  47  1   
 50  27  28  1   
 51  27  48  1   
 52  27  49  1   
 53  28  50  1   
 54  28  51  1   
@<TRIPOS>SUBSTRUCTURE
  1 ****  13 GROUP 4 **** **** 0

# MOE 2024.06 (io_trps.svl 2023.06)
