@<TRIPOS>MOLECULE
NONAME
47 50 1 0 0 
SMALL
USER_CHARGES


@<TRIPOS>ATOM
  1 CL      -1.2860    -0.0260    -2.7310 Cl    1 <1>  -0.1770 
  2 C       -2.4650     0.7940    -1.7430 C.ar  1 <1>   0.1770 
  3 C       -3.3370     0.0760    -0.9740 C.ar  1 <1>  -0.1500 
  4 C       -2.4920     2.1890    -1.7610 C.ar  1 <1>  -0.1500 
  5 C       -4.3000     0.7290    -0.1720 C.ar  1 <1>   0.0000 
  6 C       -3.4150     2.8420    -0.9890 C.ar  1 <1>  -0.1500 
  7 C       -4.3320     2.1440    -0.1830 C.ar  1 <1>   0.3100 
  8 C       -5.2430     0.0520     0.6400 C.ar  1 <1>   0.0860 
  9 N       -5.2120     2.8670     0.5470 N.ar  1 <1>  -0.6200 
 10 C       -5.3130    -1.3900     0.6960 C.2   1 <1>   0.5440 
 11 C       -6.1020     0.8320     1.3710 C.ar  1 <1>  -0.1500 
 12 C       -6.0510     2.2250     1.2940 C.ar  1 <1>   0.1660 
 13 O       -4.3650    -2.0370     1.0970 O.2   1 <1>  -0.5700 
 14 N       -6.4460    -2.0620     0.2990 N.am  1 <1>  -0.6600 
 15 C       -7.0150     3.0580     2.1130 C.3   1 <1>  -0.0970 
 16 C       -7.5410    -1.4780    -0.5150 C.3   1 <1>   0.1400 
 17 C       -6.5380    -3.5420     0.3230 C.3   1 <1>   0.1400 
 18 C       -8.1860    -2.6750    -1.2120 C.3   1 <1>   0.2000 
 19 C       -7.8880    -3.8750    -0.3150 C.3   1 <1>  -0.0800 
 20 O       -9.5540    -2.5100    -1.3550 O.3   1 <1>  -0.6800 
 21 C       -7.8950    -5.2090    -1.0750 C.3   1 <1>   0.0200 
 22 C       -7.5150    -6.3560    -0.1580 C.2   1 <1>  -0.0400 
 23 O       -8.2680    -6.6490     0.8680 O.3   1 <1>  -0.0190 
 24 C       -6.4780    -7.2070    -0.1660 C.2   1 <1>  -0.1500 
 25 N       -7.7890    -7.6480     1.5500 N.2   1 <1>  -0.4100 
 26 C       -6.7110    -8.0060     0.9500 C.2   1 <1>   0.1080 
 27 C       -5.8210    -9.1400     1.4050 C.3   1 <1>  -0.0590 
 28 H       -3.2800    -0.9980    -0.9810 H     1 <1>   0.1500 
 29 H       -1.7890     2.7200    -2.3780 H     1 <1>   0.1500 
 30 H       -3.4640     3.9160    -0.9770 H     1 <1>   0.1500 
 31 H       -6.8260     0.3670     2.0150 H     1 <1>   0.1500 
 32 H       -7.6480     2.4410     2.7230 H     1 <1>   0.0800 
 33 H       -7.6290     3.6460     1.4550 H     1 <1>   0.0800 
 34 H       -6.4610     3.7220     2.7500 H     1 <1>   0.0800 
 35 H       -8.2450    -0.9910     0.1370 H     1 <1>   0.0800 
 36 H       -7.1540    -0.7790    -1.2370 H     1 <1>   0.0800 
 37 H       -5.7250    -3.9520    -0.2510 H     1 <1>   0.0800 
 38 H       -6.4770    -3.9100     1.3340 H     1 <1>   0.0800 
 39 H       -7.7540    -2.7990    -2.1910 H     1 <1>   0.0800 
 40 H       -8.6120    -3.9150     0.4810 H     1 <1>   0.0800 
 41 H       -9.9920    -2.5020    -0.4820 H     1 <1>   0.4000 
 42 H       -7.2010    -5.1690    -1.8950 H     1 <1>   0.0800 
 43 H       -8.8770    -5.3920    -1.4760 H     1 <1>   0.0800 
 44 H       -5.6510    -7.2830    -0.8460 H     1 <1>   0.1500 
 45 H       -5.7400    -9.8760     0.6260 H     1 <1>   0.0800 
 46 H       -6.2370    -9.6050     2.2810 H     1 <1>   0.0800 
 47 H       -4.8430    -8.7640     1.6420 H     1 <1>   0.0800 
@<TRIPOS>BOND
  1   1   2  1   
  2   2   3  ar  
  3   2   4  ar  
  4   3   5  ar  
  5   3  28  1   
  6   4   6  ar  
  7   4  29  1   
  8   5   7  ar  
  9   5   8  ar  
 10   6   7  ar  
 11   6  30  1   
 12   7   9  ar  
 13   8  10  1   
 14   8  11  ar  
 15   9  12  ar  
 16  10  13  2   
 17  10  14  am  
 18  11  12  ar  
 19  11  31  1   
 20  12  15  1   
 21  14  16  1   
 22  14  17  1   
 23  15  32  1   
 24  15  33  1   
 25  15  34  1   
 26  16  18  1   
 27  16  35  1   
 28  16  36  1   
 29  17  19  1   
 30  17  37  1   
 31  17  38  1   
 32  18  19  1   
 33  18  20  1   
 34  18  39  1   
 35  19  21  1   
 36  19  40  1   
 37  20  41  1   
 38  21  22  1   
 39  21  42  1   
 40  21  43  1   
 41  22  23  1   
 42  22  24  2   
 43  23  25  1   
 44  24  26  1   
 45  24  44  1   
 46  25  26  2   
 47  26  27  1   
 48  27  45  1   
 49  27  46  1   
 50  27  47  1   
@<TRIPOS>SUBSTRUCTURE
  1 ****  14 GROUP 4 **** **** 0

# MOE 2024.06 (io_trps.svl 2023.06)
