@<TRIPOS>MOLECULE
NONAME
43 44 1 0 0 
SMALL
USER_CHARGES


@<TRIPOS>ATOM
  1 F        0.6750     0.9320    -1.4840 F     1 <1>  -0.3400 
  2 C        1.8340     1.2850    -0.9430 C.3   1 <1>   1.1640 
  3 F        2.2910     0.2240    -0.2940 F     1 <1>  -0.3400 
  4 F        2.6700     1.4930    -1.9540 F     1 <1>  -0.3400 
  5 C        1.7330     2.5180    -0.0280 C.ar  1 <1>  -0.1440 
  6 C        2.8770     3.2380     0.3000 C.ar  1 <1>  -0.1500 
  7 C        0.5130     2.9360     0.4940 C.ar  1 <1>  -0.1500 
  8 C        2.8100     4.3590     1.1150 C.ar  1 <1>  -0.1440 
  9 C        0.4410     4.0450     1.3160 C.ar  1 <1>  -0.1500 
 10 C        1.5840     4.7560     1.6270 C.ar  1 <1>  -0.1500 
 11 C        4.0650     5.1490     1.4350 C.3   1 <1>   0.4870 
 12 N        4.4770     5.8860     0.2090 N.4   1 <1>  -0.9590 
 13 C        5.8520     6.4530     0.3600 C.3   1 <1>   0.3430 
 14 C        3.4780     6.9610    -0.1150 C.3   1 <1>   0.2630 
 15 C        6.4660     6.8550    -0.9920 C.3   1 <1>  -0.0220 
 16 C        7.2310     8.1710    -0.8730 C.2   1 <1>  -0.1240 
 17 C        6.4980     9.3570    -0.5210 C.2   1 <1>   0.6160 
 18 C        8.5620     8.2480    -1.1000 C.2   1 <1>  -0.0410 
 19 O        5.3060     9.2910    -0.2620 O.2   1 <1>  -0.5700 
 20 N        7.1620    10.5700    -0.4520 N.am  1 <1>  -0.4200 
 21 N        9.1900     9.4710    -0.9820 N.am  1 <1>  -0.5390 
 22 C        8.5260    10.6220    -0.6650 C.2   1 <1>   0.6900 
 23 C        6.4260    11.8240    -0.1200 C.3   1 <1>   0.0600 
 24 O        9.1590    11.6510    -0.5740 O.2   1 <1>  -0.5700 
 25 H        3.8280     2.9110    -0.0890 H     1 <1>   0.1500 
 26 H       -0.3950     2.3980     0.2670 H     1 <1>   0.1500 
 27 H       -0.5120     4.3520     1.7160 H     1 <1>   0.1500 
 28 H        1.5010     5.6150     2.2720 H     1 <1>   0.1500 
 29 H        4.8420     4.4670     1.7410 H     1 <1>   0.0800 
 30 H        3.8760     5.8390     2.2420 H     1 <1>   0.0800 
 31 H        4.4650     5.2010    -0.5590 H     1 <1>   0.4500 
 32 H        6.5020     5.7350     0.8340 H     1 <1>   0.0800 
 33 H        5.8010     7.3190     1.0010 H     1 <1>   0.0800 
 34 H        3.4470     7.6960     0.6730 H     1 <1>   0.0800 
 35 H        2.4930     6.5390    -0.2360 H     1 <1>   0.0800 
 36 H        3.7450     7.4660    -1.0290 H     1 <1>   0.0800 
 37 H        5.7070     6.9810    -1.7430 H     1 <1>   0.0800 
 38 H        7.1280     6.0740    -1.3220 H     1 <1>   0.0800 
 39 H        9.1770     7.4040    -1.3740 H     1 <1>   0.1500 
 40 H       10.1930     9.6000    -1.1410 H     1 <1>   0.3700 
 41 H        5.4020    11.7590    -0.4430 H     1 <1>   0.0800 
 42 H        6.8840    12.6650    -0.6120 H     1 <1>   0.0800 
 43 H        6.4520    11.9850     0.9430 H     1 <1>   0.0800 
@<TRIPOS>BOND
  1   1   2  1   
  2   2   3  1   
  3   2   4  1   
  4   2   5  1   
  5   5   6  ar  
  6   5   7  ar  
  7   6   8  ar  
  8   6  25  1   
  9   7   9  ar  
 10   7  26  1   
 11   8  10  ar  
 12   8  11  1   
 13   9  10  ar  
 14   9  27  1   
 15  10  28  1   
 16  11  12  1   
 17  11  29  1   
 18  11  30  1   
 19  12  13  1   
 20  12  14  1   
 21  12  31  1   
 22  13  15  1   
 23  13  32  1   
 24  13  33  1   
 25  14  34  1   
 26  14  35  1   
 27  14  36  1   
 28  15  16  1   
 29  15  37  1   
 30  15  38  1   
 31  16  17  1   
 32  16  18  2   
 33  17  19  2   
 34  17  20  am  
 35  18  21  1   
 36  18  39  1   
 37  20  22  am  
 38  20  23  1   
 39  21  22  am  
 40  21  40  1   
 41  22  24  2   
 42  23  41  1   
 43  23  42  1   
 44  23  43  1   
@<TRIPOS>SUBSTRUCTURE
  1 ****  12 GROUP 4 **** **** 0

# MOE 2024.06 (io_trps.svl 2023.06)
