@<TRIPOS>MOLECULE
NONAME
56 59 1 0 0 
SMALL
USER_CHARGES


@<TRIPOS>ATOM
  1 O        0.6770     0.5990    -2.7420 O.2   1 <1>  -0.5700 
  2 C        0.5390     1.5450    -1.9990 C.2   1 <1>   0.5690 
  3 N       -0.6140     1.7330    -1.2840 N.am  1 <1>  -0.6600 
  4 C        1.7070     2.5350    -1.8590 C.3   1 <1>   0.2700 
  5 C       -0.7570     2.9000    -0.3670 C.3   1 <1>   0.1400 
  6 C       -1.7270     0.7450    -1.3030 C.3   1 <1>   0.2840 
  7 N        1.3840     3.8890    -1.2540 N.pl3 1 <1>  -0.8380 
  8 C       -0.0490     4.1490    -0.9160 C.3   1 <1>   0.2090 
  9 C       -2.0540     0.2910     0.1120 C.ar  1 <1>  -0.1440 
 10 C        2.3910     4.8230    -1.1120 C.ar  1 <1>   0.4100 
 11 C       -1.0990    -0.3840     0.8570 C.ar  1 <1>  -0.1500 
 12 C       -3.2990     0.5490     0.6690 C.ar  1 <1>  -0.1500 
 13 N        3.6310     4.3480    -1.0640 N.ar  1 <1>  -0.6200 
 14 C        2.1230     6.1920    -1.0370 C.ar  1 <1>  -0.1500 
 15 C       -1.3810    -0.8000     2.1550 C.ar  1 <1>   0.0830 
 16 C       -3.5850     0.1360     1.9590 C.ar  1 <1>  -0.1500 
 17 C        4.6040     5.2320    -0.9310 C.ar  1 <1>   0.1600 
 18 C        3.1460     7.0960    -0.8900 C.ar  1 <1>  -0.1500 
 19 O       -0.4970    -1.4600     2.9450 O.3   1 <1>  -0.3630 
 20 C       -2.6280    -0.5360     2.6980 C.ar  1 <1>  -0.1500 
 21 C        4.4470     6.6100    -0.8200 C.ar  1 <1>   0.0860 
 22 C        0.8060    -1.7560     2.4910 C.3   1 <1>   0.0400 
 23 C        5.5990     7.4650    -0.6590 C.2   1 <1>   0.5440 
 24 O        6.6070     7.2280    -1.2980 O.2   1 <1>  -0.5700 
 25 N        5.6020     8.5400     0.2050 N.am  1 <1>  -0.6600 
 26 C        4.7860     8.6010     1.4560 C.3   1 <1>   0.1400 
 27 C        6.6580     9.5960     0.1470 C.3   1 <1>   0.1400 
 28 C        5.6960     8.7100     2.6930 C.3   1 <1>   0.1200 
 29 C        7.4600     9.6330     1.4570 C.3   1 <1>   0.1200 
 30 O        6.6010     9.7680     2.5550 O.3   1 <1>  -0.5600 
 31 H        2.1290     2.6900    -2.8350 H     1 <1>   0.0800 
 32 H        2.4570     2.0570    -1.2560 H     1 <1>   0.0800 
 33 H       -0.3410     2.6460     0.5920 H     1 <1>   0.0800 
 34 H       -1.8000     3.1240    -0.2280 H     1 <1>   0.0800 
 35 H       -1.4570    -0.1150    -1.8930 H     1 <1>   0.0800 
 36 H       -2.5880     1.1980    -1.7600 H     1 <1>   0.0800 
 37 H       -0.1130     4.9250    -0.1750 H     1 <1>   0.0800 
 38 H       -0.5620     4.4850    -1.8010 H     1 <1>   0.0800 
 39 H       -0.1420    -0.5750     0.4080 H     1 <1>   0.1500 
 40 H       -4.0510     1.0700     0.1040 H     1 <1>   0.1500 
 41 H        1.1130     6.5420    -1.1090 H     1 <1>   0.1500 
 42 H       -4.5520     0.3350     2.3890 H     1 <1>   0.1500 
 43 H        5.6090     4.8450    -0.9050 H     1 <1>   0.1500 
 44 H        2.9580     8.1550    -0.8390 H     1 <1>   0.1500 
 45 H       -2.8410    -0.8610     3.7000 H     1 <1>   0.1500 
 46 H        1.3250    -2.2690     3.2800 H     1 <1>   0.0800 
 47 H        1.3120    -0.8360     2.2580 H     1 <1>   0.0800 
 48 H        0.7380    -2.3900     1.6250 H     1 <1>   0.0800 
 49 H        4.1730     7.7230     1.5550 H     1 <1>   0.0800 
 50 H        4.1400     9.4610     1.4170 H     1 <1>   0.0800 
 51 H        6.1920    10.5530    -0.0080 H     1 <1>   0.0800 
 52 H        7.3280     9.4220    -0.6770 H     1 <1>   0.0800 
 53 H        6.2510     7.7990     2.8360 H     1 <1>   0.0800 
 54 H        5.1060     8.8970     3.5730 H     1 <1>   0.0800 
 55 H        8.1310    10.4740     1.4580 H     1 <1>   0.0800 
 56 H        8.0350     8.7300     1.5720 H     1 <1>   0.0800 
@<TRIPOS>BOND
  1   1   2  2   
  2   2   3  am  
  3   2   4  1   
  4   3   5  1   
  5   3   6  1   
  6   4   7  1   
  7   4  31  1   
  8   4  32  1   
  9   5   8  1   
 10   5  33  1   
 11   5  34  1   
 12   6   9  1   
 13   6  35  1   
 14   6  36  1   
 15   7   8  1   
 16   7  10  1   
 17   8  37  1   
 18   8  38  1   
 19   9  11  ar  
 20   9  12  ar  
 21  10  13  ar  
 22  10  14  ar  
 23  11  15  ar  
 24  11  39  1   
 25  12  16  ar  
 26  12  40  1   
 27  13  17  ar  
 28  14  18  ar  
 29  14  41  1   
 30  15  19  1   
 31  15  20  ar  
 32  16  20  ar  
 33  16  42  1   
 34  17  21  ar  
 35  17  43  1   
 36  18  21  ar  
 37  18  44  1   
 38  19  22  1   
 39  20  45  1   
 40  21  23  1   
 41  22  46  1   
 42  22  47  1   
 43  22  48  1   
 44  23  24  2   
 45  23  25  am  
 46  25  26  1   
 47  25  27  1   
 48  26  28  1   
 49  26  49  1   
 50  26  50  1   
 51  27  29  1   
 52  27  51  1   
 53  27  52  1   
 54  28  30  1   
 55  28  53  1   
 56  28  54  1   
 57  29  30  1   
 58  29  55  1   
 59  29  56  1   
@<TRIPOS>SUBSTRUCTURE
  1 ****   7 GROUP 4 **** **** 0

# MOE 2024.06 (io_trps.svl 2023.06)
