@<TRIPOS>MOLECULE
NONAME
53 55 1 0 0 
SMALL
USER_CHARGES


@<TRIPOS>ATOM
  1 S       -0.0630    -0.1180     1.8280 S.o2  1 <1>   1.4470 
  2 O        0.0820    -1.5600     1.8930 O.2   1 <1>  -0.6500 
  3 O       -0.3010     0.6300     3.0400 O.2   1 <1>  -0.6500 
  4 N       -1.4060     0.1290     0.8170 N.am  1 <1>  -0.8490 
  5 C        1.3150     0.6210     0.9040 C.ar  1 <1>  -0.0090 
  6 C       -1.4610    -0.8440    -0.3000 C.3   1 <1>   0.1960 
  7 C       -2.6610     0.2370     1.6030 C.3   1 <1>   0.1960 
  8 C        2.5440    -0.0190     0.8100 C.ar  1 <1>  -0.1500 
  9 C        1.1830     1.8520     0.2750 C.ar  1 <1>  -0.1500 
 10 C       -2.3250    -2.0510     0.1230 C.3   1 <1>   0.4230 
 11 C       -3.9030    -0.1950     0.8020 C.3   1 <1>  -0.1600 
 12 C        3.5950     0.5460     0.1060 C.ar  1 <1>  -0.1500 
 13 C        2.2340     2.4160    -0.4280 C.ar  1 <1>  -0.1500 
 14 N       -2.0700    -3.3900    -0.5260 N.4   1 <1>  -0.9590 
 15 C       -3.8180    -1.6550     0.2580 C.3   1 <1>   0.0000 
 16 C        3.4610     1.7740    -0.5280 C.ar  1 <1>  -0.0090 
 17 C       -3.1230    -4.3990    -0.1690 C.3   1 <1>   0.3430 
 18 C       -1.8680    -3.3220    -2.0080 C.3   1 <1>   0.2630 
 19 C       -4.4250    -2.6640     1.2680 C.3   1 <1>  -0.1600 
 20 C       -4.6500    -1.7180    -1.0540 C.3   1 <1>   0.1200 
 21 S        4.8470     2.5270    -1.4210 S.o2  1 <1>   1.2040 
 22 C       -3.7920    -4.0790     1.1800 C.3   1 <1>  -0.1600 
 23 O       -3.9920    -1.0920    -2.1020 O.3   1 <1>  -0.6800 
 24 O        4.3320     3.4700    -2.3880 O.2   1 <1>  -0.6500 
 25 O        5.7620     1.4880    -1.8350 O.2   1 <1>  -0.6500 
 26 C        5.6550     3.4670    -0.1400 C.3   1 <1>  -0.1350 
 27 H       -1.8850    -0.3560    -1.1590 H     1 <1>   0.0800 
 28 H       -0.4670    -1.1630    -0.5620 H     1 <1>   0.0800 
 29 H       -2.5980    -0.3820     2.4850 H     1 <1>   0.0800 
 30 H       -2.7750     1.2560     1.9380 H     1 <1>   0.0800 
 31 H        2.6860    -0.9720     1.2930 H     1 <1>   0.1500 
 32 H        0.2430     2.3780     0.3350 H     1 <1>   0.1500 
 33 H       -2.0160    -2.2060     1.1430 H     1 <1>   0.0800 
 34 H       -4.7800    -0.0770     1.4150 H     1 <1>   0.0800 
 35 H       -4.0040     0.5050    -0.0100 H     1 <1>   0.0800 
 36 H        4.5350     0.0210     0.0470 H     1 <1>   0.1500 
 37 H        2.0950     3.3710    -0.9110 H     1 <1>   0.1500 
 38 H       -1.1880    -3.7170    -0.1030 H     1 <1>   0.4500 
 39 H       -3.8830    -4.4100    -0.9330 H     1 <1>   0.0800 
 40 H       -2.6850    -5.3840    -0.1330 H     1 <1>   0.0800 
 41 H       -2.7760    -3.0190    -2.5000 H     1 <1>   0.0800 
 42 H       -1.5790    -4.2880    -2.3900 H     1 <1>   0.0800 
 43 H       -1.0940    -2.6140    -2.2530 H     1 <1>   0.0800 
 44 H       -4.2790    -2.3070     2.2740 H     1 <1>   0.0800 
 45 H       -5.4900    -2.7320     1.1210 H     1 <1>   0.0800 
 46 H       -5.5950    -1.2190    -0.9110 H     1 <1>   0.0800 
 47 H       -4.8530    -2.7290    -1.3570 H     1 <1>   0.0800 
 48 H       -4.5520    -4.8160     1.3780 H     1 <1>   0.0800 
 49 H       -3.0520    -4.1870     1.9550 H     1 <1>   0.0800 
 50 H       -4.6280    -0.8290    -2.8030 H     1 <1>   0.4000 
 51 H        4.9850     4.2010     0.2650 H     1 <1>   0.0800 
 52 H        6.5110     3.9720    -0.5430 H     1 <1>   0.0800 
 53 H        5.9810     2.8200     0.6500 H     1 <1>   0.0800 
@<TRIPOS>BOND
  1   1   2  2   
  2   1   3  2   
  3   1   4  am  
  4   1   5  1   
  5   4   6  1   
  6   4   7  1   
  7   5   8  ar  
  8   5   9  ar  
  9   6  10  1   
 10   6  27  1   
 11   6  28  1   
 12   7  11  1   
 13   7  29  1   
 14   7  30  1   
 15   8  12  ar  
 16   8  31  1   
 17   9  13  ar  
 18   9  32  1   
 19  10  14  1   
 20  10  15  1   
 21  10  33  1   
 22  11  15  1   
 23  11  34  1   
 24  11  35  1   
 25  12  16  ar  
 26  12  36  1   
 27  13  16  ar  
 28  13  37  1   
 29  14  17  1   
 30  14  18  1   
 31  14  38  1   
 32  15  19  1   
 33  15  20  1   
 34  16  21  1   
 35  17  22  1   
 36  17  39  1   
 37  17  40  1   
 38  18  41  1   
 39  18  42  1   
 40  18  43  1   
 41  19  22  1   
 42  19  44  1   
 43  19  45  1   
 44  20  23  1   
 45  20  46  1   
 46  20  47  1   
 47  21  24  2   
 48  21  25  2   
 49  21  26  1   
 50  22  48  1   
 51  22  49  1   
 52  23  50  1   
 53  26  51  1   
 54  26  52  1   
 55  26  53  1   
@<TRIPOS>SUBSTRUCTURE
  1 ****   6 GROUP 4 **** **** 0

# MOE 2024.06 (io_trps.svl 2023.06)
