@<TRIPOS>MOLECULE
NONAME
47 49 1 0 0 
SMALL
USER_CHARGES


@<TRIPOS>ATOM
  1 O       -0.1790     0.3110    -0.4120 O.2   1 <1>  -0.5700 
  2 C       -0.2790     1.5350    -0.2720 C.2   1 <1>   0.3890 
  3 C       -1.5270     2.1620    -0.1330 C.3   1 <1>  -0.7150 
  4 C        0.9400     2.3070    -0.2060 C.ar  1 <1>   0.0860 
  5 C       -1.5540     3.5190     0.2330 C.2   1 <1>   0.5350 
  6 C       -2.7170     1.4550    -0.3700 C.2   1 <1>   0.5350 
  7 C        0.8650     3.6880     0.0270 C.ar  1 <1>   0.1170 
  8 C        2.2000     1.7200    -0.3610 C.ar  1 <1>  -0.1500 
  9 O       -2.5810     4.0710     0.6390 O.2   1 <1>  -0.5700 
 10 N       -0.3960     4.2880     0.1660 N.am  1 <1>  -0.4770 
 11 O       -2.9140     0.8060    -1.3930 O.2   1 <1>  -0.5700 
 12 N       -3.7150     1.5690     0.5510 N.am  1 <1>  -0.7300 
 13 C        2.0540     4.4190     0.1260 C.ar  1 <1>  -0.1500 
 14 C        3.3610     2.4590    -0.2750 C.ar  1 <1>  -0.1500 
 15 C       -0.5340     5.7720     0.1600 C.3   1 <1>   0.0600 
 16 C       -5.1390     1.2320     0.3560 C.3   1 <1>   0.2200 
 17 C        3.2860     3.8180    -0.0260 C.ar  1 <1>  -0.1500 
 18 C       -5.2870    -0.2830     0.1340 C.3   1 <1>  -0.1600 
 19 C       -5.7320     2.1020    -0.7730 C.3   1 <1>  -0.1600 
 20 C       -6.6160    -0.8840     0.6220 C.3   1 <1>  -0.1600 
 21 C       -6.9550     2.9270    -0.3430 C.3   1 <1>  -0.1600 
 22 C       -7.8680    -0.3440    -0.0860 C.3   1 <1>  -0.1600 
 23 C       -8.2970     2.1830    -0.4130 C.3   1 <1>  -0.1600 
 24 C       -8.4190     0.9650     0.5160 C.3   1 <1>  -0.1600 
 25 H        2.2510     0.6620    -0.5500 H     1 <1>   0.1500 
 26 H       -3.5610     2.4410     1.0660 H     1 <1>   0.3700 
 27 H        2.0250     5.4710     0.3300 H     1 <1>   0.1500 
 28 H        4.3170     1.9810    -0.3980 H     1 <1>   0.1500 
 29 H       -1.5390     6.0600    -0.0940 H     1 <1>   0.0800 
 30 H        0.1230     6.1990    -0.5740 H     1 <1>   0.0800 
 31 H       -0.2980     6.1550     1.1360 H     1 <1>   0.0800 
 32 H       -5.6270     1.4750     1.2820 H     1 <1>   0.0800 
 33 H        4.1890     4.3990     0.0500 H     1 <1>   0.1500 
 34 H       -4.4950    -0.7750     0.6720 H     1 <1>   0.0800 
 35 H       -5.1410    -0.5100    -0.9070 H     1 <1>   0.0800 
 36 H       -5.9740     1.4990    -1.6290 H     1 <1>   0.0800 
 37 H       -4.9780     2.7980    -1.0990 H     1 <1>   0.0800 
 38 H       -6.7040    -0.7540     1.6870 H     1 <1>   0.0800 
 39 H       -6.5640    -1.9430     0.4410 H     1 <1>   0.0800 
 40 H       -7.0220     3.7750    -1.0030 H     1 <1>   0.0800 
 41 H       -6.7980     3.3200     0.6470 H     1 <1>   0.0800 
 42 H       -8.6360    -1.0920     0.0150 H     1 <1>   0.0800 
 43 H       -7.6770    -0.2430    -1.1400 H     1 <1>   0.0800 
 44 H       -8.4980     1.8930    -1.4300 H     1 <1>   0.0800 
 45 H       -9.0630     2.8860    -0.1350 H     1 <1>   0.0800 
 46 H       -7.9710     1.1800     1.4700 H     1 <1>   0.0800 
 47 H       -9.4690     0.8120     0.7000 H     1 <1>   0.0800 
@<TRIPOS>BOND
  1   1   2  2   
  2   2   3  1   
  3   2   4  1   
  4   3   5  1   
  5   3   6  1   
  6   4   7  ar  
  7   4   8  ar  
  8   5   9  2   
  9   5  10  am  
 10   6  11  2   
 11   6  12  am  
 12   7  10  1   
 13   7  13  ar  
 14   8  14  ar  
 15   8  25  1   
 16  10  15  1   
 17  12  16  1   
 18  12  26  1   
 19  13  17  ar  
 20  13  27  1   
 21  14  17  ar  
 22  14  28  1   
 23  15  29  1   
 24  15  30  1   
 25  15  31  1   
 26  16  18  1   
 27  16  19  1   
 28  16  32  1   
 29  17  33  1   
 30  18  20  1   
 31  18  34  1   
 32  18  35  1   
 33  19  21  1   
 34  19  36  1   
 35  19  37  1   
 36  20  22  1   
 37  20  38  1   
 38  20  39  1   
 39  21  23  1   
 40  21  40  1   
 41  21  41  1   
 42  22  24  1   
 43  22  42  1   
 44  22  43  1   
 45  23  24  1   
 46  23  44  1   
 47  23  45  1   
 48  24  46  1   
 49  24  47  1   
@<TRIPOS>SUBSTRUCTURE
  1 ****   6 GROUP 4 **** **** 0

# MOE 2024.06 (io_trps.svl 2023.06)
