@<TRIPOS>MOLECULE
NONAME
48 51 1 0 0 
SMALL
USER_CHARGES


@<TRIPOS>ATOM
  1 S       -0.5400     1.4060    -0.5480 S.o2  1 <1>   1.4470 
  2 O       -0.7530     1.2610    -1.9700 O.2   1 <1>  -0.6500 
  3 O       -0.7160     2.6950     0.0840 O.2   1 <1>  -0.6500 
  4 N        1.0850     0.9990    -0.2820 N.am  1 <1>  -0.8490 
  5 C       -1.4310     0.1280     0.3800 C.ar  1 <1>  -0.0090 
  6 C        2.0060     2.1670    -0.5710 C.3   1 <1>   0.1960 
  7 C        1.4890    -0.3070    -0.9210 C.3   1 <1>   0.1960 
  8 C       -1.4780     0.1560     1.7690 C.ar  1 <1>  -0.1500 
  9 C       -2.0600    -0.9290    -0.2710 C.ar  1 <1>  -0.1500 
 10 C        3.5120     1.8160    -0.8660 C.3   1 <1>   0.2000 
 11 C        3.0040    -0.3710    -0.7540 C.3   1 <1>   0.2000 
 12 C       -2.1250    -0.8350     2.4860 C.ar  1 <1>  -0.1500 
 13 C       -2.7080    -1.9250     0.4390 C.ar  1 <1>  -0.1500 
 14 O        3.4580     0.6530    -1.6010 O.3   1 <1>  -0.5600 
 15 C        4.5460     1.5290     0.2950 C.3   1 <1>   0.3430 
 16 C        4.2990    -1.0190    -0.2750 C.3   1 <1>   0.3430 
 17 C       -2.7400    -1.8790     1.8200 C.ar  1 <1>  -0.1500 
 18 N        5.2410     0.1400     0.1480 N.4   1 <1>  -0.9590 
 19 C        6.1120    -0.2110     1.3010 C.3   1 <1>   0.4860 
 20 C        6.8520    -1.4940     0.9790 C.ar  1 <1>  -0.1430 
 21 C        6.4800    -2.6840     1.5890 C.ar  1 <1>  -0.1500 
 22 C        7.9020    -1.4920     0.0690 C.ar  1 <1>  -0.1500 
 23 C        7.1410    -3.8610     1.2830 C.ar  1 <1>  -0.1500 
 24 C        8.5610    -2.6700    -0.2350 C.ar  1 <1>  -0.1500 
 25 C        8.1800    -3.8540     0.3700 C.ar  1 <1>  -0.1500 
 26 H        1.9420     2.8790     0.2340 H     1 <1>   0.0800 
 27 H        1.6350     2.6680    -1.4510 H     1 <1>   0.0800 
 28 H        1.2310    -0.3290    -1.9680 H     1 <1>   0.0800 
 29 H        1.0100    -1.1300    -0.4180 H     1 <1>   0.0800 
 30 H       -1.0050     0.9690     2.2950 H     1 <1>   0.1500 
 31 H       -2.0470    -0.9730    -1.3480 H     1 <1>   0.1500 
 32 H        3.9200     2.5830    -1.5020 H     1 <1>   0.0800 
 33 H        2.8730    -0.0590     0.2670 H     1 <1>   0.0800 
 34 H       -2.1540    -0.7930     3.5620 H     1 <1>   0.1500 
 35 H       -3.1910    -2.7340    -0.0830 H     1 <1>   0.1500 
 36 H        4.0120     1.5650     1.2310 H     1 <1>   0.0800 
 37 H        5.2820     2.3150     0.3160 H     1 <1>   0.0800 
 38 H        4.7410    -1.6110    -1.0610 H     1 <1>   0.0800 
 39 H        4.0890    -1.6610     0.5640 H     1 <1>   0.0800 
 40 H       -3.2460    -2.6500     2.3750 H     1 <1>   0.1500 
 41 H        5.8620     0.2360    -0.6670 H     1 <1>   0.4500 
 42 H        5.5170    -0.3480     2.1890 H     1 <1>   0.0800 
 43 H        6.8250     0.5760     1.4840 H     1 <1>   0.0800 
 44 H        5.6790    -2.7150     2.3090 H     1 <1>   0.1500 
 45 H        8.2250    -0.5840    -0.4090 H     1 <1>   0.1500 
 46 H        6.8530    -4.7840     1.7560 H     1 <1>   0.1500 
 47 H        9.3760    -2.6700    -0.9390 H     1 <1>   0.1500 
 48 H        8.6960    -4.7700     0.1340 H     1 <1>   0.1500 
@<TRIPOS>BOND
  1   1   2  2   
  2   1   3  2   
  3   1   4  am  
  4   1   5  1   
  5   4   6  1   
  6   4   7  1   
  7   5   8  ar  
  8   5   9  ar  
  9   6  10  1   
 10   6  26  1   
 11   6  27  1   
 12   7  11  1   
 13   7  28  1   
 14   7  29  1   
 15   8  12  ar  
 16   8  30  1   
 17   9  13  ar  
 18   9  31  1   
 19  10  14  1   
 20  10  15  1   
 21  10  32  1   
 22  11  14  1   
 23  11  16  1   
 24  11  33  1   
 25  12  17  ar  
 26  12  34  1   
 27  13  17  ar  
 28  13  35  1   
 29  15  18  1   
 30  15  36  1   
 31  15  37  1   
 32  16  18  1   
 33  16  38  1   
 34  16  39  1   
 35  17  40  1   
 36  18  19  1   
 37  18  41  1   
 38  19  20  1   
 39  19  42  1   
 40  19  43  1   
 41  20  21  ar  
 42  20  22  ar  
 43  21  23  ar  
 44  21  44  1   
 45  22  24  ar  
 46  22  45  1   
 47  23  25  ar  
 48  23  46  1   
 49  24  25  ar  
 50  24  47  1   
 51  25  48  1   
@<TRIPOS>SUBSTRUCTURE
  1 ****  11 GROUP 4 **** **** 0

# MOE 2024.06 (io_trps.svl 2023.06)
