@<TRIPOS>MOLECULE
NONAME
33 34 1 0 0 
SMALL
USER_CHARGES


@<TRIPOS>ATOM
  1 O        1.5320    -1.6170    -1.7220 O.3   1 <1>  -0.0190 
  2 N        1.4760    -2.9010    -1.5330 N.2   1 <1>  -0.4100 
  3 C        1.4800    -1.1150    -0.5130 C.2   1 <1>   0.2980 
  4 C        1.3890    -3.0940    -0.2760 C.2   1 <1>   0.3350 
  5 N        1.4040    -1.9690     0.4320 N.2   1 <1>  -0.5650 
  6 C        1.5340     0.3960    -0.3480 C.3   1 <1>   0.3000 
  7 C        1.2790    -4.4740     0.3840 C.3   1 <1>   0.2910 
  8 O        0.4450     1.0010    -0.9880 O.3   1 <1>  -0.5600 
  9 N       -0.1070    -4.9240     0.6890 N.3   1 <1>  -0.8100 
 10 C        0.3990     2.3850    -0.8570 C.3   1 <1>   0.0400 
 11 C       -0.9490    -4.9310    -0.5350 C.3   1 <1>   0.2530 
 12 C       -0.7190    -4.0970     1.7430 C.3   1 <1>   0.0300 
 13 C       -2.2590    -5.6980    -0.3630 C.ar  1 <1>   0.1670 
 14 N       -3.3160    -5.2350    -1.0170 N.ar  1 <1>  -0.6200 
 15 C       -2.2960    -6.8340     0.4440 C.ar  1 <1>   0.1600 
 16 C       -4.3940    -5.9700    -0.8070 C.ar  1 <1>   0.1600 
 17 N       -3.3750    -7.5740     0.6540 N.ar  1 <1>  -0.6200 
 18 C       -4.4220    -7.1010     0.0010 C.ar  1 <1>   0.1600 
 19 H        2.4420     0.7740    -0.7830 H     1 <1>   0.0800 
 20 H        1.4980     0.6440     0.6980 H     1 <1>   0.0800 
 21 H        1.8550    -4.4650     1.2920 H     1 <1>   0.0800 
 22 H        1.7340    -5.1930    -0.2730 H     1 <1>   0.0800 
 23 H       -0.4680     2.7410    -1.3850 H     1 <1>   0.0800 
 24 H        1.2870     2.8150    -1.2890 H     1 <1>   0.0800 
 25 H        0.3180     2.6420     0.1850 H     1 <1>   0.0800 
 26 H       -0.4070    -5.3880    -1.3440 H     1 <1>   0.0800 
 27 H       -1.1740    -3.9180    -0.8260 H     1 <1>   0.0800 
 28 H       -0.0860    -4.0810     2.6140 H     1 <1>   0.0800 
 29 H       -1.6740    -4.5040     2.0280 H     1 <1>   0.0800 
 30 H       -0.8660    -3.0860     1.4000 H     1 <1>   0.0800 
 31 H       -1.3910    -7.1420     0.9370 H     1 <1>   0.1500 
 32 H       -5.3000    -5.6640    -1.2980 H     1 <1>   0.1500 
 33 H       -5.3500    -7.6340     0.1090 H     1 <1>   0.1500 
@<TRIPOS>BOND
  1   1   2  1   
  2   1   3  1   
  3   2   4  2   
  4   3   5  2   
  5   3   6  1   
  6   4   5  1   
  7   4   7  1   
  8   6   8  1   
  9   6  19  1   
 10   6  20  1   
 11   7   9  1   
 12   7  21  1   
 13   7  22  1   
 14   8  10  1   
 15   9  11  1   
 16   9  12  1   
 17  10  23  1   
 18  10  24  1   
 19  10  25  1   
 20  11  13  1   
 21  11  26  1   
 22  11  27  1   
 23  12  28  1   
 24  12  29  1   
 25  12  30  1   
 26  13  14  ar  
 27  13  15  ar  
 28  14  16  ar  
 29  15  17  ar  
 30  15  31  1   
 31  16  18  ar  
 32  16  32  1   
 33  17  18  ar  
 34  18  33  1   
@<TRIPOS>SUBSTRUCTURE
  1 ****  11 GROUP 4 **** **** 0

# MOE 2024.06 (io_trps.svl 2023.06)
