@<TRIPOS>MOLECULE
NONAME
49 51 1 0 0 
SMALL
USER_CHARGES


@<TRIPOS>ATOM
  1 O        2.5810    -1.3800    -0.9670 O.2   1 <1>  -0.5700 
  2 C        2.1600    -1.3680     0.1650 C.2   1 <1>   0.5690 
  3 N        1.9060    -0.2160     0.8590 N.am  1 <1>  -0.4940 
  4 C        1.8840    -2.7070     0.8620 C.3   1 <1>   0.1710 
  5 C        1.9670     1.1370     0.4470 C.2   1 <1>  -0.0880 
  6 N        0.5030    -3.2440     0.7120 N.3   1 <1>  -0.8100 
  7 N        2.9620     1.7620    -0.2570 N.pl3 1 <1>   0.3140 
  8 C        1.0280     2.0780     0.7070 C.2   1 <1>  -0.1810 
  9 C        0.2020    -3.5260    -0.7070 C.3   1 <1>   0.2530 
 10 C       -0.5190    -2.3850     1.3290 C.3   1 <1>   0.0300 
 11 N        2.6550     3.0740    -0.4490 N.2   1 <1>  -0.7070 
 12 C        4.2620     1.1800    -0.7300 C.3   1 <1>   0.1760 
 13 C        1.5090     3.2430     0.1270 C.2   1 <1>   0.1390 
 14 C       -0.2890     1.9570     1.4520 C.3   1 <1>  -0.0590 
 15 C       -1.1040    -4.2950    -0.8520 C.ar  1 <1>  -0.1430 
 16 C        5.0840     0.5380     0.4010 C.3   1 <1>  -0.1600 
 17 C        5.2230     2.1930    -1.3650 C.3   1 <1>  -0.1600 
 18 C       -2.1100    -3.8770    -1.6990 C.ar  1 <1>  -0.1500 
 19 C       -1.3490    -5.4540    -0.1440 C.ar  1 <1>  -0.1500 
 20 C        6.5630     0.8170     0.0950 C.3   1 <1>  -0.1600 
 21 C        6.5910     1.5290    -1.2570 C.3   1 <1>  -0.1600 
 22 C       -3.2780    -4.6160    -1.7930 C.ar  1 <1>   0.1600 
 23 C       -2.5530    -6.1190    -0.3090 C.ar  1 <1>   0.1600 
 24 N       -3.5250    -5.7270    -1.1180 N.ar  1 <1>  -0.6200 
 25 H        1.4500    -0.3550     1.7600 H     1 <1>   0.3700 
 26 H        2.1040    -2.6050     1.9090 H     1 <1>   0.0800 
 27 H        2.5760    -3.4300     0.4680 H     1 <1>   0.0800 
 28 H        0.9940    -4.1210    -1.1300 H     1 <1>   0.0800 
 29 H        0.1480    -2.6040    -1.2620 H     1 <1>   0.0800 
 30 H       -0.2570    -2.1730     2.3510 H     1 <1>   0.0800 
 31 H       -1.4710    -2.8890     1.3290 H     1 <1>   0.0800 
 32 H       -0.6210    -1.4620     0.7830 H     1 <1>   0.0800 
 33 H        4.0450     0.4380    -1.4740 H     1 <1>   0.0800 
 34 H        0.9960     4.1900     0.1450 H     1 <1>   0.1500 
 35 H       -0.4660     0.9440     1.7590 H     1 <1>   0.0800 
 36 H       -1.0970     2.2670     0.8130 H     1 <1>   0.0800 
 37 H       -0.2740     2.5880     2.3230 H     1 <1>   0.0800 
 38 H        4.9030    -0.5210     0.4340 H     1 <1>   0.0800 
 39 H        4.8260     0.9770     1.3500 H     1 <1>   0.0800 
 40 H        5.2360     3.1050    -0.7910 H     1 <1>   0.0800 
 41 H        4.9560     2.4100    -2.3840 H     1 <1>   0.0800 
 42 H       -1.9980    -2.9840    -2.2870 H     1 <1>   0.1500 
 43 H       -0.6110    -5.8360     0.5380 H     1 <1>   0.1500 
 44 H        7.1440    -0.0890     0.0700 H     1 <1>   0.0800 
 45 H        6.9670     1.4690     0.8520 H     1 <1>   0.0800 
 46 H        7.3940     2.2440    -1.3220 H     1 <1>   0.0800 
 47 H        6.6990     0.8030    -2.0450 H     1 <1>   0.0800 
 48 H       -4.0520    -4.2740    -2.4590 H     1 <1>   0.1500 
 49 H       -2.7240    -7.0200     0.2540 H     1 <1>   0.1500 
@<TRIPOS>BOND
  1   1   2  2   
  2   2   3  am  
  3   2   4  1   
  4   3   5  1   
  5   3  25  1   
  6   4   6  1   
  7   4  26  1   
  8   4  27  1   
  9   5   7  1   
 10   5   8  2   
 11   6   9  1   
 12   6  10  1   
 13   7  11  1   
 14   7  12  1   
 15   8  13  1   
 16   8  14  1   
 17   9  15  1   
 18   9  28  1   
 19   9  29  1   
 20  10  30  1   
 21  10  31  1   
 22  10  32  1   
 23  11  13  2   
 24  12  16  1   
 25  12  17  1   
 26  12  33  1   
 27  13  34  1   
 28  14  35  1   
 29  14  36  1   
 30  14  37  1   
 31  15  18  ar  
 32  15  19  ar  
 33  16  20  1   
 34  16  38  1   
 35  16  39  1   
 36  17  21  1   
 37  17  40  1   
 38  17  41  1   
 39  18  22  ar  
 40  18  42  1   
 41  19  23  ar  
 42  19  43  1   
 43  20  21  1   
 44  20  44  1   
 45  20  45  1   
 46  21  46  1   
 47  21  47  1   
 48  22  24  ar  
 49  22  48  1   
 50  23  24  ar  
 51  23  49  1   
@<TRIPOS>SUBSTRUCTURE
  1 ****   2 GROUP 4 **** **** 0

# MOE 2024.06 (io_trps.svl 2023.06)
