@<TRIPOS>MOLECULE
NONAME
34 36 1 0 0 
SMALL
USER_CHARGES


@<TRIPOS>ATOM
  1 F        1.8420     0.3310     2.3290 F     1 <1>  -0.1900 
  2 C        2.0830    -0.5720     1.4160 C.ar  1 <1>   0.1900 
  3 C        1.9920    -1.9040     1.7570 C.ar  1 <1>  -0.1500 
  4 C        2.4190    -0.1570     0.1440 C.ar  1 <1>  -0.1500 
  5 C        2.2450    -2.8820     0.7990 C.ar  1 <1>   0.0860 
  6 C        2.6730    -1.1200    -0.8160 C.ar  1 <1>  -0.1500 
  7 C        2.5900    -2.4690    -0.4970 C.ar  1 <1>  -0.1440 
  8 C        2.1410    -4.2800     1.1700 C.2   1 <1>   0.5440 
  9 C        2.8720    -3.5060    -1.5780 C.3   1 <1>  -0.0960 
 10 O        3.1020    -4.8390     1.6670 O.2   1 <1>  -0.5700 
 11 N        0.9740    -4.9680     0.9840 N.am  1 <1>  -0.6600 
 12 C       -0.2330    -4.4410     0.2860 C.3   1 <1>   0.2350 
 13 C        0.8290    -6.4370     1.1900 C.3   1 <1>   0.2350 
 14 C       -0.8410    -5.6380    -0.4180 C.3   1 <1>  -0.2420 
 15 C       -0.2030    -6.8790     0.1630 C.3   1 <1>  -0.2420 
 16 C       -2.2690    -5.3160    -0.8650 C.2   1 <1>   0.9470 
 17 C       -0.0070    -6.5430    -1.2920 C.3   1 <1>  -0.2000 
 18 C       -0.8070    -8.2320     0.5450 C.2   1 <1>   0.9470 
 19 O       -2.5600    -5.3850    -2.0680 O.co2 1 <1>  -0.9000 
 20 O       -3.0520    -4.8140    -0.0470 O.co2 1 <1>  -0.9000 
 21 O       -0.7020    -9.1890    -0.2360 O.co2 1 <1>  -0.9000 
 22 O       -1.2520    -8.3890     1.6900 O.co2 1 <1>  -0.9000 
 23 H        1.7260    -2.1930     2.7580 H     1 <1>   0.1500 
 24 H        2.4770     0.8920    -0.0850 H     1 <1>   0.1500 
 25 H        2.9350    -0.8120    -1.8140 H     1 <1>   0.1500 
 26 H        3.3010    -3.0510    -2.4520 H     1 <1>   0.0800 
 27 H        1.9580    -3.9960    -1.8630 H     1 <1>   0.0800 
 28 H        3.5600    -4.2490    -1.2130 H     1 <1>   0.0800 
 29 H       -0.9240    -4.0560     1.0170 H     1 <1>   0.0800 
 30 H        0.0100    -3.6710    -0.4230 H     1 <1>   0.0800 
 31 H        1.7630    -6.9490     1.0410 H     1 <1>   0.0800 
 32 H        0.4680    -6.6210     2.1870 H     1 <1>   0.0800 
 33 H        0.9600    -6.2280    -1.6310 H     1 <1>   0.1000 
 34 H       -0.5200    -7.1540    -2.0180 H     1 <1>   0.1000 
@<TRIPOS>BOND
  1   1   2  1   
  2   2   3  ar  
  3   2   4  ar  
  4   3   5  ar  
  5   3  23  1   
  6   4   6  ar  
  7   4  24  1   
  8   5   7  ar  
  9   5   8  1   
 10   6   7  ar  
 11   6  25  1   
 12   7   9  1   
 13   8  10  2   
 14   8  11  am  
 15   9  26  1   
 16   9  27  1   
 17   9  28  1   
 18  11  12  1   
 19  11  13  1   
 20  12  14  1   
 21  12  29  1   
 22  12  30  1   
 23  13  15  1   
 24  13  31  1   
 25  13  32  1   
 26  14  15  1   
 27  14  16  1   
 28  14  17  1   
 29  15  17  1   
 30  15  18  1   
 31  16  19  ar  
 32  16  20  ar  
 33  17  33  1   
 34  17  34  1   
 35  18  21  ar  
 36  18  22  ar  
@<TRIPOS>SUBSTRUCTURE
  1 ****  12 GROUP 4 **** **** 0

# MOE 2024.06 (io_trps.svl 2023.06)
