@<TRIPOS>MOLECULE
NONAME
50 52 1 0 0 
SMALL
USER_CHARGES


@<TRIPOS>ATOM
  1 F        0.4010     0.7530     0.7120 F     1 <1>  -0.1900 
  2 C        0.3890     2.0390     0.4880 C.ar  1 <1>   0.1900 
  3 C        1.5550     2.7450     0.5470 C.ar  1 <1>  -0.1500 
  4 C       -0.8340     2.6400     0.1960 C.ar  1 <1>  -0.1500 
  5 C        1.5510     4.1270     0.3080 C.ar  1 <1>   0.3100 
  6 C       -0.8600     3.9880    -0.0410 C.ar  1 <1>  -0.1500 
  7 N        2.7340     4.7760     0.3820 N.ar  1 <1>  -0.6200 
  8 C        0.3210     4.7660     0.0060 C.ar  1 <1>   0.0000 
  9 C        2.7360     6.0640     0.1710 C.ar  1 <1>   0.4100 
 10 C        0.3560     6.1570    -0.2350 C.ar  1 <1>  -0.1440 
 11 N        3.9410     6.7370     0.2650 N.pl3 1 <1>  -0.8380 
 12 C        1.5630     6.7780    -0.1500 C.ar  1 <1>  -0.1500 
 13 C       -0.9000     6.9440    -0.5830 C.3   1 <1>  -0.0970 
 14 C        4.0360     8.0160     1.0310 C.3   1 <1>   0.2090 
 15 C        5.2100     5.9850     0.0760 C.3   1 <1>   0.2090 
 16 C        4.3460     9.2040     0.1050 C.3   1 <1>   0.1100 
 17 C        6.4160     6.8870    -0.2180 C.3   1 <1>  -0.1600 
 18 N        5.7430     9.2560    -0.3950 N.3   1 <1>  -0.8100 
 19 C        6.1140     8.0550    -1.1620 C.3   1 <1>   0.1100 
 20 C        5.9330    10.4770    -1.2340 C.3   1 <1>   0.1710 
 21 C        5.6860    11.8270    -0.5350 C.2   1 <1>   0.5690 
 22 O        4.7730    12.5020    -0.9550 O.2   1 <1>  -0.5700 
 23 N        6.4710    12.2520     0.5170 N.am  1 <1>  -0.6600 
 24 C        6.2350    13.5580     1.1920 C.3   1 <1>   0.0600 
 25 C        7.5360    11.4210     1.1470 C.3   1 <1>   0.0600 
 26 H        2.4870     2.2640     0.7740 H     1 <1>   0.1500 
 27 H       -1.7220     2.0350     0.1640 H     1 <1>   0.1500 
 28 H       -1.7960     4.4640    -0.2680 H     1 <1>   0.1500 
 29 H        1.6610     7.8280    -0.3370 H     1 <1>   0.1500 
 30 H       -1.3380     6.5580    -1.4870 H     1 <1>   0.0800 
 31 H       -0.6710     7.9830    -0.7360 H     1 <1>   0.0800 
 32 H       -1.6160     6.8690     0.2160 H     1 <1>   0.0800 
 33 H        4.7930     7.9410     1.7920 H     1 <1>   0.0800 
 34 H        3.1010     8.1990     1.5290 H     1 <1>   0.0800 
 35 H        5.0760     5.3090    -0.7510 H     1 <1>   0.0800 
 36 H        5.4040     5.3930     0.9540 H     1 <1>   0.0800 
 37 H        4.1530    10.1000     0.6690 H     1 <1>   0.0800 
 38 H        3.6610     9.1880    -0.7250 H     1 <1>   0.0800 
 39 H        7.1660     6.2680    -0.6730 H     1 <1>   0.0800 
 40 H        6.8340     7.2570     0.7000 H     1 <1>   0.0800 
 41 H        5.3370     7.7940    -1.8630 H     1 <1>   0.0800 
 42 H        7.0110     8.2620    -1.7200 H     1 <1>   0.0800 
 43 H        5.2770    10.4220    -2.0850 H     1 <1>   0.0800 
 44 H        6.9400    10.4950    -1.6090 H     1 <1>   0.0800 
 45 H        5.4570    14.1130     0.6960 H     1 <1>   0.0800 
 46 H        7.1370    14.1450     1.1730 H     1 <1>   0.0800 
 47 H        5.9410    13.3910     2.2130 H     1 <1>   0.0800 
 48 H        7.8480    10.6240     0.4970 H     1 <1>   0.0800 
 49 H        7.1610    10.9910     2.0590 H     1 <1>   0.0800 
 50 H        8.3930    12.0320     1.3690 H     1 <1>   0.0800 
@<TRIPOS>BOND
  1   1   2  1   
  2   2   3  ar  
  3   2   4  ar  
  4   3   5  ar  
  5   3  26  1   
  6   4   6  ar  
  7   4  27  1   
  8   5   7  ar  
  9   5   8  ar  
 10   6   8  ar  
 11   6  28  1   
 12   7   9  ar  
 13   8  10  ar  
 14   9  11  1   
 15   9  12  ar  
 16  10  12  ar  
 17  10  13  1   
 18  11  14  1   
 19  11  15  1   
 20  12  29  1   
 21  13  30  1   
 22  13  31  1   
 23  13  32  1   
 24  14  16  1   
 25  14  33  1   
 26  14  34  1   
 27  15  17  1   
 28  15  35  1   
 29  15  36  1   
 30  16  18  1   
 31  16  37  1   
 32  16  38  1   
 33  17  19  1   
 34  17  39  1   
 35  17  40  1   
 36  18  19  1   
 37  18  20  1   
 38  19  41  1   
 39  19  42  1   
 40  20  21  1   
 41  20  43  1   
 42  20  44  1   
 43  21  22  2   
 44  21  23  am  
 45  23  24  1   
 46  23  25  1   
 47  24  45  1   
 48  24  46  1   
 49  24  47  1   
 50  25  48  1   
 51  25  49  1   
 52  25  50  1   
@<TRIPOS>SUBSTRUCTURE
  1 ****  11 GROUP 4 **** **** 0

# MOE 2024.06 (io_trps.svl 2023.06)
