@<TRIPOS>MOLECULE
NONAME
44 45 1 0 0 
SMALL
USER_CHARGES


@<TRIPOS>ATOM
  1 S       -2.3710    -0.1440     0.9580 S.3   1 <1>  -0.0800 
  2 C       -1.6270    -0.6290    -0.5680 C.2   1 <1>  -0.0450 
  3 C       -0.9830     0.8180     1.4210 C.2   1 <1>  -0.1400 
  4 C       -2.3600    -1.4820    -1.4650 C.2   1 <1>   0.7150 
  5 C       -0.4080    -0.0410    -0.6610 C.2   1 <1>  -0.1500 
  6 C       -0.0440     0.7630     0.4570 C.2   1 <1>  -0.1500 
  7 C       -1.0570     1.5240     2.7640 C.3   1 <1>   0.0200 
  8 O       -2.6390    -1.0710    -2.5760 O.2   1 <1>  -0.5700 
  9 N       -2.8050    -2.7470    -1.1230 N.am  1 <1>  -0.6600 
 10 C        0.2110     2.3280     3.0680 C.3   1 <1>  -0.2400 
 11 C       -2.3880    -3.4410     0.1260 C.3   1 <1>   0.3200 
 12 C       -3.5500    -3.5780    -2.1350 C.3   1 <1>   0.1400 
 13 C       -3.6500    -3.8170     0.8760 C.2   1 <1>  -0.3320 
 14 C       -4.8960    -2.9370    -2.5370 C.3   1 <1>   0.3430 
 15 N       -4.1130    -5.0790     1.0050 N.pl3 1 <1>   0.0330 
 16 C       -4.5280    -3.0230     1.5280 C.2   1 <1>   0.0770 
 17 N       -5.5970    -2.3880    -1.3350 N.4   1 <1>  -0.9590 
 18 C       -5.2700    -4.9580     1.6870 C.2   1 <1>   0.0360 
 19 N       -5.5660    -3.7380     1.9950 N.2   1 <1>  -0.5650 
 20 C       -6.8290    -3.1400    -0.9580 C.3   1 <1>   0.2630 
 21 C       -5.8580    -0.9250    -1.4860 C.3   1 <1>   0.2630 
 22 H        0.2570    -0.1460    -1.5020 H     1 <1>   0.1500 
 23 H        0.9070     1.2670     0.4840 H     1 <1>   0.1500 
 24 H       -1.2070     0.7920     3.5380 H     1 <1>   0.0800 
 25 H       -1.9050     2.1870     2.7640 H     1 <1>   0.0800 
 26 H        1.0670     1.6770     3.0920 H     1 <1>   0.0800 
 27 H        0.1200     2.8110     4.0240 H     1 <1>   0.0800 
 28 H        0.3630     3.0810     2.3150 H     1 <1>   0.0800 
 29 H       -1.7680    -2.8140     0.7430 H     1 <1>   0.0800 
 30 H       -1.8160    -4.3190    -0.1220 H     1 <1>   0.0800 
 31 H       -3.7340    -4.5630    -1.7450 H     1 <1>   0.0800 
 32 H       -2.9410    -3.6910    -3.0160 H     1 <1>   0.0800 
 33 H       -5.5130    -3.6610    -3.0420 H     1 <1>   0.0800 
 34 H       -4.6910    -2.1390    -3.2330 H     1 <1>   0.0800 
 35 H       -3.6810    -5.9560     0.6930 H     1 <1>   0.2700 
 36 H       -4.4810    -1.9570     1.6830 H     1 <1>   0.1500 
 37 H       -4.9170    -2.5040    -0.5590 H     1 <1>   0.4500 
 38 H       -5.8750    -5.8120     1.9460 H     1 <1>   0.1500 
 39 H       -7.5780    -3.0500    -1.7280 H     1 <1>   0.0800 
 40 H       -7.2290    -2.7540    -0.0340 H     1 <1>   0.0800 
 41 H       -6.5990    -4.1820    -0.8110 H     1 <1>   0.0800 
 42 H       -6.5580    -0.7500    -2.2860 H     1 <1>   0.0800 
 43 H       -4.9400    -0.4050    -1.7110 H     1 <1>   0.0800 
 44 H       -6.2660    -0.5230    -0.5730 H     1 <1>   0.0800 
@<TRIPOS>BOND
  1   1   2  1   
  2   1   3  1   
  3   2   4  1   
  4   2   5  2   
  5   3   6  2   
  6   3   7  1   
  7   4   8  2   
  8   4   9  am  
  9   5   6  1   
 10   5  22  1   
 11   6  23  1   
 12   7  10  1   
 13   7  24  1   
 14   7  25  1   
 15   9  11  1   
 16   9  12  1   
 17  10  26  1   
 18  10  27  1   
 19  10  28  1   
 20  11  13  1   
 21  11  29  1   
 22  11  30  1   
 23  12  14  1   
 24  12  31  1   
 25  12  32  1   
 26  13  15  1   
 27  13  16  2   
 28  14  17  1   
 29  14  33  1   
 30  14  34  1   
 31  15  18  1   
 32  15  35  1   
 33  16  19  1   
 34  16  36  1   
 35  17  20  1   
 36  17  21  1   
 37  17  37  1   
 38  18  19  2   
 39  18  38  1   
 40  20  39  1   
 41  20  40  1   
 42  20  41  1   
 43  21  42  1   
 44  21  43  1   
 45  21  44  1   
@<TRIPOS>SUBSTRUCTURE
  1 ****   9 GROUP 4 **** **** 0

# MOE 2024.06 (io_trps.svl 2023.06)
