@<TRIPOS>MOLECULE
NONAME
60 62 1 0 0 
SMALL
USER_CHARGES


@<TRIPOS>ATOM
  1 O        0.5920    -0.3360     1.8120 O.2   1 <1>  -0.5700 
  2 C        1.1530    -0.6090     0.7780 C.2   1 <1>   0.5690 
  3 N        1.8230     0.2980     0.0160 N.am  1 <1>  -0.4930 
  4 C        1.1250    -2.0530     0.2940 C.3   1 <1>  -0.0990 
  5 C        2.0320     1.6850     0.2320 C.2   1 <1>   0.0630 
  6 C       -0.1060    -2.8530     0.7750 C.3   1 <1>  -0.0800 
  7 C        1.1560     2.6690     0.7030 C.2   1 <1>   0.1080 
  8 C        3.1830     2.3450    -0.0270 C.2   1 <1>  -0.3320 
  9 C       -0.0050    -4.3310     0.3660 C.3   1 <1>  -0.1600 
 10 C       -1.4250    -2.2640     0.2430 C.3   1 <1>  -0.1600 
 11 N        1.7100     3.8400     0.7360 N.2   1 <1>  -0.7070 
 12 C       -0.2820     2.4750     1.1270 C.3   1 <1>  -0.0590 
 13 N        2.9620     3.6470     0.2910 N.pl3 1 <1>   0.3140 
 14 C        4.5070     1.8110    -0.5560 C.3   1 <1>  -0.0600 
 15 C       -1.2290    -5.1250     0.8250 C.3   1 <1>   0.3430 
 16 C       -2.6280    -3.0800     0.7150 C.3   1 <1>   0.3430 
 17 C        3.9120     4.7750     0.1980 C.3   1 <1>   0.0960 
 18 N       -2.4730    -4.4980     0.2840 N.4   1 <1>  -0.9590 
 19 C        3.8660     5.4210    -1.1940 C.3   1 <1>  -0.1600 
 20 C       -3.6790    -5.3020     0.6220 C.3   1 <1>   0.4860 
 21 C        4.8570     6.5850    -1.3040 C.3   1 <1>  -0.2400 
 22 C       -3.5640    -6.6510    -0.0600 C.ar  1 <1>  -0.1440 
 23 C       -3.2590    -7.7850     0.6800 C.ar  1 <1>  -0.1500 
 24 C       -3.7560    -6.7610    -1.4310 C.ar  1 <1>  -0.1500 
 25 C       -3.1330    -9.0120     0.0540 C.ar  1 <1>  -0.1500 
 26 C       -3.6300    -7.9900    -2.0540 C.ar  1 <1>  -0.1500 
 27 C       -3.3160    -9.1140    -1.3130 C.ar  1 <1>  -0.1500 
 28 H        2.3450    -0.0610    -0.7780 H     1 <1>   0.3700 
 29 H        2.0180    -2.5260     0.6620 H     1 <1>   0.0800 
 30 H        1.1640    -2.0650    -0.7800 H     1 <1>   0.0800 
 31 H       -0.1250    -2.8100     1.8540 H     1 <1>   0.0800 
 32 H        0.8720    -4.7680     0.8120 H     1 <1>   0.0800 
 33 H        0.0980    -4.4210    -0.7020 H     1 <1>   0.0800 
 34 H       -1.4150    -2.2240    -0.8320 H     1 <1>   0.0800 
 35 H       -1.5470    -1.2570     0.6020 H     1 <1>   0.0800 
 36 H       -0.7460     1.7150     0.5300 H     1 <1>   0.0800 
 37 H       -0.8240     3.3950     1.0050 H     1 <1>   0.0800 
 38 H       -0.3120     2.1870     2.1610 H     1 <1>   0.0800 
 39 H        4.4570     0.7490    -0.7100 H     1 <1>   0.0800 
 40 H        5.2930     2.0090     0.1510 H     1 <1>   0.0800 
 41 H        4.7510     2.2810    -1.4920 H     1 <1>   0.0800 
 42 H       -1.2650    -5.1380     1.9020 H     1 <1>   0.0800 
 43 H       -1.1450    -6.1430     0.4760 H     1 <1>   0.0800 
 44 H       -3.5300    -2.6600     0.3000 H     1 <1>   0.0800 
 45 H       -2.6920    -3.0280     1.7910 H     1 <1>   0.0800 
 46 H        4.8990     4.4160     0.4160 H     1 <1>   0.0800 
 47 H        3.6400     5.4980     0.9460 H     1 <1>   0.0800 
 48 H       -2.3900    -4.5210    -0.7390 H     1 <1>   0.4500 
 49 H        2.8690     5.7860    -1.3770 H     1 <1>   0.0800 
 50 H        4.1000     4.6850    -1.9430 H     1 <1>   0.0800 
 51 H       -4.5690    -4.8050     0.2720 H     1 <1>   0.0800 
 52 H       -3.7560    -5.4330     1.6890 H     1 <1>   0.0800 
 53 H        4.6260     7.3460    -0.5780 H     1 <1>   0.0800 
 54 H        4.8000     7.0240    -2.2850 H     1 <1>   0.0800 
 55 H        5.8640     6.2430    -1.1410 H     1 <1>   0.0800 
 56 H       -3.1180    -7.7320     1.7470 H     1 <1>   0.1500 
 57 H       -4.0100    -5.9030    -2.0290 H     1 <1>   0.1500 
 58 H       -2.8960    -9.8930     0.6280 H     1 <1>   0.1500 
 59 H       -3.7780    -8.0770    -3.1180 H     1 <1>   0.1500 
 60 H       -3.2190   -10.0710    -1.8000 H     1 <1>   0.1500 
@<TRIPOS>BOND
  1   1   2  2   
  2   2   3  am  
  3   2   4  1   
  4   3   5  1   
  5   3  28  1   
  6   4   6  1   
  7   4  29  1   
  8   4  30  1   
  9   5   7  1   
 10   5   8  2   
 11   6   9  1   
 12   6  10  1   
 13   6  31  1   
 14   7  11  2   
 15   7  12  1   
 16   8  13  1   
 17   8  14  1   
 18   9  15  1   
 19   9  32  1   
 20   9  33  1   
 21  10  16  1   
 22  10  34  1   
 23  10  35  1   
 24  11  13  1   
 25  12  36  1   
 26  12  37  1   
 27  12  38  1   
 28  13  17  1   
 29  14  39  1   
 30  14  40  1   
 31  14  41  1   
 32  15  18  1   
 33  15  42  1   
 34  15  43  1   
 35  16  18  1   
 36  16  44  1   
 37  16  45  1   
 38  17  19  1   
 39  17  46  1   
 40  17  47  1   
 41  18  20  1   
 42  18  48  1   
 43  19  21  1   
 44  19  49  1   
 45  19  50  1   
 46  20  22  1   
 47  20  51  1   
 48  20  52  1   
 49  21  53  1   
 50  21  54  1   
 51  21  55  1   
 52  22  23  ar  
 53  22  24  ar  
 54  23  25  ar  
 55  23  56  1   
 56  24  26  ar  
 57  24  57  1   
 58  25  27  ar  
 59  25  58  1   
 60  26  27  ar  
 61  26  59  1   
 62  27  60  1   
@<TRIPOS>SUBSTRUCTURE
  1 ****   4 GROUP 4 **** **** 0

# MOE 2024.06 (io_trps.svl 2023.06)
