@<TRIPOS>MOLECULE
NONAME
46 48 1 0 0 
SMALL
USER_CHARGES


@<TRIPOS>ATOM
  1 F        0.1170    -0.7110    -0.7100 F     1 <1>  -0.1900 
  2 C       -0.5970    -1.7940    -0.5270 C.ar  1 <1>   0.1900 
  3 C       -0.0680    -3.0740    -0.7260 C.ar  1 <1>   0.0820 
  4 C       -1.9040    -1.6070    -0.1220 C.ar  1 <1>  -0.1500 
  5 O        1.2000    -3.3860    -1.1230 O.3   1 <1>  -0.3630 
  6 C       -0.9050    -4.1560    -0.5020 C.ar  1 <1>  -0.1500 
  7 C       -2.7090    -2.7100     0.0940 C.ar  1 <1>  -0.1500 
  8 C        2.1610    -2.4100    -1.4600 C.3   1 <1>   0.0400 
  9 C       -2.2330    -4.0090    -0.0930 C.ar  1 <1>   0.0530 
 10 C       -3.0640    -5.1710     0.1270 C.2   1 <1>   0.0870 
 11 O       -2.5130    -6.3050     0.4860 O.3   1 <1>  -0.0190 
 12 C       -4.4000    -5.3980     0.0360 C.2   1 <1>  -0.2330 
 13 N       -3.3840    -7.2650     0.6410 N.2   1 <1>  -0.4100 
 14 C       -4.5370    -6.7510     0.3720 C.2   1 <1>   0.3720 
 15 C       -5.4350    -4.4870    -0.3300 C.2   1 <1>   1.0330 
 16 N       -5.7330    -7.4950     0.4450 N.pl3 1 <1>  -0.8210 
 17 O       -5.8730    -3.6570     0.4850 O.co2 1 <1>  -0.9000 
 18 O       -5.8950    -4.4840    -1.4860 O.co2 1 <1>  -0.9000 
 19 C       -5.6610    -8.9700     0.6450 C.3   1 <1>   0.2090 
 20 C       -6.7870    -7.1870    -0.5520 C.3   1 <1>   0.2090 
 21 C       -6.5990    -9.5800    -0.4000 C.3   1 <1>  -0.0800 
 22 C       -7.6070    -8.4610    -0.6780 C.3   1 <1>  -0.1600 
 23 C       -7.1930   -10.9560    -0.0160 C.3   1 <1>   0.2800 
 24 O       -7.8830   -10.8410     1.1650 O.3   1 <1>  -0.6800 
 25 C       -8.1940   -11.4620    -1.0560 C.3   1 <1>  -0.2400 
 26 C       -6.1060   -12.0060     0.2220 C.3   1 <1>  -0.2400 
 27 H       -2.2900    -0.6150     0.0250 H     1 <1>   0.1500 
 28 H       -0.5120    -5.1440    -0.6550 H     1 <1>   0.1500 
 29 H       -3.7230    -2.5560     0.4180 H     1 <1>   0.1500 
 30 H        3.0570    -2.9170    -1.7710 H     1 <1>   0.0800 
 31 H        2.3660    -1.8080    -0.5930 H     1 <1>   0.0800 
 32 H        1.7830    -1.8100    -2.2680 H     1 <1>   0.0800 
 33 H       -5.9960    -9.1900     1.6430 H     1 <1>   0.0800 
 34 H       -4.6630    -9.3530     0.5210 H     1 <1>   0.0800 
 35 H       -6.3290    -6.9450    -1.4980 H     1 <1>   0.0800 
 36 H       -7.3930    -6.3570    -0.2260 H     1 <1>   0.0800 
 37 H       -6.0140    -9.7130    -1.2940 H     1 <1>   0.0800 
 38 H       -8.0520    -8.5350    -1.6540 H     1 <1>   0.0800 
 39 H       -8.3810    -8.4360     0.0670 H     1 <1>   0.0800 
 40 H       -8.4550   -10.0530     1.1250 H     1 <1>   0.4000 
 41 H       -9.0190   -10.7830    -1.1650 H     1 <1>   0.0800 
 42 H       -8.5760   -12.4260    -0.7670 H     1 <1>   0.0800 
 43 H       -7.7100   -11.5640    -2.0100 H     1 <1>   0.0800 
 44 H       -5.4520   -11.7050     1.0200 H     1 <1>   0.0800 
 45 H       -5.5200   -12.1390    -0.6690 H     1 <1>   0.0800 
 46 H       -6.5500   -12.9510     0.4800 H     1 <1>   0.0800 
@<TRIPOS>BOND
  1   1   2  1   
  2   2   3  ar  
  3   2   4  ar  
  4   3   5  1   
  5   3   6  ar  
  6   4   7  ar  
  7   4  27  1   
  8   5   8  1   
  9   6   9  ar  
 10   6  28  1   
 11   7   9  ar  
 12   7  29  1   
 13   8  30  1   
 14   8  31  1   
 15   8  32  1   
 16   9  10  1   
 17  10  11  1   
 18  10  12  2   
 19  11  13  1   
 20  12  14  1   
 21  12  15  1   
 22  13  14  2   
 23  14  16  1   
 24  15  17  ar  
 25  15  18  ar  
 26  16  19  1   
 27  16  20  1   
 28  19  21  1   
 29  19  33  1   
 30  19  34  1   
 31  20  22  1   
 32  20  35  1   
 33  20  36  1   
 34  21  22  1   
 35  21  23  1   
 36  21  37  1   
 37  22  38  1   
 38  22  39  1   
 39  23  24  1   
 40  23  25  1   
 41  23  26  1   
 42  24  40  1   
 43  25  41  1   
 44  25  42  1   
 45  25  43  1   
 46  26  44  1   
 47  26  45  1   
 48  26  46  1   
@<TRIPOS>SUBSTRUCTURE
  1 ****  12 GROUP 4 **** **** 0

# MOE 2024.06 (io_trps.svl 2023.06)
