@<TRIPOS>MOLECULE
NONAME
55 58 1 0 0 
SMALL
USER_CHARGES


@<TRIPOS>ATOM
  1 O        1.9210     0.7590    -2.6980 O.2   1 <1>  -0.5700 
  2 C        2.3660     1.2290    -1.6740 C.2   1 <1>   0.7800 
  3 O        3.0020     2.3890    -1.6600 O.3   1 <1>  -0.4300 
  4 N        2.2940     0.6750    -0.4420 N.am  1 <1>  -0.6600 
  5 C        3.4160     2.7390    -0.3510 C.3   1 <1>   0.2800 
  6 C        2.9640     1.5450     0.5240 C.3   1 <1>   0.1400 
  7 C        1.6840    -0.6230    -0.0740 C.3   1 <1>   0.0600 
  8 C        4.9470     2.8470    -0.3660 C.3   1 <1>  -0.1600 
  9 C        2.6710     4.0320     0.0510 C.3   1 <1>  -0.1600 
 10 C        5.5000     4.0070    -1.1930 C.3   1 <1>   0.2090 
 11 C        2.8300     5.2130    -0.9290 C.3   1 <1>  -0.1600 
 12 N        5.3140     5.2830    -0.4510 N.pl3 1 <1>  -0.8380 
 13 C        4.0780     6.0730    -0.7010 C.3   1 <1>   0.2090 
 14 C        6.3540     5.7990     0.3120 C.ar  1 <1>   0.4100 
 15 N        7.1140     4.9190     0.9560 N.ar  1 <1>  -0.6200 
 16 C        6.5770     7.1700     0.3850 C.ar  1 <1>  -0.1500 
 17 C        8.0860     5.4140     1.6980 C.ar  1 <1>   0.1600 
 18 C        7.6040     7.6930     1.1460 C.ar  1 <1>   0.0860 
 19 C        8.3680     6.7570     1.8290 C.ar  1 <1>  -0.1500 
 20 C        7.8540     9.1170     1.2210 C.2   1 <1>   0.5440 
 21 O        6.9520     9.8500     1.5800 O.2   1 <1>  -0.5700 
 22 N        9.0790     9.6610     0.8900 N.am  1 <1>  -0.6600 
 23 C       10.1170     8.9430     0.0960 C.3   1 <1>   0.1400 
 24 C        9.3880    11.0980     1.1340 C.3   1 <1>   0.1400 
 25 C       10.3170     9.6490    -1.2490 C.3   1 <1>  -0.1600 
 26 C        9.5770    11.8210    -0.2040 C.3   1 <1>  -0.1600 
 27 C       10.6450    11.1370    -1.0690 C.3   1 <1>  -0.1600 
 28 H        3.8020     1.0370     0.9690 H     1 <1>   0.0800 
 29 H        2.2810     1.8510     1.2970 H     1 <1>   0.0800 
 30 H        1.2620    -1.0890    -0.9490 H     1 <1>   0.0800 
 31 H        0.9020    -0.4670     0.6490 H     1 <1>   0.0800 
 32 H        2.4330    -1.2740     0.3410 H     1 <1>   0.0800 
 33 H        5.3480     1.9310    -0.7600 H     1 <1>   0.0800 
 34 H        5.3110     2.9430     0.6410 H     1 <1>   0.0800 
 35 H        2.9930     4.3380     1.0320 H     1 <1>   0.0800 
 36 H        1.6230     3.7990     0.1200 H     1 <1>   0.0800 
 37 H        5.0250     4.0540    -2.1580 H     1 <1>   0.0800 
 38 H        6.5530     3.8490    -1.3570 H     1 <1>   0.0800 
 39 H        1.9780     5.8600    -0.8200 H     1 <1>   0.0800 
 40 H        2.8130     4.8680    -1.9480 H     1 <1>   0.0800 
 41 H        3.8990     6.7020     0.1550 H     1 <1>   0.0800 
 42 H        4.2330     6.7090    -1.5550 H     1 <1>   0.0800 
 43 H        5.9510     7.8470    -0.1610 H     1 <1>   0.1500 
 44 H        8.6930     4.7040     2.2340 H     1 <1>   0.1500 
 45 H        9.1740     7.0870     2.4570 H     1 <1>   0.1500 
 46 H        9.8320     7.9220    -0.0850 H     1 <1>   0.0800 
 47 H       11.0410     8.9410     0.6490 H     1 <1>   0.0800 
 48 H       10.2890    11.1680     1.7180 H     1 <1>   0.0800 
 49 H        8.5970    11.5710     1.6920 H     1 <1>   0.0800 
 50 H        9.4170     9.5450    -1.8310 H     1 <1>   0.0800 
 51 H       11.1130     9.1670    -1.7890 H     1 <1>   0.0800 
 52 H        9.8580    12.8420    -0.0190 H     1 <1>   0.0800 
 53 H        8.6350    11.8290    -0.7240 H     1 <1>   0.0800 
 54 H       10.6970    11.6190    -2.0300 H     1 <1>   0.0800 
 55 H       11.6060    11.2370    -0.5930 H     1 <1>   0.0800 
@<TRIPOS>BOND
  1   1   2  2   
  2   2   3  1   
  3   2   4  am  
  4   3   5  1   
  5   4   6  1   
  6   4   7  1   
  7   5   6  1   
  8   5   8  1   
  9   5   9  1   
 10   6  28  1   
 11   6  29  1   
 12   7  30  1   
 13   7  31  1   
 14   7  32  1   
 15   8  10  1   
 16   8  33  1   
 17   8  34  1   
 18   9  11  1   
 19   9  35  1   
 20   9  36  1   
 21  10  12  1   
 22  10  37  1   
 23  10  38  1   
 24  11  13  1   
 25  11  39  1   
 26  11  40  1   
 27  12  13  1   
 28  12  14  1   
 29  13  41  1   
 30  13  42  1   
 31  14  15  ar  
 32  14  16  ar  
 33  15  17  ar  
 34  16  18  ar  
 35  16  43  1   
 36  17  19  ar  
 37  17  44  1   
 38  18  19  ar  
 39  18  20  1   
 40  19  45  1   
 41  20  21  2   
 42  20  22  am  
 43  22  23  1   
 44  22  24  1   
 45  23  25  1   
 46  23  46  1   
 47  23  47  1   
 48  24  26  1   
 49  24  48  1   
 50  24  49  1   
 51  25  27  1   
 52  25  50  1   
 53  25  51  1   
 54  26  27  1   
 55  26  52  1   
 56  26  53  1   
 57  27  54  1   
 58  27  55  1   
@<TRIPOS>SUBSTRUCTURE
  1 ****  14 GROUP 4 **** **** 0

# MOE 2024.06 (io_trps.svl 2023.06)
