@<TRIPOS>MOLECULE
NONAME
33 34 1 0 0 
SMALL
USER_CHARGES


@<TRIPOS>ATOM
  1 O       -0.6250     0.4580     0.7800 O.2   1 <1>  -0.5700 
  2 C       -1.6310     0.7920     0.2120 C.2   1 <1>   0.4230 
  3 C       -2.8380     0.0140     0.2600 C.ar  1 <1>   0.0860 
  4 C       -1.5490     2.0530    -0.6270 C.3   1 <1>  -0.1790 
  5 C       -4.1320     0.5060     0.4250 C.ar  1 <1>   0.1660 
  6 C       -2.7520    -1.3630     0.1320 C.ar  1 <1>   0.1600 
  7 N       -5.1860    -0.2700     0.3950 N.ar  1 <1>  -0.6200 
  8 C       -4.4280     1.9740     0.6820 C.3   1 <1>  -0.0960 
  9 N       -3.7890    -2.1610     0.1080 N.ar  1 <1>  -0.6200 
 10 C       -4.9700    -1.5670     0.2300 C.ar  1 <1>   0.7200 
 11 N       -6.0780    -2.3280     0.1930 N.pl3 1 <1>  -0.8690 
 12 C       -6.1290    -3.7970     0.1050 C.3   1 <1>   0.2090 
 13 C       -7.5870    -4.2500     0.1220 C.3   1 <1>  -0.1600 
 14 C       -7.6960    -5.7800     0.0290 C.3   1 <1>   0.0080 
 15 C       -9.1360    -6.2390     0.0550 C.2   1 <1>   0.5700 
 16 N       -9.7720    -6.5030     1.1380 N.2   1 <1>  -0.6190 
 17 N       -9.8460    -6.4040    -1.0070 N.2   1 <1>  -0.6190 
 18 N      -10.9490    -6.8560     0.7530 N.2   1 <1>  -0.2500 
 19 N      -10.9950    -6.7960    -0.5490 N.2   1 <1>  -0.2500 
 20 H       -2.3300     2.0750    -1.3640 H     1 <1>   0.0800 
 21 H       -0.6020     2.0790    -1.1340 H     1 <1>   0.0800 
 22 H       -1.6200     2.9180     0.0060 H     1 <1>   0.0800 
 23 H       -1.7750    -1.8090     0.0400 H     1 <1>   0.1500 
 24 H       -3.6570     2.4240     1.2790 H     1 <1>   0.0800 
 25 H       -5.3560     2.0730     1.2180 H     1 <1>   0.0800 
 26 H       -4.5200     2.5000    -0.2500 H     1 <1>   0.0800 
 27 H       -6.9590    -1.8380     0.3330 H     1 <1>   0.4000 
 28 H       -5.5970    -4.2210     0.9400 H     1 <1>   0.0800 
 29 H       -5.6500    -4.1140    -0.8070 H     1 <1>   0.0800 
 30 H       -8.1130    -3.8170    -0.7110 H     1 <1>   0.0800 
 31 H       -8.0580    -3.9280     1.0340 H     1 <1>   0.0800 
 32 H       -7.1870    -6.2410     0.8540 H     1 <1>   0.0800 
 33 H       -7.2530    -6.1300    -0.8850 H     1 <1>   0.0800 
@<TRIPOS>BOND
  1   1   2  2   
  2   2   3  1   
  3   2   4  1   
  4   3   5  ar  
  5   3   6  ar  
  6   4  20  1   
  7   4  21  1   
  8   4  22  1   
  9   5   7  ar  
 10   5   8  1   
 11   6   9  ar  
 12   6  23  1   
 13   7  10  ar  
 14   8  24  1   
 15   8  25  1   
 16   8  26  1   
 17   9  10  ar  
 18  10  11  1   
 19  11  12  1   
 20  11  27  1   
 21  12  13  1   
 22  12  28  1   
 23  12  29  1   
 24  13  14  1   
 25  13  30  1   
 26  13  31  1   
 27  14  15  1   
 28  14  32  1   
 29  14  33  1   
 30  15  16  1   
 31  15  17  2   
 32  16  18  1   
 33  17  19  1   
 34  18  19  2   
@<TRIPOS>SUBSTRUCTURE
  1 ****  11 GROUP 4 **** **** 0

# MOE 2024.06 (io_trps.svl 2023.06)
