@<TRIPOS>MOLECULE
NONAME
46 48 1 0 0 
SMALL
USER_CHARGES


@<TRIPOS>ATOM
  1 F       -2.2410    -1.1110    -2.7640 F     1 <1>  -0.1900 
  2 C       -2.3970    -1.2640    -1.4740 C.ar  1 <1>   0.1900 
  3 C       -2.3800    -0.1450    -0.6460 C.ar  1 <1>   0.0860 
  4 C       -2.5580    -2.5410    -0.9640 C.ar  1 <1>   0.1900 
  5 C       -2.5380    -0.3780     0.7290 C.ar  1 <1>   0.0830 
  6 C       -2.1990     1.1760    -1.1900 C.2   1 <1>   0.5440 
  7 F       -2.5690    -3.5770    -1.7650 F     1 <1>  -0.1900 
  8 C       -2.7020    -2.7590     0.3930 C.ar  1 <1>  -0.1500 
  9 O       -2.5210     0.6350     1.6190 O.3   1 <1>  -0.3630 
 10 C       -2.6870    -1.6630     1.2380 C.ar  1 <1>  -0.1500 
 11 O       -3.1520     1.7290    -1.7080 O.2   1 <1>  -0.5700 
 12 N       -0.9930     1.8470    -1.1080 N.am  1 <1>  -0.6600 
 13 C       -3.6570     1.4730     1.6790 C.3   1 <1>   0.0400 
 14 C        0.1940     1.3170    -0.3680 C.3   1 <1>   0.1400 
 15 C       -0.8420     3.2230    -1.6560 C.3   1 <1>   0.1400 
 16 C        0.5050     2.1590     0.8760 C.3   1 <1>   0.1400 
 17 C       -1.0950     4.2460    -0.5410 C.3   1 <1>  -0.1600 
 18 N        1.0970     3.4790     0.4940 N.am  1 <1>  -0.6600 
 19 C        0.1320     4.6050     0.3120 C.3   1 <1>   0.1400 
 20 C        2.4560     3.5720     0.3030 C.2   1 <1>   0.5770 
 21 O        3.1580     2.5890     0.3380 O.2   1 <1>  -0.5700 
 22 C        3.1260     4.9190     0.0410 C.3   1 <1>   0.0530 
 23 C        4.6870     4.9410     0.0880 C.3   1 <1>   0.0530 
 24 C        3.1150     5.8760     1.2680 C.3   1 <1>   0.0530 
 25 C        4.5410     6.2470     0.8660 C.2   1 <1>   0.4640 
 26 O        5.2370     7.2000     1.0500 O.2   1 <1>  -0.5700 
 27 H       -2.8220    -3.7590     0.7720 H     1 <1>   0.1500 
 28 H       -2.7930    -1.7970     2.3010 H     1 <1>   0.1500 
 29 H       -3.5620     2.1070     2.5420 H     1 <1>   0.0800 
 30 H       -4.5390     0.8620     1.7670 H     1 <1>   0.0800 
 31 H       -3.7090     2.0760     0.7900 H     1 <1>   0.0800 
 32 H        1.0520     1.3080    -1.0190 H     1 <1>   0.0800 
 33 H        0.0220     0.3040    -0.0570 H     1 <1>   0.0800 
 34 H       -1.5590     3.3730    -2.4460 H     1 <1>   0.0800 
 35 H        0.1390     3.3490    -2.0810 H     1 <1>   0.0800 
 36 H        1.2080     1.6210     1.4880 H     1 <1>   0.0800 
 37 H       -0.3880     2.2990     1.4600 H     1 <1>   0.0800 
 38 H       -1.8900     3.8920     0.0910 H     1 <1>   0.0800 
 39 H       -1.4510     5.1540    -0.9930 H     1 <1>   0.0800 
 40 H       -0.1980     4.9410     1.2810 H     1 <1>   0.0800 
 41 H        0.6240     5.4320    -0.1640 H     1 <1>   0.0800 
 42 H        2.7650     5.4030    -0.8510 H     1 <1>   0.0000 
 43 H        5.1450     5.0630    -0.8770 H     1 <1>   0.0000 
 44 H        5.1350     4.1710     0.6920 H     1 <1>   0.0000 
 45 H        3.0760     5.3650     2.2150 H     1 <1>   0.0000 
 46 H        2.4140     6.6860     1.1770 H     1 <1>   0.0000 
@<TRIPOS>BOND
  1   1   2  1   
  2   2   3  ar  
  3   2   4  ar  
  4   3   5  ar  
  5   3   6  1   
  6   4   7  1   
  7   4   8  ar  
  8   5   9  1   
  9   5  10  ar  
 10   6  11  2   
 11   6  12  am  
 12   8  10  ar  
 13   8  27  1   
 14   9  13  1   
 15  10  28  1   
 16  12  14  1   
 17  12  15  1   
 18  13  29  1   
 19  13  30  1   
 20  13  31  1   
 21  14  16  1   
 22  14  32  1   
 23  14  33  1   
 24  15  17  1   
 25  15  34  1   
 26  15  35  1   
 27  16  18  1   
 28  16  36  1   
 29  16  37  1   
 30  17  19  1   
 31  17  38  1   
 32  17  39  1   
 33  18  19  1   
 34  18  20  am  
 35  19  40  1   
 36  19  41  1   
 37  20  21  2   
 38  20  22  1   
 39  22  23  1   
 40  22  24  1   
 41  22  42  1   
 42  23  25  1   
 43  23  43  1   
 44  23  44  1   
 45  24  25  1   
 46  24  45  1   
 47  24  46  1   
 48  25  26  2   
@<TRIPOS>SUBSTRUCTURE
  1 ****  14 GROUP 4 **** **** 0

# MOE 2024.06 (io_trps.svl 2023.06)
