@<TRIPOS>MOLECULE
NONAME
43 45 1 0 0 
SMALL
USER_CHARGES


@<TRIPOS>ATOM
  1 O        0.4030     0.5070     0.8260 O.3   1 <1>  -0.0190 
  2 N        1.1890    -0.4880     0.5320 N.2   1 <1>  -0.4100 
  3 C        0.7950     1.6230     0.2710 C.2   1 <1>  -0.0400 
  4 C        2.1050    -0.0050    -0.2270 C.2   1 <1>   0.1080 
  5 C        1.9050     1.3560    -0.4370 C.2   1 <1>  -0.1500 
  6 C       -0.0190     2.8830     0.5160 C.3   1 <1>   0.0200 
  7 C        3.2430    -0.8130    -0.8080 C.3   1 <1>  -0.0590 
  8 C        0.6090     4.1430    -0.1080 C.3   1 <1>  -0.0800 
  9 C       -0.2570     5.4040    -0.0210 C.3   1 <1>   0.2000 
 10 C        1.9400     4.5590     0.5310 C.3   1 <1>   0.2090 
 11 O       -0.7660     5.5220     1.2640 O.3   1 <1>  -0.6800 
 12 C        0.7450     6.5360    -0.2380 C.3   1 <1>   0.2090 
 13 N        1.9980     6.0360     0.3840 N.pl3 1 <1>  -0.8380 
 14 C        3.1860     6.7260     0.2920 C.ar  1 <1>   0.7200 
 15 N        3.1130     7.9670    -0.1640 N.ar  1 <1>  -0.6200 
 16 N        4.2770     6.0780     0.6710 N.ar  1 <1>  -0.6200 
 17 C        4.2460     8.6160    -0.2380 C.ar  1 <1>   0.3930 
 18 C        5.3970     6.7480     0.5870 C.ar  1 <1>   0.3930 
 19 O        4.1440     9.8780    -0.7030 O.3   1 <1>  -0.3630 
 20 C        5.4430     8.0470     0.1330 C.ar  1 <1>  -0.1500 
 21 O        6.4930     6.0670     0.9790 O.3   1 <1>  -0.3630 
 22 C        5.2460    10.7490    -0.8170 C.3   1 <1>   0.0400 
 23 C        7.7830     6.6380     1.0150 C.3   1 <1>   0.0400 
 24 H        2.5240     1.9980    -1.0360 H     1 <1>   0.1500 
 25 H       -1.0020     2.7360     0.1050 H     1 <1>   0.0800 
 26 H       -0.1290     3.0150     1.5780 H     1 <1>   0.0800 
 27 H        4.1830    -0.4030    -0.4860 H     1 <1>   0.0800 
 28 H        3.1950    -0.7920    -1.8810 H     1 <1>   0.0800 
 29 H        3.1760    -1.8330    -0.4760 H     1 <1>   0.0800 
 30 H        0.7940     3.9520    -1.1500 H     1 <1>   0.0800 
 31 H       -1.0750     5.4180    -0.7210 H     1 <1>   0.0800 
 32 H        2.7740     4.0850     0.0420 H     1 <1>   0.0800 
 33 H        1.9600     4.3130     1.5790 H     1 <1>   0.0800 
 34 H       -0.0240     5.7700     1.8550 H     1 <1>   0.4000 
 35 H        0.4180     7.4580     0.2130 H     1 <1>   0.0800 
 36 H        0.9110     6.6920    -1.2900 H     1 <1>   0.0800 
 37 H        6.3620     8.5850     0.0680 H     1 <1>   0.1500 
 38 H        4.8880    11.6900    -1.1950 H     1 <1>   0.0800 
 39 H        5.9570    10.3280    -1.5050 H     1 <1>   0.0800 
 40 H        5.6830    10.8910     0.1560 H     1 <1>   0.0800 
 41 H        8.4650     5.8920     1.3840 H     1 <1>   0.0800 
 42 H        7.7740     7.4830     1.6810 H     1 <1>   0.0800 
 43 H        8.0660     6.9290     0.0200 H     1 <1>   0.0800 
@<TRIPOS>BOND
  1   1   2  1   
  2   1   3  1   
  3   2   4  2   
  4   3   5  2   
  5   3   6  1   
  6   4   5  1   
  7   4   7  1   
  8   5  24  1   
  9   6   8  1   
 10   6  25  1   
 11   6  26  1   
 12   7  27  1   
 13   7  28  1   
 14   7  29  1   
 15   8   9  1   
 16   8  10  1   
 17   8  30  1   
 18   9  11  1   
 19   9  12  1   
 20   9  31  1   
 21  10  13  1   
 22  10  32  1   
 23  10  33  1   
 24  11  34  1   
 25  12  13  1   
 26  12  35  1   
 27  12  36  1   
 28  13  14  1   
 29  14  15  ar  
 30  14  16  ar  
 31  15  17  ar  
 32  16  18  ar  
 33  17  19  1   
 34  17  20  ar  
 35  18  20  ar  
 36  18  21  1   
 37  19  22  1   
 38  20  37  1   
 39  21  23  1   
 40  22  38  1   
 41  22  39  1   
 42  22  40  1   
 43  23  41  1   
 44  23  42  1   
 45  23  43  1   
@<TRIPOS>SUBSTRUCTURE
  1 ****  10 GROUP 4 **** **** 0

# MOE 2024.06 (io_trps.svl 2023.06)
