@<TRIPOS>MOLECULE
NONAME
49 51 1 0 0 
SMALL
USER_CHARGES


@<TRIPOS>ATOM
  1 O        0.3400    -0.6580    -0.5640 O.2   1 <1>  -0.5700 
  2 C        1.0820    -1.5400    -0.2210 C.2   1 <1>   0.5690 
  3 N        0.7020    -2.4770     0.6710 N.am  1 <1>  -0.7300 
  4 C        2.4860    -1.6330    -0.7750 C.3   1 <1>  -0.0990 
  5 C        1.5980    -3.5370     1.1730 C.3   1 <1>   0.1400 
  6 C        2.8340    -3.0990    -1.1040 C.3   1 <1>  -0.0800 
  7 C        2.4600    -4.0990     0.0190 C.3   1 <1>  -0.0800 
  8 C        4.3280    -3.3000    -1.3990 C.3   1 <1>  -0.1600 
  9 C        3.7890    -4.6950     0.5000 C.3   1 <1>  -0.1600 
 10 C        4.6910    -4.6200    -0.7300 C.3   1 <1>   0.4230 
 11 N        6.1550    -4.7800    -0.4730 N.4   1 <1>  -0.9590 
 12 C        6.7300    -4.2070     0.7830 C.3   1 <1>   0.4860 
 13 C        6.5660    -6.2050    -0.6200 C.3   1 <1>   0.2630 
 14 C        6.7810    -2.6970     0.6910 C.ar  1 <1>  -0.1440 
 15 C        7.5060    -2.0830    -0.3260 C.ar  1 <1>   0.0820 
 16 C        6.1010    -1.9210     1.6170 C.ar  1 <1>  -0.1500 
 17 O        8.1540    -2.8890    -1.2110 O.3   1 <1>  -0.3620 
 18 C        7.5290    -0.6940    -0.4110 C.ar  1 <1>  -0.1500 
 19 C        6.1290    -0.5420     1.5230 C.ar  1 <1>  -0.1500 
 20 C        9.0900    -2.3570    -2.1290 C.3   1 <1>   0.0400 
 21 C        6.8380     0.0770     0.5090 C.ar  1 <1>  -0.1440 
 22 C        6.8570     1.5930     0.4190 C.3   1 <1>  -0.0970 
 23 H       -0.2340    -2.3870     1.0730 H     1 <1>   0.3700 
 24 H        2.5610    -1.0250    -1.6590 H     1 <1>   0.0800 
 25 H        3.1560    -1.2370    -0.0350 H     1 <1>   0.0800 
 26 H        2.2220    -3.1070     1.9380 H     1 <1>   0.0800 
 27 H        1.0140    -4.3260     1.6170 H     1 <1>   0.0800 
 28 H        2.2660    -3.3720    -1.9800 H     1 <1>   0.0800 
 29 H        1.8910    -4.8920    -0.4400 H     1 <1>   0.0800 
 30 H        4.8810    -2.4810    -0.9850 H     1 <1>   0.0800 
 31 H        4.5060    -3.3400    -2.4590 H     1 <1>   0.0800 
 32 H        3.6620    -5.7060     0.8450 H     1 <1>   0.0800 
 33 H        4.1650    -4.0790     1.2930 H     1 <1>   0.0800 
 34 H        4.3740    -5.3990    -1.4060 H     1 <1>   0.0800 
 35 H        6.6410    -4.2280    -1.2030 H     1 <1>   0.4500 
 36 H        6.1580    -4.5170     1.6410 H     1 <1>   0.0800 
 37 H        7.7400    -4.5620     0.9100 H     1 <1>   0.0800 
 38 H        6.1070    -6.8090     0.1460 H     1 <1>   0.0800 
 39 H        7.6380    -6.2960    -0.5380 H     1 <1>   0.0800 
 40 H        6.2660    -6.5830    -1.5840 H     1 <1>   0.0800 
 41 H        5.5450    -2.3720     2.4220 H     1 <1>   0.1500 
 42 H        8.0770    -0.1930    -1.1870 H     1 <1>   0.1500 
 43 H        5.5970     0.0550     2.2460 H     1 <1>   0.1500 
 44 H        9.5520    -3.1720    -2.6560 H     1 <1>   0.0800 
 45 H        9.8400    -1.8060    -1.5860 H     1 <1>   0.0800 
 46 H        8.5770    -1.7180    -2.8260 H     1 <1>   0.0800 
 47 H        5.8800     1.9910     0.6250 H     1 <1>   0.0800 
 48 H        7.1520     1.9170    -0.5630 H     1 <1>   0.0800 
 49 H        7.5520     1.9920     1.1370 H     1 <1>   0.0800 
@<TRIPOS>BOND
  1   1   2  2   
  2   2   3  am  
  3   2   4  1   
  4   3   5  1   
  5   3  23  1   
  6   4   6  1   
  7   4  24  1   
  8   4  25  1   
  9   5   7  1   
 10   5  26  1   
 11   5  27  1   
 12   6   7  1   
 13   6   8  1   
 14   6  28  1   
 15   7   9  1   
 16   7  29  1   
 17   8  10  1   
 18   8  30  1   
 19   8  31  1   
 20   9  10  1   
 21   9  32  1   
 22   9  33  1   
 23  10  11  1   
 24  10  34  1   
 25  11  12  1   
 26  11  13  1   
 27  11  35  1   
 28  12  14  1   
 29  12  36  1   
 30  12  37  1   
 31  13  38  1   
 32  13  39  1   
 33  13  40  1   
 34  14  15  ar  
 35  14  16  ar  
 36  15  17  1   
 37  15  18  ar  
 38  16  19  ar  
 39  16  41  1   
 40  17  20  1   
 41  18  21  ar  
 42  18  42  1   
 43  19  21  ar  
 44  19  43  1   
 45  20  44  1   
 46  20  45  1   
 47  20  46  1   
 48  21  22  1   
 49  22  47  1   
 50  22  48  1   
 51  22  49  1   
@<TRIPOS>SUBSTRUCTURE
  1 ****   8 GROUP 4 **** **** 0

# MOE 2024.06 (io_trps.svl 2023.06)
