@<TRIPOS>MOLECULE
NONAME
52 55 1 0 0 
SMALL
USER_CHARGES


@<TRIPOS>ATOM
  1 CL       0.6110     1.3060    -1.8030 Cl    1 <1>  -0.1770 
  2 C        1.9510     1.5000    -0.6870 C.ar  1 <1>   0.1770 
  3 C        2.6000     0.3830    -0.1460 C.ar  1 <1>   0.1000 
  4 C        2.3330     2.7900    -0.3870 C.ar  1 <1>  -0.1500 
  5 N        2.2190    -0.9280    -0.4500 N.pl3 1 <1>  -0.8380 
  6 C        3.6540     0.6420     0.7280 C.ar  1 <1>  -0.1500 
  7 C        3.4020     3.0440     0.4700 C.ar  1 <1>   0.0860 
  8 C        0.8650    -1.4060    -0.0800 C.3   1 <1>   0.2090 
  9 C        3.1610    -2.0700    -0.5510 C.3   1 <1>   0.2090 
 10 C        4.0420     1.9350     1.0270 C.ar  1 <1>  -0.1500 
 11 C        3.8190     4.4010     0.7650 C.2   1 <1>   0.5440 
 12 C        1.0560    -2.8660     0.3070 C.3   1 <1>  -0.1600 
 13 C        2.2790    -3.3100    -0.4890 C.3   1 <1>  -0.1600 
 14 O        2.9980     5.2980     0.8330 O.2   1 <1>  -0.5700 
 15 N        5.1420     4.7500     0.9300 N.am  1 <1>  -0.6600 
 16 C        5.5240     5.8740     1.8490 C.3   1 <1>   0.1400 
 17 C        6.2230     4.1850     0.0710 C.3   1 <1>   0.1400 
 18 C        6.1320     7.1430     1.1840 C.3   1 <1>   0.4230 
 19 C        6.7350     5.2280    -0.9460 C.3   1 <1>  -0.0800 
 20 N        5.6640     7.4620    -0.2240 N.4   1 <1>  -0.9590 
 21 C        7.6750     7.1500     1.2660 C.3   1 <1>   0.1200 
 22 C        8.1370     5.7610    -0.6110 C.3   1 <1>   0.1200 
 23 C        5.7000     6.3350    -1.2190 C.3   1 <1>   0.3430 
 24 C        4.2780     8.0270    -0.1860 C.3   1 <1>   0.2630 
 25 O        8.2610     5.9940     0.7540 O.3   1 <1>  -0.5600 
 26 H        1.7940     3.6110    -0.8250 H     1 <1>   0.1500 
 27 H        4.1700    -0.1770     1.1900 H     1 <1>   0.1500 
 28 H        0.4530    -0.8280     0.7310 H     1 <1>   0.0800 
 29 H        0.2210    -1.3310    -0.9400 H     1 <1>   0.0800 
 30 H        3.7130    -2.0250    -1.4750 H     1 <1>   0.0800 
 31 H        3.8430    -2.0710     0.2800 H     1 <1>   0.0800 
 32 H        4.8550     2.0910     1.7150 H     1 <1>   0.1500 
 33 H        1.2630    -2.9220     1.3610 H     1 <1>   0.0800 
 34 H        0.1840    -3.4550     0.0860 H     1 <1>   0.0800 
 35 H        1.9860    -3.5780    -1.4900 H     1 <1>   0.0800 
 36 H        2.7870    -4.1420    -0.0360 H     1 <1>   0.0800 
 37 H        4.6530     6.1800     2.4020 H     1 <1>   0.0800 
 38 H        6.2180     5.4940     2.5780 H     1 <1>   0.0800 
 39 H        7.0260     3.8210     0.6920 H     1 <1>   0.0800 
 40 H        5.8390     3.3400    -0.4750 H     1 <1>   0.0800 
 41 H        5.8290     7.9680     1.8060 H     1 <1>   0.0800 
 42 H        6.8450     4.7010    -1.8770 H     1 <1>   0.0800 
 43 H        6.2910     8.1940    -0.5790 H     1 <1>   0.4500 
 44 H        7.9670     7.2030     2.3000 H     1 <1>   0.0800 
 45 H        8.0930     8.0050     0.7640 H     1 <1>   0.0800 
 46 H        8.3820     6.6570    -1.1560 H     1 <1>   0.0800 
 47 H        8.8690     5.0090    -0.8560 H     1 <1>   0.0800 
 48 H        4.7280     5.8690    -1.2550 H     1 <1>   0.0800 
 49 H        5.8860     6.7460    -2.1970 H     1 <1>   0.0800 
 50 H        3.5830     7.3000     0.1980 H     1 <1>   0.0800 
 51 H        3.9590     8.3110    -1.1760 H     1 <1>   0.0800 
 52 H        4.2420     8.8980     0.4480 H     1 <1>   0.0800 
@<TRIPOS>BOND
  1   1   2  1   
  2   2   3  ar  
  3   2   4  ar  
  4   3   5  1   
  5   3   6  ar  
  6   4   7  ar  
  7   4  26  1   
  8   5   8  1   
  9   5   9  1   
 10   6  10  ar  
 11   6  27  1   
 12   7  10  ar  
 13   7  11  1   
 14   8  12  1   
 15   8  28  1   
 16   8  29  1   
 17   9  13  1   
 18   9  30  1   
 19   9  31  1   
 20  10  32  1   
 21  11  14  2   
 22  11  15  am  
 23  12  13  1   
 24  12  33  1   
 25  12  34  1   
 26  13  35  1   
 27  13  36  1   
 28  15  16  1   
 29  15  17  1   
 30  16  18  1   
 31  16  37  1   
 32  16  38  1   
 33  17  19  1   
 34  17  39  1   
 35  17  40  1   
 36  18  20  1   
 37  18  21  1   
 38  18  41  1   
 39  19  22  1   
 40  19  23  1   
 41  19  42  1   
 42  20  23  1   
 43  20  24  1   
 44  20  43  1   
 45  21  25  1   
 46  21  44  1   
 47  21  45  1   
 48  22  25  1   
 49  22  46  1   
 50  22  47  1   
 51  23  48  1   
 52  23  49  1   
 53  24  50  1   
 54  24  51  1   
 55  24  52  1   
@<TRIPOS>SUBSTRUCTURE
  1 ****   7 GROUP 4 **** **** 0

# MOE 2024.06 (io_trps.svl 2023.06)
