@<TRIPOS>MOLECULE
NONAME
48 51 1 0 0 
SMALL
USER_CHARGES


@<TRIPOS>ATOM
  1 O        0.4760     0.2700     0.2940 O.2   1 <1>  -0.5700 
  2 C        1.2500     0.9960    -0.3010 C.2   1 <1>   0.5440 
  3 N        1.1110     2.3630    -0.1920 N.am  1 <1>  -0.6600 
  4 C        2.3020     0.3940    -1.1020 C.ar  1 <1>   0.0860 
  5 C       -0.1820     2.9620     0.2960 C.3   1 <1>   0.2200 
  6 C        2.3160     3.2510    -0.1480 C.3   1 <1>   0.1400 
  7 C        2.9490    -0.7690    -0.7120 C.ar  1 <1>  -0.1500 
  8 C        2.7300     0.9200    -2.3130 C.ar  1 <1>  -0.1500 
  9 C       -0.1170     4.4970     0.5710 C.3   1 <1>   0.1380 
 10 C       -1.3900     2.5490    -0.5660 C.3   1 <1>  -0.1600 
 11 C        2.3690     4.1070     1.1300 C.3   1 <1>  -0.1600 
 12 C        3.9490    -1.3110    -1.4960 C.ar  1 <1>   0.1600 
 13 C        3.7400     0.3030    -3.0260 C.ar  1 <1>   0.1600 
 14 C        0.1700     5.4200    -0.6560 C.2   1 <1>  -0.2760 
 15 C       -1.4850     4.9100     1.1950 C.3   1 <1>   0.1200 
 16 C        1.0100     4.6540     1.6190 C.3   1 <1>  -0.1600 
 17 C       -2.5390     3.5520    -0.4240 C.3   1 <1>   0.1200 
 18 N        4.3640    -0.7990    -2.6430 N.ar  1 <1>  -0.6200 
 19 C        0.2130     5.0540    -1.9450 C.2   1 <1>  -0.2880 
 20 C        0.4490     6.8950    -0.3380 C.3   1 <1>  -0.0220 
 21 O       -2.5400     4.0370     0.8800 O.3   1 <1>  -0.5600 
 22 C        0.5150     5.9970    -3.1040 C.3   1 <1>   0.2580 
 23 C        0.3160     7.7750    -1.5890 C.3   1 <1>   0.1200 
 24 O        1.0390     7.2030    -2.6330 O.3   1 <1>  -0.5600 
 25 H       -0.3670     2.5110     1.2570 H     1 <1>   0.0800 
 26 H        3.2170     2.6650    -0.2010 H     1 <1>   0.0800 
 27 H        2.3060     3.8940    -1.0090 H     1 <1>   0.0800 
 28 H        2.6640    -1.2480     0.2080 H     1 <1>   0.1500 
 29 H        2.2690     1.8110    -2.6990 H     1 <1>   0.1500 
 30 H       -1.7400     1.5920    -0.2240 H     1 <1>   0.0800 
 31 H       -1.1300     2.4380    -1.5990 H     1 <1>   0.0800 
 32 H        2.8100     3.5200     1.9170 H     1 <1>   0.0800 
 33 H        3.0350     4.9310     0.9450 H     1 <1>   0.0800 
 34 H        4.4330    -2.2140    -1.1650 H     1 <1>   0.1500 
 35 H        4.0540     0.7350    -3.9610 H     1 <1>   0.1500 
 36 H       -1.7840     5.8880     0.8690 H     1 <1>   0.0800 
 37 H       -1.4190     4.9260     2.2680 H     1 <1>   0.0800 
 38 H        1.1150     5.6740     1.9380 H     1 <1>   0.0800 
 39 H        0.7340     4.0930     2.4960 H     1 <1>   0.0800 
 40 H       -3.4860     3.0740    -0.6070 H     1 <1>   0.0800 
 41 H       -2.4280     4.3830    -1.1000 H     1 <1>   0.0800 
 42 H        0.0490     4.0570    -2.2960 H     1 <1>   0.1500 
 43 H        1.4500     6.9990     0.0390 H     1 <1>   0.0800 
 44 H       -0.2230     7.2780     0.4060 H     1 <1>   0.0800 
 45 H       -0.3770     6.2080    -3.6690 H     1 <1>   0.0800 
 46 H        1.2520     5.5650    -3.7570 H     1 <1>   0.0800 
 47 H        0.7170     8.7560    -1.4060 H     1 <1>   0.0800 
 48 H       -0.7130     7.8640    -1.8920 H     1 <1>   0.0800 
@<TRIPOS>BOND
  1   1   2  2   
  2   2   3  am  
  3   2   4  1   
  4   3   5  1   
  5   3   6  1   
  6   4   7  ar  
  7   4   8  ar  
  8   5   9  1   
  9   5  10  1   
 10   5  25  1   
 11   6  11  1   
 12   6  26  1   
 13   6  27  1   
 14   7  12  ar  
 15   7  28  1   
 16   8  13  ar  
 17   8  29  1   
 18   9  14  1   
 19   9  15  1   
 20   9  16  1   
 21  10  17  1   
 22  10  30  1   
 23  10  31  1   
 24  11  16  1   
 25  11  32  1   
 26  11  33  1   
 27  12  18  ar  
 28  12  34  1   
 29  13  18  ar  
 30  13  35  1   
 31  14  19  2   
 32  14  20  1   
 33  15  21  1   
 34  15  36  1   
 35  15  37  1   
 36  16  38  1   
 37  16  39  1   
 38  17  21  1   
 39  17  40  1   
 40  17  41  1   
 41  19  22  1   
 42  19  42  1   
 43  20  23  1   
 44  20  43  1   
 45  20  44  1   
 46  22  24  1   
 47  22  45  1   
 48  22  46  1   
 49  23  24  1   
 50  23  47  1   
 51  23  48  1   
@<TRIPOS>SUBSTRUCTURE
  1 ****   3 GROUP 4 **** **** 0

# MOE 2024.06 (io_trps.svl 2023.06)
