@<TRIPOS>MOLECULE
NONAME
52 56 1 0 0 
SMALL
USER_CHARGES


@<TRIPOS>ATOM
  1 O       -0.9380    -0.3920    -0.7090 O.2   1 <1>  -0.5700 
  2 C       -1.8710     0.2430    -0.2520 C.2   1 <1>   0.5440 
  3 N       -1.7150     1.6000    -0.0600 N.am  1 <1>  -0.6600 
  4 C       -3.1030    -0.4420     0.0570 C.ar  1 <1>   0.0860 
  5 C       -2.8380     2.5830    -0.1330 C.3   1 <1>   0.1400 
  6 C       -0.3690     2.2510    -0.0840 C.3   1 <1>   0.1400 
  7 C       -3.5950    -1.4270    -0.7960 C.ar  1 <1>   0.1600 
  8 C       -3.8490    -0.1780     1.2020 C.ar  1 <1>  -0.1500 
  9 C       -2.6030     3.5940    -1.2690 C.3   1 <1>   0.1200 
 10 C       -0.2810     3.2700    -1.2300 C.3   1 <1>   0.1200 
 11 N       -4.7150    -2.1090    -0.6340 N.ar  1 <1>  -0.6200 
 12 C       -5.0120    -0.8840     1.3920 C.ar  1 <1>  -0.1500 
 13 O       -1.3400     4.1850    -1.1560 O.3   1 <1>  -0.5600 
 14 C       -5.4220    -1.8330     0.4570 C.ar  1 <1>   0.4100 
 15 N       -6.5940    -2.5290     0.6430 N.pl3 1 <1>  -0.8380 
 16 C       -7.8890    -1.7930     0.7830 C.3   1 <1>   0.2090 
 17 C       -6.7660    -3.8770     0.0070 C.3   1 <1>   0.2090 
 18 C       -8.9390    -2.6290     1.5400 C.3   1 <1>   0.2090 
 19 C       -7.8180    -4.7290     0.7440 C.3   1 <1>   0.2090 
 20 N       -9.1030    -3.9820     0.9240 N.pl3 1 <1>  -0.8220 
 21 C      -10.2820    -4.3640     0.3260 C.2   1 <1>   0.5620 
 22 O      -10.3430    -5.5360    -0.2970 O.3   1 <1>  -0.2800 
 23 N      -11.3750    -3.6800     0.3050 N.2   1 <1>  -0.5650 
 24 C      -11.5760    -5.6210    -0.7580 C.ar  1 <1>   0.1400 
 25 C      -12.2270    -4.4720    -0.3890 C.ar  1 <1>   0.2270 
 26 C      -12.1920    -6.6290    -1.4830 C.ar  1 <1>  -0.1500 
 27 C      -13.5590    -4.2920    -0.7470 C.ar  1 <1>  -0.1500 
 28 C      -13.5170    -6.4490    -1.8380 C.ar  1 <1>  -0.1500 
 29 C      -14.1970    -5.2840    -1.4710 C.ar  1 <1>  -0.1500 
 30 H       -2.9070     3.1120     0.8010 H     1 <1>   0.0800 
 31 H       -3.7740     2.0810    -0.3060 H     1 <1>   0.0800 
 32 H        0.4090     1.5160    -0.1990 H     1 <1>   0.0800 
 33 H       -0.2060     2.7570     0.8510 H     1 <1>   0.0800 
 34 H       -3.0130    -1.6580    -1.6730 H     1 <1>   0.1500 
 35 H       -3.5100     0.5510     1.9170 H     1 <1>   0.1500 
 36 H       -3.3370     4.3790    -1.2270 H     1 <1>   0.0800 
 37 H       -2.6710     3.1090    -2.2280 H     1 <1>   0.0800 
 38 H       -0.3190     2.7700    -2.1830 H     1 <1>   0.0800 
 39 H        0.6380     3.8240    -1.1650 H     1 <1>   0.0800 
 40 H       -5.6140    -0.7250     2.2650 H     1 <1>   0.1500 
 41 H       -8.2710    -1.5660    -0.1970 H     1 <1>   0.0800 
 42 H       -7.7360    -0.8640     1.3010 H     1 <1>   0.0800 
 43 H       -5.8260    -4.4010     0.0110 H     1 <1>   0.0800 
 44 H       -7.0690    -3.7480    -1.0170 H     1 <1>   0.0800 
 45 H       -9.8750    -2.1000     1.5480 H     1 <1>   0.0800 
 46 H       -8.6220    -2.7480     2.5610 H     1 <1>   0.0800 
 47 H       -7.4320    -4.9940     1.7120 H     1 <1>   0.0800 
 48 H       -7.9790    -5.6400     0.1960 H     1 <1>   0.0800 
 49 H      -11.6440    -7.5140    -1.7510 H     1 <1>   0.1500 
 50 H      -14.0630    -3.3890    -0.4540 H     1 <1>   0.1500 
 51 H      -14.0330    -7.2090    -2.4010 H     1 <1>   0.1500 
 52 H      -15.2280    -5.1620    -1.7560 H     1 <1>   0.1500 
@<TRIPOS>BOND
  1   1   2  2   
  2   2   3  am  
  3   2   4  1   
  4   3   5  1   
  5   3   6  1   
  6   4   7  ar  
  7   4   8  ar  
  8   5   9  1   
  9   5  30  1   
 10   5  31  1   
 11   6  10  1   
 12   6  32  1   
 13   6  33  1   
 14   7  11  ar  
 15   7  34  1   
 16   8  12  ar  
 17   8  35  1   
 18   9  13  1   
 19   9  36  1   
 20   9  37  1   
 21  10  13  1   
 22  10  38  1   
 23  10  39  1   
 24  11  14  ar  
 25  12  14  ar  
 26  12  40  1   
 27  14  15  1   
 28  15  16  1   
 29  15  17  1   
 30  16  18  1   
 31  16  41  1   
 32  16  42  1   
 33  17  19  1   
 34  17  43  1   
 35  17  44  1   
 36  18  20  1   
 37  18  45  1   
 38  18  46  1   
 39  19  20  1   
 40  19  47  1   
 41  19  48  1   
 42  20  21  1   
 43  21  22  1   
 44  21  23  2   
 45  22  24  1   
 46  23  25  1   
 47  24  25  ar  
 48  24  26  ar  
 49  25  27  ar  
 50  26  28  ar  
 51  26  49  1   
 52  27  29  ar  
 53  27  50  1   
 54  28  29  ar  
 55  28  51  1   
 56  29  52  1   
@<TRIPOS>SUBSTRUCTURE
  1 ****  15 GROUP 4 **** **** 0

# MOE 2024.06 (io_trps.svl 2023.06)
