@<TRIPOS>MOLECULE
NONAME
54 57 1 0 0 
SMALL
USER_CHARGES


@<TRIPOS>ATOM
  1 O       -1.8680     0.5980     2.6930 O.2   1 <1>  -0.5700 
  2 C       -2.1450     1.1760     1.6580 C.2   1 <1>   0.5440 
  3 N       -3.0040     0.5730     0.7690 N.am  1 <1>  -0.6600 
  4 C       -1.5460     2.4580     1.3740 C.ar  1 <1>   0.0860 
  5 C       -3.4600     1.1640    -0.5190 C.3   1 <1>   0.1400 
  6 C       -3.1360    -0.8970     0.7000 C.3   1 <1>   0.1400 
  7 C       -0.4860     2.5560     0.4670 C.ar  1 <1>   0.0000 
  8 C       -2.0090     3.6250     1.9860 C.ar  1 <1>   0.1660 
  9 C       -3.7560    -0.0240    -1.4480 C.3   1 <1>   0.2000 
 10 C       -3.0250    -1.1990    -0.7930 C.3   1 <1>  -0.0800 
 11 C        0.0580     1.4140    -0.2350 C.ar  1 <1>   0.0000 
 12 C        0.0230     3.8270     0.2560 C.ar  1 <1>  -0.1500 
 13 N       -1.5240     4.8360     1.7680 N.ar  1 <1>  -0.6200 
 14 C       -3.1530     3.5590     2.9840 C.3   1 <1>  -0.0970 
 15 O       -5.1300    -0.2960    -1.4530 O.3   1 <1>  -0.5600 
 16 C       -3.5460    -2.5920    -1.1860 C.3   1 <1>   0.0200 
 17 C        0.0430     1.3600    -1.6270 C.ar  1 <1>  -0.1500 
 18 C        0.6020     0.3310     0.4520 C.ar  1 <1>  -0.1500 
 19 C       -0.5180     4.9110     0.9150 C.ar  1 <1>   0.1600 
 20 C       -5.8790     0.4500    -2.3590 C.3   1 <1>   0.0400 
 21 C       -2.6510    -3.7150    -0.6880 C.2   1 <1>  -0.0400 
 22 C        0.5360     0.2620    -2.3070 C.ar  1 <1>  -0.1500 
 23 C        1.0990    -0.7690    -0.2220 C.ar  1 <1>  -0.1500 
 24 O       -3.0120    -4.9530    -0.9010 O.3   1 <1>  -0.0190 
 25 C       -1.4790    -3.7400    -0.0330 C.2   1 <1>  -0.1500 
 26 C        1.0630    -0.8080    -1.6050 C.ar  1 <1>  -0.1500 
 27 N       -2.1490    -5.8020    -0.4230 N.2   1 <1>  -0.4100 
 28 C       -1.2140    -5.0980     0.1080 C.2   1 <1>   0.1080 
 29 C        0.0040    -5.6760     0.7910 C.3   1 <1>  -0.0590 
 30 H       -4.3350     1.7680    -0.3620 H     1 <1>   0.0800 
 31 H       -2.6790     1.7650    -0.9460 H     1 <1>   0.0800 
 32 H       -2.3680    -1.3910     1.2700 H     1 <1>   0.0800 
 33 H       -4.1040    -1.1800     1.0770 H     1 <1>   0.0800 
 34 H       -3.4210     0.1420    -2.4580 H     1 <1>   0.0800 
 35 H       -1.9870    -1.1270    -1.0670 H     1 <1>   0.0800 
 36 H        0.8460     3.9680    -0.4210 H     1 <1>   0.1500 
 37 H       -4.0000     3.0580     2.5520 H     1 <1>   0.0800 
 38 H       -3.4580     4.5480     3.2790 H     1 <1>   0.0800 
 39 H       -2.8390     3.0230     3.8620 H     1 <1>   0.0800 
 40 H       -3.6060    -2.6590    -2.2580 H     1 <1>   0.0800 
 41 H       -4.5370    -2.7360    -0.7940 H     1 <1>   0.0800 
 42 H       -0.3620     2.1880    -2.1820 H     1 <1>   0.1500 
 43 H        0.6310     0.3500     1.5290 H     1 <1>   0.1500 
 44 H       -0.1060     5.8900     0.7350 H     1 <1>   0.1500 
 45 H       -6.9110     0.1620    -2.2550 H     1 <1>   0.0800 
 46 H       -5.5450     0.2350    -3.3590 H     1 <1>   0.0800 
 47 H       -5.7750     1.4980    -2.1410 H     1 <1>   0.0800 
 48 H        0.5150     0.2370    -3.3830 H     1 <1>   0.1500 
 49 H        1.5140    -1.5940     0.3300 H     1 <1>   0.1500 
 50 H       -0.8610    -2.9340     0.3160 H     1 <1>   0.1500 
 51 H        1.4490    -1.6640    -2.1320 H     1 <1>   0.1500 
 52 H        0.0380    -5.3480     1.8140 H     1 <1>   0.0800 
 53 H        0.8940    -5.3540     0.2840 H     1 <1>   0.0800 
 54 H       -0.0400    -6.7500     0.7710 H     1 <1>   0.0800 
@<TRIPOS>BOND
  1   1   2  2   
  2   2   3  am  
  3   2   4  1   
  4   3   5  1   
  5   3   6  1   
  6   4   7  ar  
  7   4   8  ar  
  8   5   9  1   
  9   5  30  1   
 10   5  31  1   
 11   6  10  1   
 12   6  32  1   
 13   6  33  1   
 14   7  11  1   
 15   7  12  ar  
 16   8  13  ar  
 17   8  14  1   
 18   9  10  1   
 19   9  15  1   
 20   9  34  1   
 21  10  16  1   
 22  10  35  1   
 23  11  17  ar  
 24  11  18  ar  
 25  12  19  ar  
 26  12  36  1   
 27  13  19  ar  
 28  14  37  1   
 29  14  38  1   
 30  14  39  1   
 31  15  20  1   
 32  16  21  1   
 33  16  40  1   
 34  16  41  1   
 35  17  22  ar  
 36  17  42  1   
 37  18  23  ar  
 38  18  43  1   
 39  19  44  1   
 40  20  45  1   
 41  20  46  1   
 42  20  47  1   
 43  21  24  1   
 44  21  25  2   
 45  22  26  ar  
 46  22  48  1   
 47  23  26  ar  
 48  23  49  1   
 49  24  27  1   
 50  25  28  1   
 51  25  50  1   
 52  26  51  1   
 53  27  28  2   
 54  28  29  1   
 55  29  52  1   
 56  29  53  1   
 57  29  54  1   
@<TRIPOS>SUBSTRUCTURE
  1 ****   3 GROUP 4 **** **** 0

# MOE 2024.06 (io_trps.svl 2023.06)
