@<TRIPOS>MOLECULE
NONAME
49 51 1 0 0 
SMALL
USER_CHARGES


@<TRIPOS>ATOM
  1 O       -0.2440     0.8860     0.7210 O.2   1 <1>  -0.5700 
  2 C        0.0260     2.0170     0.3610 C.2   1 <1>   0.6900 
  3 N       -0.9630     2.9580     0.2120 N.am  1 <1>  -0.6600 
  4 N        1.3200     2.3830     0.1230 N.am  1 <1>  -0.5470 
  5 C       -2.3460     2.7120     0.7300 C.3   1 <1>   0.1400 
  6 C       -0.8480     4.1890    -0.6180 C.3   1 <1>   0.1400 
  7 C        2.4970     1.6250     0.0420 C.ar  1 <1>   0.1170 
  8 C       -3.3680     2.6030    -0.4300 C.3   1 <1>   0.0000 
  9 C       -1.8310     4.1180    -1.7920 C.3   1 <1>  -0.1600 
 10 C        3.7150     2.2440     0.3030 C.ar  1 <1>  -0.1500 
 11 C        2.5020     0.2800    -0.3110 C.ar  1 <1>  -0.1500 
 12 C       -4.7960     2.3950     0.1040 C.3   1 <1>   0.2000 
 13 C       -3.2720     3.8610    -1.3190 C.3   1 <1>  -0.1600 
 14 C       -3.1460     1.3050    -1.2260 C.3   1 <1>  -0.1600 
 15 C        4.9060     1.5440     0.2170 C.ar  1 <1>  -0.1500 
 16 C        3.6890    -0.4250    -0.3980 C.ar  1 <1>  -0.1500 
 17 O       -5.0440     3.1900     1.2260 O.3   1 <1>  -0.5600 
 18 C       -4.9020     0.9030     0.4360 C.3   1 <1>  -0.1600 
 19 C       -3.8320     0.2030    -0.4130 C.3   1 <1>  -0.1600 
 20 C        4.8980     0.1980    -0.1370 C.ar  1 <1>   0.0830 
 21 C       -6.3840     3.2900     1.5900 C.3   1 <1>   0.0400 
 22 O        6.0170    -0.5660    -0.2460 O.3   1 <1>  -0.3630 
 23 C        7.2900    -0.0310     0.0370 C.3   1 <1>   0.0400 
 24 H        1.4400     3.3880     0.1150 H     1 <1>   0.3700 
 25 H       -2.3700     1.8210     1.3330 H     1 <1>   0.0800 
 26 H       -2.6140     3.5340     1.3690 H     1 <1>   0.0800 
 27 H       -1.0760     5.0430    -0.0040 H     1 <1>   0.0800 
 28 H        0.1490     4.3060    -1.0040 H     1 <1>   0.0800 
 29 H       -1.7940     5.0420    -2.3400 H     1 <1>   0.0800 
 30 H       -1.5200     3.3330    -2.4590 H     1 <1>   0.0800 
 31 H        3.7320     3.2820     0.5790 H     1 <1>   0.1500 
 32 H        1.5740    -0.2210    -0.5200 H     1 <1>   0.1500 
 33 H       -5.5020     2.6490    -0.6700 H     1 <1>   0.0800 
 34 H       -3.9210     3.7660    -2.1720 H     1 <1>   0.0800 
 35 H       -3.6080     4.7110    -0.7490 H     1 <1>   0.0800 
 36 H       -3.6290     1.3790    -2.1850 H     1 <1>   0.0800 
 37 H       -2.1050     1.0840    -1.3870 H     1 <1>   0.0800 
 38 H        5.8240     2.0590     0.4270 H     1 <1>   0.1500 
 39 H        3.6820    -1.4650    -0.6690 H     1 <1>   0.1500 
 40 H       -4.6950     0.7380     1.4800 H     1 <1>   0.0800 
 41 H       -5.8830     0.5330     0.1980 H     1 <1>   0.0800 
 42 H       -3.1100    -0.2680     0.2330 H     1 <1>   0.0800 
 43 H       -4.2590    -0.5450    -1.0580 H     1 <1>   0.0800 
 44 H       -6.4500     3.9380     2.4460 H     1 <1>   0.0800 
 45 H       -6.7610     2.3150     1.8480 H     1 <1>   0.0800 
 46 H       -6.9450     3.7100     0.7730 H     1 <1>   0.0800 
 47 H        8.0180    -0.8100    -0.1000 H     1 <1>   0.0800 
 48 H        7.3070     0.3100     1.0570 H     1 <1>   0.0800 
 49 H        7.4880     0.7770    -0.6450 H     1 <1>   0.0800 
@<TRIPOS>BOND
  1   1   2  2   
  2   2   3  am  
  3   2   4  am  
  4   3   5  1   
  5   3   6  1   
  6   4   7  1   
  7   4  24  1   
  8   5   8  1   
  9   5  25  1   
 10   5  26  1   
 11   6   9  1   
 12   6  27  1   
 13   6  28  1   
 14   7  10  ar  
 15   7  11  ar  
 16   8  12  1   
 17   8  13  1   
 18   8  14  1   
 19   9  13  1   
 20   9  29  1   
 21   9  30  1   
 22  10  15  ar  
 23  10  31  1   
 24  11  16  ar  
 25  11  32  1   
 26  12  17  1   
 27  12  18  1   
 28  12  33  1   
 29  13  34  1   
 30  13  35  1   
 31  14  19  1   
 32  14  36  1   
 33  14  37  1   
 34  15  20  ar  
 35  15  38  1   
 36  16  20  ar  
 37  16  39  1   
 38  17  21  1   
 39  18  19  1   
 40  18  40  1   
 41  18  41  1   
 42  19  42  1   
 43  19  43  1   
 44  20  22  1   
 45  21  44  1   
 46  21  45  1   
 47  21  46  1   
 48  22  23  1   
 49  23  47  1   
 50  23  48  1   
 51  23  49  1   
@<TRIPOS>SUBSTRUCTURE
  1 ****   2 GROUP 4 **** **** 0

# MOE 2024.06 (io_trps.svl 2023.06)
