@<TRIPOS>MOLECULE
NONAME
46 48 1 0 0 
SMALL
USER_CHARGES


@<TRIPOS>ATOM
  1 F        2.6690     0.5000    -2.7220 F     1 <1>  -0.1900 
  2 C        2.5080     0.9270    -1.5000 C.ar  1 <1>   0.1900 
  3 C        2.2930     0.0040    -0.4820 C.ar  1 <1>   0.0860 
  4 C        2.5490     2.2950    -1.2900 C.ar  1 <1>  -0.1500 
  5 C        2.1060     0.5510     0.7840 C.ar  1 <1>   0.1900 
  6 C        2.2660    -1.4160    -0.7170 C.2   1 <1>   0.5440 
  7 C        2.3640     2.7920    -0.0090 C.ar  1 <1>  -0.1500 
  8 F        1.8740    -0.2450     1.7920 F     1 <1>  -0.1900 
  9 C        2.1390     1.9120     1.0370 C.ar  1 <1>  -0.1500 
 10 O        3.3190    -2.0130    -0.8270 O.2   1 <1>  -0.5700 
 11 N        1.0820    -2.1170    -0.8080 N.am  1 <1>  -0.6600 
 12 C       -0.2770    -1.5280    -0.6120 C.3   1 <1>   0.1400 
 13 C        1.0440    -3.6030    -0.9630 C.3   1 <1>   0.1400 
 14 C       -1.0320    -2.2710     0.5110 C.3   1 <1>   0.2950 
 15 C        0.2010    -4.2490     0.1590 C.3   1 <1>   0.2000 
 16 O       -1.0590    -3.6410     0.2300 O.3   1 <1>  -0.5600 
 17 C       -2.4920    -1.8260     0.7120 C.3   1 <1>  -0.1950 
 18 C       -0.0450    -5.7470    -0.0580 C.3   1 <1>  -0.1600 
 19 C       -3.4400    -1.5410    -0.4110 C.3   1 <1>  -0.2000 
 20 C       -2.9740    -0.4250     0.4830 C.3   1 <1>  -0.2000 
 21 C        1.2450    -6.5830    -0.0080 C.3   1 <1>  -0.1600 
 22 C        0.9350    -8.0790    -0.1350 C.3   1 <1>  -0.1600 
 23 C        2.2180    -8.9140    -0.0890 C.3   1 <1>  -0.2400 
 24 H        2.7230     2.9590    -2.1190 H     1 <1>   0.1500 
 25 H        2.3950     3.8550     0.1700 H     1 <1>   0.1500 
 26 H        1.9910     2.2750     2.0400 H     1 <1>   0.1500 
 27 H       -0.2110    -0.4860    -0.3640 H     1 <1>   0.0800 
 28 H       -0.8270    -1.6160    -1.5310 H     1 <1>   0.0800 
 29 H        0.6140    -3.8470    -1.9180 H     1 <1>   0.0800 
 30 H        2.0400    -4.0090    -0.9380 H     1 <1>   0.0800 
 31 H       -0.5030    -2.1300     1.4380 H     1 <1>   0.0800 
 32 H        0.6950    -4.1040     1.1060 H     1 <1>   0.0800 
 33 H       -2.9110    -2.3290     1.5670 H     1 <1>   0.1000 
 34 H       -0.7090    -6.0920     0.7160 H     1 <1>   0.0800 
 35 H       -0.5310    -5.8910    -1.0070 H     1 <1>   0.0800 
 36 H       -3.0880    -1.5840    -1.4260 H     1 <1>   0.1000 
 37 H       -4.4530    -1.8970    -0.3200 H     1 <1>   0.1000 
 38 H       -3.6750    -0.0030     1.1830 H     1 <1>   0.1000 
 39 H       -2.3300     0.3230     0.0570 H     1 <1>   0.1000 
 40 H        1.9030    -6.2950    -0.8100 H     1 <1>   0.0800 
 41 H        1.7540    -6.4030     0.9240 H     1 <1>   0.0800 
 42 H        0.2860    -8.3840     0.6690 H     1 <1>   0.0800 
 43 H        0.4240    -8.2660    -1.0640 H     1 <1>   0.0800 
 44 H        2.7340    -8.7590     0.8420 H     1 <1>   0.0800 
 45 H        2.8730    -8.6420    -0.8990 H     1 <1>   0.0800 
 46 H        1.9800    -9.9590    -0.1790 H     1 <1>   0.0800 
@<TRIPOS>BOND
  1   1   2  1   
  2   2   3  ar  
  3   2   4  ar  
  4   3   5  ar  
  5   3   6  1   
  6   4   7  ar  
  7   4  24  1   
  8   5   8  1   
  9   5   9  ar  
 10   6  10  2   
 11   6  11  am  
 12   7   9  ar  
 13   7  25  1   
 14   9  26  1   
 15  11  12  1   
 16  11  13  1   
 17  12  14  1   
 18  12  27  1   
 19  12  28  1   
 20  13  15  1   
 21  13  29  1   
 22  13  30  1   
 23  14  16  1   
 24  14  17  1   
 25  14  31  1   
 26  15  16  1   
 27  15  18  1   
 28  15  32  1   
 29  17  19  1   
 30  17  20  1   
 31  17  33  1   
 32  18  21  1   
 33  18  34  1   
 34  18  35  1   
 35  19  20  1   
 36  19  36  1   
 37  19  37  1   
 38  20  38  1   
 39  20  39  1   
 40  21  22  1   
 41  21  40  1   
 42  21  41  1   
 43  22  23  1   
 44  22  42  1   
 45  22  43  1   
 46  23  44  1   
 47  23  45  1   
 48  23  46  1   
@<TRIPOS>SUBSTRUCTURE
  1 ****  11 GROUP 4 **** **** 0

# MOE 2024.06 (io_trps.svl 2023.06)
