@<TRIPOS>MOLECULE
NONAME
44 46 1 0 0 
SMALL
USER_CHARGES


@<TRIPOS>ATOM
  1 CL       0.2880     0.6680     1.5320 Cl    1 <1>  -0.1770 
  2 C       -0.6100     2.0010     0.8470 C.ar  1 <1>   0.1770 
  3 C       -0.1270     3.2810     0.9750 C.ar  1 <1>  -0.1500 
  4 C       -1.8080     1.7220     0.1810 C.ar  1 <1>  -0.1500 
  5 C       -0.8670     4.3210     0.4180 C.ar  1 <1>   0.2270 
  6 C       -2.5420     2.7490    -0.3710 C.ar  1 <1>  -0.1500 
  7 N       -0.6110     5.6590     0.4060 N.2   1 <1>  -0.5650 
  8 C       -2.0530     4.0530    -0.2420 C.ar  1 <1>  -0.1520 
  9 C       -1.6020     6.1730    -0.2350 C.2   1 <1>   0.0060 
 10 N       -2.5160     5.2580    -0.6570 N.pl3 1 <1>   0.0330 
 11 C       -1.7440     7.6600    -0.4960 C.3   1 <1>   0.0200 
 12 C       -0.4910     8.3810     0.0220 C.3   1 <1>   0.3430 
 13 N       -0.4870     9.8560    -0.2670 N.4   1 <1>  -0.9590 
 14 C        0.8500    10.5360    -0.0230 C.3   1 <1>   0.4840 
 15 C       -1.5800    10.5740     0.4710 C.3   1 <1>   0.2630 
 16 C        0.8530    12.0150    -0.4930 C.2   1 <1>   0.5690 
 17 C        1.9710     9.7740    -0.7420 C.3   1 <1>  -0.2400 
 18 O        0.1010    12.3120    -1.3950 O.2   1 <1>  -0.5700 
 19 N        1.6610    12.9330     0.1140 N.am  1 <1>  -0.5790 
 20 C        1.7320    14.3570    -0.2490 C.3   1 <1>   0.0490 
 21 C        3.0560    15.0370    -0.1540 C.3   1 <1>  -0.2000 
 22 C        1.9780    15.3450     0.8410 C.3   1 <1>  -0.2000 
 23 H        0.7920     3.4890     1.4870 H     1 <1>   0.1500 
 24 H       -2.1390     0.7010     0.1100 H     1 <1>   0.1500 
 25 H       -3.4670     2.5580    -0.8890 H     1 <1>   0.1500 
 26 H       -3.3800     5.4170    -1.1820 H     1 <1>   0.2700 
 27 H       -2.6210     8.0130     0.0130 H     1 <1>   0.0800 
 28 H       -1.8460     7.8220    -1.5530 H     1 <1>   0.0800 
 29 H        0.3570     7.9110    -0.4490 H     1 <1>   0.0800 
 30 H       -0.4020     8.2100     1.0830 H     1 <1>   0.0800 
 31 H       -0.6570    10.0120    -1.2750 H     1 <1>   0.4500 
 32 H        1.0570    10.5300     1.0340 H     1 <1>   0.0800 
 33 H       -1.4380    10.4860     1.5360 H     1 <1>   0.0800 
 34 H       -2.5420    10.1610     0.2170 H     1 <1>   0.0800 
 35 H       -1.5900    11.6200     0.2080 H     1 <1>   0.0800 
 36 H        1.7400     9.6500    -1.7860 H     1 <1>   0.0800 
 37 H        2.1560     8.8170    -0.2900 H     1 <1>   0.0800 
 38 H        2.8880    10.3330    -0.6750 H     1 <1>   0.0800 
 39 H        2.3180    12.6740     0.8520 H     1 <1>   0.3700 
 40 H        1.0710    14.6330    -1.0570 H     1 <1>   0.1000 
 41 H        3.3030    15.7920    -0.8800 H     1 <1>   0.1000 
 42 H        3.9180    14.4800     0.1690 H     1 <1>   0.1000 
 43 H        2.0940    15.0040     1.8540 H     1 <1>   0.1000 
 44 H        1.5020    16.3090     0.7840 H     1 <1>   0.1000 
@<TRIPOS>BOND
  1   1   2  1   
  2   2   3  ar  
  3   2   4  ar  
  4   3   5  ar  
  5   3  23  1   
  6   4   6  ar  
  7   4  24  1   
  8   5   7  1   
  9   5   8  ar  
 10   6   8  ar  
 11   6  25  1   
 12   7   9  2   
 13   8  10  1   
 14   9  10  1   
 15   9  11  1   
 16  10  26  1   
 17  11  12  1   
 18  11  27  1   
 19  11  28  1   
 20  12  13  1   
 21  12  29  1   
 22  12  30  1   
 23  13  14  1   
 24  13  15  1   
 25  13  31  1   
 26  14  16  1   
 27  14  17  1   
 28  14  32  1   
 29  15  33  1   
 30  15  34  1   
 31  15  35  1   
 32  16  18  2   
 33  16  19  am  
 34  17  36  1   
 35  17  37  1   
 36  17  38  1   
 37  19  20  1   
 38  19  39  1   
 39  20  21  1   
 40  20  22  1   
 41  20  40  1   
 42  21  22  1   
 43  21  41  1   
 44  21  42  1   
 45  22  43  1   
 46  22  44  1   
@<TRIPOS>SUBSTRUCTURE
  1 ****  12 GROUP 4 **** **** 0

# MOE 2024.06 (io_trps.svl 2023.06)
