@<TRIPOS>MOLECULE
NONAME
54 55 1 0 0 
SMALL
USER_CHARGES


@<TRIPOS>ATOM
  1 O        1.7220    -2.7240    -1.6810 O.2   1 <1>  -0.5700 
  2 C        1.4060    -2.3760    -0.5700 C.2   1 <1>   0.5690 
  3 N        2.1240    -1.5730     0.2470 N.am  1 <1>  -0.6600 
  4 C        0.1240    -2.7980     0.0910 C.3   1 <1>  -0.0990 
  5 C        1.4700    -1.3440     1.5470 C.3   1 <1>   0.1400 
  6 C        3.4320    -0.9680    -0.0890 C.3   1 <1>   0.1400 
  7 C        0.2920    -2.3290     1.5470 C.3   1 <1>  -0.1600 
  8 C        3.3200     0.5590    -0.1180 C.3   1 <1>  -0.1600 
  9 C        4.6090     1.2100    -0.6570 C.3   1 <1>  -0.0990 
 10 C        4.5920     2.7380    -0.6600 C.2   1 <1>   0.5690 
 11 O        3.5920     3.2980    -0.2750 O.2   1 <1>  -0.5700 
 12 N        5.6920     3.4440    -1.0840 N.am  1 <1>  -0.6600 
 13 C        6.9370     2.8180    -1.6260 C.3   1 <1>   0.1400 
 14 C        5.6650     4.9370    -1.0600 C.3   1 <1>   0.1400 
 15 C        7.9970     2.6350    -0.5280 C.3   1 <1>   0.1100 
 16 C        7.0190     5.5890    -0.7510 C.3   1 <1>  -0.1600 
 17 N        8.7010     3.8810    -0.1660 N.3   1 <1>  -0.8100 
 18 C        7.8010     4.9140     0.3790 C.3   1 <1>   0.1100 
 19 C        9.8000     3.5790     0.8020 C.3   1 <1>   0.1710 
 20 C       10.7400     4.7450     1.1670 C.2   1 <1>   0.5690 
 21 O       10.8230     5.0310     2.3410 O.2   1 <1>  -0.5700 
 22 N       11.4600     5.4240     0.2080 N.am  1 <1>  -0.6600 
 23 C       12.3390     6.5740     0.5560 C.3   1 <1>   0.0600 
 24 C       11.3410     5.1570    -1.2510 C.3   1 <1>   0.0600 
 25 H       -0.0050    -3.8630     0.0230 H     1 <1>   0.0800 
 26 H       -0.6950    -2.2940    -0.3890 H     1 <1>   0.0800 
 27 H        1.1200    -0.3270     1.5980 H     1 <1>   0.0800 
 28 H        2.1510    -1.5430     2.3570 H     1 <1>   0.0800 
 29 H        3.7440    -1.3260    -1.0570 H     1 <1>   0.0800 
 30 H        4.1640    -1.2770     0.6360 H     1 <1>   0.0800 
 31 H        0.5420    -3.1690     2.1710 H     1 <1>   0.0800 
 32 H       -0.6020    -1.8690     1.9280 H     1 <1>   0.0800 
 33 H        3.1270     0.9250     0.8740 H     1 <1>   0.0800 
 34 H        2.4970     0.8410    -0.7530 H     1 <1>   0.0800 
 35 H        4.7590     0.8740    -1.6660 H     1 <1>   0.0800 
 36 H        5.4400     0.8860    -0.0590 H     1 <1>   0.0800 
 37 H        7.3400     3.4190    -2.4220 H     1 <1>   0.0800 
 38 H        6.7080     1.8570    -2.0470 H     1 <1>   0.0800 
 39 H        4.9640     5.2620    -0.3090 H     1 <1>   0.0800 
 40 H        5.3040     5.2930    -2.0100 H     1 <1>   0.0800 
 41 H        8.7270     1.9360    -0.8990 H     1 <1>   0.0800 
 42 H        7.5400     2.2020     0.3450 H     1 <1>   0.0800 
 43 H        6.8200     6.6040    -0.4600 H     1 <1>   0.0800 
 44 H        7.6260     5.6380    -1.6370 H     1 <1>   0.0800 
 45 H        7.1350     4.4950     1.1160 H     1 <1>   0.0800 
 46 H        8.3850     5.6790     0.8620 H     1 <1>   0.0800 
 47 H       10.4170     2.7970     0.4000 H     1 <1>   0.0800 
 48 H        9.3680     3.2080     1.7150 H     1 <1>   0.0800 
 49 H       12.3550     6.7400     1.6190 H     1 <1>   0.0800 
 50 H       11.9770     7.4660     0.0750 H     1 <1>   0.0800 
 51 H       13.3440     6.3750     0.2270 H     1 <1>   0.0800 
 52 H       11.0870     4.1280    -1.4330 H     1 <1>   0.0800 
 53 H       12.2730     5.3680    -1.7440 H     1 <1>   0.0800 
 54 H       10.5700     5.7820    -1.6670 H     1 <1>   0.0800 
@<TRIPOS>BOND
  1   1   2  2   
  2   2   3  am  
  3   2   4  1   
  4   3   5  1   
  5   3   6  1   
  6   4   7  1   
  7   4  25  1   
  8   4  26  1   
  9   5   7  1   
 10   5  27  1   
 11   5  28  1   
 12   6   8  1   
 13   6  29  1   
 14   6  30  1   
 15   7  31  1   
 16   7  32  1   
 17   8   9  1   
 18   8  33  1   
 19   8  34  1   
 20   9  10  1   
 21   9  35  1   
 22   9  36  1   
 23  10  11  2   
 24  10  12  am  
 25  12  13  1   
 26  12  14  1   
 27  13  15  1   
 28  13  37  1   
 29  13  38  1   
 30  14  16  1   
 31  14  39  1   
 32  14  40  1   
 33  15  17  1   
 34  15  41  1   
 35  15  42  1   
 36  16  18  1   
 37  16  43  1   
 38  16  44  1   
 39  17  18  1   
 40  17  19  1   
 41  18  45  1   
 42  18  46  1   
 43  19  20  1   
 44  19  47  1   
 45  19  48  1   
 46  20  21  2   
 47  20  22  am  
 48  22  23  1   
 49  22  24  1   
 50  23  49  1   
 51  23  50  1   
 52  23  51  1   
 53  24  52  1   
 54  24  53  1   
 55  24  54  1   
@<TRIPOS>SUBSTRUCTURE
  1 ****  10 GROUP 4 **** **** 0

# MOE 2024.06 (io_trps.svl 2023.06)
