@<TRIPOS>MOLECULE
NONAME
50 52 1 0 0 
SMALL
USER_CHARGES


@<TRIPOS>ATOM
  1 O       -3.2660     3.1240    -0.9470 O.2   1 <1>  -0.5700 
  2 C       -2.8610     2.1900    -0.2840 C.2   1 <1>   0.5440 
  3 N       -3.6800     1.1010    -0.0820 N.am  1 <1>  -0.6600 
  4 C       -1.5300     2.2340     0.2680 C.ar  1 <1>   0.0860 
  5 C       -3.2600    -0.1550     0.6180 C.3   1 <1>   0.1400 
  6 C       -5.0620     1.0140    -0.6470 C.3   1 <1>   0.1400 
  7 C       -0.4170     1.9010    -0.4900 C.ar  1 <1>   0.1660 
  8 C       -1.2850     2.5740     1.5910 C.ar  1 <1>   0.1660 
  9 C       -3.5330    -1.3920    -0.2570 C.3   1 <1>   0.3440 
 10 C       -5.2460    -0.2900    -1.4570 C.3   1 <1>   0.2000 
 11 N        0.7980     1.8710     0.0130 N.ar  1 <1>  -0.6200 
 12 C       -0.5460     1.5360    -1.9590 C.3   1 <1>  -0.0970 
 13 N       -0.0780     2.5500     2.1130 N.ar  1 <1>  -0.6200 
 14 C       -2.4030     2.9880     2.5340 C.3   1 <1>  -0.0970 
 15 O       -4.8700    -1.3970    -0.6820 O.3   1 <1>  -0.5600 
 16 C       -3.2340    -2.6680     0.5230 C.ar  1 <1>  -0.1440 
 17 C       -6.6880    -0.5290    -1.9620 C.3   1 <1>  -0.0800 
 18 C        0.8950     2.2000     1.2900 C.ar  1 <1>   0.4700 
 19 C       -1.9710    -3.2380     0.4490 C.ar  1 <1>  -0.1500 
 20 C       -4.1970    -3.2660     1.3250 C.ar  1 <1>  -0.1500 
 21 C       -7.1450     0.5660    -2.9380 C.3   1 <1>  -0.2400 
 22 C       -7.7220    -0.6770    -0.8320 C.3   1 <1>  -0.2400 
 23 C       -1.6750    -4.3850     1.1650 C.ar  1 <1>  -0.1500 
 24 C       -3.9020    -4.4120     2.0420 C.ar  1 <1>  -0.1500 
 25 C       -2.6400    -4.9730     1.9630 C.ar  1 <1>  -0.1500 
 26 H       -2.2150    -0.1330     0.8670 H     1 <1>   0.0800 
 27 H       -3.8140    -0.2510     1.5350 H     1 <1>   0.0800 
 28 H       -5.7680     1.0410     0.1630 H     1 <1>   0.0800 
 29 H       -5.2610     1.8590    -1.2820 H     1 <1>   0.0800 
 30 H       -2.9110    -1.3610    -1.1350 H     1 <1>   0.0800 
 31 H       -4.5930    -0.2560    -2.3130 H     1 <1>   0.0800 
 32 H       -1.0500     2.3240    -2.4900 H     1 <1>   0.0800 
 33 H       -1.1050     0.6250    -2.0660 H     1 <1>   0.0800 
 34 H        0.4250     1.3980    -2.4000 H     1 <1>   0.0800 
 35 H       -3.2020     3.4740     2.0050 H     1 <1>   0.0800 
 36 H       -2.0260     3.6760     3.2700 H     1 <1>   0.0800 
 37 H       -2.7890     2.1220     3.0400 H     1 <1>   0.0800 
 38 H       -6.6690    -1.4560    -2.5110 H     1 <1>   0.0800 
 39 H        1.8880     2.1820     1.7100 H     1 <1>   0.1500 
 40 H       -1.2080    -2.7950    -0.1670 H     1 <1>   0.1500 
 41 H       -5.1840    -2.8400     1.3900 H     1 <1>   0.1500 
 42 H       -7.2530     1.5130    -2.4390 H     1 <1>   0.0800 
 43 H       -8.0950     0.3030    -3.3680 H     1 <1>   0.0800 
 44 H       -6.4340     0.6760    -3.7380 H     1 <1>   0.0800 
 45 H       -7.8400     0.2410    -0.2870 H     1 <1>   0.0800 
 46 H       -7.4180    -1.4490    -0.1460 H     1 <1>   0.0800 
 47 H       -8.6780    -0.9540    -1.2410 H     1 <1>   0.0800 
 48 H       -0.6930    -4.8210     1.1020 H     1 <1>   0.1500 
 49 H       -4.6560    -4.8690     2.6590 H     1 <1>   0.1500 
 50 H       -2.4100    -5.8640     2.5200 H     1 <1>   0.1500 
@<TRIPOS>BOND
  1   1   2  2   
  2   2   3  am  
  3   2   4  1   
  4   3   5  1   
  5   3   6  1   
  6   4   7  ar  
  7   4   8  ar  
  8   5   9  1   
  9   5  26  1   
 10   5  27  1   
 11   6  10  1   
 12   6  28  1   
 13   6  29  1   
 14   7  11  ar  
 15   7  12  1   
 16   8  13  ar  
 17   8  14  1   
 18   9  15  1   
 19   9  16  1   
 20   9  30  1   
 21  10  15  1   
 22  10  17  1   
 23  10  31  1   
 24  11  18  ar  
 25  12  32  1   
 26  12  33  1   
 27  12  34  1   
 28  13  18  ar  
 29  14  35  1   
 30  14  36  1   
 31  14  37  1   
 32  16  19  ar  
 33  16  20  ar  
 34  17  21  1   
 35  17  22  1   
 36  17  38  1   
 37  18  39  1   
 38  19  23  ar  
 39  19  40  1   
 40  20  24  ar  
 41  20  41  1   
 42  21  42  1   
 43  21  43  1   
 44  21  44  1   
 45  22  45  1   
 46  22  46  1   
 47  22  47  1   
 48  23  25  ar  
 49  23  48  1   
 50  24  25  ar  
 51  24  49  1   
 52  25  50  1   
@<TRIPOS>SUBSTRUCTURE
  1 ****   5 GROUP 4 **** **** 0

# MOE 2024.06 (io_trps.svl 2023.06)
