@<TRIPOS>MOLECULE
NONAME
61 62 1 0 0 
SMALL
USER_CHARGES


@<TRIPOS>ATOM
  1 O       -0.3900     2.2080     0.9190 O.2   1 <1>  -0.5700 
  2 C        0.0650     2.2400    -0.2220 C.2   1 <1>   0.5690 
  3 N       -0.6780     1.8000    -1.2760 N.am  1 <1>  -0.7300 
  4 C        1.5180     2.7210    -0.4850 C.3   1 <1>   0.2810 
  5 C       -2.1070     1.4070    -1.2300 C.3   1 <1>   0.1400 
  6 N        2.4560     1.5950    -0.3850 N.am  1 <1>  -0.7300 
  7 C        1.9510     3.9000     0.4350 C.3   1 <1>  -0.0800 
  8 C       -2.2410    -0.1130    -1.1210 C.3   1 <1>  -0.1600 
  9 C        3.5350     1.4150    -1.1560 C.2   1 <1>   0.5690 
 10 C        0.9640     5.0820     0.3730 C.3   1 <1>  -0.2400 
 11 C        3.3570     4.4520     0.1290 C.3   1 <1>  -0.2400 
 12 C       -2.0860    -0.6060     0.3240 C.3   1 <1>   0.1400 
 13 O        3.8140     2.2060    -2.0510 O.2   1 <1>  -0.5700 
 14 C        4.4290     0.1700    -0.8900 C.3   1 <1>   0.2810 
 15 N       -1.8670    -2.0820     0.3340 N.am  1 <1>  -0.6600 
 16 N        3.7420    -0.8760    -0.1230 N.am  1 <1>  -0.7300 
 17 C        5.6900     0.5470    -0.1080 C.3   1 <1>  -0.2400 
 18 C       -2.9030    -2.9590     0.0390 C.2   1 <1>   0.5440 
 19 C       -0.5150    -2.5180     0.7820 C.3   1 <1>   0.1400 
 20 C        2.9660    -1.8130    -0.7190 C.2   1 <1>   0.5690 
 21 O       -4.0360    -2.5010     0.0210 O.2   1 <1>  -0.5700 
 22 C       -2.7210    -4.3920    -0.2280 C.ar  1 <1>   0.3960 
 23 C        0.5350    -2.0980    -0.2480 C.3   1 <1>  -0.1600 
 24 O        3.0120    -2.0190    -1.9050 O.2   1 <1>  -0.5700 
 25 C        1.9530    -2.5630     0.1220 C.3   1 <1>  -0.0990 
 26 N       -1.6580    -4.8310    -0.9290 N.ar  1 <1>  -0.6200 
 27 C       -3.6820    -5.2870     0.2490 C.ar  1 <1>  -0.1500 
 28 C       -1.5680    -6.1300    -1.1430 C.ar  1 <1>   0.1600 
 29 C       -3.5760    -6.6410     0.0240 C.ar  1 <1>  -0.1500 
 30 C       -2.4830    -7.0660    -0.6950 C.ar  1 <1>  -0.1500 
 31 H       -0.2260     1.6910    -2.1880 H     1 <1>   0.3700 
 32 H        1.5370     3.0950    -1.5100 H     1 <1>   0.0800 
 33 H       -2.5960     1.8850    -0.3960 H     1 <1>   0.0800 
 34 H       -2.5840     1.7450    -2.1340 H     1 <1>   0.0800 
 35 H        2.2510     0.8900     0.3010 H     1 <1>   0.3700 
 36 H        1.9560     3.5310     1.4630 H     1 <1>   0.0800 
 37 H       -1.5230    -0.5860    -1.7650 H     1 <1>   0.0800 
 38 H       -3.2230    -0.3910    -1.4580 H     1 <1>   0.0800 
 39 H        0.9000     5.4670    -0.6460 H     1 <1>   0.0800 
 40 H        1.2990     5.8840     1.0330 H     1 <1>   0.0800 
 41 H       -0.0300     4.7780     0.7040 H     1 <1>   0.0800 
 42 H        3.4180     4.7670    -0.9140 H     1 <1>   0.0800 
 43 H        4.1120     3.6890     0.3130 H     1 <1>   0.0800 
 44 H        3.5770     5.3040     0.7730 H     1 <1>   0.0800 
 45 H       -2.9720    -0.3670     0.8890 H     1 <1>   0.0800 
 46 H       -1.2570    -0.1160     0.8010 H     1 <1>   0.0800 
 47 H        4.7330    -0.2240    -1.8630 H     1 <1>   0.0800 
 48 H        3.7880    -0.8270     0.8790 H     1 <1>   0.3700 
 49 H        5.4200     0.9670     0.8610 H     1 <1>   0.0800 
 50 H        6.2510     1.2930    -0.6740 H     1 <1>   0.0800 
 51 H        6.3150    -0.3350     0.0310 H     1 <1>   0.0800 
 52 H       -0.3000    -2.0590     1.7320 H     1 <1>   0.0800 
 53 H       -0.4870    -3.5840     0.9240 H     1 <1>   0.0800 
 54 H        0.2740    -2.5080    -1.2090 H     1 <1>   0.0800 
 55 H        0.5380    -1.0260    -0.3320 H     1 <1>   0.0800 
 56 H        2.0530    -3.6170    -0.0640 H     1 <1>   0.0800 
 57 H        2.1460    -2.3790     1.1620 H     1 <1>   0.0800 
 58 H       -4.5220    -4.9000     0.7990 H     1 <1>   0.1500 
 59 H       -0.7180    -6.4730    -1.7090 H     1 <1>   0.1500 
 60 H       -4.3150    -7.3340     0.3910 H     1 <1>   0.1500 
 61 H       -2.3390    -8.1100    -0.9100 H     1 <1>   0.1500 
@<TRIPOS>BOND
  1   1   2  2   
  2   2   3  am  
  3   2   4  1   
  4   3   5  1   
  5   3  31  1   
  6   4   6  1   
  7   4   7  1   
  8   4  32  1   
  9   5   8  1   
 10   5  33  1   
 11   5  34  1   
 12   6   9  am  
 13   6  35  1   
 14   7  10  1   
 15   7  11  1   
 16   7  36  1   
 17   8  12  1   
 18   8  37  1   
 19   8  38  1   
 20   9  13  2   
 21   9  14  1   
 22  10  39  1   
 23  10  40  1   
 24  10  41  1   
 25  11  42  1   
 26  11  43  1   
 27  11  44  1   
 28  12  15  1   
 29  12  45  1   
 30  12  46  1   
 31  14  16  1   
 32  14  17  1   
 33  14  47  1   
 34  15  18  am  
 35  15  19  1   
 36  16  20  am  
 37  16  48  1   
 38  17  49  1   
 39  17  50  1   
 40  17  51  1   
 41  18  21  2   
 42  18  22  1   
 43  19  23  1   
 44  19  52  1   
 45  19  53  1   
 46  20  24  2   
 47  20  25  1   
 48  22  26  ar  
 49  22  27  ar  
 50  23  25  1   
 51  23  54  1   
 52  23  55  1   
 53  25  56  1   
 54  25  57  1   
 55  26  28  ar  
 56  27  29  ar  
 57  27  58  1   
 58  28  30  ar  
 59  28  59  1   
 60  29  30  ar  
 61  29  60  1   
 62  30  61  1   
@<TRIPOS>SUBSTRUCTURE
  1 ****  23 GROUP 4 **** **** 0

# MOE 2024.06 (io_trps.svl 2023.06)
