@<TRIPOS>MOLECULE
NONAME
49 51 1 0 0 
SMALL
USER_CHARGES


@<TRIPOS>ATOM
  1 F        1.5570     0.1530     2.4670 F     1 <1>  -0.1900 
  2 C        1.9690     0.6730     1.3370 C.ar  1 <1>   0.1900 
  3 C        2.1410    -0.1470     0.2270 C.ar  1 <1>   0.0820 
  4 C        2.2010     2.0340     1.2870 C.ar  1 <1>  -0.1500 
  5 O        1.9090    -1.4800     0.2990 O.3   1 <1>  -0.3630 
  6 C        2.5740     0.4240    -0.9610 C.ar  1 <1>  -0.1500 
  7 C        2.6230     2.5930     0.0900 C.ar  1 <1>  -0.1500 
  8 C        0.7550    -1.9760    -0.3320 C.3   1 <1>   0.2000 
  9 C        2.8090     1.7900    -1.0270 C.ar  1 <1>  -0.1500 
 10 C       -0.4640    -1.6440     0.5340 C.3   1 <1>  -0.1600 
 11 C        0.9380    -3.4870    -0.4760 C.3   1 <1>  -0.1600 
 12 C       -1.7140    -2.3540     0.0250 C.3   1 <1>   0.3430 
 13 C       -0.3420    -4.1560    -0.9650 C.3   1 <1>   0.3430 
 14 N       -1.4680    -3.8220    -0.0430 N.4   1 <1>  -0.9590 
 15 C       -2.7310    -4.5340    -0.3940 C.3   1 <1>   0.3430 
 16 C       -2.6150    -6.0250    -0.0840 C.3   1 <1>  -0.1600 
 17 C       -3.9600    -6.7250    -0.2800 C.3   1 <1>   0.3430 
 18 O       -4.9120    -6.0290     0.4300 O.3   1 <1>  -0.6800 
 19 C       -3.9340    -8.1610     0.2230 C.ar  1 <1>  -0.1430 
 20 C       -3.9510    -9.2080    -0.6870 C.ar  1 <1>  -0.1500 
 21 C       -3.8880    -8.4490     1.5810 C.ar  1 <1>  -0.1500 
 22 C       -3.9200   -10.5200    -0.2480 C.ar  1 <1>  -0.1500 
 23 C       -3.8570    -9.7610     2.0210 C.ar  1 <1>  -0.1500 
 24 C       -3.8720   -10.7970     1.1060 C.ar  1 <1>  -0.1500 
 25 H        2.0570     2.6400     2.1630 H     1 <1>   0.1500 
 26 H        2.7360    -0.1920    -1.8270 H     1 <1>   0.1500 
 27 H        2.8100     3.6520     0.0290 H     1 <1>   0.1500 
 28 H        0.6690    -1.5190    -1.3040 H     1 <1>   0.0800 
 29 H        3.1440     2.2320    -1.9500 H     1 <1>   0.1500 
 30 H       -0.2800    -1.9340     1.5540 H     1 <1>   0.0800 
 31 H       -0.6400    -0.5830     0.5160 H     1 <1>   0.0800 
 32 H        1.7280    -3.6820    -1.1800 H     1 <1>   0.0800 
 33 H        1.2220    -3.9140     0.4700 H     1 <1>   0.0800 
 34 H       -1.9690    -1.9790    -0.9530 H     1 <1>   0.0800 
 35 H       -2.5370    -2.1470     0.6920 H     1 <1>   0.0800 
 36 H       -0.1910    -5.2230    -0.9990 H     1 <1>   0.0800 
 37 H       -0.5720    -3.8140    -1.9620 H     1 <1>   0.0800 
 38 H       -1.1980    -4.1250     0.9040 H     1 <1>   0.4500 
 39 H       -3.5420    -4.1270     0.1920 H     1 <1>   0.0800 
 40 H       -2.9690    -4.3880    -1.4350 H     1 <1>   0.0800 
 41 H       -2.3030    -6.1650     0.9350 H     1 <1>   0.0800 
 42 H       -1.8980    -6.4970    -0.7290 H     1 <1>   0.0800 
 43 H       -4.2530    -6.7020    -1.3170 H     1 <1>   0.0800 
 44 H       -5.6660    -6.6320     0.6010 H     1 <1>   0.4000 
 45 H       -3.9900    -9.0170    -1.7460 H     1 <1>   0.1500 
 46 H       -3.8770    -7.6550     2.3080 H     1 <1>   0.1500 
 47 H       -3.9330   -11.3280    -0.9600 H     1 <1>   0.1500 
 48 H       -3.8210    -9.9770     3.0750 H     1 <1>   0.1500 
 49 H       -3.8470   -11.8180     1.4470 H     1 <1>   0.1500 
@<TRIPOS>BOND
  1   1   2  1   
  2   2   3  ar  
  3   2   4  ar  
  4   3   5  1   
  5   3   6  ar  
  6   4   7  ar  
  7   4  25  1   
  8   5   8  1   
  9   6   9  ar  
 10   6  26  1   
 11   7   9  ar  
 12   7  27  1   
 13   8  10  1   
 14   8  11  1   
 15   8  28  1   
 16   9  29  1   
 17  10  12  1   
 18  10  30  1   
 19  10  31  1   
 20  11  13  1   
 21  11  32  1   
 22  11  33  1   
 23  12  14  1   
 24  12  34  1   
 25  12  35  1   
 26  13  14  1   
 27  13  36  1   
 28  13  37  1   
 29  14  15  1   
 30  14  38  1   
 31  15  16  1   
 32  15  39  1   
 33  15  40  1   
 34  16  17  1   
 35  16  41  1   
 36  16  42  1   
 37  17  18  1   
 38  17  19  1   
 39  17  43  1   
 40  18  44  1   
 41  19  20  ar  
 42  19  21  ar  
 43  20  22  ar  
 44  20  45  1   
 45  21  23  ar  
 46  21  46  1   
 47  22  24  ar  
 48  22  47  1   
 49  23  24  ar  
 50  23  48  1   
 51  24  49  1   
@<TRIPOS>SUBSTRUCTURE
  1 ****  14 GROUP 4 **** **** 0

# MOE 2024.06 (io_trps.svl 2023.06)
