@<TRIPOS>MOLECULE
NONAME
38 38 1 0 0 
SMALL
USER_CHARGES


@<TRIPOS>ATOM
  1 O       -0.9510     0.7110    -0.0760 O.2   1 <1>  -0.5700 
  2 C       -1.7690    -0.1270     0.2490 C.2   1 <1>   0.7800 
  3 O       -1.4270    -1.3170     0.7230 O.3   1 <1>  -0.4300 
  4 N       -3.1010     0.0930     0.1550 N.am  1 <1>  -0.7300 
  5 C       -0.1200    -1.8070     0.9420 C.3   1 <1>   0.2800 
  6 C       -3.8290     1.3410    -0.2010 C.3   1 <1>   0.2200 
  7 C       -0.3090    -3.2170     1.5010 C.3   1 <1>  -0.2400 
  8 C        0.6460    -1.8850    -0.3830 C.3   1 <1>  -0.2400 
  9 C        0.6010    -0.9420     1.9830 C.3   1 <1>  -0.2400 
 10 C       -3.3360     1.9560    -1.5390 C.3   1 <1>   0.3430 
 11 C       -3.7250     2.3360     0.9740 C.3   1 <1>  -0.1600 
 12 N       -2.1330     2.8140    -1.3250 N.4   1 <1>  -0.9060 
 13 C       -3.5500     3.7900     0.4900 C.3   1 <1>  -0.1600 
 14 C       -2.3430     3.9880    -0.4520 C.3   1 <1>   0.4230 
 15 C       -1.0480     4.1970     0.3230 C.3   1 <1>  -0.2400 
 16 H       -3.6750    -0.6630     0.5340 H     1 <1>   0.3700 
 17 H       -4.8640     1.0800    -0.3410 H     1 <1>   0.0800 
 18 H        0.6440    -3.6720     1.7000 H     1 <1>   0.0800 
 19 H       -0.8350    -3.8330     0.7940 H     1 <1>   0.0800 
 20 H       -0.8660    -3.1850     2.4200 H     1 <1>   0.0800 
 21 H        1.5850    -2.3840    -0.2310 H     1 <1>   0.0800 
 22 H        0.8600    -0.9060    -0.7700 H     1 <1>   0.0800 
 23 H        0.0820    -2.4410    -1.1100 H     1 <1>   0.0800 
 24 H        1.5390    -1.3960     2.2470 H     1 <1>   0.0800 
 25 H        0.0060    -0.8540     2.8750 H     1 <1>   0.0800 
 26 H        0.8140     0.0380     1.5990 H     1 <1>   0.0800 
 27 H       -4.1240     2.5590    -1.9580 H     1 <1>   0.0800 
 28 H       -3.1140     1.1610    -2.2320 H     1 <1>   0.0800 
 29 H       -4.6120     2.2650     1.5800 H     1 <1>   0.0800 
 30 H       -2.8860     2.0880     1.6030 H     1 <1>   0.0800 
 31 H       -1.6860     3.0840    -2.2060 H     1 <1>   0.4500 
 32 H       -1.4490     2.2000    -0.8370 H     1 <1>   0.4500 
 33 H       -3.4560     4.4440     1.3400 H     1 <1>   0.0800 
 34 H       -4.4410     4.0980    -0.0290 H     1 <1>   0.0800 
 35 H       -2.5270     4.8610    -1.0590 H     1 <1>   0.0800 
 36 H       -0.8320     3.3540     0.9560 H     1 <1>   0.0800 
 37 H       -1.1330     5.0690     0.9460 H     1 <1>   0.0800 
 38 H       -0.2240     4.3560    -0.3500 H     1 <1>   0.0800 
@<TRIPOS>BOND
  1   1   2  2   
  2   2   3  1   
  3   2   4  am  
  4   3   5  1   
  5   4   6  1   
  6   4  16  1   
  7   5   7  1   
  8   5   8  1   
  9   5   9  1   
 10   6  10  1   
 11   6  11  1   
 12   6  17  1   
 13   7  18  1   
 14   7  19  1   
 15   7  20  1   
 16   8  21  1   
 17   8  22  1   
 18   8  23  1   
 19   9  24  1   
 20   9  25  1   
 21   9  26  1   
 22  10  12  1   
 23  10  27  1   
 24  10  28  1   
 25  11  13  1   
 26  11  29  1   
 27  11  30  1   
 28  12  14  1   
 29  12  31  1   
 30  12  32  1   
 31  13  14  1   
 32  13  33  1   
 33  13  34  1   
 34  14  15  1   
 35  14  35  1   
 36  15  36  1   
 37  15  37  1   
 38  15  38  1   
@<TRIPOS>SUBSTRUCTURE
  1 ****   1 GROUP 4 **** **** 0

# MOE 2024.06 (io_trps.svl 2023.06)
