@<TRIPOS>MOLECULE
NONAME
51 53 1 0 0 
SMALL
USER_CHARGES


@<TRIPOS>ATOM
  1 O       -1.4230     0.5090    -1.6490 O.2   1 <1>  -0.5700 
  2 C       -1.7430     0.9450    -0.5710 C.2   1 <1>   0.5690 
  3 N       -2.2260     0.1460     0.4100 N.am  1 <1>  -0.7300 
  4 C       -1.5990     2.4240    -0.3030 C.3   1 <1>  -0.0990 
  5 C       -2.4100    -1.3170     0.2880 C.3   1 <1>   0.2200 
  6 C       -0.1340     2.7940    -0.0560 C.3   1 <1>   0.0210 
  7 C       -3.8890    -1.6240     0.1320 C.3   1 <1>  -0.0800 
  8 C       -2.0940    -1.9850     1.6220 C.3   1 <1>   0.1200 
  9 C       -0.0150     4.2810     0.2230 C.2   1 <1>  -0.1810 
 10 C       -4.3740    -1.6480     1.5870 C.3   1 <1>   0.1200 
 11 C       -4.1130    -2.9700    -0.5820 C.3   1 <1>  -0.0160 
 12 O       -3.2510    -1.8630     2.3940 O.3   1 <1>  -0.5600 
 13 C       -0.0300     4.9010     1.4700 C.2   1 <1>   0.1080 
 14 C        0.1220     5.2940    -0.6600 C.2   1 <1>  -0.3320 
 15 C       -5.5950    -3.2640    -0.7650 C.ar  1 <1>  -0.1440 
 16 N        0.0870     6.1870     1.3800 N.2   1 <1>  -0.7070 
 17 C       -0.1620     4.2060     2.8060 C.3   1 <1>  -0.0590 
 18 N        0.1830     6.4340     0.0650 N.pl3 1 <1>   0.3140 
 19 C        0.1960     5.2480    -2.1790 C.3   1 <1>  -0.0600 
 20 C       -6.2590    -4.1960     0.0060 C.ar  1 <1>  -0.1500 
 21 C       -6.3510    -2.6100    -1.7160 C.ar  1 <1>  -0.1500 
 22 C        0.3320     7.8040    -0.4390 C.3   1 <1>   0.0160 
 23 C       -7.6110    -4.4190    -0.2020 C.ar  1 <1>   0.1600 
 24 C       -7.6980    -2.9080    -1.8440 C.ar  1 <1>   0.1600 
 25 N       -8.3460    -3.7960    -1.1080 N.ar  1 <1>  -0.6200 
 26 H       -2.5210     0.5340     1.3090 H     1 <1>   0.3700 
 27 H       -1.9630     2.9650    -1.1570 H     1 <1>   0.0800 
 28 H       -2.1930     2.7050     0.5460 H     1 <1>   0.0800 
 29 H       -1.8060    -1.7050    -0.5160 H     1 <1>   0.0800 
 30 H        0.4530     2.5420    -0.9210 H     1 <1>   0.0800 
 31 H        0.2550     2.2340     0.7750 H     1 <1>   0.0800 
 32 H       -4.3880    -0.8510    -0.4270 H     1 <1>   0.0800 
 33 H       -1.2660    -1.5250     2.1320 H     1 <1>   0.0800 
 34 H       -1.9010    -3.0340     1.4860 H     1 <1>   0.0800 
 35 H       -5.0950    -2.4230     1.7800 H     1 <1>   0.0800 
 36 H       -4.7930    -0.6960     1.8630 H     1 <1>   0.0800 
 37 H       -3.6530    -3.7690    -0.0280 H     1 <1>   0.0800 
 38 H       -3.6490    -2.9390    -1.5530 H     1 <1>   0.0800 
 39 H       -0.9880     3.5220     2.7870 H     1 <1>   0.0800 
 40 H       -0.3310     4.9340     3.5790 H     1 <1>   0.0800 
 41 H        0.7440     3.6720     3.0250 H     1 <1>   0.0800 
 42 H        0.0940     4.2390    -2.5360 H     1 <1>   0.0800 
 43 H        1.1430     5.6320    -2.5150 H     1 <1>   0.0800 
 44 H       -0.5950     5.8380    -2.6070 H     1 <1>   0.0800 
 45 H       -5.7420    -4.7520     0.7670 H     1 <1>   0.1500 
 46 H       -5.9070    -1.8730    -2.3600 H     1 <1>   0.1500 
 47 H        1.2440     7.8740    -1.0000 H     1 <1>   0.0800 
 48 H        0.3680     8.4810     0.3940 H     1 <1>   0.0800 
 49 H       -0.5080     8.0420    -1.0630 H     1 <1>   0.0800 
 50 H       -8.1130    -5.1500     0.4090 H     1 <1>   0.1500 
 51 H       -8.2720    -2.3880    -2.5920 H     1 <1>   0.1500 
@<TRIPOS>BOND
  1   1   2  2   
  2   2   3  am  
  3   2   4  1   
  4   3   5  1   
  5   3  26  1   
  6   4   6  1   
  7   4  27  1   
  8   4  28  1   
  9   5   7  1   
 10   5   8  1   
 11   5  29  1   
 12   6   9  1   
 13   6  30  1   
 14   6  31  1   
 15   7  10  1   
 16   7  11  1   
 17   7  32  1   
 18   8  12  1   
 19   8  33  1   
 20   8  34  1   
 21   9  13  1   
 22   9  14  2   
 23  10  12  1   
 24  10  35  1   
 25  10  36  1   
 26  11  15  1   
 27  11  37  1   
 28  11  38  1   
 29  13  16  2   
 30  13  17  1   
 31  14  18  1   
 32  14  19  1   
 33  15  20  ar  
 34  15  21  ar  
 35  16  18  1   
 36  17  39  1   
 37  17  40  1   
 38  17  41  1   
 39  18  22  1   
 40  19  42  1   
 41  19  43  1   
 42  19  44  1   
 43  20  23  ar  
 44  20  45  1   
 45  21  24  ar  
 46  21  46  1   
 47  22  47  1   
 48  22  48  1   
 49  22  49  1   
 50  23  25  ar  
 51  23  50  1   
 52  24  25  ar  
 53  24  51  1   
@<TRIPOS>SUBSTRUCTURE
  1 ****   3 GROUP 4 **** **** 0

# MOE 2024.06 (io_trps.svl 2023.06)
