@<TRIPOS>MOLECULE
NONAME
50 54 1 0 0 
SMALL
USER_CHARGES


@<TRIPOS>ATOM
  1 O       -1.5780    -0.0140    -2.1030 O.2   1 <1>  -0.5700 
  2 C       -1.9330     0.4710    -1.0490 C.2   1 <1>   0.5440 
  3 N       -2.2480    -0.3720    -0.0230 N.am  1 <1>  -0.7300 
  4 C       -2.0260     1.9050    -0.9020 C.ar  1 <1>   0.0860 
  5 C       -2.2060    -1.8540    -0.0880 C.3   1 <1>   0.2200 
  6 C       -1.3540     2.7700    -1.7460 C.ar  1 <1>   0.1600 
  7 C       -2.7900     2.5180     0.0730 C.ar  1 <1>   0.1600 
  8 C       -3.6120    -2.4360    -0.1430 C.3   1 <1>  -0.0800 
  9 C       -1.7450    -2.3810     1.2630 C.3   1 <1>   0.1200 
 10 N       -1.4140     4.0800    -1.6350 N.ar  1 <1>  -0.6200 
 11 N       -2.8750     3.8220     0.2130 N.ar  1 <1>  -0.6200 
 12 C       -4.0320    -2.4620     1.3320 C.3   1 <1>   0.1200 
 13 C       -4.5930    -1.7300    -1.1010 C.3   1 <1>  -0.0170 
 14 O       -2.8670    -2.2740     2.0850 O.3   1 <1>  -0.5600 
 15 C       -2.1730     4.5390    -0.6520 C.ar  1 <1>   0.5880 
 16 C       -5.9410    -2.4460    -1.1350 C.ar  1 <1>  -0.1430 
 17 C       -2.2550     6.0520    -0.5070 C.3   1 <1>  -0.0680 
 18 C       -7.0650    -2.0460    -0.3700 C.ar  1 <1>   0.0000 
 19 C       -6.0850    -3.5380    -1.9400 C.ar  1 <1>  -0.1500 
 20 C       -1.0150     6.8840    -0.3400 C.3   1 <1>  -0.2000 
 21 C       -1.9660     6.7270     0.8040 C.3   1 <1>  -0.2000 
 22 C       -8.2430    -2.8280    -0.4800 C.ar  1 <1>   0.3100 
 23 C       -7.1020    -0.9250     0.4930 C.ar  1 <1>  -0.1500 
 24 C       -7.2980    -4.2330    -1.9820 C.ar  1 <1>   0.1600 
 25 N       -8.3420    -3.9130    -1.2880 N.ar  1 <1>  -0.6200 
 26 C       -9.3720    -2.4740     0.2760 C.ar  1 <1>  -0.1500 
 27 C       -8.2200    -0.6050     1.2140 C.ar  1 <1>  -0.1500 
 28 C       -9.3700    -1.3890     1.1090 C.ar  1 <1>  -0.1500 
 29 H       -2.4690    -0.0280     0.9140 H     1 <1>   0.3700 
 30 H       -1.5790    -2.1910    -0.8970 H     1 <1>   0.0800 
 31 H       -0.7470     2.3600    -2.5370 H     1 <1>   0.1500 
 32 H       -3.3580     1.9160     0.7600 H     1 <1>   0.1500 
 33 H       -3.5250    -3.4600    -0.4610 H     1 <1>   0.0800 
 34 H       -0.9300    -1.8150     1.6800 H     1 <1>   0.0800 
 35 H       -1.4770    -3.4220     1.1990 H     1 <1>   0.0800 
 36 H       -4.4780    -3.4040     1.6040 H     1 <1>   0.0800 
 37 H       -4.7040    -1.6600     1.5770 H     1 <1>   0.0800 
 38 H       -4.1680    -1.7440    -2.0900 H     1 <1>   0.0800 
 39 H       -4.7170    -0.6960    -0.8450 H     1 <1>   0.0800 
 40 H       -3.0440     6.4600    -1.1110 H     1 <1>   0.1000 
 41 H       -5.2780    -3.8930    -2.5550 H     1 <1>   0.1500 
 42 H       -0.0640     6.3810    -0.3010 H     1 <1>   0.1000 
 43 H       -0.9610     7.8280    -0.8530 H     1 <1>   0.1000 
 44 H       -2.5780     7.5630     1.0950 H     1 <1>   0.1000 
 45 H       -1.6750     6.1160     1.6420 H     1 <1>   0.1000 
 46 H       -6.2380    -0.2990     0.5910 H     1 <1>   0.1500 
 47 H       -7.3660    -5.0890    -2.6320 H     1 <1>   0.1500 
 48 H      -10.2460    -3.0900     0.1760 H     1 <1>   0.1500 
 49 H       -8.2300     0.2510     1.8680 H     1 <1>   0.1500 
 50 H      -10.2440    -1.1290     1.6830 H     1 <1>   0.1500 
@<TRIPOS>BOND
  1   1   2  2   
  2   2   3  am  
  3   2   4  1   
  4   3   5  1   
  5   3  29  1   
  6   4   6  ar  
  7   4   7  ar  
  8   5   8  1   
  9   5   9  1   
 10   5  30  1   
 11   6  10  ar  
 12   6  31  1   
 13   7  11  ar  
 14   7  32  1   
 15   8  12  1   
 16   8  13  1   
 17   8  33  1   
 18   9  14  1   
 19   9  34  1   
 20   9  35  1   
 21  10  15  ar  
 22  11  15  ar  
 23  12  14  1   
 24  12  36  1   
 25  12  37  1   
 26  13  16  1   
 27  13  38  1   
 28  13  39  1   
 29  15  17  1   
 30  16  18  ar  
 31  16  19  ar  
 32  17  20  1   
 33  17  21  1   
 34  17  40  1   
 35  18  22  ar  
 36  18  23  ar  
 37  19  24  ar  
 38  19  41  1   
 39  20  21  1   
 40  20  42  1   
 41  20  43  1   
 42  21  44  1   
 43  21  45  1   
 44  22  25  ar  
 45  22  26  ar  
 46  23  27  ar  
 47  23  46  1   
 48  24  25  ar  
 49  24  47  1   
 50  26  28  ar  
 51  26  48  1   
 52  27  28  ar  
 53  27  49  1   
 54  28  50  1   
@<TRIPOS>SUBSTRUCTURE
  1 ****  13 GROUP 4 **** **** 0

# MOE 2024.06 (io_trps.svl 2023.06)
