@<TRIPOS>MOLECULE
NONAME
49 51 1 0 0 
SMALL
USER_CHARGES


@<TRIPOS>ATOM
  1 O       -0.0190     0.0680    -0.5420 O.2   1 <1>  -0.5700 
  2 C        0.8970    -0.4710     0.0390 C.2   1 <1>   0.5690 
  3 N        1.8120     0.2620     0.7650 N.am  1 <1>  -0.6600 
  4 C        1.0170    -1.9910    -0.1240 C.3   1 <1>   0.1810 
  5 C        2.9220    -0.3440     1.5600 C.3   1 <1>   0.1400 
  6 C        1.6770     1.7440     0.8630 C.3   1 <1>   0.1400 
  7 O        0.8130    -2.6850     1.0870 O.3   1 <1>  -0.5600 
  8 C        4.2270    -0.3980     0.7480 C.3   1 <1>   0.1100 
  9 C        3.0190     2.4890     0.8740 C.3   1 <1>  -0.1600 
 10 C        0.8500    -4.0780     0.9870 C.3   1 <1>   0.2640 
 11 N        4.8930     0.9120     0.6080 N.3   1 <1>  -0.8100 
 12 C        4.0670     1.9200    -0.0850 C.3   1 <1>   0.1100 
 13 C       -0.3020    -4.6010     0.1370 C.ar  1 <1>  -0.1440 
 14 C        6.2260     0.7650    -0.0330 C.3   1 <1>   0.2900 
 15 C       -0.0690    -5.5380    -0.8600 C.ar  1 <1>  -0.1500 
 16 C       -1.5940    -4.1450     0.3500 C.ar  1 <1>  -0.1500 
 17 C        7.1590     1.9760     0.0840 C.2   1 <1>   0.2980 
 18 C       -1.1160    -6.0100    -1.6330 C.ar  1 <1>  -0.1500 
 19 C       -2.6410    -4.6160    -0.4220 C.ar  1 <1>  -0.1500 
 20 O        8.2560     1.9770    -0.6060 O.3   1 <1>  -0.2800 
 21 N        7.0380     3.0420     0.7860 N.2   1 <1>  -0.3380 
 22 C       -2.4020    -5.5500    -1.4150 C.ar  1 <1>  -0.1500 
 23 C        8.8130     3.1020    -0.3000 C.2   1 <1>   0.2980 
 24 N        8.1200     3.7790     0.5310 N.2   1 <1>  -0.3380 
 25 C       10.1390     3.4810    -0.9140 C.3   1 <1>  -0.0600 
 26 H        1.9920    -2.2350    -0.5010 H     1 <1>   0.0800 
 27 H        0.2760    -2.3100    -0.8350 H     1 <1>   0.0800 
 28 H        2.6570    -1.3400     1.8580 H     1 <1>   0.0800 
 29 H        3.0820     0.2180     2.4630 H     1 <1>   0.0800 
 30 H        1.1240     1.9860     1.7540 H     1 <1>   0.0800 
 31 H        1.1060     2.1010     0.0230 H     1 <1>   0.0800 
 32 H        4.0290    -0.8200    -0.2220 H     1 <1>   0.0800 
 33 H        4.8960    -1.0610     1.2680 H     1 <1>   0.0800 
 34 H        3.4210     2.5250     1.8710 H     1 <1>   0.0800 
 35 H        2.8190     3.5060     0.5900 H     1 <1>   0.0800 
 36 H        0.7680    -4.4740     1.9840 H     1 <1>   0.0800 
 37 H        1.8030    -4.3670     0.5780 H     1 <1>   0.0800 
 38 H        4.6890     2.7400    -0.4010 H     1 <1>   0.0800 
 39 H        3.6030     1.5010    -0.9620 H     1 <1>   0.0800 
 40 H        6.0920     0.5380    -1.0760 H     1 <1>   0.0800 
 41 H        6.7400    -0.0640     0.4200 H     1 <1>   0.0800 
 42 H        0.9250    -5.9060    -1.0410 H     1 <1>   0.1500 
 43 H       -1.7840    -3.4140     1.1190 H     1 <1>   0.1500 
 44 H       -0.9300    -6.7370    -2.4050 H     1 <1>   0.1500 
 45 H       -3.6400    -4.2540    -0.2510 H     1 <1>   0.1500 
 46 H       -3.2160    -5.9150    -2.0170 H     1 <1>   0.1500 
 47 H       10.8810     2.7500    -0.6530 H     1 <1>   0.0800 
 48 H       10.4490     4.4430    -0.5490 H     1 <1>   0.0800 
 49 H       10.0440     3.5250    -1.9830 H     1 <1>   0.0800 
@<TRIPOS>BOND
  1   1   2  2   
  2   2   3  am  
  3   2   4  1   
  4   3   5  1   
  5   3   6  1   
  6   4   7  1   
  7   4  26  1   
  8   4  27  1   
  9   5   8  1   
 10   5  28  1   
 11   5  29  1   
 12   6   9  1   
 13   6  30  1   
 14   6  31  1   
 15   7  10  1   
 16   8  11  1   
 17   8  32  1   
 18   8  33  1   
 19   9  12  1   
 20   9  34  1   
 21   9  35  1   
 22  10  13  1   
 23  10  36  1   
 24  10  37  1   
 25  11  12  1   
 26  11  14  1   
 27  12  38  1   
 28  12  39  1   
 29  13  15  ar  
 30  13  16  ar  
 31  14  17  1   
 32  14  40  1   
 33  14  41  1   
 34  15  18  ar  
 35  15  42  1   
 36  16  19  ar  
 37  16  43  1   
 38  17  20  1   
 39  17  21  2   
 40  18  22  ar  
 41  18  44  1   
 42  19  22  ar  
 43  19  45  1   
 44  20  23  1   
 45  21  24  1   
 46  22  46  1   
 47  23  24  2   
 48  23  25  1   
 49  25  47  1   
 50  25  48  1   
 51  25  49  1   
@<TRIPOS>SUBSTRUCTURE
  1 ****   8 GROUP 4 **** **** 0

# MOE 2024.06 (io_trps.svl 2023.06)
