@<TRIPOS>MOLECULE
NONAME
37 39 1 0 0 
SMALL
USER_CHARGES


@<TRIPOS>ATOM
  1 O       -0.3980     0.3000    -0.3070 O.2   1 <1>  -0.5700 
  2 C       -1.4020     0.9140     0.0080 C.2   1 <1>   0.7160 
  3 N       -2.5570     0.1940     0.2310 N.am  1 <1>  -0.6600 
  4 C       -1.3640     2.3590     0.1170 C.2   1 <1>  -0.0860 
  5 C       -3.9260     0.7510     0.1030 C.3   1 <1>   0.1400 
  6 C       -2.5870    -1.2870     0.1350 C.3   1 <1>   0.1400 
  7 C       -2.1300     3.2280     0.8580 C.2   1 <1>  -0.3020 
  8 C       -0.4460     3.1840    -0.5650 C.2   1 <1>  -0.1500 
  9 C       -4.7840    -0.4260    -0.3550 C.3   1 <1>   0.2000 
 10 C       -4.0680    -1.6700     0.1630 C.3   1 <1>  -0.0800 
 11 N       -1.7340     4.5050     0.6500 N.pl3 1 <1>   0.0330 
 12 C       -0.6980     4.4720    -0.2250 C.2   1 <1>  -0.3020 
 13 O       -6.0660    -0.3600     0.1640 O.3   1 <1>  -0.6800 
 14 C       -4.3910    -2.9320    -0.6510 C.3   1 <1>   0.0200 
 15 C       -3.5980    -4.1220    -0.1460 C.2   1 <1>  -0.0400 
 16 O       -3.7780    -4.5570     1.0720 O.3   1 <1>  -0.0190 
 17 C       -2.6650    -4.8900    -0.7260 C.2   1 <1>  -0.1500 
 18 N       -3.0110    -5.5740     1.3410 N.2   1 <1>  -0.4100 
 19 C       -2.3300    -5.7980     0.2750 C.2   1 <1>   0.1080 
 20 C       -1.3040    -6.9000     0.1380 C.3   1 <1>  -0.0590 
 21 H       -4.2510     1.1060     1.0650 H     1 <1>   0.0800 
 22 H       -3.9500     1.5480    -0.6200 H     1 <1>   0.0800 
 23 H       -2.1270    -1.5880    -0.7920 H     1 <1>   0.0800 
 24 H       -2.0490    -1.7310     0.9560 H     1 <1>   0.0800 
 25 H       -2.9320     2.9840     1.5310 H     1 <1>   0.1500 
 26 H        0.3140     2.8110    -1.2320 H     1 <1>   0.1500 
 27 H       -4.8510    -0.4280    -1.4300 H     1 <1>   0.0800 
 28 H       -4.3320    -1.8340     1.1940 H     1 <1>   0.0800 
 29 H       -2.1300     5.3490     1.0820 H     1 <1>   0.2700 
 30 H       -0.1940     5.3630    -0.5570 H     1 <1>   0.1500 
 31 H       -6.0470    -0.4450     1.1370 H     1 <1>   0.4000 
 32 H       -4.1600    -2.7690    -1.6890 H     1 <1>   0.0800 
 33 H       -5.4410    -3.1520    -0.5740 H     1 <1>   0.0800 
 34 H       -2.2480    -4.8460    -1.7150 H     1 <1>   0.1500 
 35 H       -1.5820    -7.5610    -0.6620 H     1 <1>   0.0800 
 36 H       -1.2470    -7.4640     1.0520 H     1 <1>   0.0800 
 37 H       -0.3390    -6.4760    -0.0690 H     1 <1>   0.0800 
@<TRIPOS>BOND
  1   1   2  2   
  2   2   3  am  
  3   2   4  1   
  4   3   5  1   
  5   3   6  1   
  6   4   7  2   
  7   4   8  1   
  8   5   9  1   
  9   5  21  1   
 10   5  22  1   
 11   6  10  1   
 12   6  23  1   
 13   6  24  1   
 14   7  11  1   
 15   7  25  1   
 16   8  12  2   
 17   8  26  1   
 18   9  10  1   
 19   9  13  1   
 20   9  27  1   
 21  10  14  1   
 22  10  28  1   
 23  11  12  1   
 24  11  29  1   
 25  12  30  1   
 26  13  31  1   
 27  14  15  1   
 28  14  32  1   
 29  14  33  1   
 30  15  16  1   
 31  15  17  2   
 32  16  18  1   
 33  17  19  1   
 34  17  34  1   
 35  18  19  2   
 36  19  20  1   
 37  20  35  1   
 38  20  36  1   
 39  20  37  1   
@<TRIPOS>SUBSTRUCTURE
  1 ****   6 GROUP 4 **** **** 0

# MOE 2024.06 (io_trps.svl 2023.06)
