@<TRIPOS>MOLECULE
NONAME
33 34 1 0 0 
SMALL
USER_CHARGES


@<TRIPOS>ATOM
  1 N        2.3580     2.7670    -1.1710 N.ar  1 <1>  -0.6200 
  2 C        2.1790     3.9180    -0.5400 C.ar  1 <1>   0.1660 
  3 C        3.5100     2.1560    -0.9310 C.ar  1 <1>   0.1600 
  4 C        3.1010     4.4750     0.3330 C.ar  1 <1>  -0.1500 
  5 C        0.8710     4.6420    -0.8200 C.3   1 <1>  -0.0160 
  6 C        4.4950     2.6250    -0.0750 C.ar  1 <1>  -0.1440 
  7 C        4.2880     3.8200     0.5800 C.ar  1 <1>  -0.1500 
  8 C       -0.3220     4.0080    -0.0760 C.3   1 <1>  -0.0800 
  9 C        5.7870     1.8550     0.1420 C.3   1 <1>  -0.0970 
 10 C       -0.4820     2.5230    -0.4500 C.3   1 <1>   0.3430 
 11 C       -1.6120     4.7940    -0.3730 C.3   1 <1>  -0.1600 
 12 N       -1.6850     1.9380     0.2080 N.4   1 <1>  -0.9060 
 13 C       -2.8340     4.1140     0.2630 C.3   1 <1>  -0.1600 
 14 C       -2.9430     2.6450    -0.1490 C.3   1 <1>   0.3430 
 15 H        3.6800     1.2270    -1.4480 H     1 <1>   0.1500 
 16 H        2.9020     5.4140     0.8180 H     1 <1>   0.1500 
 17 H        0.6970     4.6270    -1.8830 H     1 <1>   0.0800 
 18 H        0.9680     5.6730    -0.5290 H     1 <1>   0.0800 
 19 H        5.0220     4.2290     1.2530 H     1 <1>   0.1500 
 20 H       -0.1120     4.0660     0.9780 H     1 <1>   0.0800 
 21 H        5.7210     0.8650    -0.2730 H     1 <1>   0.0800 
 22 H        5.9940     1.7690     1.1940 H     1 <1>   0.0800 
 23 H        6.6030     2.3730    -0.3300 H     1 <1>   0.0800 
 24 H        0.3970     1.9800    -0.1410 H     1 <1>   0.0800 
 25 H       -0.5660     2.4340    -1.5210 H     1 <1>   0.0800 
 26 H       -1.7610     4.8600    -1.4390 H     1 <1>   0.0800 
 27 H       -1.5250     5.8000     0.0050 H     1 <1>   0.0800 
 28 H       -1.5510     1.9820     1.2240 H     1 <1>   0.4500 
 29 H       -1.7550     0.9450    -0.0450 H     1 <1>   0.4500 
 30 H       -3.7270     4.6310    -0.0440 H     1 <1>   0.0800 
 31 H       -2.7780     4.1840     1.3360 H     1 <1>   0.0800 
 32 H       -3.7820     2.1880     0.3510 H     1 <1>   0.0800 
 33 H       -3.1060     2.5830    -1.2140 H     1 <1>   0.0800 
@<TRIPOS>BOND
  1   1   2  ar  
  2   1   3  ar  
  3   2   4  ar  
  4   2   5  1   
  5   3   6  ar  
  6   3  15  1   
  7   4   7  ar  
  8   4  16  1   
  9   5   8  1   
 10   5  17  1   
 11   5  18  1   
 12   6   7  ar  
 13   6   9  1   
 14   7  19  1   
 15   8  10  1   
 16   8  11  1   
 17   8  20  1   
 18   9  21  1   
 19   9  22  1   
 20   9  23  1   
 21  10  12  1   
 22  10  24  1   
 23  10  25  1   
 24  11  13  1   
 25  11  26  1   
 26  11  27  1   
 27  12  14  1   
 28  12  28  1   
 29  12  29  1   
 30  13  14  1   
 31  13  30  1   
 32  13  31  1   
 33  14  32  1   
 34  14  33  1   
@<TRIPOS>SUBSTRUCTURE
  1 ****   2 GROUP 4 **** **** 0

# MOE 2024.06 (io_trps.svl 2023.06)
