@<TRIPOS>MOLECULE
NONAME
44 45 1 0 0 
SMALL
USER_CHARGES


@<TRIPOS>ATOM
  1 O       -1.0240    -0.9380    -0.2620 O.2   1 <1>  -0.5700 
  2 C       -1.8820    -0.1580     0.1100 C.2   1 <1>   0.5440 
  3 N       -1.5000     1.0960     0.5470 N.am  1 <1>  -0.6600 
  4 C       -3.2630    -0.5750     0.0690 C.ar  1 <1>   0.0860 
  5 C       -0.0720     1.4150     0.8270 C.3   1 <1>   0.0600 
  6 C       -2.4100     2.2750     0.5750 C.3   1 <1>   0.0600 
  7 C       -3.7620    -1.2410    -1.0450 C.ar  1 <1>   0.1600 
  8 C       -4.1520    -0.3640     1.1170 C.ar  1 <1>  -0.1500 
  9 N       -5.0010    -1.6710    -1.2030 N.ar  1 <1>  -0.6200 
 10 C       -5.4430    -0.8080     0.9710 C.ar  1 <1>  -0.1500 
 11 C       -5.8470    -1.4540    -0.2000 C.ar  1 <1>   0.4100 
 12 N       -7.1400    -1.9230    -0.3600 N.pl3 1 <1>  -0.8380 
 13 C       -7.5170    -2.8960    -1.4380 C.3   1 <1>   0.3890 
 14 C       -8.2740    -1.5430     0.5310 C.3   1 <1>   0.1290 
 15 C       -7.9690    -4.2130    -0.8260 C.2   1 <1>   0.0070 
 16 N       -9.1850    -4.6450    -0.8560 N.2   1 <1>  -0.3380 
 17 N       -7.1590    -5.0620    -0.1790 N.pl3 1 <1>   0.0480 
 18 N       -9.2030    -5.8110    -0.2110 N.2   1 <1>  -0.3380 
 19 C       -7.9980    -6.0360     0.1820 C.2   1 <1>   0.0360 
 20 C       -5.7020    -4.9560     0.0930 C.3   1 <1>   0.1760 
 21 C       -4.9770    -6.2450    -0.3130 C.3   1 <1>  -0.2400 
 22 C       -5.4640    -4.6360     1.5720 C.3   1 <1>  -0.2400 
 23 H        0.4940     0.5120     0.9810 H     1 <1>   0.0800 
 24 H        0.0020     2.0180     1.7150 H     1 <1>   0.0800 
 25 H        0.3490     1.9500    -0.0050 H     1 <1>   0.0800 
 26 H       -3.3330     2.0620     0.0650 H     1 <1>   0.0800 
 27 H       -1.9400     3.1090     0.0840 H     1 <1>   0.0800 
 28 H       -2.6230     2.5440     1.5950 H     1 <1>   0.0800 
 29 H       -3.0770    -1.4240    -1.8560 H     1 <1>   0.1500 
 30 H       -3.8230     0.1270     2.0170 H     1 <1>   0.1500 
 31 H       -6.1420    -0.6640     1.7700 H     1 <1>   0.1500 
 32 H       -6.7060    -3.0860    -2.1160 H     1 <1>   0.0800 
 33 H       -8.3240    -2.4800    -2.0160 H     1 <1>   0.0800 
 34 H       -8.1830    -0.5160     0.8390 H     1 <1>   0.0800 
 35 H       -8.2840    -2.1810     1.3970 H     1 <1>   0.0800 
 36 H       -9.2110    -1.6550     0.0120 H     1 <1>   0.0800 
 37 H       -7.6880    -6.9020     0.7370 H     1 <1>   0.1500 
 38 H       -5.3050    -4.1540    -0.5000 H     1 <1>   0.0800 
 39 H       -5.2990    -7.0770     0.2870 H     1 <1>   0.0800 
 40 H       -3.9170    -6.1220    -0.1800 H     1 <1>   0.0800 
 41 H       -5.1610    -6.4610    -1.3510 H     1 <1>   0.0800 
 42 H       -5.8180    -5.4340     2.2000 H     1 <1>   0.0800 
 43 H       -5.9730    -3.7260     1.8360 H     1 <1>   0.0800 
 44 H       -4.4140    -4.4970     1.7520 H     1 <1>   0.0800 
@<TRIPOS>BOND
  1   1   2  2   
  2   2   3  am  
  3   2   4  1   
  4   3   5  1   
  5   3   6  1   
  6   4   7  ar  
  7   4   8  ar  
  8   5  23  1   
  9   5  24  1   
 10   5  25  1   
 11   6  26  1   
 12   6  27  1   
 13   6  28  1   
 14   7   9  ar  
 15   7  29  1   
 16   8  10  ar  
 17   8  30  1   
 18   9  11  ar  
 19  10  11  ar  
 20  10  31  1   
 21  11  12  1   
 22  12  13  1   
 23  12  14  1   
 24  13  15  1   
 25  13  32  1   
 26  13  33  1   
 27  14  34  1   
 28  14  35  1   
 29  14  36  1   
 30  15  16  2   
 31  15  17  1   
 32  16  18  1   
 33  17  19  1   
 34  17  20  1   
 35  18  19  2   
 36  19  37  1   
 37  20  21  1   
 38  20  22  1   
 39  20  38  1   
 40  21  39  1   
 41  21  40  1   
 42  21  41  1   
 43  22  42  1   
 44  22  43  1   
 45  22  44  1   
@<TRIPOS>SUBSTRUCTURE
  1 ****  11 GROUP 4 **** **** 0

# MOE 2024.06 (io_trps.svl 2023.06)
