@<TRIPOS>MOLECULE
NONAME
49 52 1 0 0 
SMALL
USER_CHARGES


@<TRIPOS>ATOM
  1 O        0.3220    -0.0370    -2.2080 O.2   1 <1>  -0.5700 
  2 C        1.0080    -0.6890    -1.4540 C.2   1 <1>   0.5690 
  3 N        1.9700    -0.1260    -0.6360 N.am  1 <1>  -0.4770 
  4 C        0.7760    -2.2100    -1.4520 C.3   1 <1>   0.1710 
  5 C        2.3970     1.2070    -0.5620 C.ar  1 <1>   0.1170 
  6 C        2.7070    -0.9170     0.3890 C.3   1 <1>   0.1400 
  7 N        0.2710    -2.7860    -0.1740 N.3   1 <1>  -0.8100 
  8 C        3.3740     1.3730     0.3960 C.ar  1 <1>  -0.1430 
  9 C        1.9790     2.3090    -1.2990 C.ar  1 <1>  -0.1500 
 10 C        3.6780     0.0600     1.0690 C.3   1 <1>  -0.0170 
 11 C       -0.9930    -2.1550     0.2490 C.3   1 <1>   0.1100 
 12 C       -0.0040    -4.2330    -0.2810 C.3   1 <1>   0.1100 
 13 C        3.9480     2.6050     0.6460 C.ar  1 <1>  -0.1500 
 14 C        2.5450     3.5510    -1.0600 C.ar  1 <1>  -0.1500 
 15 C       -1.6380    -3.1850     1.1670 C.3   1 <1>   0.2000 
 16 C       -1.3460    -4.4850     0.4230 C.3   1 <1>  -0.0800 
 17 C        3.5260     3.7000    -0.0910 C.ar  1 <1>  -0.1500 
 18 O       -0.9340    -3.1660     2.3590 O.3   1 <1>  -0.6800 
 19 C       -1.3740    -5.7660     1.2750 C.3   1 <1>   0.0210 
 20 C       -1.0470    -6.9900     0.4390 C.2   1 <1>   0.1080 
 21 N       -1.7080    -7.3190    -0.6280 N.2   1 <1>  -0.7070 
 22 C       -0.0170    -7.8830     0.7140 C.2   1 <1>  -0.1500 
 23 N       -1.1130    -8.4460    -1.0630 N.pl3 1 <1>   0.3000 
 24 C       -0.0830    -8.8060    -0.2690 C.2   1 <1>  -0.3320 
 25 C        0.7830   -10.0310    -0.4980 C.3   1 <1>  -0.0600 
 26 H        1.7050    -2.6870    -1.7070 H     1 <1>   0.0800 
 27 H        0.0760    -2.4320    -2.2380 H     1 <1>   0.0800 
 28 H        2.0110    -1.3090     1.1110 H     1 <1>   0.0800 
 29 H        3.2420    -1.7250    -0.0780 H     1 <1>   0.0800 
 30 H        1.2190     2.2030    -2.0510 H     1 <1>   0.1500 
 31 H        3.4900     0.1140     2.1260 H     1 <1>   0.0800 
 32 H        4.6980    -0.2320     0.8940 H     1 <1>   0.0800 
 33 H       -0.8240    -1.2170     0.7500 H     1 <1>   0.0800 
 34 H       -1.6300    -1.9910    -0.6050 H     1 <1>   0.0800 
 35 H       -0.0690    -4.5550    -1.3080 H     1 <1>   0.0800 
 36 H        0.7910    -4.7770     0.2010 H     1 <1>   0.0800 
 37 H        4.7080     2.7140     1.3980 H     1 <1>   0.1500 
 38 H        2.2200     4.4030    -1.6310 H     1 <1>   0.1500 
 39 H       -2.6820    -3.0120     1.3640 H     1 <1>   0.0800 
 40 H       -2.0900    -4.5900    -0.3480 H     1 <1>   0.0800 
 41 H        3.9610     4.6680     0.0880 H     1 <1>   0.1500 
 42 H        0.0110    -3.1010     2.1090 H     1 <1>   0.4000 
 43 H       -2.3530    -5.8910     1.7010 H     1 <1>   0.0800 
 44 H       -0.6680    -5.6980     2.0830 H     1 <1>   0.0800 
 45 H        0.6690    -7.8260     1.5400 H     1 <1>   0.1500 
 46 H       -1.4360    -8.9470    -1.9000 H     1 <1>   0.2700 
 47 H        1.5330   -10.1010     0.2690 H     1 <1>   0.0800 
 48 H        1.2740    -9.9670    -1.4520 H     1 <1>   0.0800 
 49 H        0.1820   -10.9220    -0.4710 H     1 <1>   0.0800 
@<TRIPOS>BOND
  1   1   2  2   
  2   2   3  am  
  3   2   4  1   
  4   3   5  1   
  5   3   6  1   
  6   4   7  1   
  7   4  26  1   
  8   4  27  1   
  9   5   8  ar  
 10   5   9  ar  
 11   6  10  1   
 12   6  28  1   
 13   6  29  1   
 14   7  11  1   
 15   7  12  1   
 16   8  10  1   
 17   8  13  ar  
 18   9  14  ar  
 19   9  30  1   
 20  10  31  1   
 21  10  32  1   
 22  11  15  1   
 23  11  33  1   
 24  11  34  1   
 25  12  16  1   
 26  12  35  1   
 27  12  36  1   
 28  13  17  ar  
 29  13  37  1   
 30  14  17  ar  
 31  14  38  1   
 32  15  16  1   
 33  15  18  1   
 34  15  39  1   
 35  16  19  1   
 36  16  40  1   
 37  17  41  1   
 38  18  42  1   
 39  19  20  1   
 40  19  43  1   
 41  19  44  1   
 42  20  21  2   
 43  20  22  1   
 44  21  23  1   
 45  22  24  2   
 46  22  45  1   
 47  23  24  1   
 48  23  46  1   
 49  24  25  1   
 50  25  47  1   
 51  25  48  1   
 52  25  49  1   
@<TRIPOS>SUBSTRUCTURE
  1 ****   7 GROUP 4 **** **** 0

# MOE 2024.06 (io_trps.svl 2023.06)
