@<TRIPOS>MOLECULE
NONAME
46 48 1 0 0 
SMALL
USER_CHARGES


@<TRIPOS>ATOM
  1 O        2.3980    -0.9060     2.6860 O.2   1 <1>  -0.5700 
  2 C        2.2490    -1.1370     1.4990 C.2   1 <1>   0.5440 
  3 N        2.4890    -0.1090     0.5990 N.am  1 <1>  -0.6600 
  4 C        1.8970    -2.4770     1.0930 C.ar  1 <1>   0.0860 
  5 C        2.7620     1.2680     1.1220 C.3   1 <1>   0.1400 
  6 C        2.7410    -0.3790    -0.8520 C.3   1 <1>   0.1400 
  7 C        0.7640    -2.7510     0.3160 C.ar  1 <1>   0.3920 
  8 C        2.6890    -3.5530     1.4720 C.ar  1 <1>  -0.1500 
  9 C        4.2650     1.6530     1.1100 C.3   1 <1>   0.4230 
 10 C        4.0800     0.1710    -1.3900 C.3   1 <1>  -0.0800 
 11 O       -0.0200    -1.7140    -0.0430 O.3   1 <1>  -0.3630 
 12 N        0.4070    -3.9640    -0.1050 N.ar  1 <1>  -0.6200 
 13 C        2.3220    -4.8110     1.0520 C.ar  1 <1>  -0.1500 
 14 N        4.6990     2.3060    -0.1800 N.4   1 <1>  -0.9590 
 15 C        5.2350     0.4970     1.4780 C.3   1 <1>   0.1200 
 16 C        5.3500    -0.4530    -0.7690 C.3   1 <1>   0.1200 
 17 C        4.0970     1.7000    -1.4050 C.3   1 <1>   0.3430 
 18 C       -1.2320    -1.9010    -0.7420 C.3   1 <1>   0.1200 
 19 C        1.1880    -4.9600     0.2740 C.ar  1 <1>   0.1600 
 20 C        4.4610     3.7820    -0.1530 C.3   1 <1>   0.2630 
 21 O        5.2510    -0.6110     0.6100 O.3   1 <1>  -0.5600 
 22 C       -1.8620    -0.5310    -0.9720 C.3   1 <1>  -0.2400 
 23 H        2.1840     1.9830     0.5660 H     1 <1>   0.0800 
 24 H        2.4170     1.3370     2.1390 H     1 <1>   0.0800 
 25 H        2.7330    -1.4400    -1.0320 H     1 <1>   0.0800 
 26 H        1.9230     0.0360    -1.4160 H     1 <1>   0.0800 
 27 H        3.5640    -3.3940     2.0790 H     1 <1>   0.1500 
 28 H        4.3830     2.3880     1.8880 H     1 <1>   0.0800 
 29 H        4.0970    -0.1120    -2.4270 H     1 <1>   0.0800 
 30 H        2.9070    -5.6720     1.3240 H     1 <1>   0.1500 
 31 H        5.7130     2.1420    -0.2350 H     1 <1>   0.4500 
 32 H        4.9580     0.1140     2.4460 H     1 <1>   0.0800 
 33 H        6.2410     0.8680     1.5550 H     1 <1>   0.0800 
 34 H        6.2380     0.1120    -0.9950 H     1 <1>   0.0800 
 35 H        5.4810    -1.4440    -1.1700 H     1 <1>   0.0800 
 36 H        3.0860     2.0530    -1.5280 H     1 <1>   0.0800 
 37 H        4.6600     2.0290    -2.2640 H     1 <1>   0.0800 
 38 H       -1.0170    -2.3890    -1.6770 H     1 <1>   0.0800 
 39 H       -1.8750    -2.5260    -0.1450 H     1 <1>   0.0800 
 40 H        0.9100    -5.9490    -0.0500 H     1 <1>   0.1500 
 41 H        3.4050     3.9910    -0.0870 H     1 <1>   0.0800 
 42 H        4.8460     4.2410    -1.0500 H     1 <1>   0.0800 
 43 H        4.9540     4.2280     0.6960 H     1 <1>   0.0800 
 44 H       -1.2080     0.0850    -1.5600 H     1 <1>   0.0800 
 45 H       -2.0600    -0.0530    -0.0290 H     1 <1>   0.0800 
 46 H       -2.7930    -0.6450    -1.4980 H     1 <1>   0.0800 
@<TRIPOS>BOND
  1   1   2  2   
  2   2   3  am  
  3   2   4  1   
  4   3   5  1   
  5   3   6  1   
  6   4   7  ar  
  7   4   8  ar  
  8   5   9  1   
  9   5  23  1   
 10   5  24  1   
 11   6  10  1   
 12   6  25  1   
 13   6  26  1   
 14   7  11  1   
 15   7  12  ar  
 16   8  13  ar  
 17   8  27  1   
 18   9  14  1   
 19   9  15  1   
 20   9  28  1   
 21  10  16  1   
 22  10  17  1   
 23  10  29  1   
 24  11  18  1   
 25  12  19  ar  
 26  13  19  ar  
 27  13  30  1   
 28  14  17  1   
 29  14  20  1   
 30  14  31  1   
 31  15  21  1   
 32  15  32  1   
 33  15  33  1   
 34  16  21  1   
 35  16  34  1   
 36  16  35  1   
 37  17  36  1   
 38  17  37  1   
 39  18  22  1   
 40  18  38  1   
 41  18  39  1   
 42  19  40  1   
 43  20  41  1   
 44  20  42  1   
 45  20  43  1   
 46  22  44  1   
 47  22  45  1   
 48  22  46  1   
@<TRIPOS>SUBSTRUCTURE
  1 ****   3 GROUP 4 **** **** 0

# MOE 2024.06 (io_trps.svl 2023.06)
