@<TRIPOS>MOLECULE
NONAME
52 55 1 0 0 
SMALL
USER_CHARGES


@<TRIPOS>ATOM
  1 O       -1.4610     1.9370     2.1090 O.2   1 <1>  -0.5700 
  2 C       -2.1840     1.8660     1.1270 C.2   1 <1>   0.5440 
  3 N       -3.3520     1.1250     1.2440 N.am  1 <1>  -0.6600 
  4 C       -1.7840     2.5840    -0.0900 C.ar  1 <1>   0.3960 
  5 C       -4.4840     1.1690     0.2790 C.3   1 <1>   0.1400 
  6 C       -3.5600     0.1410     2.3420 C.3   1 <1>   0.1400 
  7 N       -1.9800     2.0380    -1.3030 N.ar  1 <1>  -0.6200 
  8 C       -1.1830     3.8380     0.0480 C.ar  1 <1>  -0.1500 
  9 C       -4.6360    -0.2090    -0.3670 C.3   1 <1>  -0.1600 
 10 C       -3.7220    -1.2560     1.7340 C.3   1 <1>  -0.1600 
 11 C       -1.5880     2.7430    -2.3400 C.ar  1 <1>   0.3930 
 12 C       -0.7750     4.5650    -1.0500 C.ar  1 <1>  -0.1500 
 13 C       -4.8500    -1.3060     0.6920 C.3   1 <1>   0.4240 
 14 O       -1.8020     2.1810    -3.5260 O.3   1 <1>  -0.5320 
 15 C       -0.9890     3.9910    -2.2810 C.ar  1 <1>  -0.1500 
 16 O       -6.0260    -1.0020     1.4080 O.3   1 <1>  -0.5600 
 17 C       -4.9260    -2.7080     0.0460 C.ar  1 <1>  -0.1430 
 18 C       -7.2390    -1.3980     0.8500 C.3   1 <1>   0.1200 
 19 C       -6.0810    -3.4760     0.1220 C.ar  1 <1>  -0.1430 
 20 C       -3.8340    -3.2290    -0.6360 C.ar  1 <1>  -0.1500 
 21 C       -7.2980    -2.9220     0.8370 C.3   1 <1>  -0.0170 
 22 C       -6.1290    -4.7380    -0.4480 C.ar  1 <1>  -0.1500 
 23 C       -3.8690    -4.4820    -1.2230 C.ar  1 <1>   0.0830 
 24 C       -5.0280    -5.2650    -1.1170 C.ar  1 <1>   0.0830 
 25 O       -2.7250    -4.8510    -1.8670 O.3   1 <1>  -0.3630 
 26 O       -5.0550    -6.5230    -1.6490 O.3   1 <1>  -0.3620 
 27 C       -2.7790    -5.6160    -3.0500 C.3   1 <1>   0.0400 
 28 C       -6.0630    -7.4520    -1.3130 C.3   1 <1>   0.0400 
 29 H       -4.3290     1.9180    -0.4750 H     1 <1>   0.0800 
 30 H       -5.3850     1.4240     0.8110 H     1 <1>   0.0800 
 31 H       -4.4430     0.4100     2.8960 H     1 <1>   0.0800 
 32 H       -2.7260     0.1410     3.0230 H     1 <1>   0.0800 
 33 H       -1.0350     4.2360     1.0370 H     1 <1>   0.1500 
 34 H       -3.7430    -0.4140    -0.9270 H     1 <1>   0.0800 
 35 H       -5.4500    -0.2020    -1.0660 H     1 <1>   0.0800 
 36 H       -3.9260    -1.9710     2.5100 H     1 <1>   0.0800 
 37 H       -2.7870    -1.5290     1.2810 H     1 <1>   0.0800 
 38 H       -0.3110     5.5310    -0.9450 H     1 <1>   0.1500 
 39 H       -1.4700     2.7080    -4.2670 H     1 <1>   0.4500 
 40 H       -0.6950     4.5030    -3.1780 H     1 <1>   0.1500 
 41 H       -7.3210    -0.9980    -0.1460 H     1 <1>   0.0800 
 42 H       -8.0290    -0.9950     1.4580 H     1 <1>   0.0800 
 43 H       -2.9270    -2.6610    -0.7270 H     1 <1>   0.1500 
 44 H       -8.1980    -3.2370     0.3410 H     1 <1>   0.0800 
 45 H       -7.3210    -3.2870     1.8480 H     1 <1>   0.0800 
 46 H       -7.0390    -5.2990    -0.3610 H     1 <1>   0.1500 
 47 H       -1.8640    -5.4620    -3.5910 H     1 <1>   0.0800 
 48 H       -3.6180    -5.2930    -3.6420 H     1 <1>   0.0800 
 49 H       -2.8750    -6.6540    -2.7870 H     1 <1>   0.0800 
 50 H       -5.8000    -8.4000    -1.7470 H     1 <1>   0.0800 
 51 H       -7.0000    -7.1140    -1.7190 H     1 <1>   0.0800 
 52 H       -6.1130    -7.5410    -0.2420 H     1 <1>   0.0800 
@<TRIPOS>BOND
  1   1   2  2   
  2   2   3  am  
  3   2   4  1   
  4   3   5  1   
  5   3   6  1   
  6   4   7  ar  
  7   4   8  ar  
  8   5   9  1   
  9   5  29  1   
 10   5  30  1   
 11   6  10  1   
 12   6  31  1   
 13   6  32  1   
 14   7  11  ar  
 15   8  12  ar  
 16   8  33  1   
 17   9  13  1   
 18   9  34  1   
 19   9  35  1   
 20  10  13  1   
 21  10  36  1   
 22  10  37  1   
 23  11  14  1   
 24  11  15  ar  
 25  12  15  ar  
 26  12  38  1   
 27  13  16  1   
 28  13  17  1   
 29  14  39  1   
 30  15  40  1   
 31  16  18  1   
 32  17  19  ar  
 33  17  20  ar  
 34  18  21  1   
 35  18  41  1   
 36  18  42  1   
 37  19  21  1   
 38  19  22  ar  
 39  20  23  ar  
 40  20  43  1   
 41  21  44  1   
 42  21  45  1   
 43  22  24  ar  
 44  22  46  1   
 45  23  24  ar  
 46  23  25  1   
 47  24  26  1   
 48  25  27  1   
 49  26  28  1   
 50  27  47  1   
 51  27  48  1   
 52  27  49  1   
 53  28  50  1   
 54  28  51  1   
 55  28  52  1   
@<TRIPOS>SUBSTRUCTURE
  1 ****   9 GROUP 4 **** **** 0

# MOE 2024.06 (io_trps.svl 2023.06)
