@<TRIPOS>MOLECULE
NONAME
38 39 1 0 0 
SMALL
USER_CHARGES


@<TRIPOS>ATOM
  1 O       -0.2870     1.9480     1.2740 O.3   1 <1>  -0.3630 
  2 C        0.0110     3.0290     0.5280 C.ar  1 <1>   0.3920 
  3 C       -1.5970     1.6420     1.6980 C.3   1 <1>   0.0400 
  4 N        1.2780     3.1690     0.2360 N.ar  1 <1>  -0.6200 
  5 C       -0.9420     3.9320     0.1000 C.ar  1 <1>  -0.1500 
  6 C        1.6020     4.2260    -0.4950 C.ar  1 <1>   0.7200 
  7 C       -0.5030     4.9870    -0.6530 C.ar  1 <1>   0.1600 
  8 N        0.7610     5.1470    -0.9620 N.ar  1 <1>  -0.6200 
  9 N        2.9410     4.4010    -0.7770 N.pl3 1 <1>  -0.8380 
 10 C        3.4290     5.3640    -1.8100 C.3   1 <1>   0.3890 
 11 C        3.9770     3.4610    -0.2540 C.3   1 <1>   0.1290 
 12 C        4.4080     6.3650    -1.2120 C.2   1 <1>   0.0070 
 13 N        5.6100     6.5340    -1.6540 N.2   1 <1>  -0.3380 
 14 N        4.1480     7.1780    -0.1790 N.pl3 1 <1>   0.0480 
 15 N        6.1770     7.4790    -0.9040 N.2   1 <1>  -0.3380 
 16 C        5.2960     7.8430    -0.0390 C.2   1 <1>   0.0370 
 17 C        2.9270     7.3630     0.6320 C.3   1 <1>   0.0960 
 18 C        1.9300     8.2430    -0.1170 C.3   1 <1>   0.1200 
 19 O        0.8910     8.5600     0.7530 O.3   1 <1>  -0.5600 
 20 C       -0.1150     9.3240     0.1730 C.3   1 <1>   0.0400 
 21 H       -1.5560     0.7370     2.2770 H     1 <1>   0.0800 
 22 H       -2.2200     1.4920     0.8330 H     1 <1>   0.0800 
 23 H       -1.9660     2.4480     2.3070 H     1 <1>   0.0800 
 24 H       -1.9810     3.8290     0.3350 H     1 <1>   0.1500 
 25 H       -1.2050     5.7200    -1.0120 H     1 <1>   0.1500 
 26 H        2.6230     5.9010    -2.2740 H     1 <1>   0.0800 
 27 H        3.9280     4.8110    -2.5860 H     1 <1>   0.0800 
 28 H        3.7920     3.2460     0.7850 H     1 <1>   0.0800 
 29 H        4.9610     3.8890    -0.3400 H     1 <1>   0.0800 
 30 H        3.9440     2.5410    -0.8110 H     1 <1>   0.0800 
 31 H        5.4520     8.5940     0.7130 H     1 <1>   0.1500 
 32 H        3.1980     7.8380     1.5570 H     1 <1>   0.0800 
 33 H        2.4900     6.4070     0.8510 H     1 <1>   0.0800 
 34 H        1.5240     7.7180    -0.9650 H     1 <1>   0.0800 
 35 H        2.3970     9.1600    -0.4320 H     1 <1>   0.0800 
 36 H       -0.8650     9.5140     0.9210 H     1 <1>   0.0800 
 37 H       -0.5500     8.7770    -0.6450 H     1 <1>   0.0800 
 38 H        0.2980    10.2570    -0.1700 H     1 <1>   0.0800 
@<TRIPOS>BOND
  1   1   2  1   
  2   1   3  1   
  3   2   4  ar  
  4   2   5  ar  
  5   3  21  1   
  6   3  22  1   
  7   3  23  1   
  8   4   6  ar  
  9   5   7  ar  
 10   5  24  1   
 11   6   8  ar  
 12   6   9  1   
 13   7   8  ar  
 14   7  25  1   
 15   9  10  1   
 16   9  11  1   
 17  10  12  1   
 18  10  26  1   
 19  10  27  1   
 20  11  28  1   
 21  11  29  1   
 22  11  30  1   
 23  12  13  2   
 24  12  14  1   
 25  13  15  1   
 26  14  16  1   
 27  14  17  1   
 28  15  16  2   
 29  16  31  1   
 30  17  18  1   
 31  17  32  1   
 32  17  33  1   
 33  18  19  1   
 34  18  34  1   
 35  18  35  1   
 36  19  20  1   
 37  20  36  1   
 38  20  37  1   
 39  20  38  1   
@<TRIPOS>SUBSTRUCTURE
  1 ****   6 GROUP 4 **** **** 0

# MOE 2024.06 (io_trps.svl 2023.06)
