@<TRIPOS>MOLECULE
NONAME
44 46 1 0 0 
SMALL
USER_CHARGES


@<TRIPOS>ATOM
  1 O        2.1790     1.4970    -1.5540 O.2   1 <1>  -0.5700 
  2 C        2.8180     1.1990    -0.5560 C.2   1 <1>   0.7150 
  3 N        2.3330     1.6110     0.6780 N.am  1 <1>  -0.6600 
  4 C        4.0570     0.4720    -0.7410 C.2   1 <1>   0.0550 
  5 C        3.0620     1.3740     1.9720 C.3   1 <1>   0.1400 
  6 C        1.2460     2.6300     0.7380 C.3   1 <1>   0.1400 
  7 O        4.3970    -0.5860    -0.0040 O.3   1 <1>  -0.2800 
  8 C        5.0480     0.6910    -1.6500 C.2   1 <1>  -0.1500 
  9 C        3.4540     2.6660     2.7170 C.3   1 <1>   0.2090 
 10 C        1.7830     4.0280     0.3800 C.3   1 <1>  -0.1600 
 11 C        5.5720    -1.0200    -0.4010 C.2   1 <1>  -0.0100 
 12 C        6.0350    -0.2670    -1.4210 C.2   1 <1>  -0.1500 
 13 N        3.8510     3.7500     1.7720 N.pl3 1 <1>  -0.8380 
 14 C        2.7370     4.6640     1.4030 C.3   1 <1>   0.2090 
 15 C        4.9830     3.6230     1.0070 C.ar  1 <1>   0.7200 
 16 N        5.0770     4.3640    -0.0970 N.ar  1 <1>  -0.6200 
 17 N        5.8940     2.7370     1.4080 N.ar  1 <1>  -0.6200 
 18 C        6.1110     4.1680    -0.8730 C.ar  1 <1>   0.1670 
 19 C        6.9230     2.5640     0.6210 C.ar  1 <1>   0.1600 
 20 C        7.1200     3.2630    -0.5570 C.ar  1 <1>   0.0860 
 21 C        6.1070     4.9790    -2.1580 C.3   1 <1>  -0.0970 
 22 C        8.3000     3.0050    -1.3310 C.2   1 <1>   0.4230 
 23 O        8.6850     1.8910    -1.5740 O.2   1 <1>  -0.5700 
 24 C        9.1590     4.1480    -1.8340 C.3   1 <1>  -0.1790 
 25 H        3.9700     0.8320     1.8020 H     1 <1>   0.0800 
 26 H        2.4500     0.7670     2.6140 H     1 <1>   0.0800 
 27 H        0.8000     2.6380     1.7170 H     1 <1>   0.0800 
 28 H        0.4780     2.3590     0.0330 H     1 <1>   0.0800 
 29 H        5.0750     1.4580    -2.4030 H     1 <1>   0.1500 
 30 H        4.2660     2.4550     3.3910 H     1 <1>   0.0800 
 31 H        2.6250     2.9930     3.3180 H     1 <1>   0.0800 
 32 H        0.9440     4.6880     0.2640 H     1 <1>   0.0800 
 33 H        2.2740     3.9880    -0.5750 H     1 <1>   0.0800 
 34 H        6.0130    -1.8680     0.0940 H     1 <1>   0.1500 
 35 H        6.9620    -0.3550    -1.9610 H     1 <1>   0.1500 
 36 H        2.1900     4.9280     2.2910 H     1 <1>   0.0800 
 37 H        3.1380     5.5780     0.9960 H     1 <1>   0.0800 
 38 H        7.6580     1.8320     0.9130 H     1 <1>   0.1500 
 39 H        5.0960     5.2300    -2.4280 H     1 <1>   0.0800 
 40 H        6.5310     4.4180    -2.9700 H     1 <1>   0.0800 
 41 H        6.6550     5.8920    -2.0190 H     1 <1>   0.0800 
 42 H        8.9320     5.0590    -1.3120 H     1 <1>   0.0800 
 43 H        9.0030     4.2860    -2.8880 H     1 <1>   0.0800 
 44 H       10.1950     3.9110    -1.6720 H     1 <1>   0.0800 
@<TRIPOS>BOND
  1   1   2  2   
  2   2   3  am  
  3   2   4  1   
  4   3   5  1   
  5   3   6  1   
  6   4   7  1   
  7   4   8  2   
  8   5   9  1   
  9   5  25  1   
 10   5  26  1   
 11   6  10  1   
 12   6  27  1   
 13   6  28  1   
 14   7  11  1   
 15   8  12  1   
 16   8  29  1   
 17   9  13  1   
 18   9  30  1   
 19   9  31  1   
 20  10  14  1   
 21  10  32  1   
 22  10  33  1   
 23  11  12  2   
 24  11  34  1   
 25  12  35  1   
 26  13  14  1   
 27  13  15  1   
 28  14  36  1   
 29  14  37  1   
 30  15  16  ar  
 31  15  17  ar  
 32  16  18  ar  
 33  17  19  ar  
 34  18  20  ar  
 35  18  21  1   
 36  19  20  ar  
 37  19  38  1   
 38  20  22  1   
 39  21  39  1   
 40  21  40  1   
 41  21  41  1   
 42  22  23  2   
 43  22  24  1   
 44  24  42  1   
 45  24  43  1   
 46  24  44  1   
@<TRIPOS>SUBSTRUCTURE
  1 ****  15 GROUP 4 **** **** 0

# MOE 2024.06 (io_trps.svl 2023.06)
