@<TRIPOS>MOLECULE
NONAME
49 52 1 0 0 
SMALL
USER_CHARGES


@<TRIPOS>ATOM
  1 O       -0.4460    -3.5540    -1.1560 O.2   1 <1>  -0.5700 
  2 C        0.7060    -3.5530    -0.7950 C.2   1 <1>   0.5690 
  3 N        1.7080    -4.1930    -1.4710 N.am  1 <1>  -0.6600 
  4 C        1.0770    -2.8150     0.4750 C.3   1 <1>  -0.0990 
  5 C        3.1020    -4.1480    -0.9640 C.3   1 <1>   0.1400 
  6 C        1.4650    -4.9870    -2.7040 C.3   1 <1>   0.0600 
  7 C        2.3480    -1.9750     0.2610 C.3   1 <1>  -0.0800 
  8 C        3.4580    -2.7170    -0.5220 C.3   1 <1>  -0.0800 
  9 C        2.9850    -1.4930     1.5710 C.3   1 <1>  -0.1600 
 10 C        4.7080    -2.6640     0.3630 C.3   1 <1>  -0.1600 
 11 C        4.4810    -1.4570     1.2660 C.3   1 <1>   0.2200 
 12 N        5.3650    -1.4710     2.4740 N.am  1 <1>  -0.6600 
 13 C        6.4530    -0.6350     2.6200 C.2   1 <1>   0.5690 
 14 C        5.0570    -2.4670     3.5490 C.3   1 <1>   0.0600 
 15 O        7.1480    -0.6830     3.6090 O.2   1 <1>  -0.5700 
 16 C        6.8400     0.4040     1.5780 C.3   1 <1>   0.0820 
 17 C        7.2350    -0.2090     0.2470 C.2   1 <1>   0.1080 
 18 N        6.7330     0.1850    -0.8770 N.2   1 <1>  -0.7070 
 19 C        8.1710    -1.2500     0.0920 C.ar  1 <1>   0.0000 
 20 N        7.3340    -0.5830    -1.8150 N.pl3 1 <1>   0.3000 
 21 C        8.2070    -1.4730    -1.2680 C.ar  1 <1>  -0.1520 
 22 C        8.9760    -2.0260     0.9390 C.ar  1 <1>  -0.1500 
 23 C        9.0300    -2.4580    -1.8250 C.ar  1 <1>  -0.1500 
 24 C        9.7860    -2.9970     0.3990 C.ar  1 <1>  -0.1500 
 25 C        9.8130    -3.2140    -0.9860 C.ar  1 <1>  -0.1500 
 26 H        0.2610    -2.1810     0.7750 H     1 <1>   0.0800 
 27 H        1.2320    -3.5500     1.2430 H     1 <1>   0.0800 
 28 H        3.1790    -4.8250    -0.1300 H     1 <1>   0.0800 
 29 H        3.7890    -4.4730    -1.7280 H     1 <1>   0.0800 
 30 H        2.0260    -4.5700    -3.5220 H     1 <1>   0.0800 
 31 H        0.4200    -4.9740    -2.9620 H     1 <1>   0.0800 
 32 H        1.7670    -6.0070    -2.5460 H     1 <1>   0.0800 
 33 H        2.0750    -1.1090    -0.3220 H     1 <1>   0.0800 
 34 H        3.6620    -2.1450    -1.4120 H     1 <1>   0.0800 
 35 H        2.7680    -2.1970     2.3520 H     1 <1>   0.0800 
 36 H        2.6200    -0.5210     1.8530 H     1 <1>   0.0800 
 37 H        5.6000    -2.5550    -0.2250 H     1 <1>   0.0800 
 38 H        4.7800    -3.5590     0.9520 H     1 <1>   0.0800 
 39 H        4.6550    -0.5710     0.6820 H     1 <1>   0.0800 
 40 H        4.6850    -3.3830     3.1290 H     1 <1>   0.0800 
 41 H        4.3190    -2.0570     4.2160 H     1 <1>   0.0800 
 42 H        5.9410    -2.6970     4.1180 H     1 <1>   0.0800 
 43 H        6.0220     1.0830     1.4390 H     1 <1>   0.0800 
 44 H        7.6730     0.9730     1.9450 H     1 <1>   0.0800 
 45 H        7.1480    -0.4790    -2.8190 H     1 <1>   0.2700 
 46 H        8.9500    -1.8520     2.0010 H     1 <1>   0.1500 
 47 H        9.0460    -2.6150    -2.8900 H     1 <1>   0.1500 
 48 H       10.4090    -3.6000     1.0360 H     1 <1>   0.1500 
 49 H       10.4570    -3.9800    -1.3810 H     1 <1>   0.1500 
@<TRIPOS>BOND
  1   1   2  2   
  2   2   3  am  
  3   2   4  1   
  4   3   5  1   
  5   3   6  1   
  6   4   7  1   
  7   4  26  1   
  8   4  27  1   
  9   5   8  1   
 10   5  28  1   
 11   5  29  1   
 12   6  30  1   
 13   6  31  1   
 14   6  32  1   
 15   7   8  1   
 16   7   9  1   
 17   7  33  1   
 18   8  10  1   
 19   8  34  1   
 20   9  11  1   
 21   9  35  1   
 22   9  36  1   
 23  10  11  1   
 24  10  37  1   
 25  10  38  1   
 26  11  12  1   
 27  11  39  1   
 28  12  13  am  
 29  12  14  1   
 30  13  15  2   
 31  13  16  1   
 32  14  40  1   
 33  14  41  1   
 34  14  42  1   
 35  16  17  1   
 36  16  43  1   
 37  16  44  1   
 38  17  18  2   
 39  17  19  1   
 40  18  20  1   
 41  19  21  ar  
 42  19  22  ar  
 43  20  21  1   
 44  20  45  1   
 45  21  23  ar  
 46  22  24  ar  
 47  22  46  1   
 48  23  25  ar  
 49  23  47  1   
 50  24  25  ar  
 51  24  48  1   
 52  25  49  1   
@<TRIPOS>SUBSTRUCTURE
  1 ****  10 GROUP 4 **** **** 0

# MOE 2024.06 (io_trps.svl 2023.06)
