@<TRIPOS>MOLECULE
NONAME
55 59 1 0 0 
SMALL
USER_CHARGES


@<TRIPOS>ATOM
  1 O       -1.4630    -1.8970     4.0010 O.2   1 <1>  -0.5700 
  2 C       -1.0720    -2.5200     3.0300 C.2   1 <1>   0.7670 
  3 N        0.0510    -2.1060     2.3740 N.2   1 <1>  -0.6610 
  4 C       -1.7910    -3.6540     2.5720 C.2   1 <1>  -0.1360 
  5 C        0.4360    -2.7710     1.3520 C.2   1 <1>   0.4390 
  6 C       -1.3740    -4.3280     1.4740 C.2   1 <1>  -0.0380 
  7 N       -0.2260    -3.8640     0.8660 N.pl3 1 <1>  -0.5500 
  8 C        1.6870    -2.3550     0.6200 C.3   1 <1>  -0.1790 
  9 C       -2.1180    -5.5290     0.9000 C.3   1 <1>   0.4810 
 10 N       -2.8400    -5.0930    -0.3290 N.4   1 <1>  -0.9590 
 11 C       -4.0110    -4.2120     0.0230 C.3   1 <1>   0.3430 
 12 C       -3.2760    -6.2550    -1.1570 C.3   1 <1>   0.3430 
 13 C       -4.7190    -3.6560    -1.2250 C.3   1 <1>   0.1430 
 14 C       -3.9160    -5.7510    -2.4540 C.3   1 <1>  -0.1600 
 15 C       -5.9600    -2.9200    -0.7800 C.ar  1 <1>   0.1670 
 16 C       -5.0990    -4.8040    -2.1840 C.3   1 <1>  -0.1600 
 17 C       -3.9050    -2.5420    -1.9380 C.3   1 <1>  -0.1600 
 18 N       -6.8340    -3.3930     0.0730 N.ar  1 <1>  -0.6200 
 19 C       -6.0610    -1.6950    -1.3590 C.ar  1 <1>  -0.1430 
 20 C       -4.9030    -1.4190    -2.2850 C.3   1 <1>  -0.0170 
 21 C       -7.8710    -2.5840     0.3420 C.ar  1 <1>   0.6200 
 22 C       -7.1460    -0.9260    -1.0280 C.ar  1 <1>   0.1600 
 23 N       -8.0500    -1.3630    -0.1800 N.ar  1 <1>  -0.6200 
 24 C       -8.8730    -3.0690     1.2790 C.ar  1 <1>   0.0000 
 25 C       -9.5440    -2.2020     2.1460 C.ar  1 <1>  -0.1500 
 26 C       -9.2110    -4.4240     1.3550 C.ar  1 <1>  -0.1500 
 27 C      -10.4930    -2.6590     3.0410 C.ar  1 <1>  -0.1500 
 28 C      -10.1590    -4.8880     2.2480 C.ar  1 <1>  -0.1500 
 29 C      -10.8030    -4.0050     3.0950 C.ar  1 <1>  -0.1500 
 30 H       -2.6610    -3.9140     3.1450 H     1 <1>   0.1500 
 31 H        0.2320    -4.3480     0.0870 H     1 <1>   0.4000 
 32 H        2.4150    -3.1440     0.6520 H     1 <1>   0.0800 
 33 H        2.1120    -1.4830     1.0860 H     1 <1>   0.0800 
 34 H        1.4590    -2.1150    -0.4020 H     1 <1>   0.0800 
 35 H       -2.8190    -5.9110     1.6250 H     1 <1>   0.0800 
 36 H       -1.4100    -6.3070     0.6670 H     1 <1>   0.0800 
 37 H       -2.1890    -4.5240    -0.8820 H     1 <1>   0.4500 
 38 H       -3.6890    -3.3830     0.6330 H     1 <1>   0.0800 
 39 H       -4.7310    -4.7780     0.5930 H     1 <1>   0.0800 
 40 H       -3.9960    -6.8450    -0.6100 H     1 <1>   0.0800 
 41 H       -2.4330    -6.8840    -1.3940 H     1 <1>   0.0800 
 42 H       -4.2680    -6.5980    -3.0180 H     1 <1>   0.0800 
 43 H       -3.1710    -5.2600    -3.0560 H     1 <1>   0.0800 
 44 H       -5.4740    -4.4040    -3.1120 H     1 <1>   0.0800 
 45 H       -5.9010    -5.3740    -1.7420 H     1 <1>   0.0800 
 46 H       -3.3970    -2.8890    -2.8200 H     1 <1>   0.0800 
 47 H       -3.1750    -2.1340    -1.2600 H     1 <1>   0.0800 
 48 H       -5.2330    -1.5000    -3.3070 H     1 <1>   0.0800 
 49 H       -4.4810    -0.4420    -2.1160 H     1 <1>   0.0800 
 50 H       -7.2780     0.0530    -1.4570 H     1 <1>   0.1500 
 51 H       -9.3180    -1.1500     2.1160 H     1 <1>   0.1500 
 52 H       -8.7250    -5.1240     0.6990 H     1 <1>   0.1500 
 53 H      -10.9930    -1.9660     3.6960 H     1 <1>   0.1500 
 54 H      -10.4000    -5.9360     2.2840 H     1 <1>   0.1500 
 55 H      -11.5420    -4.3630     3.7910 H     1 <1>   0.1500 
@<TRIPOS>BOND
  1   1   2  2   
  2   2   3  1   
  3   2   4  1   
  4   3   5  2   
  5   4   6  2   
  6   4  30  1   
  7   5   7  1   
  8   5   8  1   
  9   6   7  1   
 10   6   9  1   
 11   7  31  1   
 12   8  32  1   
 13   8  33  1   
 14   8  34  1   
 15   9  10  1   
 16   9  35  1   
 17   9  36  1   
 18  10  11  1   
 19  10  12  1   
 20  10  37  1   
 21  11  13  1   
 22  11  38  1   
 23  11  39  1   
 24  12  14  1   
 25  12  40  1   
 26  12  41  1   
 27  13  15  1   
 28  13  16  1   
 29  13  17  1   
 30  14  16  1   
 31  14  42  1   
 32  14  43  1   
 33  15  18  ar  
 34  15  19  ar  
 35  16  44  1   
 36  16  45  1   
 37  17  20  1   
 38  17  46  1   
 39  17  47  1   
 40  18  21  ar  
 41  19  20  1   
 42  19  22  ar  
 43  20  48  1   
 44  20  49  1   
 45  21  23  ar  
 46  21  24  1   
 47  22  23  ar  
 48  22  50  1   
 49  24  25  ar  
 50  24  26  ar  
 51  25  27  ar  
 52  25  51  1   
 53  26  28  ar  
 54  26  52  1   
 55  27  29  ar  
 56  27  53  1   
 57  28  29  ar  
 58  28  54  1   
 59  29  55  1   
@<TRIPOS>SUBSTRUCTURE
  1 ****  11 GROUP 4 **** **** 0

# MOE 2024.06 (io_trps.svl 2023.06)
