@<TRIPOS>MOLECULE
NONAME
38 40 1 0 0 
SMALL
USER_CHARGES


@<TRIPOS>ATOM
  1 CL      -0.0520     0.4430     0.2180 Cl    1 <1>  -0.1770 
  2 C       -1.5520    -0.4510     0.0990 C.ar  1 <1>   0.1770 
  3 C       -1.5580    -1.7890    -0.2050 C.ar  1 <1>   0.1600 
  4 C       -2.7620     0.1630     0.3060 C.ar  1 <1>   0.1600 
  5 N       -2.6780    -2.4690    -0.2960 N.ar  1 <1>  -0.6200 
  6 N       -3.8960    -0.4960     0.2210 N.ar  1 <1>  -0.6200 
  7 C       -3.8110    -1.7970    -0.0800 C.ar  1 <1>   0.7200 
  8 N       -4.9950    -2.4960    -0.1700 N.pl3 1 <1>  -0.8380 
  9 C       -5.1100    -3.8460    -0.8260 C.3   1 <1>   0.2090 
 10 C       -6.3090    -1.8510     0.1390 C.3   1 <1>   0.2090 
 11 C       -5.8350    -4.8830     0.0780 C.3   1 <1>  -0.1060 
 12 C       -7.3980    -2.8920     0.4270 C.3   1 <1>  -0.1600 
 13 C       -6.6380    -5.8210    -0.8410 C.2   1 <1>   0.9060 
 14 C       -6.7520    -4.1140     1.0730 C.3   1 <1>   0.2000 
 15 C       -4.8230    -5.7080     0.9180 C.3   1 <1>  -0.0650 
 16 O       -7.5710    -6.4880    -0.3680 O.co2 1 <1>  -0.9000 
 17 O       -6.3530    -5.9150    -2.0410 O.co2 1 <1>  -0.9000 
 18 O       -7.7410    -4.9130     1.6110 O.3   1 <1>  -0.6800 
 19 C       -3.8480    -6.5820     0.1120 C.3   1 <1>  -0.1950 
 20 C       -2.6530    -7.1810     0.7830 C.3   1 <1>  -0.2000 
 21 C       -2.4770    -6.1030    -0.2470 C.3   1 <1>  -0.2000 
 22 H       -0.6290    -2.3040    -0.3740 H     1 <1>   0.1500 
 23 H       -2.7930     1.2110     0.5460 H     1 <1>   0.1500 
 24 H       -5.6800    -3.6930    -1.7270 H     1 <1>   0.0800 
 25 H       -4.1570    -4.2260    -1.1420 H     1 <1>   0.0800 
 26 H       -6.1930    -1.2320     1.0130 H     1 <1>   0.0800 
 27 H       -6.6050    -1.2230    -0.6830 H     1 <1>   0.0800 
 28 H       -7.8830    -3.1770    -0.4900 H     1 <1>   0.0800 
 29 H       -8.1310    -2.4640     1.0850 H     1 <1>   0.0800 
 30 H       -6.1630    -3.7680     1.9060 H     1 <1>   0.0800 
 31 H       -4.2590    -5.0400     1.5460 H     1 <1>   0.0800 
 32 H       -5.3840    -6.3620     1.5630 H     1 <1>   0.0800 
 33 H       -7.9040    -5.6460     0.9350 H     1 <1>   0.4000 
 34 H       -4.3540    -7.2120    -0.6030 H     1 <1>   0.1000 
 35 H       -2.4660    -6.9440     1.8160 H     1 <1>   0.1000 
 36 H       -2.3830    -8.1910     0.5330 H     1 <1>   0.1000 
 37 H       -2.1040    -6.3520    -1.2240 H     1 <1>   0.1000 
 38 H       -2.1710    -5.1240     0.0750 H     1 <1>   0.1000 
@<TRIPOS>BOND
  1   1   2  1   
  2   2   3  ar  
  3   2   4  ar  
  4   3   5  ar  
  5   3  22  1   
  6   4   6  ar  
  7   4  23  1   
  8   5   7  ar  
  9   6   7  ar  
 10   7   8  1   
 11   8   9  1   
 12   8  10  1   
 13   9  11  1   
 14   9  24  1   
 15   9  25  1   
 16  10  12  1   
 17  10  26  1   
 18  10  27  1   
 19  11  13  1   
 20  11  14  1   
 21  11  15  1   
 22  12  14  1   
 23  12  28  1   
 24  12  29  1   
 25  13  16  ar  
 26  13  17  ar  
 27  14  18  1   
 28  14  30  1   
 29  15  19  1   
 30  15  31  1   
 31  15  32  1   
 32  18  33  1   
 33  19  20  1   
 34  19  21  1   
 35  19  34  1   
 36  20  21  1   
 37  20  35  1   
 38  20  36  1   
 39  21  37  1   
 40  21  38  1   
@<TRIPOS>SUBSTRUCTURE
  1 ****   9 GROUP 4 **** **** 0

# MOE 2024.06 (io_trps.svl 2023.06)
