@<TRIPOS>MOLECULE
NONAME
49 52 1 0 0 
SMALL
USER_CHARGES


@<TRIPOS>ATOM
  1 O       -3.3950     2.9650    -0.4360 O.2   1 <1>  -0.5700 
  2 C       -2.7760     1.9820    -0.0750 C.2   1 <1>   0.7160 
  3 N       -3.1810     0.7520    -0.5390 N.am  1 <1>  -0.6600 
  4 C       -1.6730     2.1350     0.8370 C.2   1 <1>  -0.0860 
  5 C       -4.3900     0.5640    -1.3800 C.3   1 <1>   0.1400 
  6 C       -2.6590    -0.5560    -0.0840 C.3   1 <1>   0.1400 
  7 C       -0.3770     1.6360     0.7230 C.2   1 <1>   0.2350 
  8 C       -1.6160     2.7830     2.0170 C.2   1 <1>  -0.0400 
  9 C       -4.5730    -0.9520    -1.4900 C.3   1 <1>   0.2000 
 10 C       -3.7930    -1.5490    -0.3200 C.3   1 <1>  -0.0800 
 11 N        0.2990     1.9630     1.7750 N.2   1 <1>  -0.4100 
 12 C        0.1610     0.8690    -0.3790 C.ar  1 <1>   0.0540 
 13 O       -0.4420     2.6790     2.5850 O.3   1 <1>  -0.0190 
 14 C       -2.6900     3.5730     2.7400 C.3   1 <1>  -0.0600 
 15 O       -5.9070    -1.3160    -1.4070 O.3   1 <1>  -0.6800 
 16 C       -3.2880    -2.9770    -0.5790 C.3   1 <1>   0.0210 
 17 C       -0.0500     1.2420    -1.7060 C.ar  1 <1>  -0.1500 
 18 C        0.8960    -0.2910    -0.1420 C.ar  1 <1>  -0.1500 
 19 C       -2.2580    -3.3780     0.4600 C.2   1 <1>   0.1080 
 20 C        0.4380     0.4790    -2.7510 C.ar  1 <1>  -0.1500 
 21 C        1.3870    -1.0580    -1.1820 C.ar  1 <1>  -0.1500 
 22 N       -2.5260    -3.4600     1.7250 N.2   1 <1>  -0.7070 
 23 C       -0.9230    -3.6590     0.1860 C.2   1 <1>  -0.1500 
 24 C        1.1560    -0.6740    -2.4910 C.ar  1 <1>  -0.1500 
 25 N       -1.3580    -3.8070     2.2990 N.pl3 1 <1>   0.3000 
 26 C       -0.3710    -3.9280     1.3870 C.2   1 <1>  -0.3320 
 27 C        1.0610    -4.2980     1.7260 C.3   1 <1>  -0.0600 
 28 H       -5.2350     1.0240    -0.8970 H     1 <1>   0.0800 
 29 H       -4.2370     1.0050    -2.3490 H     1 <1>   0.0800 
 30 H       -1.8120    -0.8250    -0.6910 H     1 <1>   0.0800 
 31 H       -2.3690    -0.5350     0.9540 H     1 <1>   0.0800 
 32 H       -4.1880    -1.2930    -2.4360 H     1 <1>   0.0800 
 33 H       -4.4000    -1.5470     0.5690 H     1 <1>   0.0800 
 34 H       -3.6070     3.5740     2.1800 H     1 <1>   0.0800 
 35 H       -2.3650     4.5890     2.8710 H     1 <1>   0.0800 
 36 H       -2.8740     3.1380     3.7060 H     1 <1>   0.0800 
 37 H       -6.2640    -1.0920    -0.5250 H     1 <1>   0.4000 
 38 H       -2.8420    -3.0410    -1.5550 H     1 <1>   0.0800 
 39 H       -4.1140    -3.6650    -0.5430 H     1 <1>   0.0800 
 40 H       -0.6010     2.1410    -1.9210 H     1 <1>   0.1500 
 41 H        1.0790    -0.5930     0.8760 H     1 <1>   0.1500 
 42 H        0.2620     0.7850    -3.7690 H     1 <1>   0.1500 
 43 H        1.9500    -1.9510    -0.9730 H     1 <1>   0.1500 
 44 H       -0.4590    -3.6510    -0.7840 H     1 <1>   0.1500 
 45 H        1.5380    -1.2680    -3.3040 H     1 <1>   0.1500 
 46 H       -1.2690    -3.9510     3.3120 H     1 <1>   0.2700 
 47 H        1.6550    -4.3360     0.8300 H     1 <1>   0.0800 
 48 H        1.0940    -5.2630     2.1990 H     1 <1>   0.0800 
 49 H        1.4880    -3.5660     2.3890 H     1 <1>   0.0800 
@<TRIPOS>BOND
  1   1   2  2   
  2   2   3  am  
  3   2   4  1   
  4   3   5  1   
  5   3   6  1   
  6   4   7  1   
  7   4   8  2   
  8   5   9  1   
  9   5  28  1   
 10   5  29  1   
 11   6  10  1   
 12   6  30  1   
 13   6  31  1   
 14   7  11  2   
 15   7  12  1   
 16   8  13  1   
 17   8  14  1   
 18   9  10  1   
 19   9  15  1   
 20   9  32  1   
 21  10  16  1   
 22  10  33  1   
 23  11  13  1   
 24  12  17  ar  
 25  12  18  ar  
 26  14  34  1   
 27  14  35  1   
 28  14  36  1   
 29  15  37  1   
 30  16  19  1   
 31  16  38  1   
 32  16  39  1   
 33  17  20  ar  
 34  17  40  1   
 35  18  21  ar  
 36  18  41  1   
 37  19  22  2   
 38  19  23  1   
 39  20  24  ar  
 40  20  42  1   
 41  21  24  ar  
 42  21  43  1   
 43  22  25  1   
 44  23  26  2   
 45  23  44  1   
 46  24  45  1   
 47  25  26  1   
 48  25  46  1   
 49  26  27  1   
 50  27  47  1   
 51  27  48  1   
 52  27  49  1   
@<TRIPOS>SUBSTRUCTURE
  1 ****   6 GROUP 4 **** **** 0

# MOE 2024.06 (io_trps.svl 2023.06)
