@<TRIPOS>MOLECULE
NONAME
50 54 1 0 0 
SMALL
USER_CHARGES


@<TRIPOS>ATOM
  1 O        0.4770     1.3760     0.8370 O.2   1 <1>  -0.5700 
  2 C       -0.3760     1.9680     0.1970 C.2   1 <1>   0.7150 
  3 N       -1.7010     1.6890     0.4790 N.am  1 <1>  -0.6600 
  4 C        0.0560     2.9270    -0.7940 C.2   1 <1>   0.0550 
  5 C       -2.8320     2.6190     0.1320 C.3   1 <1>   0.1400 
  6 C       -2.0470     0.4830     1.2930 C.3   1 <1>   0.1400 
  7 O       -0.7340     3.3950    -1.7360 O.3   1 <1>  -0.0190 
  8 C        1.2590     3.5090    -1.0000 C.2   1 <1>  -0.1500 
  9 C       -3.9510     2.5960     1.1930 C.3   1 <1>   0.1440 
 10 C       -3.4960     0.0500     1.0460 C.3   1 <1>  -0.1600 
 11 N       -0.1450     4.2420    -2.5230 N.2   1 <1>  -0.4100 
 12 C        1.0660     4.3270    -2.1010 C.2   1 <1>   0.1080 
 13 C       -5.0150     3.6050     0.7900 C.ar  1 <1>   0.1660 
 14 C       -4.5240     1.1610     1.3400 C.3   1 <1>  -0.1600 
 15 C       -3.4460     3.1770     2.5470 C.3   1 <1>  -0.1600 
 16 C        2.1150     5.2080    -2.7410 C.3   1 <1>  -0.0590 
 17 N       -5.8700     3.4580    -0.1940 N.ar  1 <1>  -0.6200 
 18 C       -4.9760     4.7210     1.5680 C.ar  1 <1>  -0.1440 
 19 C       -3.8860     4.6500     2.6050 C.3   1 <1>  -0.0170 
 20 C       -6.7270     4.4690    -0.3870 C.ar  1 <1>   0.6200 
 21 C       -5.8830     5.7140     1.3080 C.ar  1 <1>   0.1600 
 22 N       -6.7610     5.5970     0.3380 N.ar  1 <1>  -0.6200 
 23 C       -7.6970     4.3310    -1.4670 C.ar  1 <1>   0.0000 
 24 C       -8.1150     3.0760    -1.9220 C.ar  1 <1>  -0.1500 
 25 C       -8.2560     5.4460    -2.1000 C.ar  1 <1>  -0.1500 
 26 C       -9.0360     2.9410    -2.9450 C.ar  1 <1>  -0.1500 
 27 C       -9.1780     5.3180    -3.1230 C.ar  1 <1>  -0.1500 
 28 C       -9.5710     4.0630    -3.5490 C.ar  1 <1>  -0.1500 
 29 H       -3.2430     2.3270    -0.8200 H     1 <1>   0.0800 
 30 H       -2.4660     3.6260     0.0410 H     1 <1>   0.0800 
 31 H       -1.9020     0.7070     2.3360 H     1 <1>   0.0800 
 32 H       -1.3840    -0.3270     1.0340 H     1 <1>   0.0800 
 33 H        2.1670     3.3710    -0.4410 H     1 <1>   0.1500 
 34 H       -3.7190    -0.8150     1.6450 H     1 <1>   0.0800 
 35 H       -3.5790    -0.2460     0.0150 H     1 <1>   0.0800 
 36 H       -5.3390     1.0290     0.6490 H     1 <1>   0.0800 
 37 H       -4.9380     1.0260     2.3230 H     1 <1>   0.0800 
 38 H       -2.3800     3.0900     2.6670 H     1 <1>   0.0800 
 39 H       -3.9140     2.6630     3.3670 H     1 <1>   0.0800 
 40 H        3.0480     5.1280    -2.2140 H     1 <1>   0.0800 
 41 H        1.7870     6.2320    -2.7230 H     1 <1>   0.0800 
 42 H        2.2620     4.9090    -3.7630 H     1 <1>   0.0800 
 43 H       -3.0750     5.3010     2.3230 H     1 <1>   0.0800 
 44 H       -4.2480     4.9170     3.5830 H     1 <1>   0.0800 
 45 H       -5.8900     6.6150     1.8980 H     1 <1>   0.1500 
 46 H       -7.7120     2.1900    -1.4650 H     1 <1>   0.1500 
 47 H       -7.9630     6.4320    -1.7850 H     1 <1>   0.1500 
 48 H       -9.3360     1.9600    -3.2710 H     1 <1>   0.1500 
 49 H       -9.5900     6.1970    -3.5880 H     1 <1>   0.1500 
 50 H      -10.2880     3.9610    -4.3450 H     1 <1>   0.1500 
@<TRIPOS>BOND
  1   1   2  2   
  2   2   3  am  
  3   2   4  1   
  4   3   5  1   
  5   3   6  1   
  6   4   7  1   
  7   4   8  2   
  8   5   9  1   
  9   5  29  1   
 10   5  30  1   
 11   6  10  1   
 12   6  31  1   
 13   6  32  1   
 14   7  11  1   
 15   8  12  1   
 16   8  33  1   
 17   9  13  1   
 18   9  14  1   
 19   9  15  1   
 20  10  14  1   
 21  10  34  1   
 22  10  35  1   
 23  11  12  2   
 24  12  16  1   
 25  13  17  ar  
 26  13  18  ar  
 27  14  36  1   
 28  14  37  1   
 29  15  19  1   
 30  15  38  1   
 31  15  39  1   
 32  16  40  1   
 33  16  41  1   
 34  16  42  1   
 35  17  20  ar  
 36  18  19  1   
 37  18  21  ar  
 38  19  43  1   
 39  19  44  1   
 40  20  22  ar  
 41  20  23  1   
 42  21  22  ar  
 43  21  45  1   
 44  23  24  ar  
 45  23  25  ar  
 46  24  26  ar  
 47  24  46  1   
 48  25  27  ar  
 49  25  47  1   
 50  26  28  ar  
 51  26  48  1   
 52  27  28  ar  
 53  27  49  1   
 54  28  50  1   
@<TRIPOS>SUBSTRUCTURE
  1 ****   5 GROUP 4 **** **** 0

# MOE 2024.06 (io_trps.svl 2023.06)
