@<TRIPOS>MOLECULE
NONAME
23 23 1 0 0 
SMALL
USER_CHARGES


@<TRIPOS>ATOM
  1 O       -4.0830     2.4920     1.4540 O.3   1 <1>  -0.5600 
  2 C       -5.3960     2.2170     1.0170 C.3   1 <1>   0.2000 
  3 C       -3.0850     2.6340     0.4730 C.3   1 <1>   0.2000 
  4 C       -5.4310     0.9030     0.1910 C.3   1 <1>   0.3430 
  5 C       -6.0060     3.4180     0.2610 C.3   1 <1>   0.1200 
  6 C       -3.2220     1.5610    -0.6400 C.3   1 <1>   0.3430 
  7 C       -1.7510     2.5210     1.2090 C.3   1 <1>  -0.2400 
  8 N       -4.0580     0.4110    -0.1710 N.4   1 <1>  -0.9060 
  9 O       -5.5560     3.4690    -1.0580 O.3   1 <1>  -0.6800 
 10 H       -5.9790     2.0740     1.9100 H     1 <1>   0.0800 
 11 H       -3.1670     3.6180     0.0430 H     1 <1>   0.0800 
 12 H       -6.0000     1.0830    -0.7070 H     1 <1>   0.0800 
 13 H       -5.9530     0.1480     0.7550 H     1 <1>   0.0800 
 14 H       -5.7500     4.3400     0.7560 H     1 <1>   0.0800 
 15 H       -7.0790     3.3260     0.2320 H     1 <1>   0.0800 
 16 H       -2.2420     1.2260    -0.9370 H     1 <1>   0.0800 
 17 H       -3.6850     2.0170    -1.5010 H     1 <1>   0.0800 
 18 H       -1.6510     1.5590     1.6790 H     1 <1>   0.0800 
 19 H       -1.6880     3.2870     1.9620 H     1 <1>   0.0800 
 20 H       -0.9330     2.6600     0.5250 H     1 <1>   0.0800 
 21 H       -3.6200     0.0570     0.6890 H     1 <1>   0.4500 
 22 H       -4.0950    -0.3410    -0.8680 H     1 <1>   0.4500 
 23 H       -5.9130     4.2660    -1.5090 H     1 <1>   0.4000 
@<TRIPOS>BOND
  1   1   2  1   
  2   1   3  1   
  3   2   4  1   
  4   2   5  1   
  5   2  10  1   
  6   3   6  1   
  7   3   7  1   
  8   3  11  1   
  9   4   8  1   
 10   4  12  1   
 11   4  13  1   
 12   5   9  1   
 13   5  14  1   
 14   5  15  1   
 15   6   8  1   
 16   6  16  1   
 17   6  17  1   
 18   7  18  1   
 19   7  19  1   
 20   7  20  1   
 21   8  21  1   
 22   8  22  1   
 23   9  23  1   
@<TRIPOS>SUBSTRUCTURE
  1 ****   1 GROUP 4 **** **** 0

# MOE 2024.06 (io_trps.svl 2023.06)
