@<TRIPOS>MOLECULE
NONAME
46 47 1 0 0 
SMALL
USER_CHARGES


@<TRIPOS>ATOM
  1 S       -0.1790    -0.4810    -0.6920 S.3   1 <1>  -0.0800 
  2 C       -1.7850    -0.9320    -0.2170 C.2   1 <1>   0.4420 
  3 C       -0.5650     1.1300    -0.1970 C.2   1 <1>   0.1980 
  4 N       -2.4480     0.0670     0.2430 N.2   1 <1>  -0.3380 
  5 N       -2.1340    -2.2560    -0.3860 N.am  1 <1>  -0.4940 
  6 N       -1.7470     1.2390     0.2510 N.2   1 <1>  -0.3380 
  7 C        0.4850     2.2100    -0.3370 C.3   1 <1>   0.0200 
  8 C       -3.3230    -2.8720    -0.1210 C.2   1 <1>   0.5690 
  9 C       -0.1140     3.5430     0.1300 C.3   1 <1>   0.3430 
 10 O       -4.2920    -2.3040     0.3090 O.2   1 <1>  -0.5700 
 11 C       -3.4230    -4.3600    -0.3800 C.3   1 <1>  -0.0990 
 12 N        0.8290     4.7000    -0.0280 N.4   1 <1>  -0.9590 
 13 C       -3.3820    -5.1550     0.9300 C.3   1 <1>  -0.0170 
 14 C        1.9940     4.6260     0.9120 C.3   1 <1>   0.2630 
 15 C        0.0850     5.9820     0.1840 C.3   1 <1>   0.2630 
 16 C       -3.4270    -6.6470     0.6430 C.ar  1 <1>  -0.1430 
 17 C       -4.6430    -7.2790     0.4320 C.ar  1 <1>  -0.1500 
 18 C       -2.2570    -7.3890     0.5840 C.ar  1 <1>  -0.1500 
 19 C       -4.6940    -8.6360     0.1650 C.ar  1 <1>  -0.1500 
 20 C       -2.3050    -8.7460     0.3170 C.ar  1 <1>  -0.1500 
 21 C       -3.5180    -9.3800     0.1050 C.ar  1 <1>   0.0820 
 22 O       -3.4770   -10.7110    -0.1500 O.3   1 <1>  -0.3620 
 23 C       -4.6560   -11.4540    -0.3590 C.3   1 <1>   0.0400 
 24 H       -1.4030    -2.8500    -0.7630 H     1 <1>   0.3700 
 25 H        0.7780     2.2750    -1.3690 H     1 <1>   0.0800 
 26 H        1.3320     1.9400     0.2650 H     1 <1>   0.0800 
 27 H       -0.4140     3.4520     1.1620 H     1 <1>   0.0800 
 28 H       -1.0060     3.7270    -0.4480 H     1 <1>   0.0800 
 29 H       -2.6260    -4.6810    -1.0250 H     1 <1>   0.0800 
 30 H       -4.3520    -4.5550    -0.8840 H     1 <1>   0.0800 
 31 H        1.1850     4.7050    -0.9980 H     1 <1>   0.4500 
 32 H       -4.2210    -4.8800     1.5460 H     1 <1>   0.0800 
 33 H       -2.4870    -4.9170     1.4770 H     1 <1>   0.0800 
 34 H        1.6510     4.6060     1.9340 H     1 <1>   0.0800 
 35 H        2.6350     5.4840     0.7820 H     1 <1>   0.0800 
 36 H        2.5760     3.7370     0.7260 H     1 <1>   0.0800 
 37 H       -0.3120     6.0240     1.1860 H     1 <1>   0.0800 
 38 H       -0.7330     6.0610    -0.5130 H     1 <1>   0.0800 
 39 H        0.7410     6.8260     0.0390 H     1 <1>   0.0800 
 40 H       -5.5580    -6.7140     0.4760 H     1 <1>   0.1500 
 41 H       -1.3040    -6.9190     0.7480 H     1 <1>   0.1500 
 42 H       -5.6510    -9.0940     0.0070 H     1 <1>   0.1500 
 43 H       -1.4010    -9.3250     0.2720 H     1 <1>   0.1500 
 44 H       -4.3790   -12.4780    -0.5340 H     1 <1>   0.0800 
 45 H       -5.1690   -11.0620    -1.2190 H     1 <1>   0.0800 
 46 H       -5.2710   -11.3870     0.5210 H     1 <1>   0.0800 
@<TRIPOS>BOND
  1   1   2  1   
  2   1   3  1   
  3   2   4  2   
  4   2   5  1   
  5   3   6  2   
  6   3   7  1   
  7   4   6  1   
  8   5   8  am  
  9   5  24  1   
 10   7   9  1   
 11   7  25  1   
 12   7  26  1   
 13   8  10  2   
 14   8  11  1   
 15   9  12  1   
 16   9  27  1   
 17   9  28  1   
 18  11  13  1   
 19  11  29  1   
 20  11  30  1   
 21  12  14  1   
 22  12  15  1   
 23  12  31  1   
 24  13  16  1   
 25  13  32  1   
 26  13  33  1   
 27  14  34  1   
 28  14  35  1   
 29  14  36  1   
 30  15  37  1   
 31  15  38  1   
 32  15  39  1   
 33  16  17  ar  
 34  16  18  ar  
 35  17  19  ar  
 36  17  40  1   
 37  18  20  ar  
 38  18  41  1   
 39  19  21  ar  
 40  19  42  1   
 41  20  21  ar  
 42  20  43  1   
 43  21  22  1   
 44  22  23  1   
 45  23  44  1   
 46  23  45  1   
 47  23  46  1   
@<TRIPOS>SUBSTRUCTURE
  1 ****   5 GROUP 4 **** **** 0

# MOE 2024.06 (io_trps.svl 2023.06)
