@<TRIPOS>MOLECULE
NONAME
52 55 1 0 0 
SMALL
USER_CHARGES


@<TRIPOS>ATOM
  1 O        1.5720     0.4460    -1.7740 O.2   1 <1>  -0.5700 
  2 C        2.1710    -0.4190    -1.1890 C.2   1 <1>   0.5690 
  3 N        2.2460    -0.4380     0.1570 N.am  1 <1>  -0.7300 
  4 C        2.8990    -1.5090    -1.9460 C.3   1 <1>  -0.0990 
  5 C        3.0260    -1.4510     0.8930 C.3   1 <1>   0.1400 
  6 C        2.7570    -2.8870    -1.2580 C.3   1 <1>  -0.0800 
  7 C        2.7470    -2.8400     0.2880 C.3   1 <1>  -0.0800 
  8 C        3.8520    -3.8740    -1.6800 C.3   1 <1>  -0.1600 
  9 C        3.7340    -3.9050     0.7870 C.3   1 <1>  -0.1600 
 10 C        4.2210    -4.6810    -0.4350 C.3   1 <1>   0.2200 
 11 N        5.6730    -5.0440    -0.3660 N.am  1 <1>  -0.6600 
 12 C        6.7550    -4.1920    -0.5600 C.2   1 <1>   0.5440 
 13 C        5.9060    -6.5170    -0.3100 C.3   1 <1>   0.0600 
 14 O        7.7910    -4.6640    -0.9910 O.2   1 <1>  -0.5700 
 15 C        6.7220    -2.7740    -0.2690 C.ar  1 <1>   0.0860 
 16 C        6.7790    -2.2990     1.0430 C.ar  1 <1>  -0.1500 
 17 C        6.6530    -1.8230    -1.2880 C.ar  1 <1>  -0.1500 
 18 C        6.6760    -0.9520     1.3250 C.ar  1 <1>  -0.1500 
 19 C        6.5440    -0.4750    -1.0080 C.ar  1 <1>  -0.1500 
 20 C        6.5230    -0.0230     0.3060 C.ar  1 <1>   0.1000 
 21 N        6.3420     1.3130     0.6140 N.pl3 1 <1>  -0.8380 
 22 C        7.4990     2.2170     0.4020 C.3   1 <1>   0.2090 
 23 C        5.0980     1.9700     0.1350 C.3   1 <1>   0.2090 
 24 C        6.9050     3.5430    -0.0550 C.3   1 <1>  -0.1600 
 25 C        5.5640     3.1710    -0.6750 C.3   1 <1>  -0.1600 
 26 H        1.7830     0.3100     0.6770 H     1 <1>   0.3700 
 27 H        2.5260    -1.5580    -2.9520 H     1 <1>   0.0800 
 28 H        3.9310    -1.2160    -1.9890 H     1 <1>   0.0800 
 29 H        4.0700    -1.2080     0.8010 H     1 <1>   0.0800 
 30 H        2.7590    -1.4360     1.9360 H     1 <1>   0.0800 
 31 H        1.8070    -3.2980    -1.5590 H     1 <1>   0.0800 
 32 H        1.7610    -3.1270     0.6140 H     1 <1>   0.0800 
 33 H        4.7020    -3.3550    -2.0690 H     1 <1>   0.0800 
 34 H        3.4890    -4.5300    -2.4510 H     1 <1>   0.0800 
 35 H        3.2400    -4.5770     1.4670 H     1 <1>   0.0800 
 36 H        4.5480    -3.4550     1.3120 H     1 <1>   0.0800 
 37 H        3.6390    -5.5870    -0.4790 H     1 <1>   0.0800 
 38 H        5.2870    -6.9590     0.4510 H     1 <1>   0.0800 
 39 H        6.9340    -6.7320    -0.0750 H     1 <1>   0.0800 
 40 H        5.6710    -6.9560    -1.2640 H     1 <1>   0.0800 
 41 H        6.8980    -3.0080     1.8440 H     1 <1>   0.1500 
 42 H        6.6820    -2.1570    -2.3100 H     1 <1>   0.1500 
 43 H        6.7050    -0.5960     2.3390 H     1 <1>   0.1500 
 44 H        6.4730     0.2410    -1.8060 H     1 <1>   0.1500 
 45 H        8.0570     2.3310     1.3150 H     1 <1>   0.0800 
 46 H        8.1430     1.8100    -0.3610 H     1 <1>   0.0800 
 47 H        4.4950     1.3030    -0.4580 H     1 <1>   0.0800 
 48 H        4.5290     2.2940     0.9890 H     1 <1>   0.0800 
 49 H        6.7480     4.1680     0.8070 H     1 <1>   0.0800 
 50 H        7.5510     4.0530    -0.7470 H     1 <1>   0.0800 
 51 H        5.7020     2.8670    -1.6980 H     1 <1>   0.0800 
 52 H        4.8530     3.9760    -0.6390 H     1 <1>   0.0800 
@<TRIPOS>BOND
  1   1   2  2   
  2   2   3  am  
  3   2   4  1   
  4   3   5  1   
  5   3  26  1   
  6   4   6  1   
  7   4  27  1   
  8   4  28  1   
  9   5   7  1   
 10   5  29  1   
 11   5  30  1   
 12   6   7  1   
 13   6   8  1   
 14   6  31  1   
 15   7   9  1   
 16   7  32  1   
 17   8  10  1   
 18   8  33  1   
 19   8  34  1   
 20   9  10  1   
 21   9  35  1   
 22   9  36  1   
 23  10  11  1   
 24  10  37  1   
 25  11  12  am  
 26  11  13  1   
 27  12  14  2   
 28  12  15  1   
 29  13  38  1   
 30  13  39  1   
 31  13  40  1   
 32  15  16  ar  
 33  15  17  ar  
 34  16  18  ar  
 35  16  41  1   
 36  17  19  ar  
 37  17  42  1   
 38  18  20  ar  
 39  18  43  1   
 40  19  20  ar  
 41  19  44  1   
 42  20  21  1   
 43  21  22  1   
 44  21  23  1   
 45  22  24  1   
 46  22  45  1   
 47  22  46  1   
 48  23  25  1   
 49  23  47  1   
 50  23  48  1   
 51  24  25  1   
 52  24  49  1   
 53  24  50  1   
 54  25  51  1   
 55  25  52  1   
@<TRIPOS>SUBSTRUCTURE
  1 ****  17 GROUP 4 **** **** 0

# MOE 2024.06 (io_trps.svl 2023.06)
