@<TRIPOS>MOLECULE
NONAME
48 49 1 0 0 
SMALL
USER_CHARGES


@<TRIPOS>ATOM
  1 CL       2.0830    -4.0660     1.9560 Cl    1 <1>  -0.1770 
  2 C        0.6040    -4.4030     1.0920 C.ar  1 <1>   0.1770 
  3 C        0.6550    -5.1430    -0.0740 C.ar  1 <1>  -0.1500 
  4 C       -0.5940    -3.9240     1.5870 C.ar  1 <1>  -0.1500 
  5 C       -0.5170    -5.4160    -0.7600 C.ar  1 <1>  -0.1500 
  6 C       -1.7640    -4.1970     0.9000 C.ar  1 <1>  -0.1500 
  7 C       -1.7360    -4.9450    -0.2690 C.ar  1 <1>   0.0830 
  8 O       -2.9350    -5.1810    -0.8640 O.3   1 <1>  -0.3630 
  9 C       -3.0310    -5.8760    -2.0990 C.3   1 <1>   0.1810 
 10 C       -2.7460    -7.3820    -2.0140 C.2   1 <1>   0.5690 
 11 O       -2.1130    -7.8380    -2.9350 O.2   1 <1>  -0.5700 
 12 N       -3.2030    -8.2110    -1.0110 N.am  1 <1>  -0.6600 
 13 C       -2.8270    -9.6700    -1.0950 C.3   1 <1>   0.3210 
 14 C       -3.8050    -7.7330     0.2810 C.3   1 <1>   0.1400 
 15 C       -3.6750   -10.6130    -0.2340 C.2   1 <1>   0.0460 
 16 C       -5.2420    -7.1950     0.1220 C.3   1 <1>   0.3430 
 17 N       -4.9950   -10.7990    -0.4670 N.2   1 <1>  -0.5650 
 18 C       -3.2640   -11.3740     0.8090 C.2   1 <1>  -0.3320 
 19 N       -6.1430    -8.1620    -0.5870 N.4   1 <1>  -0.9590 
 20 C       -5.3440   -11.6840     0.4120 C.2   1 <1>   0.0360 
 21 N       -4.3390   -12.0700     1.2210 N.pl3 1 <1>   0.0330 
 22 C       -1.9020   -11.5330     1.4680 C.3   1 <1>  -0.0600 
 23 C       -6.1950    -7.9520    -2.0630 C.3   1 <1>   0.2630 
 24 C       -7.5100    -8.2010     0.0020 C.3   1 <1>   0.2630 
 25 H        1.6020    -5.5000    -0.4370 H     1 <1>   0.1500 
 26 H       -0.6040    -3.3450     2.4930 H     1 <1>   0.1500 
 27 H       -0.4490    -5.9910    -1.6650 H     1 <1>   0.1500 
 28 H       -2.7030    -3.8260     1.2700 H     1 <1>   0.1500 
 29 H       -2.3550    -5.4130    -2.7950 H     1 <1>   0.0800 
 30 H       -4.0280    -5.7320    -2.4680 H     1 <1>   0.0800 
 31 H       -1.7930    -9.7670    -0.8200 H     1 <1>   0.0800 
 32 H       -2.9140   -10.0010    -2.1160 H     1 <1>   0.0800 
 33 H       -3.1820    -6.9690     0.7070 H     1 <1>   0.0800 
 34 H       -3.8180    -8.5210     1.0110 H     1 <1>   0.0800 
 35 H       -5.2180    -6.2560    -0.4060 H     1 <1>   0.0800 
 36 H       -5.6300    -7.0000     1.1070 H     1 <1>   0.0800 
 37 H       -5.7110    -9.1080    -0.4610 H     1 <1>   0.4500 
 38 H       -6.3350   -12.0950     0.5060 H     1 <1>   0.1500 
 39 H       -4.3820   -12.7660     1.9730 H     1 <1>   0.2700 
 40 H       -1.1750   -10.8790     1.0230 H     1 <1>   0.0800 
 41 H       -1.5550   -12.5460     1.3590 H     1 <1>   0.0800 
 42 H       -1.9670   -11.3010     2.5160 H     1 <1>   0.0800 
 43 H       -6.5830    -6.9740    -2.2930 H     1 <1>   0.0800 
 44 H       -6.8300    -8.6950    -2.5180 H     1 <1>   0.0800 
 45 H       -5.2110    -8.0510    -2.4890 H     1 <1>   0.0800 
 46 H       -7.9980    -7.2470    -0.1170 H     1 <1>   0.0800 
 47 H       -7.4560    -8.4370     1.0520 H     1 <1>   0.0800 
 48 H       -8.1020    -8.9570    -0.4880 H     1 <1>   0.0800 
@<TRIPOS>BOND
  1   1   2  1   
  2   2   3  ar  
  3   2   4  ar  
  4   3   5  ar  
  5   3  25  1   
  6   4   6  ar  
  7   4  26  1   
  8   5   7  ar  
  9   5  27  1   
 10   6   7  ar  
 11   6  28  1   
 12   7   8  1   
 13   8   9  1   
 14   9  10  1   
 15   9  29  1   
 16   9  30  1   
 17  10  11  2   
 18  10  12  am  
 19  12  13  1   
 20  12  14  1   
 21  13  15  1   
 22  13  31  1   
 23  13  32  1   
 24  14  16  1   
 25  14  33  1   
 26  14  34  1   
 27  15  17  1   
 28  15  18  2   
 29  16  19  1   
 30  16  35  1   
 31  16  36  1   
 32  17  20  2   
 33  18  21  1   
 34  18  22  1   
 35  19  23  1   
 36  19  24  1   
 37  19  37  1   
 38  20  21  1   
 39  20  38  1   
 40  21  39  1   
 41  22  40  1   
 42  22  41  1   
 43  22  42  1   
 44  23  43  1   
 45  23  44  1   
 46  23  45  1   
 47  24  46  1   
 48  24  47  1   
 49  24  48  1   
@<TRIPOS>SUBSTRUCTURE
  1 ****  14 GROUP 4 **** **** 0

# MOE 2024.06 (io_trps.svl 2023.06)
