@<TRIPOS>MOLECULE
NONAME
47 49 1 0 0 
SMALL
USER_CHARGES


@<TRIPOS>ATOM
  1 O       -2.5300    -2.5230    -2.3540 O.2   1 <1>  -0.5700 
  2 C       -2.5750    -2.1300    -1.2110 C.2   1 <1>   0.5690 
  3 N       -2.5560    -0.7960    -0.8910 N.am  1 <1>  -0.6600 
  4 C       -2.6730    -3.1790    -0.1160 C.3   1 <1>  -0.0190 
  5 C       -2.7020    -0.3200     0.5260 C.3   1 <1>   0.2200 
  6 C       -2.6410     0.2600    -1.9370 C.3   1 <1>   0.0600 
  7 C       -1.4680    -3.0960     0.8330 C.3   1 <1>   0.1200 
  8 C       -4.0330    -3.1580     0.6100 C.3   1 <1>   0.1400 
  9 C       -1.5100    -0.7900     1.3830 C.3   1 <1>   0.1200 
 10 C       -4.0650    -0.7000     1.1660 C.3   1 <1>   0.1400 
 11 O       -1.6360    -2.1160     1.8100 O.3   1 <1>  -0.5600 
 12 N       -4.7460    -1.8470     0.4830 N.am  1 <1>  -0.6600 
 13 C       -5.8010    -1.6050    -0.3690 C.2   1 <1>   0.5690 
 14 O       -6.3940    -0.5500    -0.3480 O.2   1 <1>  -0.5700 
 15 C       -6.2370    -2.6180    -1.4240 C.3   1 <1>   0.0440 
 16 C       -6.8690    -3.8970    -0.8640 C.ar  1 <1>  -0.1440 
 17 C       -6.5530    -5.1620    -1.3570 C.ar  1 <1>  -0.1440 
 18 C       -7.7840    -3.7790     0.1730 C.ar  1 <1>  -0.1500 
 19 C       -7.1480    -6.2780    -0.7890 C.ar  1 <1>  -0.1500 
 20 C       -5.5750    -5.3690    -2.5060 C.3   1 <1>  -0.0970 
 21 C       -8.3760    -4.8960     0.7350 C.ar  1 <1>  -0.1440 
 22 C       -8.0510    -6.1490     0.2510 C.ar  1 <1>  -0.1500 
 23 C       -9.3680    -4.7430     1.8740 C.3   1 <1>  -0.0970 
 24 H       -2.5930    -4.1360    -0.5990 H     1 <1>   0.0800 
 25 H       -2.6500     0.7540     0.5170 H     1 <1>   0.0800 
 26 H       -1.8640     0.9880    -1.7870 H     1 <1>   0.0800 
 27 H       -3.6010     0.7440    -1.8820 H     1 <1>   0.0800 
 28 H       -2.5270    -0.1650    -2.9200 H     1 <1>   0.0800 
 29 H       -0.5560    -2.9070     0.2920 H     1 <1>   0.0800 
 30 H       -1.3630    -4.0320     1.3540 H     1 <1>   0.0800 
 31 H       -3.8950    -3.3770     1.6550 H     1 <1>   0.0800 
 32 H       -4.6410    -3.9480     0.2170 H     1 <1>   0.0800 
 33 H       -1.4640    -0.1890     2.2730 H     1 <1>   0.0800 
 34 H       -0.5820    -0.6730     0.8500 H     1 <1>   0.0800 
 35 H       -4.6990     0.1680     1.1360 H     1 <1>   0.0800 
 36 H       -3.9300    -0.9400     2.2060 H     1 <1>   0.0800 
 37 H       -6.9570    -2.1470    -2.0670 H     1 <1>   0.0800 
 38 H       -5.3760    -2.8290    -2.0250 H     1 <1>   0.0800 
 39 H       -8.0390    -2.8040     0.5520 H     1 <1>   0.1500 
 40 H       -6.9140    -7.2620    -1.1540 H     1 <1>   0.1500 
 41 H       -5.5310    -6.4030    -2.7960 H     1 <1>   0.0800 
 42 H       -4.5880    -5.0570    -2.2170 H     1 <1>   0.0800 
 43 H       -5.8860    -4.7970    -3.3620 H     1 <1>   0.0800 
 44 H       -8.4990    -7.0280     0.6780 H     1 <1>   0.1500 
 45 H      -10.0780    -5.5510     1.8660 H     1 <1>   0.0800 
 46 H       -9.9070    -3.8170     1.7790 H     1 <1>   0.0800 
 47 H       -8.8450    -4.7460     2.8130 H     1 <1>   0.0800 
@<TRIPOS>BOND
  1   1   2  2   
  2   2   3  am  
  3   2   4  1   
  4   3   5  1   
  5   3   6  1   
  6   4   7  1   
  7   4   8  1   
  8   4  24  1   
  9   5   9  1   
 10   5  10  1   
 11   5  25  1   
 12   6  26  1   
 13   6  27  1   
 14   6  28  1   
 15   7  11  1   
 16   7  29  1   
 17   7  30  1   
 18   8  12  1   
 19   8  31  1   
 20   8  32  1   
 21   9  11  1   
 22   9  33  1   
 23   9  34  1   
 24  10  12  1   
 25  10  35  1   
 26  10  36  1   
 27  12  13  am  
 28  13  14  2   
 29  13  15  1   
 30  15  16  1   
 31  15  37  1   
 32  15  38  1   
 33  16  17  ar  
 34  16  18  ar  
 35  17  19  ar  
 36  17  20  1   
 37  18  21  ar  
 38  18  39  1   
 39  19  22  ar  
 40  19  40  1   
 41  20  41  1   
 42  20  42  1   
 43  20  43  1   
 44  21  22  ar  
 45  21  23  1   
 46  22  44  1   
 47  23  45  1   
 48  23  46  1   
 49  23  47  1   
@<TRIPOS>SUBSTRUCTURE
  1 ****   8 GROUP 4 **** **** 0

# MOE 2024.06 (io_trps.svl 2023.06)
