@<TRIPOS>MOLECULE
NONAME
42 43 1 0 0 
SMALL
USER_CHARGES


@<TRIPOS>ATOM
  1 O        2.4520    -0.0650    -1.3160 O.2   1 <1>  -0.5700 
  2 C        1.6250     0.2240    -0.4690 C.2   1 <1>   0.5440 
  3 N        1.2110     1.5280    -0.3880 N.am  1 <1>  -0.7300 
  4 C        1.0860    -0.7680     0.4340 C.ar  1 <1>   0.0860 
  5 C        1.6980     2.6460    -1.2380 C.3   1 <1>   0.0600 
  6 C        0.7940    -2.0800     0.0080 C.ar  1 <1>   0.4100 
  7 C        0.8330    -0.4550     1.7650 C.ar  1 <1>  -0.1500 
  8 N        0.2730    -3.0170     0.8000 N.ar  1 <1>  -0.6200 
  9 N        1.0290    -2.4720    -1.2920 N.pl3 1 <1>  -0.8690 
 10 C        0.3040    -1.4290     2.5810 C.ar  1 <1>  -0.1500 
 11 C        0.0440    -2.6800     2.0520 C.ar  1 <1>   0.1600 
 12 C        1.1750    -3.8870    -1.7160 C.3   1 <1>   0.2090 
 13 C       -0.1950    -4.4750    -2.0570 C.3   1 <1>   0.0200 
 14 C       -0.1560    -5.9930    -2.0340 C.2   1 <1>   0.0070 
 15 N       -0.1080    -6.7180    -3.0980 N.2   1 <1>  -0.3380 
 16 N       -0.1690    -6.7480    -0.9250 N.pl3 1 <1>   0.0480 
 17 N       -0.0870    -7.9920    -2.7060 N.2   1 <1>  -0.3380 
 18 C       -0.1240    -7.9860    -1.4190 C.2   1 <1>   0.0360 
 19 C       -0.2130    -6.3760     0.5060 C.3   1 <1>   0.0960 
 20 C       -1.6240    -5.9590     0.9150 C.3   1 <1>   0.1200 
 21 O       -1.6540    -5.8310     2.3010 O.3   1 <1>  -0.5600 
 22 C       -2.8970    -5.4560     2.8010 C.3   1 <1>   0.0400 
 23 H        0.4340     1.7570     0.2360 H     1 <1>   0.3700 
 24 H        2.5360     2.3300    -1.8360 H     1 <1>   0.0800 
 25 H        2.0090     3.4680    -0.6160 H     1 <1>   0.0800 
 26 H        0.9100     2.9750    -1.8930 H     1 <1>   0.0800 
 27 H        1.0540     0.5240     2.1530 H     1 <1>   0.1500 
 28 H        1.6270    -1.8110    -1.8170 H     1 <1>   0.4000 
 29 H        0.0950    -1.2280     3.6170 H     1 <1>   0.1500 
 30 H       -0.3720    -3.4400     2.6950 H     1 <1>   0.1500 
 31 H        1.6340    -4.4470    -0.9200 H     1 <1>   0.0800 
 32 H        1.8190    -3.9480    -2.5770 H     1 <1>   0.0800 
 33 H       -0.4830    -4.1400    -3.0360 H     1 <1>   0.0800 
 34 H       -0.9320    -4.1270    -1.3590 H     1 <1>   0.0800 
 35 H       -0.1180    -8.8660    -0.8040 H     1 <1>   0.1500 
 36 H        0.4770    -5.5740     0.6850 H     1 <1>   0.0800 
 37 H        0.0890    -7.2270     1.0890 H     1 <1>   0.0800 
 38 H       -2.3370    -6.7130     0.6280 H     1 <1>   0.0800 
 39 H       -1.8830    -5.0110     0.4780 H     1 <1>   0.0800 
 40 H       -2.8210    -5.3850     3.8720 H     1 <1>   0.0800 
 41 H       -3.6270    -6.2030     2.5400 H     1 <1>   0.0800 
 42 H       -3.1720    -4.4990     2.3920 H     1 <1>   0.0800 
@<TRIPOS>BOND
  1   1   2  2   
  2   2   3  am  
  3   2   4  1   
  4   3   5  1   
  5   3  23  1   
  6   4   6  ar  
  7   4   7  ar  
  8   5  24  1   
  9   5  25  1   
 10   5  26  1   
 11   6   8  ar  
 12   6   9  1   
 13   7  10  ar  
 14   7  27  1   
 15   8  11  ar  
 16   9  12  1   
 17   9  28  1   
 18  10  11  ar  
 19  10  29  1   
 20  11  30  1   
 21  12  13  1   
 22  12  31  1   
 23  12  32  1   
 24  13  14  1   
 25  13  33  1   
 26  13  34  1   
 27  14  15  2   
 28  14  16  1   
 29  15  17  1   
 30  16  18  1   
 31  16  19  1   
 32  17  18  2   
 33  18  35  1   
 34  19  20  1   
 35  19  36  1   
 36  19  37  1   
 37  20  21  1   
 38  20  38  1   
 39  20  39  1   
 40  21  22  1   
 41  22  40  1   
 42  22  41  1   
 43  22  42  1   
@<TRIPOS>SUBSTRUCTURE
  1 ****   8 GROUP 4 **** **** 0

# MOE 2024.06 (io_trps.svl 2023.06)
