@<TRIPOS>MOLECULE
NONAME
47 48 1 0 0 
SMALL
USER_CHARGES


@<TRIPOS>ATOM
  1 S        0.1310     0.2490    -0.1580 S.3   1 <1>  -0.4600 
  2 C        1.5420     0.2970     0.9800 C.3   1 <1>   0.2510 
  3 C       -0.7430    -1.2620     0.3230 C.3   1 <1>   0.0700 
  4 C        2.3220     1.5710     0.7180 C.2   1 <1>  -0.1810 
  5 C       -1.9640    -1.4040    -0.5850 C.3   1 <1>  -0.1600 
  6 C        3.5620     1.7410     0.2070 C.2   1 <1>  -0.0400 
  7 C        1.8520     2.8590     0.9800 C.2   1 <1>  -0.1500 
  8 C       -2.7660    -2.6650    -0.2430 C.3   1 <1>  -0.1600 
  9 O        3.8610     3.0180     0.1550 O.3   1 <1>  -0.2800 
 10 C        4.5900     0.7470    -0.2900 C.3   1 <1>  -0.0600 
 11 C        2.8360     3.7290     0.6220 C.2   1 <1>   0.0550 
 12 C       -3.9880    -2.8030    -1.1550 C.3   1 <1>  -0.2400 
 13 C        2.8460     5.1790     0.6770 C.2   1 <1>   0.7150 
 14 O        1.8010     5.7680     0.8980 O.2   1 <1>  -0.5700 
 15 N        3.9890     5.9430     0.5030 N.am  1 <1>  -0.6600 
 16 C        3.8620     7.3700     0.0270 C.3   1 <1>   0.2200 
 17 C        5.3400     5.4300     0.8830 C.3   1 <1>   0.0600 
 18 C        4.7620     7.6890    -1.1630 C.3   1 <1>   0.2000 
 19 C        4.3290     8.3790     1.0840 C.3   1 <1>   0.1200 
 20 O        4.1750     8.6870    -1.9360 O.3   1 <1>  -0.6800 
 21 C        6.0050     8.2770    -0.5060 C.3   1 <1>   0.1200 
 22 O        5.5670     8.8980     0.6680 O.3   1 <1>  -0.5600 
 23 H        1.1520     0.2800     1.9810 H     1 <1>   0.0800 
 24 H        2.1330    -0.5800     0.7940 H     1 <1>   0.0800 
 25 H       -0.0600    -2.0850     0.2010 H     1 <1>   0.0800 
 26 H       -1.0270    -1.1570     1.3550 H     1 <1>   0.0800 
 27 H       -2.5900    -0.5350    -0.4710 H     1 <1>   0.0800 
 28 H       -1.6370    -1.4500    -1.6100 H     1 <1>   0.0800 
 29 H        0.8830     3.1060     1.3790 H     1 <1>   0.1500 
 30 H       -2.1410    -3.5350    -0.3570 H     1 <1>   0.0800 
 31 H       -3.0940    -2.6200     0.7810 H     1 <1>   0.0800 
 32 H        4.2190    -0.2570    -0.2130 H     1 <1>   0.0800 
 33 H        5.4900     0.8340     0.2920 H     1 <1>   0.0800 
 34 H        4.8190     0.9540    -1.3190 H     1 <1>   0.0800 
 35 H       -3.6830    -2.8720    -2.1850 H     1 <1>   0.0800 
 36 H       -4.6390    -1.9540    -1.0430 H     1 <1>   0.0800 
 37 H       -4.5390    -3.6920    -0.9020 H     1 <1>   0.0800 
 38 H        2.8370     7.5660    -0.2390 H     1 <1>   0.0800 
 39 H        5.8950     6.1820     1.4140 H     1 <1>   0.0800 
 40 H        5.8810     5.1380     0.0000 H     1 <1>   0.0800 
 41 H        5.2490     4.5750     1.5310 H     1 <1>   0.0800 
 42 H        4.9560     6.8390    -1.7940 H     1 <1>   0.0800 
 43 H        4.4390     7.9280     2.0540 H     1 <1>   0.0800 
 44 H        3.6390     9.2020     1.1460 H     1 <1>   0.0800 
 45 H        4.1580     9.5200    -1.4230 H     1 <1>   0.4000 
 46 H        6.5030     8.9970    -1.1320 H     1 <1>   0.0800 
 47 H        6.6990     7.5050    -0.2310 H     1 <1>   0.0800 
@<TRIPOS>BOND
  1   1   2  1   
  2   1   3  1   
  3   2   4  1   
  4   2  23  1   
  5   2  24  1   
  6   3   5  1   
  7   3  25  1   
  8   3  26  1   
  9   4   6  2   
 10   4   7  1   
 11   5   8  1   
 12   5  27  1   
 13   5  28  1   
 14   6   9  1   
 15   6  10  1   
 16   7  11  2   
 17   7  29  1   
 18   8  12  1   
 19   8  30  1   
 20   8  31  1   
 21   9  11  1   
 22  10  32  1   
 23  10  33  1   
 24  10  34  1   
 25  11  13  1   
 26  12  35  1   
 27  12  36  1   
 28  12  37  1   
 29  13  14  2   
 30  13  15  am  
 31  15  16  1   
 32  15  17  1   
 33  16  18  1   
 34  16  19  1   
 35  16  38  1   
 36  17  39  1   
 37  17  40  1   
 38  17  41  1   
 39  18  20  1   
 40  18  21  1   
 41  18  42  1   
 42  19  22  1   
 43  19  43  1   
 44  19  44  1   
 45  20  45  1   
 46  21  22  1   
 47  21  46  1   
 48  21  47  1   
@<TRIPOS>SUBSTRUCTURE
  1 ****  11 GROUP 4 **** **** 0

# MOE 2024.06 (io_trps.svl 2023.06)
