@<TRIPOS>MOLECULE
NONAME
42 43 1 0 0 
SMALL
USER_CHARGES


@<TRIPOS>ATOM
  1 S        0.3840     2.6250     2.0180 S.3   1 <1>  -0.0800 
  2 C       -0.4180     2.5560     0.4700 C.2   1 <1>  -0.1400 
  3 C       -0.9970     3.4810     2.6630 C.2   1 <1>   0.2280 
  4 C       -1.6210     3.1430     0.5780 C.2   1 <1>   0.0460 
  5 C        0.3140     1.8890    -0.6710 C.3   1 <1>   0.5230 
  6 N       -1.9140     3.6990     1.8070 N.2   1 <1>  -0.5650 
  7 C       -2.7050     3.2630    -0.4770 C.3   1 <1>  -0.0590 
  8 N        1.4800     2.7480    -1.0620 N.4   1 <1>  -0.9590 
  9 C        1.0660     4.1810    -1.3520 C.3   1 <1>   0.3430 
 10 C        2.1950     2.1150    -2.2080 C.3   1 <1>   0.3430 
 11 C        1.4090     5.1840    -0.2100 C.3   1 <1>   0.3430 
 12 C        3.5900     2.7180    -2.3310 C.3   1 <1>  -0.2400 
 13 N        0.6520     6.4840    -0.2670 N.4   1 <1>  -0.9590 
 14 C        1.2150     7.4980     0.6680 C.3   1 <1>   0.3430 
 15 C       -0.7840     6.3780     0.1240 C.3   1 <1>   0.3430 
 16 C        0.1070     8.5300     0.8250 C.3   1 <1>  -0.1600 
 17 C       -1.1920     7.8000     0.4780 C.3   1 <1>  -0.1600 
 18 H       -0.9690     3.7600     3.7040 H     1 <1>   0.1500 
 19 H       -0.3560     1.7700    -1.5070 H     1 <1>   0.0800 
 20 H        0.6500     0.9110    -0.3630 H     1 <1>   0.0800 
 21 H       -2.4010     2.8290    -1.4110 H     1 <1>   0.0800 
 22 H       -2.9650     4.2940    -0.6330 H     1 <1>   0.0800 
 23 H       -3.5860     2.7480    -0.1350 H     1 <1>   0.0800 
 24 H        2.1270     2.7160    -0.2610 H     1 <1>   0.4500 
 25 H        0.0030     4.2060    -1.5260 H     1 <1>   0.0800 
 26 H        1.5510     4.5190    -2.2530 H     1 <1>   0.0800 
 27 H        1.6460     2.2580    -3.1260 H     1 <1>   0.0800 
 28 H        2.2950     1.0540    -2.0380 H     1 <1>   0.0800 
 29 H        2.4660     5.3920    -0.2510 H     1 <1>   0.0800 
 30 H        1.2010     4.7200     0.7380 H     1 <1>   0.0800 
 31 H        3.5570     3.7620    -2.5860 H     1 <1>   0.0800 
 32 H        4.1180     2.2120    -3.1210 H     1 <1>   0.0800 
 33 H        4.1530     2.5790    -1.4250 H     1 <1>   0.0800 
 34 H        0.6910     6.9190    -1.2010 H     1 <1>   0.4500 
 35 H        2.1200     7.9450     0.2860 H     1 <1>   0.0800 
 36 H        1.4160     7.0460     1.6270 H     1 <1>   0.0800 
 37 H       -0.8830     5.7580     1.0010 H     1 <1>   0.0800 
 38 H       -1.3960     5.9790    -0.6680 H     1 <1>   0.0800 
 39 H        0.2710     9.3510     0.1480 H     1 <1>   0.0800 
 40 H        0.0920     8.9170     1.8300 H     1 <1>   0.0800 
 41 H       -1.8820     7.7950     1.3050 H     1 <1>   0.0800 
 42 H       -1.6740     8.2670    -0.3640 H     1 <1>   0.0800 
@<TRIPOS>BOND
  1   1   2  1   
  2   1   3  1   
  3   2   4  2   
  4   2   5  1   
  5   3   6  2   
  6   3  18  1   
  7   4   6  1   
  8   4   7  1   
  9   5   8  1   
 10   5  19  1   
 11   5  20  1   
 12   7  21  1   
 13   7  22  1   
 14   7  23  1   
 15   8   9  1   
 16   8  10  1   
 17   8  24  1   
 18   9  11  1   
 19   9  25  1   
 20   9  26  1   
 21  10  12  1   
 22  10  27  1   
 23  10  28  1   
 24  11  13  1   
 25  11  29  1   
 26  11  30  1   
 27  12  31  1   
 28  12  32  1   
 29  12  33  1   
 30  13  14  1   
 31  13  15  1   
 32  13  34  1   
 33  14  16  1   
 34  14  35  1   
 35  14  36  1   
 36  15  17  1   
 37  15  37  1   
 38  15  38  1   
 39  16  17  1   
 40  16  39  1   
 41  16  40  1   
 42  17  41  1   
 43  17  42  1   
@<TRIPOS>SUBSTRUCTURE
  1 ****  11 GROUP 4 **** **** 0

# MOE 2024.06 (io_trps.svl 2023.06)
