@<TRIPOS>MOLECULE
NONAME
52 54 1 0 0 
SMALL
USER_CHARGES


@<TRIPOS>ATOM
  1 O       -0.0230    -0.7260    -0.6660 O.2   1 <1>  -0.5700 
  2 C       -0.0070    -1.7860    -0.0830 C.2   1 <1>   0.5690 
  3 N        0.9460    -2.0840     0.8390 N.am  1 <1>  -0.7300 
  4 C       -1.1150    -2.7980    -0.4320 C.3   1 <1>   0.4040 
  5 C        2.0710    -1.2020     1.1890 C.3   1 <1>   0.2780 
  6 N       -2.2180    -2.1790    -1.2580 N.4   1 <1>  -0.9590 
  7 C        3.2630    -2.0990     1.4340 C.2   1 <1>  -0.2880 
  8 C       -3.1520    -1.3680    -0.4040 C.3   1 <1>   0.3430 
  9 C       -2.9460    -3.1580    -2.1100 C.3   1 <1>   0.3430 
 10 C        3.8530    -2.2960     2.6170 C.2   1 <1>  -0.3000 
 11 C       -4.1570    -0.5760    -1.2580 C.3   1 <1>   0.1430 
 12 C       -3.9170    -2.4100    -3.0280 C.3   1 <1>  -0.1600 
 13 C       -5.1510     0.0850    -0.3350 C.ar  1 <1>   0.1670 
 14 C       -4.8910    -1.5160    -2.2390 C.3   1 <1>  -0.1600 
 15 C       -3.5050     0.6350    -1.9800 C.3   1 <1>  -0.1600 
 16 N       -5.7750    -0.5280     0.6370 N.ar  1 <1>  -0.6200 
 17 C       -5.3150     1.4030    -0.6250 C.ar  1 <1>  -0.1430 
 18 C       -4.4590     1.8320    -1.7900 C.3   1 <1>  -0.0170 
 19 C       -6.6160     0.2410     1.3370 C.ar  1 <1>   0.7200 
 20 C       -6.1940     2.1160     0.1520 C.ar  1 <1>   0.1600 
 21 N       -6.8470     1.5420     1.1350 N.ar  1 <1>  -0.6200 
 22 N       -7.3020    -0.3660     2.3680 N.pl3 1 <1>  -0.8380 
 23 C       -7.9980     0.4300     3.4180 C.3   1 <1>   0.1290 
 24 C       -7.5740    -1.8290     2.3960 C.3   1 <1>   0.1290 
 25 H        0.9800    -2.9730     1.3440 H     1 <1>   0.3700 
 26 H       -1.5200    -3.2100     0.4750 H     1 <1>   0.0800 
 27 H       -0.6560    -3.5960    -0.9900 H     1 <1>   0.0800 
 28 H        1.8290    -0.6470     2.0800 H     1 <1>   0.0800 
 29 H        2.2800    -0.5070     0.3920 H     1 <1>   0.0800 
 30 H       -1.7310    -1.4970    -1.8660 H     1 <1>   0.4500 
 31 H        3.6060    -2.5790     0.5320 H     1 <1>   0.1500 
 32 H       -2.5950    -0.6750     0.2070 H     1 <1>   0.0800 
 33 H       -3.7040    -2.0200     0.2540 H     1 <1>   0.0800 
 34 H       -3.4970    -3.8450    -1.4870 H     1 <1>   0.0800 
 35 H       -2.2490    -3.7220    -2.7080 H     1 <1>   0.0800 
 36 H        4.7050    -2.9400     2.7630 H     1 <1>   0.1500 
 37 H        3.5440    -1.8340     3.5400 H     1 <1>   0.1500 
 38 H       -4.4820    -3.1290    -3.5950 H     1 <1>   0.0800 
 39 H       -3.3580    -1.8220    -3.7340 H     1 <1>   0.0800 
 40 H       -5.4990    -0.9410    -2.9170 H     1 <1>   0.0800 
 41 H       -5.5590    -2.1490    -1.6770 H     1 <1>   0.0800 
 42 H       -3.3200     0.4540    -3.0240 H     1 <1>   0.0800 
 43 H       -2.5690     0.8800    -1.5070 H     1 <1>   0.0800 
 44 H       -5.0780     1.9720    -2.6600 H     1 <1>   0.0800 
 45 H       -3.9210     2.7400    -1.5760 H     1 <1>   0.0800 
 46 H       -6.3630     3.1630    -0.0320 H     1 <1>   0.1500 
 47 H       -7.4750     1.3540     3.5970 H     1 <1>   0.0800 
 48 H       -8.0340    -0.1230     4.3390 H     1 <1>   0.0800 
 49 H       -9.0000     0.6540     3.0950 H     1 <1>   0.0800 
 50 H       -7.4140    -2.2670     1.4260 H     1 <1>   0.0800 
 51 H       -8.5970    -2.0060     2.6800 H     1 <1>   0.0800 
 52 H       -6.9220    -2.3020     3.1080 H     1 <1>   0.0800 
@<TRIPOS>BOND
  1   1   2  2   
  2   2   3  am  
  3   2   4  1   
  4   3   5  1   
  5   3  25  1   
  6   4   6  1   
  7   4  26  1   
  8   4  27  1   
  9   5   7  1   
 10   5  28  1   
 11   5  29  1   
 12   6   8  1   
 13   6   9  1   
 14   6  30  1   
 15   7  10  2   
 16   7  31  1   
 17   8  11  1   
 18   8  32  1   
 19   8  33  1   
 20   9  12  1   
 21   9  34  1   
 22   9  35  1   
 23  10  36  1   
 24  10  37  1   
 25  11  13  1   
 26  11  14  1   
 27  11  15  1   
 28  12  14  1   
 29  12  38  1   
 30  12  39  1   
 31  13  16  ar  
 32  13  17  ar  
 33  14  40  1   
 34  14  41  1   
 35  15  18  1   
 36  15  42  1   
 37  15  43  1   
 38  16  19  ar  
 39  17  18  1   
 40  17  20  ar  
 41  18  44  1   
 42  18  45  1   
 43  19  21  ar  
 44  19  22  1   
 45  20  21  ar  
 46  20  46  1   
 47  22  23  1   
 48  22  24  1   
 49  23  47  1   
 50  23  48  1   
 51  23  49  1   
 52  24  50  1   
 53  24  51  1   
 54  24  52  1   
@<TRIPOS>SUBSTRUCTURE
  1 ****   8 GROUP 4 **** **** 0

# MOE 2024.06 (io_trps.svl 2023.06)
