@<TRIPOS>MOLECULE
NONAME
53 56 1 0 0 
SMALL
USER_CHARGES


@<TRIPOS>ATOM
  1 O       -3.6030    -0.8780    -2.4010 O.2   1 <1>  -0.5700 
  2 C       -3.0760    -1.0540    -1.3270 C.2   1 <1>   0.5690 
  3 N       -3.3050    -0.2140    -0.2660 N.am  1 <1>  -0.6600 
  4 C       -2.1200    -2.2310    -1.1880 C.3   1 <1>  -0.0190 
  5 C       -2.7960    -0.5380     1.1070 C.3   1 <1>   0.2200 
  6 C       -4.0350     1.0750    -0.4180 C.3   1 <1>   0.0600 
  7 C       -0.7240    -1.7540    -0.7590 C.3   1 <1>   0.1200 
  8 C       -2.6680    -3.3590    -0.2940 C.3   1 <1>   0.2090 
  9 C       -1.2570    -0.4520     1.1500 C.3   1 <1>   0.1200 
 10 C       -3.3320    -1.8920     1.6560 C.3   1 <1>   0.2090 
 11 O       -0.6340    -1.5860     0.6230 O.3   1 <1>  -0.5600 
 12 N       -3.7620    -2.8860     0.6110 N.pl3 1 <1>  -0.8380 
 13 C       -5.0560    -3.1900     0.3370 C.ar  1 <1>   0.4100 
 14 N       -5.3260    -4.4170    -0.0620 N.ar  1 <1>  -0.6200 
 15 C       -6.0650    -2.2150     0.4390 C.ar  1 <1>  -0.1500 
 16 C       -6.5750    -4.7210    -0.3830 C.ar  1 <1>   0.7710 
 17 C       -7.3360    -2.5410     0.1100 C.ar  1 <1>   0.2180 
 18 N       -7.5600    -3.8110    -0.2990 N.ar  1 <1>  -0.1790 
 19 N       -6.8770    -5.9820    -0.8000 N.pl3 1 <1>  -0.8380 
 20 C       -8.5000    -1.5660     0.1680 C.3   1 <1>  -0.0970 
 21 C       -8.1690    -6.4560    -1.3860 C.3   1 <1>   0.2090 
 22 C       -5.8810    -7.1010    -0.7030 C.3   1 <1>   0.2090 
 23 C       -8.7800    -7.5150    -0.4650 C.3   1 <1>  -0.1600 
 24 C       -6.4410    -8.1910     0.2170 C.3   1 <1>  -0.1600 
 25 C       -7.8150    -8.6910    -0.2540 C.3   1 <1>  -0.1600 
 26 H       -1.9970    -2.6430    -2.1720 H     1 <1>   0.0800 
 27 H       -3.1480     0.2280     1.7760 H     1 <1>   0.0800 
 28 H       -4.9040     1.0840     0.2150 H     1 <1>   0.0800 
 29 H       -4.3510     1.2160    -1.4380 H     1 <1>   0.0800 
 30 H       -3.3900     1.8930    -0.1480 H     1 <1>   0.0800 
 31 H       -0.4550    -0.8340    -1.2500 H     1 <1>   0.0800 
 32 H        0.0020    -2.5030    -1.0250 H     1 <1>   0.0800 
 33 H       -1.8790    -3.7930     0.2970 H     1 <1>   0.0800 
 34 H       -3.0400    -4.1380    -0.9360 H     1 <1>   0.0800 
 35 H       -0.9390    -0.3810     2.1740 H     1 <1>   0.0800 
 36 H       -0.9050     0.4210     0.6280 H     1 <1>   0.0800 
 37 H       -4.1630    -1.6890     2.3070 H     1 <1>   0.0800 
 38 H       -2.5760    -2.3480     2.2730 H     1 <1>   0.0800 
 39 H       -5.7960    -1.2270     0.7540 H     1 <1>   0.1500 
 40 H       -8.4800    -4.1470    -0.5440 H     1 <1>   0.4570 
 41 H       -8.1640    -0.6020     0.5060 H     1 <1>   0.0800 
 42 H       -9.2530    -1.9190     0.8500 H     1 <1>   0.0800 
 43 H       -8.9360    -1.4450    -0.8080 H     1 <1>   0.0800 
 44 H       -8.8680    -5.6530    -1.5350 H     1 <1>   0.0800 
 45 H       -7.9740    -6.8950    -2.3520 H     1 <1>   0.0800 
 46 H       -5.7060    -7.5070    -1.6860 H     1 <1>   0.0800 
 47 H       -4.9320    -6.7710    -0.3150 H     1 <1>   0.0800 
 48 H       -9.0210    -7.0700     0.4840 H     1 <1>   0.0800 
 49 H       -9.6950    -7.8820    -0.8980 H     1 <1>   0.0800 
 50 H       -5.7510    -9.0150     0.2480 H     1 <1>   0.0800 
 51 H       -6.5180    -7.7950     1.2140 H     1 <1>   0.0800 
 52 H       -7.6980    -9.2280    -1.1800 H     1 <1>   0.0800 
 53 H       -8.2220    -9.3740     0.4730 H     1 <1>   0.0800 
@<TRIPOS>BOND
  1   1   2  2   
  2   2   3  am  
  3   2   4  1   
  4   3   5  1   
  5   3   6  1   
  6   4   7  1   
  7   4   8  1   
  8   4  26  1   
  9   5   9  1   
 10   5  10  1   
 11   5  27  1   
 12   6  28  1   
 13   6  29  1   
 14   6  30  1   
 15   7  11  1   
 16   7  31  1   
 17   7  32  1   
 18   8  12  1   
 19   8  33  1   
 20   8  34  1   
 21   9  11  1   
 22   9  35  1   
 23   9  36  1   
 24  10  12  1   
 25  10  37  1   
 26  10  38  1   
 27  12  13  1   
 28  13  14  ar  
 29  13  15  ar  
 30  14  16  ar  
 31  15  17  ar  
 32  15  39  1   
 33  16  18  ar  
 34  16  19  1   
 35  17  18  ar  
 36  17  20  1   
 37  18  40  1   
 38  19  21  1   
 39  19  22  1   
 40  20  41  1   
 41  20  42  1   
 42  20  43  1   
 43  21  23  1   
 44  21  44  1   
 45  21  45  1   
 46  22  24  1   
 47  22  46  1   
 48  22  47  1   
 49  23  25  1   
 50  23  48  1   
 51  23  49  1   
 52  24  25  1   
 53  24  50  1   
 54  24  51  1   
 55  25  52  1   
 56  25  53  1   
@<TRIPOS>SUBSTRUCTURE
  1 ****  13 GROUP 4 **** **** 0

# MOE 2024.06 (io_trps.svl 2023.06)
