@<TRIPOS>MOLECULE
NONAME
44 45 1 0 0 
SMALL
USER_CHARGES


@<TRIPOS>ATOM
  1 F        0.2000    -1.1890     1.2470 F     1 <1>  -0.1900 
  2 C       -0.5310    -2.1500     0.7400 C.ar  1 <1>   0.1900 
  3 C       -0.0260    -3.0450    -0.2100 C.ar  1 <1>   0.0820 
  4 C       -1.8340    -2.2320     1.1890 C.ar  1 <1>  -0.1500 
  5 O        1.2370    -3.0660    -0.7290 O.3   1 <1>  -0.3630 
  6 C       -0.8820    -4.0240    -0.6870 C.ar  1 <1>  -0.1500 
  7 C       -2.6610    -3.2210     0.6890 C.ar  1 <1>  -0.1500 
  8 C        2.2520    -2.1790    -0.3150 C.3   1 <1>   0.0400 
  9 C       -2.2060    -4.1420    -0.2570 C.ar  1 <1>   0.0530 
 10 C       -3.0630    -5.1800    -0.7830 C.2   1 <1>   0.0870 
 11 O       -2.7960    -5.7350    -1.9430 O.3   1 <1>  -0.0190 
 12 C       -4.1890    -5.7790    -0.3190 C.2   1 <1>  -0.2330 
 13 N       -3.6660    -6.6520    -2.2830 N.2   1 <1>  -0.4100 
 14 C       -4.5160    -6.6940    -1.3180 C.2   1 <1>   0.3720 
 15 C       -4.9250    -5.5860     0.8850 C.2   1 <1>   1.0330 
 16 N       -5.6180    -7.5560    -1.3190 N.pl3 1 <1>  -0.8210 
 17 O       -5.7440    -4.6550     0.9760 O.co2 1 <1>  -0.9000 
 18 O       -4.7610    -6.3390     1.8600 O.co2 1 <1>  -0.9000 
 19 C       -5.5990    -8.5160    -0.1810 C.3   1 <1>   0.2090 
 20 C       -6.9080    -6.8210    -1.4130 C.3   1 <1>   0.1290 
 21 C       -6.0090    -9.9010    -0.6870 C.3   1 <1>  -0.1600 
 22 C       -6.1460   -10.9410     0.4400 C.3   1 <1>  -0.0800 
 23 C       -4.8140   -11.1880     1.1620 C.3   1 <1>  -0.2400 
 24 C       -6.6710   -12.2620    -0.1340 C.3   1 <1>  -0.2400 
 25 H       -2.2010    -1.5340     1.9190 H     1 <1>   0.1500 
 26 H       -0.5050    -4.7200    -1.4140 H     1 <1>   0.1500 
 27 H       -3.6770    -3.2730     1.0400 H     1 <1>   0.1500 
 28 H        3.1500    -2.4250    -0.8520 H     1 <1>   0.0800 
 29 H        2.4140    -2.3020     0.7420 H     1 <1>   0.0800 
 30 H        1.9540    -1.1720    -0.5460 H     1 <1>   0.0800 
 31 H       -6.2670    -8.1860     0.5980 H     1 <1>   0.0800 
 32 H       -4.6070    -8.5590     0.2370 H     1 <1>   0.0800 
 33 H       -6.8200    -6.0260    -2.1340 H     1 <1>   0.0800 
 34 H       -7.1710    -6.3920    -0.4600 H     1 <1>   0.0800 
 35 H       -7.6860    -7.4910    -1.7280 H     1 <1>   0.0800 
 36 H       -5.2770   -10.2310    -1.4040 H     1 <1>   0.0800 
 37 H       -6.9530    -9.8090    -1.1920 H     1 <1>   0.0800 
 38 H       -6.8620   -10.5760     1.1590 H     1 <1>   0.0800 
 39 H       -4.0530   -11.4850     0.4620 H     1 <1>   0.0800 
 40 H       -4.9270   -11.9630     1.8990 H     1 <1>   0.0800 
 41 H       -4.4860   -10.2990     1.6700 H     1 <1>   0.0800 
 42 H       -5.9810   -12.6600    -0.8570 H     1 <1>   0.0800 
 43 H       -7.6220   -12.1090    -0.6140 H     1 <1>   0.0800 
 44 H       -6.8030   -12.9850     0.6520 H     1 <1>   0.0800 
@<TRIPOS>BOND
  1   1   2  1   
  2   2   3  ar  
  3   2   4  ar  
  4   3   5  1   
  5   3   6  ar  
  6   4   7  ar  
  7   4  25  1   
  8   5   8  1   
  9   6   9  ar  
 10   6  26  1   
 11   7   9  ar  
 12   7  27  1   
 13   8  28  1   
 14   8  29  1   
 15   8  30  1   
 16   9  10  1   
 17  10  11  1   
 18  10  12  2   
 19  11  13  1   
 20  12  14  1   
 21  12  15  1   
 22  13  14  2   
 23  14  16  1   
 24  15  17  ar  
 25  15  18  ar  
 26  16  19  1   
 27  16  20  1   
 28  19  21  1   
 29  19  31  1   
 30  19  32  1   
 31  20  33  1   
 32  20  34  1   
 33  20  35  1   
 34  21  22  1   
 35  21  36  1   
 36  21  37  1   
 37  22  23  1   
 38  22  24  1   
 39  22  38  1   
 40  23  39  1   
 41  23  40  1   
 42  23  41  1   
 43  24  42  1   
 44  24  43  1   
 45  24  44  1   
@<TRIPOS>SUBSTRUCTURE
  1 ****  12 GROUP 4 **** **** 0

# MOE 2024.06 (io_trps.svl 2023.06)
