@<TRIPOS>MOLECULE
Untitled Document
67 71 1 0 0 
SMALL
USER_CHARGES


@<TRIPOS>ATOM
  1 O        2.1640    -1.0190     1.7980 O.2   1 <1>  -0.5700 
  2 C        2.6210    -0.0550     1.2430 C.2   1 <1>   0.4950 
  3 C        3.7440    -0.1050     0.3560 C.2   1 <1>  -0.1360 
  4 C        1.9670     1.2970     1.4350 C.3   1 <1>  -0.0990 
  5 C        4.3300     0.9620    -0.2210 C.2   1 <1>  -0.2760 
  6 C        3.0000     2.4350     1.3430 C.3   1 <1>  -0.1600 
  7 C        3.8890     2.4100     0.0660 C.3   1 <1>   0.1380 
  8 C        5.4530     0.7920    -1.2370 C.3   1 <1>  -0.0220 
  9 C        5.1360     3.3240     0.3100 C.3   1 <1>  -0.0800 
 10 C        3.0480     2.8770    -1.1380 C.3   1 <1>  -0.2400 
 11 C        6.6810     1.6370    -0.8900 C.3   1 <1>  -0.0190 
 12 C        6.2720     3.1220    -0.7350 C.3   1 <1>  -0.0800 
 13 C        4.7940     4.8310     0.4950 C.3   1 <1>  -0.1600 
 14 C        7.4560     1.0130     0.2720 C.2   1 <1>   0.6590 
 15 C        7.4720     4.0230    -0.3680 C.3   1 <1>  -0.0800 
 16 C        6.0410     5.6980     0.7730 C.3   1 <1>  -0.1600 
 17 O        7.3130     1.3300     1.4250 O.2   1 <1>  -0.5700 
 18 O        8.3320     0.0850    -0.0920 O.3   1 <1>  -0.4300 
 19 C        7.1330     5.5190    -0.3080 C.3   1 <1>   0.0000 
 20 C        8.7380     3.9450    -1.2240 C.3   1 <1>  -0.1600 
 21 C        9.1660    -0.5780     0.8270 C.3   1 <1>   0.2000 
 22 C        8.5500     6.1210    -0.0460 C.3   1 <1>   0.2800 
 23 C        6.5900     6.0700    -1.6620 C.3   1 <1>  -0.2400 
 24 C        9.4940     5.2490    -0.9100 C.3   1 <1>  -0.1600 
 25 C       10.4080     0.2840     1.0550 C.3   1 <1>  -0.2400 
 26 C        9.5260    -1.9300     0.2170 C.3   1 <1>  -0.2400 
 27 O        8.6610     7.4550    -0.4890 O.3   1 <1>  -0.4300 
 28 C        9.0510     6.1870     1.4150 C.3   1 <1>  -0.1600 
 29 C        9.4880     8.1710     0.2440 C.2   1 <1>   0.6590 
 30 C       10.0050     7.3780     1.4120 C.3   1 <1>  -0.0990 
 31 O        9.7780     9.3110     0.0070 O.2   1 <1>  -0.5700 
 32 H        4.0820    -1.1070     0.1640 H     1 <1>   0.1500 
 33 H        1.2090     1.4190     0.6830 H     1 <1>   0.0800 
 34 H        1.4880     1.3200     2.3970 H     1 <1>   0.0800 
 35 H        3.6360     2.3460     2.2080 H     1 <1>   0.0800 
 36 H        2.4850     3.3750     1.4230 H     1 <1>   0.0800 
 37 H        5.7390    -0.2430    -1.3090 H     1 <1>   0.0800 
 38 H        5.0890     1.0840    -2.2060 H     1 <1>   0.0800 
 39 H        5.5450     3.0150     1.2540 H     1 <1>   0.0800 
 40 H        2.5640     3.8150    -0.9340 H     1 <1>   0.0800 
 41 H        2.2860     2.1540    -1.3620 H     1 <1>   0.0800 
 42 H        3.6570     2.9960    -2.0140 H     1 <1>   0.0800 
 43 H        7.3370     1.5810    -1.7400 H     1 <1>   0.0800 
 44 H        5.9030     3.4300    -1.6950 H     1 <1>   0.0800 
 45 H        4.2840     5.2090    -0.3700 H     1 <1>   0.0800 
 46 H        4.1250     4.9510     1.3280 H     1 <1>   0.0800 
 47 H        7.7760     3.7380     0.6270 H     1 <1>   0.0800 
 48 H        6.4130     5.3950     1.7340 H     1 <1>   0.0800 
 49 H        5.7600     6.7350     0.8410 H     1 <1>   0.0800 
 50 H        9.3280     3.0790    -0.9760 H     1 <1>   0.0800 
 51 H        8.4820     3.9100    -2.2690 H     1 <1>   0.0800 
 52 H        8.6260    -0.7240     1.7490 H     1 <1>   0.0800 
 53 H        5.7050     5.5700    -1.9990 H     1 <1>   0.0800 
 54 H        7.3210     5.9920    -2.4450 H     1 <1>   0.0800 
 55 H        6.3450     7.1120    -1.5570 H     1 <1>   0.0800 
 56 H        9.7290     5.7500    -1.8330 H     1 <1>   0.0800 
 57 H       10.4130     5.0280    -0.3980 H     1 <1>   0.0800 
 58 H       10.9220     0.4590     0.1270 H     1 <1>   0.0800 
 59 H       11.0780    -0.2150     1.7310 H     1 <1>   0.0800 
 60 H       10.1290     1.2250     1.4950 H     1 <1>   0.0800 
 61 H       10.0380    -1.7970    -0.7180 H     1 <1>   0.0800 
 62 H        8.6340    -2.5080     0.0580 H     1 <1>   0.0800 
 63 H       10.1660    -2.4740     0.8870 H     1 <1>   0.0800 
 64 H        8.2470     6.4200     2.0860 H     1 <1>   0.0800 
 65 H        9.5170     5.2740     1.7440 H     1 <1>   0.0800 
 66 H       11.0160     7.0750     1.2100 H     1 <1>   0.0800 
 67 H        9.9560     7.9480     2.3210 H     1 <1>   0.0800 
@<TRIPOS>BOND
  1   1   2  2   
  2   2   3  1   
  3   2   4  1   
  4   3   5  2   
  5   3  32  1   
  6   4   6  1   
  7   4  33  1   
  8   4  34  1   
  9   5   7  1   
 10   5   8  1   
 11   6   7  1   
 12   6  35  1   
 13   6  36  1   
 14   7   9  1   
 15   7  10  1   
 16   8  11  1   
 17   8  37  1   
 18   8  38  1   
 19   9  12  1   
 20   9  13  1   
 21   9  39  1   
 22  10  40  1   
 23  10  41  1   
 24  10  42  1   
 25  11  12  1   
 26  11  14  1   
 27  11  43  1   
 28  12  15  1   
 29  12  44  1   
 30  13  16  1   
 31  13  45  1   
 32  13  46  1   
 33  14  17  2   
 34  14  18  1   
 35  15  19  1   
 36  15  20  1   
 37  15  47  1   
 38  16  19  1   
 39  16  48  1   
 40  16  49  1   
 41  18  21  1   
 42  19  22  1   
 43  19  23  1   
 44  20  24  1   
 45  20  50  1   
 46  20  51  1   
 47  21  25  1   
 48  21  26  1   
 49  21  52  1   
 50  22  24  1   
 51  22  27  1   
 52  22  28  1   
 53  23  53  1   
 54  23  54  1   
 55  23  55  1   
 56  24  56  1   
 57  24  57  1   
 58  25  58  1   
 59  25  59  1   
 60  25  60  1   
 61  26  61  1   
 62  26  62  1   
 63  26  63  1   
 64  27  29  1   
 65  28  30  1   
 66  28  64  1   
 67  28  65  1   
 68  29  30  1   
 69  29  31  2   
 70  30  66  1   
 71  30  67  1   
@<TRIPOS>SUBSTRUCTURE
  1 ****  12 GROUP 4 **** **** 0

# MOE 2024.06 (io_trps.svl 2023.06)
