@<TRIPOS>MOLECULE
NONAME
47 49 1 0 0 
SMALL
USER_CHARGES


@<TRIPOS>ATOM
  1 O        2.1290    -0.8000     1.9350 O.2   1 <1>  -0.5700 
  2 C        2.4680    -1.1850     0.8400 C.2   1 <1>   0.5690 
  3 N        2.8920    -0.2920    -0.1110 N.am  1 <1>  -0.6600 
  4 C        2.3490    -2.6970     0.5690 C.3   1 <1>   0.1710 
  5 C        2.5300     1.1570     0.0720 C.3   1 <1>   0.4000 
  6 C        3.5890    -0.6390    -1.3800 C.3   1 <1>   0.1400 
  7 N        1.0940    -3.1430    -0.1090 N.3   1 <1>  -0.8100 
  8 C        1.0240     1.3780    -0.0970 C.2   1 <1>   0.2980 
  9 C        3.3250     2.0640    -0.8890 C.3   1 <1>  -0.1600 
 10 C        4.8960     0.1600    -1.4970 C.3   1 <1>  -0.1600 
 11 C       -0.0960    -2.6090     0.5860 C.3   1 <1>   0.2540 
 12 C        1.0730    -2.8160    -1.5420 C.3   1 <1>   0.0300 
 13 O        0.4090     0.7700    -1.0830 O.3   1 <1>  -0.0190 
 14 N        0.2800     2.1100     0.6360 N.2   1 <1>  -0.5650 
 15 C        4.7880     1.6170    -1.0060 C.3   1 <1>  -0.1600 
 16 C       -1.3760    -3.2100     0.0300 C.ar  1 <1>  -0.1440 
 17 N       -0.8310     1.1320    -0.9550 N.2   1 <1>  -0.4100 
 18 C       -0.8870     1.9110     0.0490 C.2   1 <1>   0.3350 
 19 C       -1.5660    -4.5840     0.0420 C.ar  1 <1>   0.1600 
 20 C       -2.3660    -2.4050    -0.4960 C.ar  1 <1>  -0.1500 
 21 C       -2.1400     2.5730     0.5700 C.3   1 <1>  -0.0590 
 22 N       -2.6470    -5.2060    -0.4090 N.ar  1 <1>  -0.6200 
 23 C       -3.4960    -3.0340    -0.9730 C.ar  1 <1>  -0.1500 
 24 C       -3.5830    -4.4140    -0.9050 C.ar  1 <1>   0.1600 
 25 H        2.3930    -3.1880     1.5250 H     1 <1>   0.0800 
 26 H        3.2000    -3.0440     0.0170 H     1 <1>   0.0800 
 27 H        2.7910     1.4390     1.0780 H     1 <1>   0.0800 
 28 H        2.9420    -0.3930    -2.2050 H     1 <1>   0.0800 
 29 H        3.8100    -1.6890    -1.4360 H     1 <1>   0.0800 
 30 H        3.2780     3.0760    -0.5270 H     1 <1>   0.0800 
 31 H        2.8640     2.0530    -1.8620 H     1 <1>   0.0800 
 32 H        5.2010     0.1530    -2.5290 H     1 <1>   0.0800 
 33 H        5.6660    -0.3430    -0.9380 H     1 <1>   0.0800 
 34 H       -0.1320    -1.5370     0.4900 H     1 <1>   0.0800 
 35 H       -0.0330    -2.8440     1.6360 H     1 <1>   0.0800 
 36 H        1.9690    -3.1750    -2.0160 H     1 <1>   0.0800 
 37 H        0.9870    -1.7540    -1.6880 H     1 <1>   0.0800 
 38 H        0.2340    -3.2960    -2.0170 H     1 <1>   0.0800 
 39 H        5.2480     1.6920    -0.0340 H     1 <1>   0.0800 
 40 H        5.3250     2.2700    -1.6720 H     1 <1>   0.0800 
 41 H       -0.7790    -5.2010     0.4420 H     1 <1>   0.1500 
 42 H       -2.2630    -1.3330    -0.5350 H     1 <1>   0.1500 
 43 H       -2.0210     3.6400     0.5420 H     1 <1>   0.0800 
 44 H       -2.3130     2.2640     1.5840 H     1 <1>   0.0800 
 45 H       -2.9840     2.2950    -0.0340 H     1 <1>   0.0800 
 46 H       -4.3010    -2.4620    -1.3950 H     1 <1>   0.1500 
 47 H       -4.4710    -4.8930    -1.2800 H     1 <1>   0.1500 
@<TRIPOS>BOND
  1   1   2  2   
  2   2   3  am  
  3   2   4  1   
  4   3   5  1   
  5   3   6  1   
  6   4   7  1   
  7   4  25  1   
  8   4  26  1   
  9   5   8  1   
 10   5   9  1   
 11   5  27  1   
 12   6  10  1   
 13   6  28  1   
 14   6  29  1   
 15   7  11  1   
 16   7  12  1   
 17   8  13  1   
 18   8  14  2   
 19   9  15  1   
 20   9  30  1   
 21   9  31  1   
 22  10  15  1   
 23  10  32  1   
 24  10  33  1   
 25  11  16  1   
 26  11  34  1   
 27  11  35  1   
 28  12  36  1   
 29  12  37  1   
 30  12  38  1   
 31  13  17  1   
 32  14  18  1   
 33  15  39  1   
 34  15  40  1   
 35  16  19  ar  
 36  16  20  ar  
 37  17  18  2   
 38  18  21  1   
 39  19  22  ar  
 40  19  41  1   
 41  20  23  ar  
 42  20  42  1   
 43  21  43  1   
 44  21  44  1   
 45  21  45  1   
 46  22  24  ar  
 47  23  24  ar  
 48  23  46  1   
 49  24  47  1   
@<TRIPOS>SUBSTRUCTURE
  1 ****  13 GROUP 4 **** **** 0

# MOE 2024.06 (io_trps.svl 2023.06)
