@<TRIPOS>MOLECULE
NONAME
43 44 1 0 0 
SMALL
USER_CHARGES


@<TRIPOS>ATOM
  1 O       -2.6610    -0.6460     1.4400 O.3   1 <1>  -0.2800 
  2 C       -2.3570    -1.9190     1.5720 C.2   1 <1>  -0.0100 
  3 C       -2.2240    -0.2470     0.2630 C.2   1 <1>  -0.0100 
  4 C       -1.7540    -2.3810     0.4530 C.2   1 <1>  -0.1810 
  5 C       -1.6570    -1.2740    -0.4050 C.2   1 <1>  -0.1500 
  6 C       -1.2800    -3.7830     0.1370 C.3   1 <1>   0.5240 
  7 N       -2.4730    -4.6720     0.1450 N.4   1 <1>  -0.9590 
  8 C       -2.1240    -6.1100    -0.0490 C.3   1 <1>   0.5240 
  9 C       -3.6050    -4.2120    -0.7430 C.3   1 <1>   0.3430 
 10 C       -3.2210    -6.9290     0.6230 C.2   1 <1>   0.0460 
 11 C       -4.9820    -4.1900    -0.0170 C.3   1 <1>   0.3430 
 12 N       -3.8860    -6.4210     1.6880 N.2   1 <1>  -0.5650 
 13 C       -3.6690    -8.1690     0.3220 C.2   1 <1>  -0.3320 
 14 N       -5.9010    -3.0660    -0.4300 N.4   1 <1>  -0.9590 
 15 C       -4.6950    -7.3740     2.0280 C.2   1 <1>   0.0360 
 16 N       -4.6160    -8.4630     1.2350 N.pl3 1 <1>   0.0330 
 17 C       -3.2600    -9.1560    -0.7620 C.3   1 <1>  -0.0600 
 18 C       -5.3760    -1.7120    -0.0430 C.3   1 <1>   0.2630 
 19 C       -7.2500    -3.2610     0.1980 C.3   1 <1>   0.2630 
 20 H       -2.6120    -2.4080     2.4990 H     1 <1>   0.1500 
 21 H       -2.3500     0.7880    -0.0150 H     1 <1>   0.1500 
 22 H       -1.2060    -1.2510    -1.3840 H     1 <1>   0.1500 
 23 H       -0.5670    -4.1010     0.8830 H     1 <1>   0.0800 
 24 H       -0.8010    -3.8000    -0.8290 H     1 <1>   0.0800 
 25 H       -2.8250    -4.6940     1.1190 H     1 <1>   0.4500 
 26 H       -1.1900    -6.3330     0.4410 H     1 <1>   0.0800 
 27 H       -2.0430    -6.3620    -1.0930 H     1 <1>   0.0800 
 28 H       -3.6710    -4.8490    -1.6100 H     1 <1>   0.0800 
 29 H       -3.3960    -3.2140    -1.0890 H     1 <1>   0.0800 
 30 H       -4.8070    -4.1090     1.0430 H     1 <1>   0.0800 
 31 H       -5.4690    -5.1370    -0.1880 H     1 <1>   0.0800 
 32 H       -6.0470    -3.0820    -1.4540 H     1 <1>   0.4500 
 33 H       -5.3750    -7.3350     2.8650 H     1 <1>   0.1500 
 34 H       -5.1480    -9.3370     1.3300 H     1 <1>   0.2700 
 35 H       -2.4830    -8.7530    -1.3850 H     1 <1>   0.0800 
 36 H       -4.1040    -9.3990    -1.3850 H     1 <1>   0.0800 
 37 H       -2.8950   -10.0660    -0.3150 H     1 <1>   0.0800 
 38 H       -5.2260    -1.6530     1.0240 H     1 <1>   0.0800 
 39 H       -6.0760    -0.9420    -0.3290 H     1 <1>   0.0800 
 40 H       -4.4360    -1.5100    -0.5300 H     1 <1>   0.0800 
 41 H       -7.1720    -3.2390     1.2730 H     1 <1>   0.0800 
 42 H       -7.6710    -4.2080    -0.0980 H     1 <1>   0.0800 
 43 H       -7.9240    -2.4780    -0.1120 H     1 <1>   0.0800 
@<TRIPOS>BOND
  1   1   2  1   
  2   1   3  1   
  3   2   4  2   
  4   2  20  1   
  5   3   5  2   
  6   3  21  1   
  7   4   5  1   
  8   4   6  1   
  9   5  22  1   
 10   6   7  1   
 11   6  23  1   
 12   6  24  1   
 13   7   8  1   
 14   7   9  1   
 15   7  25  1   
 16   8  10  1   
 17   8  26  1   
 18   8  27  1   
 19   9  11  1   
 20   9  28  1   
 21   9  29  1   
 22  10  12  1   
 23  10  13  2   
 24  11  14  1   
 25  11  30  1   
 26  11  31  1   
 27  12  15  2   
 28  13  16  1   
 29  13  17  1   
 30  14  18  1   
 31  14  19  1   
 32  14  32  1   
 33  15  16  1   
 34  15  33  1   
 35  16  34  1   
 36  17  35  1   
 37  17  36  1   
 38  17  37  1   
 39  18  38  1   
 40  18  39  1   
 41  18  40  1   
 42  19  41  1   
 43  19  42  1   
 44  19  43  1   
@<TRIPOS>SUBSTRUCTURE
  1 ****   7 GROUP 4 **** **** 0

# MOE 2024.06 (io_trps.svl 2023.06)
