@<TRIPOS>MOLECULE
NONAME
39 41 1 0 0 
SMALL
USER_CHARGES


@<TRIPOS>ATOM
  1 CL       0.3790    -0.5150    -0.6500 Cl    1 <1>  -0.1770 
  2 C       -0.6260    -1.9220    -0.4240 C.ar  1 <1>   0.1770 
  3 C       -1.7810    -2.0620    -1.1680 C.ar  1 <1>  -0.1500 
  4 C       -0.2540    -2.8830     0.4960 C.ar  1 <1>  -0.1500 
  5 C       -2.5720    -3.1820    -0.9850 C.ar  1 <1>  -0.1500 
  6 C       -1.0560    -3.9970     0.6700 C.ar  1 <1>  -0.1500 
  7 C       -2.2340    -4.1750    -0.0620 C.ar  1 <1>   0.0530 
  8 C       -3.0510    -5.3490     0.1400 C.2   1 <1>   0.0870 
  9 O       -2.5030    -6.4550     0.5850 O.3   1 <1>  -0.0190 
 10 C       -4.3730    -5.6090    -0.0240 C.2   1 <1>  -0.2330 
 11 N       -3.3630    -7.4270     0.7290 N.2   1 <1>  -0.4100 
 12 C       -4.5040    -6.9430     0.3690 C.2   1 <1>   0.3720 
 13 C       -5.4170    -4.7490    -0.4780 C.2   1 <1>   1.0330 
 14 N       -5.6940    -7.6900     0.3860 N.pl3 1 <1>  -0.8210 
 15 O       -6.1550    -4.1650     0.3370 O.co2 1 <1>  -0.9000 
 16 O       -5.5600    -4.5090    -1.6900 O.co2 1 <1>  -0.9000 
 17 C       -5.5900    -9.1720     0.5550 C.3   1 <1>   0.2090 
 18 C       -6.8480    -7.0530     1.0860 C.3   1 <1>   0.1290 
 19 C       -6.7130    -9.9270    -0.1830 C.3   1 <1>   0.2000 
 20 O       -7.8880    -9.9770     0.5670 O.3   1 <1>  -0.5600 
 21 C       -6.3990   -11.3940    -0.4480 C.3   1 <1>  -0.1600 
 22 C       -8.7100   -10.9840     0.0780 C.3   1 <1>   0.1200 
 23 C       -7.7770   -12.0380    -0.5140 C.3   1 <1>  -0.1600 
 24 H       -2.0610    -1.3080    -1.8800 H     1 <1>   0.1500 
 25 H        0.6480    -2.7570     1.0660 H     1 <1>   0.1500 
 26 H       -3.4670    -3.2860    -1.5740 H     1 <1>   0.1500 
 27 H       -0.7720    -4.7450     1.3900 H     1 <1>   0.1500 
 28 H       -5.5940    -9.4290     1.5990 H     1 <1>   0.0800 
 29 H       -4.6540    -9.4970     0.1360 H     1 <1>   0.0800 
 30 H       -6.5040    -6.2720     1.7420 H     1 <1>   0.0800 
 31 H       -7.3920    -7.7720     1.6710 H     1 <1>   0.0800 
 32 H       -7.5110    -6.6190     0.3570 H     1 <1>   0.0800 
 33 H       -6.9320    -9.4260    -1.1110 H     1 <1>   0.0800 
 34 H       -5.8400   -11.8010     0.3770 H     1 <1>   0.0800 
 35 H       -5.8380   -11.5190    -1.3560 H     1 <1>   0.0800 
 36 H       -9.3470   -10.5550    -0.6770 H     1 <1>   0.0800 
 37 H       -9.3030   -11.3680     0.8900 H     1 <1>   0.0800 
 38 H       -7.8130   -12.9490     0.0560 H     1 <1>   0.0800 
 39 H       -8.0630   -12.2460    -1.5300 H     1 <1>   0.0800 
@<TRIPOS>BOND
  1   1   2  1   
  2   2   3  ar  
  3   2   4  ar  
  4   3   5  ar  
  5   3  24  1   
  6   4   6  ar  
  7   4  25  1   
  8   5   7  ar  
  9   5  26  1   
 10   6   7  ar  
 11   6  27  1   
 12   7   8  1   
 13   8   9  1   
 14   8  10  2   
 15   9  11  1   
 16  10  12  1   
 17  10  13  1   
 18  11  12  2   
 19  12  14  1   
 20  13  15  ar  
 21  13  16  ar  
 22  14  17  1   
 23  14  18  1   
 24  17  19  1   
 25  17  28  1   
 26  17  29  1   
 27  18  30  1   
 28  18  31  1   
 29  18  32  1   
 30  19  20  1   
 31  19  21  1   
 32  19  33  1   
 33  20  22  1   
 34  21  23  1   
 35  21  34  1   
 36  21  35  1   
 37  22  23  1   
 38  22  36  1   
 39  22  37  1   
 40  23  38  1   
 41  23  39  1   
@<TRIPOS>SUBSTRUCTURE
  1 ****  10 GROUP 4 **** **** 0

# MOE 2024.06 (io_trps.svl 2023.06)
