@<TRIPOS>MOLECULE
NONAME
50 53 1 0 0 
SMALL
USER_CHARGES


@<TRIPOS>ATOM
  1 F       -1.8120     0.8390    -2.2790 F     1 <1>  -0.3400 
  2 C       -0.5120     0.7370    -2.0350 C.3   1 <1>   1.1640 
  3 F        0.0520     0.3470    -3.1710 F     1 <1>  -0.3400 
  4 F       -0.0840     1.9770    -1.8250 F     1 <1>  -0.3400 
  5 C       -0.2170    -0.2290    -0.8660 C.ar  1 <1>  -0.1440 
  6 C       -0.4590    -1.6090    -0.9400 C.ar  1 <1>  -0.1440 
  7 C        0.3260     0.2880     0.3110 C.ar  1 <1>  -0.1500 
  8 C       -0.1260    -2.4180     0.1390 C.ar  1 <1>  -0.1500 
  9 C       -1.0590    -2.3030    -2.1770 C.3   1 <1>   0.0450 
 10 C        0.6350    -0.5290     1.3820 C.ar  1 <1>  -0.1500 
 11 C        0.4120    -1.8860     1.2940 C.ar  1 <1>  -0.1500 
 12 C       -2.0570    -3.4160    -1.8650 C.2   1 <1>   0.5690 
 13 O       -1.6630    -4.5520    -1.9920 O.2   1 <1>  -0.5700 
 14 N       -3.3500    -3.1420    -1.4860 N.am  1 <1>  -0.6600 
 15 C       -3.8870    -1.7730    -1.1890 C.3   1 <1>   0.1400 
 16 C       -4.3750    -4.2250    -1.4060 C.3   1 <1>   0.1400 
 17 C       -4.5860    -1.7210     0.1840 C.3   1 <1>   0.1440 
 18 C       -5.0860    -4.2000    -0.0470 C.3   1 <1>  -0.1600 
 19 C       -5.1430    -0.3230     0.3760 C.ar  1 <1>   0.1670 
 20 C       -5.6730    -2.8130     0.2620 C.3   1 <1>  -0.1600 
 21 C       -3.5720    -1.8340     1.3530 C.3   1 <1>  -0.1600 
 22 N       -6.1980     0.1710    -0.2340 N.ar  1 <1>  -0.6200 
 23 C       -4.3970     0.3970     1.2610 C.ar  1 <1>  -0.1440 
 24 C       -3.2350    -0.4010     1.7960 C.3   1 <1>  -0.0170 
 25 C       -6.4840     1.4230     0.0920 C.ar  1 <1>   0.4770 
 26 C       -4.7830     1.6870     1.5240 C.ar  1 <1>   0.1600 
 27 N       -5.8380     2.2150     0.9390 N.ar  1 <1>  -0.6200 
 28 C       -7.6940     2.0270    -0.5780 C.3   1 <1>  -0.0970 
 29 H        0.5230     1.3420     0.4140 H     1 <1>   0.1500 
 30 H       -0.2810    -3.4840     0.0920 H     1 <1>   0.1500 
 31 H       -0.2490    -2.7330    -2.7380 H     1 <1>   0.0800 
 32 H       -1.5540    -1.6160    -2.8320 H     1 <1>   0.0800 
 33 H        1.0560    -0.1090     2.2800 H     1 <1>   0.1500 
 34 H        0.6590    -2.5310     2.1200 H     1 <1>   0.1500 
 35 H       -4.5980    -1.5090    -1.9530 H     1 <1>   0.0800 
 36 H       -3.1060    -1.0400    -1.2020 H     1 <1>   0.0800 
 37 H       -3.9220    -5.1910    -1.5530 H     1 <1>   0.0800 
 38 H       -5.0950    -4.0770    -2.1920 H     1 <1>   0.0800 
 39 H       -4.3840    -4.4880     0.7160 H     1 <1>   0.0800 
 40 H       -5.8750    -4.9300    -0.0520 H     1 <1>   0.0800 
 41 H       -6.4420    -2.5910    -0.4580 H     1 <1>   0.0800 
 42 H       -6.1320    -2.8100     1.2340 H     1 <1>   0.0800 
 43 H       -2.6930    -2.3890     1.0840 H     1 <1>   0.0800 
 44 H       -4.0390    -2.3340     2.1830 H     1 <1>   0.0800 
 45 H       -2.3230    -0.0670     1.3340 H     1 <1>   0.0800 
 46 H       -3.1530    -0.3250     2.8660 H     1 <1>   0.0800 
 47 H       -4.2260     2.2950     2.2160 H     1 <1>   0.1500 
 48 H       -7.9640     1.4590    -1.4480 H     1 <1>   0.0800 
 49 H       -7.4790     3.0370    -0.8730 H     1 <1>   0.0800 
 50 H       -8.5160     2.0290     0.1120 H     1 <1>   0.0800 
@<TRIPOS>BOND
  1   1   2  1   
  2   2   3  1   
  3   2   4  1   
  4   2   5  1   
  5   5   6  ar  
  6   5   7  ar  
  7   6   8  ar  
  8   6   9  1   
  9   7  10  ar  
 10   7  29  1   
 11   8  11  ar  
 12   8  30  1   
 13   9  12  1   
 14   9  31  1   
 15   9  32  1   
 16  10  11  ar  
 17  10  33  1   
 18  11  34  1   
 19  12  13  2   
 20  12  14  am  
 21  14  15  1   
 22  14  16  1   
 23  15  17  1   
 24  15  35  1   
 25  15  36  1   
 26  16  18  1   
 27  16  37  1   
 28  16  38  1   
 29  17  19  1   
 30  17  20  1   
 31  17  21  1   
 32  18  20  1   
 33  18  39  1   
 34  18  40  1   
 35  19  22  ar  
 36  19  23  ar  
 37  20  41  1   
 38  20  42  1   
 39  21  24  1   
 40  21  43  1   
 41  21  44  1   
 42  22  25  ar  
 43  23  24  1   
 44  23  26  ar  
 45  24  45  1   
 46  24  46  1   
 47  25  27  ar  
 48  25  28  1   
 49  26  27  ar  
 50  26  47  1   
 51  28  48  1   
 52  28  49  1   
 53  28  50  1   
@<TRIPOS>SUBSTRUCTURE
  1 ****  15 GROUP 4 **** **** 0

# MOE 2024.06 (io_trps.svl 2023.06)
