@<TRIPOS>MOLECULE
NONAME
53 54 1 0 0 
SMALL
USER_CHARGES


@<TRIPOS>ATOM
  1 O       -2.2360     1.9540    -1.4650 O.co2 1 <1>  -0.9000 
  2 C       -1.1830     2.4900    -1.1150 C.2   1 <1>   0.9060 
  3 O       -0.6440     3.3790    -1.7940 O.co2 1 <1>  -0.9000 
  4 C       -0.6170     2.1640     0.2690 C.3   1 <1>  -0.1060 
  5 C       -1.6620     2.5480     1.3380 C.3   1 <1>   0.2000 
  6 C        0.6190     3.0350     0.5160 C.3   1 <1>   0.3430 
  7 C       -0.2350     0.6620     0.3970 C.3   1 <1>  -0.1600 
  8 O       -2.8310     1.8560     1.1250 O.3   1 <1>  -0.6800 
  9 C       -2.0020     4.0400     1.3200 C.3   1 <1>  -0.1600 
 10 N        0.2620     4.4790     0.4310 N.4   1 <1>  -0.9590 
 11 C        0.8380     0.1950    -0.6020 C.3   1 <1>  -0.1600 
 12 C       -0.7450     4.8960     1.4440 C.3   1 <1>   0.3430 
 13 C        1.4600     5.3550     0.3340 C.3   1 <1>   0.3430 
 14 C        1.1140    -1.3020    -0.4410 C.3   1 <1>  -0.2400 
 15 C        1.1360     6.6590    -0.3960 C.3   1 <1>   0.1200 
 16 O        2.2390     7.5190    -0.2380 O.3   1 <1>  -0.3630 
 17 C        2.1900     8.8170    -0.6430 C.ar  1 <1>   0.0830 
 18 C        3.1780     9.6900    -0.1810 C.ar  1 <1>  -0.1430 
 19 C        1.1870     9.2860    -1.4870 C.ar  1 <1>  -0.1500 
 20 C        3.1320    11.0330    -0.5480 C.ar  1 <1>  -0.1430 
 21 C        4.2980     9.1780     0.7270 C.3   1 <1>  -0.0970 
 22 C        1.1550    10.6170    -1.8540 C.ar  1 <1>  -0.1500 
 23 C        2.1210    11.4840    -1.3830 C.ar  1 <1>  -0.1500 
 24 C        4.1620    12.0430    -0.0590 C.3   1 <1>  -0.0970 
 25 H       -1.3090     2.2720     2.3180 H     1 <1>   0.0800 
 26 H        1.3480     2.8090    -0.2450 H     1 <1>   0.0800 
 27 H        1.0430     2.8100     1.4800 H     1 <1>   0.0800 
 28 H        0.1000     0.4570     1.3990 H     1 <1>   0.0800 
 29 H       -1.1220     0.0700     0.2320 H     1 <1>   0.0800 
 30 H       -2.9470     1.7650     0.1320 H     1 <1>   0.4000 
 31 H       -2.5130     4.2960     0.4070 H     1 <1>   0.0800 
 32 H       -2.6610     4.2630     2.1400 H     1 <1>   0.0800 
 33 H       -0.2020     4.4880    -0.5190 H     1 <1>   0.4500 
 34 H        0.5000     0.3770    -1.6090 H     1 <1>   0.0800 
 35 H        1.7590     0.7310    -0.4560 H     1 <1>   0.0800 
 36 H       -0.3290     4.7830     2.4320 H     1 <1>   0.0800 
 37 H       -1.0070     5.9320     1.3020 H     1 <1>   0.0800 
 38 H        1.8270     5.5770     1.3210 H     1 <1>   0.0800 
 39 H        2.2320     4.8470    -0.2190 H     1 <1>   0.0800 
 40 H        0.2150    -1.8670    -0.6180 H     1 <1>   0.0800 
 41 H        1.4700    -1.5190     0.5510 H     1 <1>   0.0800 
 42 H        1.8580    -1.6170    -1.1500 H     1 <1>   0.0800 
 43 H        0.2770     7.1420     0.0320 H     1 <1>   0.0800 
 44 H        0.9910     6.4760    -1.4470 H     1 <1>   0.0800 
 45 H        0.4250     8.6390    -1.8750 H     1 <1>   0.1500 
 46 H        5.2330     9.6460     0.4820 H     1 <1>   0.0800 
 47 H        4.4430     8.1200     0.6230 H     1 <1>   0.0800 
 48 H        4.0570     9.3930     1.7520 H     1 <1>   0.0800 
 49 H        0.3810    10.9810    -2.5060 H     1 <1>   0.1500 
 50 H        2.0810    12.5190    -1.6760 H     1 <1>   0.1500 
 51 H        3.8650    13.0470    -0.3010 H     1 <1>   0.0800 
 52 H        5.1130    11.8500    -0.5230 H     1 <1>   0.0800 
 53 H        4.2710    11.9770     1.0090 H     1 <1>   0.0800 
@<TRIPOS>BOND
  1   1   2  ar  
  2   2   3  ar  
  3   2   4  1   
  4   4   5  1   
  5   4   6  1   
  6   4   7  1   
  7   5   8  1   
  8   5   9  1   
  9   5  25  1   
 10   6  10  1   
 11   6  26  1   
 12   6  27  1   
 13   7  11  1   
 14   7  28  1   
 15   7  29  1   
 16   8  30  1   
 17   9  12  1   
 18   9  31  1   
 19   9  32  1   
 20  10  12  1   
 21  10  13  1   
 22  10  33  1   
 23  11  14  1   
 24  11  34  1   
 25  11  35  1   
 26  12  36  1   
 27  12  37  1   
 28  13  15  1   
 29  13  38  1   
 30  13  39  1   
 31  14  40  1   
 32  14  41  1   
 33  14  42  1   
 34  15  16  1   
 35  15  43  1   
 36  15  44  1   
 37  16  17  1   
 38  17  18  ar  
 39  17  19  ar  
 40  18  20  ar  
 41  18  21  1   
 42  19  22  ar  
 43  19  45  1   
 44  20  23  ar  
 45  20  24  1   
 46  21  46  1   
 47  21  47  1   
 48  21  48  1   
 49  22  23  ar  
 50  22  49  1   
 51  23  50  1   
 52  24  51  1   
 53  24  52  1   
 54  24  53  1   
@<TRIPOS>SUBSTRUCTURE
  1 ****  13 GROUP 4 **** **** 0

# MOE 2024.06 (io_trps.svl 2023.06)
