@<TRIPOS>MOLECULE
NONAME
49 52 1 0 0 
SMALL
USER_CHARGES


@<TRIPOS>ATOM
  1 F        0.4200     1.9390    -2.7820 F     1 <1>  -0.1900 
  2 C        0.5520     2.5510    -1.6310 C.ar  1 <1>   0.1900 
  3 C       -0.3920     2.3760    -0.6340 C.ar  1 <1>   0.1900 
  4 C        1.6460     3.3700    -1.4350 C.ar  1 <1>  -0.1500 
  5 F       -1.4290     1.5960    -0.8270 F     1 <1>  -0.1900 
  6 C       -0.2610     3.0210     0.5820 C.ar  1 <1>  -0.1500 
  7 C        1.7960     4.0260    -0.2170 C.ar  1 <1>   0.1000 
  8 C        0.8360     3.8450     0.7810 C.ar  1 <1>  -0.1500 
  9 N        2.8980     4.8530    -0.0240 N.pl3 1 <1>  -0.8380 
 10 C        3.6700     4.7300     1.2330 C.3   1 <1>   0.2090 
 11 C        2.8250     6.2120    -0.6020 C.3   1 <1>   0.2090 
 12 C        5.1080     5.1440     0.9370 C.3   1 <1>  -0.1600 
 13 C        4.2480     6.6530    -0.9300 C.3   1 <1>  -0.1600 
 14 C        5.1320     6.5510     0.3180 C.3   1 <1>   0.4230 
 15 N        6.5190     7.0020    -0.0020 N.4   1 <1>  -0.9590 
 16 C        7.2810     7.3720     1.2520 C.3   1 <1>   0.3430 
 17 C        7.2750     6.0570    -0.9110 C.3   1 <1>   0.3430 
 18 C        8.5620     8.2150     0.9990 C.3   1 <1>   0.2200 
 19 C        8.5740     6.6240    -1.5050 C.3   1 <1>  -0.0190 
 20 N        8.5580     8.8270    -0.3640 N.am  1 <1>  -0.7300 
 21 C        9.8140     7.3430     1.2030 C.3   1 <1>   0.1200 
 22 C        8.5610     8.1350    -1.5250 C.2   1 <1>   0.5690 
 23 C        9.8230     6.0790    -0.8000 C.3   1 <1>   0.1200 
 24 O        9.6580     6.0990     0.5850 O.3   1 <1>  -0.5600 
 25 O        8.4890     8.7140    -2.5730 O.2   1 <1>  -0.5700 
 26 H        2.3760     3.4970    -2.2110 H     1 <1>   0.1500 
 27 H       -1.0010     2.8790     1.3500 H     1 <1>   0.1500 
 28 H        0.9450     4.3570     1.7190 H     1 <1>   0.1500 
 29 H        3.2350     5.3610     1.9910 H     1 <1>   0.0800 
 30 H        3.6420     3.7080     1.5780 H     1 <1>   0.0800 
 31 H        2.2230     6.1980    -1.4970 H     1 <1>   0.0800 
 32 H        2.3650     6.8820     0.1050 H     1 <1>   0.0800 
 33 H        5.5170     4.4140     0.2620 H     1 <1>   0.0800 
 34 H        5.6660     5.1210     1.8540 H     1 <1>   0.0800 
 35 H        4.2200     7.6670    -1.2860 H     1 <1>   0.0800 
 36 H        4.6090     6.0180    -1.7180 H     1 <1>   0.0800 
 37 H        4.7160     7.2280     1.0480 H     1 <1>   0.0800 
 38 H        6.4310     7.8850    -0.5280 H     1 <1>   0.4500 
 39 H        6.6360     7.9480     1.8950 H     1 <1>   0.0800 
 40 H        7.5510     6.4790     1.7920 H     1 <1>   0.0800 
 41 H        7.5070     5.1490    -0.3780 H     1 <1>   0.0800 
 42 H        6.6370     5.7890    -1.7360 H     1 <1>   0.0800 
 43 H        8.6030     9.0090     1.7250 H     1 <1>   0.0800 
 44 H        8.6370     6.2930    -2.5260 H     1 <1>   0.0800 
 45 H        8.6570     9.8460    -0.4390 H     1 <1>   0.3700 
 46 H        9.9490     7.1500     2.2530 H     1 <1>   0.0800 
 47 H       10.7040     7.8270     0.8350 H     1 <1>   0.0800 
 48 H       10.7080     6.6340    -1.0680 H     1 <1>   0.0800 
 49 H        9.9760     5.0500    -1.0790 H     1 <1>   0.0800 
@<TRIPOS>BOND
  1   1   2  1   
  2   2   3  ar  
  3   2   4  ar  
  4   3   5  1   
  5   3   6  ar  
  6   4   7  ar  
  7   4  26  1   
  8   6   8  ar  
  9   6  27  1   
 10   7   8  ar  
 11   7   9  1   
 12   8  28  1   
 13   9  10  1   
 14   9  11  1   
 15  10  12  1   
 16  10  29  1   
 17  10  30  1   
 18  11  13  1   
 19  11  31  1   
 20  11  32  1   
 21  12  14  1   
 22  12  33  1   
 23  12  34  1   
 24  13  14  1   
 25  13  35  1   
 26  13  36  1   
 27  14  15  1   
 28  14  37  1   
 29  15  16  1   
 30  15  17  1   
 31  15  38  1   
 32  16  18  1   
 33  16  39  1   
 34  16  40  1   
 35  17  19  1   
 36  17  41  1   
 37  17  42  1   
 38  18  20  1   
 39  18  21  1   
 40  18  43  1   
 41  19  22  1   
 42  19  23  1   
 43  19  44  1   
 44  20  22  am  
 45  20  45  1   
 46  21  24  1   
 47  21  46  1   
 48  21  47  1   
 49  22  25  2   
 50  23  24  1   
 51  23  48  1   
 52  23  49  1   
@<TRIPOS>SUBSTRUCTURE
  1 ****  14 GROUP 4 **** **** 0

# MOE 2024.06 (io_trps.svl 2023.06)
