@<TRIPOS>MOLECULE
NONAME
58 61 1 0 0 
SMALL
USER_CHARGES


@<TRIPOS>ATOM
  1 O        0.1060    -1.3330     1.7590 O.2   1 <1>  -0.5700 
  2 C        1.1330    -1.5660     1.1660 C.2   1 <1>   0.5690 
  3 N        1.1730    -2.3760     0.0590 N.am  1 <1>  -0.6600 
  4 C        2.4050    -0.9350     1.7100 C.3   1 <1>  -0.0990 
  5 C        2.3940    -2.5780    -0.7720 C.3   1 <1>   0.1400 
  6 C       -0.0620    -3.0220    -0.4580 C.3   1 <1>   0.1400 
  7 C        3.5500    -0.8770     0.6910 C.3   1 <1>  -0.1600 
  8 C        3.6750    -2.2320    -0.0080 C.3   1 <1>  -0.1600 
  9 C       -0.1010    -4.4930    -0.0350 C.3   1 <1>  -0.1600 
 10 C       -1.4170    -5.1700    -0.4640 C.3   1 <1>  -0.0990 
 11 C       -1.4920    -6.6600    -0.1480 C.2   1 <1>   0.5690 
 12 O       -0.5310    -7.2180     0.3270 O.2   1 <1>  -0.5700 
 13 N       -2.6390    -7.3510    -0.4250 N.am  1 <1>  -0.6600 
 14 C       -3.8740    -6.8210    -1.0550 C.3   1 <1>   0.1400 
 15 C       -2.7580    -8.8130    -0.2010 C.3   1 <1>   0.1400 
 16 C       -4.9070    -7.9310    -0.8630 C.3   1 <1>   0.2000 
 17 C       -4.0720    -9.2180    -0.8840 C.3   1 <1>  -0.0800 
 18 O       -5.4890    -7.7690     0.3860 O.3   1 <1>  -0.6800 
 19 C       -4.7640   -10.4430    -0.2480 C.3   1 <1>  -0.0170 
 20 C       -4.0420   -11.7900    -0.3770 C.ar  1 <1>  -0.1440 
 21 C       -4.5260   -12.9140     0.3400 C.ar  1 <1>   0.0000 
 22 C       -2.9420   -11.9880    -1.1640 C.ar  1 <1>  -0.1500 
 23 C       -3.8270   -14.1400     0.2090 C.ar  1 <1>   0.3100 
 24 C       -5.6690   -12.8970     1.1750 C.ar  1 <1>  -0.1500 
 25 C       -2.3270   -13.2450    -1.2260 C.ar  1 <1>   0.1600 
 26 N       -2.7310   -14.2880    -0.5760 N.ar  1 <1>  -0.6200 
 27 C       -4.2820   -15.2650     0.9150 C.ar  1 <1>  -0.1500 
 28 C       -6.0880   -14.0130     1.8480 C.ar  1 <1>  -0.1500 
 29 C       -5.3860   -15.2130     1.7200 C.ar  1 <1>  -0.1500 
 30 H        2.1790     0.0570     2.0570 H     1 <1>   0.0800 
 31 H        2.7120    -1.5180     2.5590 H     1 <1>   0.0800 
 32 H        2.4470    -3.6010    -1.1000 H     1 <1>   0.0800 
 33 H        2.3180    -1.9500    -1.6440 H     1 <1>   0.0800 
 34 H       -0.9290    -2.5130    -0.0700 H     1 <1>   0.0800 
 35 H       -0.0880    -2.9400    -1.5310 H     1 <1>   0.0800 
 36 H        3.3420    -0.1130    -0.0400 H     1 <1>   0.0800 
 37 H        4.4700    -0.6260     1.1890 H     1 <1>   0.0800 
 38 H        3.8710    -3.0030     0.7180 H     1 <1>   0.0800 
 39 H        4.5010    -2.2140    -0.6960 H     1 <1>   0.0800 
 40 H        0.7270    -5.0180    -0.4760 H     1 <1>   0.0800 
 41 H       -0.0090    -4.5550     1.0360 H     1 <1>   0.0800 
 42 H       -1.5430    -5.0510    -1.5240 H     1 <1>   0.0800 
 43 H       -2.2330    -4.6780     0.0320 H     1 <1>   0.0800 
 44 H       -4.1970    -5.8980    -0.6040 H     1 <1>   0.0800 
 45 H       -3.6930    -6.6690    -2.1050 H     1 <1>   0.0800 
 46 H       -1.9090    -9.3280    -0.6170 H     1 <1>   0.0800 
 47 H       -2.7980    -9.0030     0.8580 H     1 <1>   0.0800 
 48 H       -5.6870    -7.9150    -1.6060 H     1 <1>   0.0800 
 49 H       -3.8620    -9.4340    -1.9160 H     1 <1>   0.0800 
 50 H       -4.7810    -7.6440     1.0510 H     1 <1>   0.4000 
 51 H       -5.7410   -10.5460    -0.6890 H     1 <1>   0.0800 
 52 H       -4.9040   -10.2400     0.7990 H     1 <1>   0.0800 
 53 H       -2.5040   -11.2130    -1.7610 H     1 <1>   0.1500 
 54 H       -6.2320   -11.9900     1.2880 H     1 <1>   0.1500 
 55 H       -1.4610   -13.3490    -1.8560 H     1 <1>   0.1500 
 56 H       -3.7270   -16.1780     0.7980 H     1 <1>   0.1500 
 57 H       -6.9580   -13.9810     2.4810 H     1 <1>   0.1500 
 58 H       -5.7240   -16.0840     2.2560 H     1 <1>   0.1500 
@<TRIPOS>BOND
  1   1   2  2   
  2   2   3  am  
  3   2   4  1   
  4   3   5  1   
  5   3   6  1   
  6   4   7  1   
  7   4  30  1   
  8   4  31  1   
  9   5   8  1   
 10   5  32  1   
 11   5  33  1   
 12   6   9  1   
 13   6  34  1   
 14   6  35  1   
 15   7   8  1   
 16   7  36  1   
 17   7  37  1   
 18   8  38  1   
 19   8  39  1   
 20   9  10  1   
 21   9  40  1   
 22   9  41  1   
 23  10  11  1   
 24  10  42  1   
 25  10  43  1   
 26  11  12  2   
 27  11  13  am  
 28  13  14  1   
 29  13  15  1   
 30  14  16  1   
 31  14  44  1   
 32  14  45  1   
 33  15  17  1   
 34  15  46  1   
 35  15  47  1   
 36  16  17  1   
 37  16  18  1   
 38  16  48  1   
 39  17  19  1   
 40  17  49  1   
 41  18  50  1   
 42  19  20  1   
 43  19  51  1   
 44  19  52  1   
 45  20  21  ar  
 46  20  22  ar  
 47  21  23  ar  
 48  21  24  ar  
 49  22  25  ar  
 50  22  53  1   
 51  23  26  ar  
 52  23  27  ar  
 53  24  28  ar  
 54  24  54  1   
 55  25  26  ar  
 56  25  55  1   
 57  27  29  ar  
 58  27  56  1   
 59  28  29  ar  
 60  28  57  1   
 61  29  58  1   
@<TRIPOS>SUBSTRUCTURE
  1 ****  13 GROUP 4 **** **** 0

# MOE 2024.06 (io_trps.svl 2023.06)
