@<TRIPOS>MOLECULE
NONAME
44 46 1 0 0 
SMALL
USER_CHARGES


@<TRIPOS>ATOM
  1 CL      -1.5090     2.1630    -3.3570 Cl    1 <1>  -0.1770 
  2 C       -0.9360     3.0980    -1.9970 C.ar  1 <1>   0.1770 
  3 C        0.4150     3.2040    -1.7260 C.ar  1 <1>   0.1770 
  4 C       -1.8580     3.7350    -1.1910 C.ar  1 <1>  -0.1500 
  5 CL       1.6010     2.4110    -2.7340 Cl    1 <1>  -0.1770 
  6 C        0.8420     3.9440    -0.6420 C.ar  1 <1>  -0.1500 
  7 C       -1.4560     4.5050    -0.1000 C.ar  1 <1>  -0.0090 
  8 C       -0.0830     4.5860     0.1720 C.ar  1 <1>  -0.1440 
  9 S       -2.7210     5.3230     0.9330 S.o2  1 <1>   1.4470 
 10 C        0.4460     5.3710     1.3680 C.3   1 <1>  -0.0960 
 11 O       -3.1230     4.4000     1.9710 O.2   1 <1>  -0.6500 
 12 O       -2.3060     6.6590     1.3060 O.2   1 <1>  -0.6500 
 13 N       -4.0410     5.5160    -0.1170 N.am  1 <1>  -0.8490 
 14 C       -5.3050     5.6810     0.6210 C.3   1 <1>   0.1960 
 15 C       -3.8450     6.6230    -1.0580 C.3   1 <1>   0.1960 
 16 C       -6.5360     5.6760    -0.3200 C.3   1 <1>   0.0000 
 17 C       -4.9770     6.6410    -2.0870 C.3   1 <1>  -0.1600 
 18 C       -7.8070     5.8700     0.5330 C.3   1 <1>   0.2000 
 19 C       -6.3450     6.7650    -1.4020 C.3   1 <1>  -0.1600 
 20 C       -6.7390     4.2720    -0.9280 C.3   1 <1>  -0.1600 
 21 O       -8.8750     6.2330    -0.2680 O.3   1 <1>  -0.6800 
 22 C       -8.1230     4.4870     1.0990 C.3   1 <1>  -0.1600 
 23 C       -7.5760     3.4740     0.0830 C.3   1 <1>  -0.1600 
 24 H       -2.9030     3.6230    -1.4230 H     1 <1>   0.1500 
 25 H        1.8970     4.0090    -0.4430 H     1 <1>   0.1500 
 26 H        1.4880     5.1660     1.5370 H     1 <1>   0.0800 
 27 H       -0.0890     5.1060     2.2630 H     1 <1>   0.0800 
 28 H        0.3360     6.4270     1.1970 H     1 <1>   0.0800 
 29 H       -5.4090     4.8780     1.3310 H     1 <1>   0.0800 
 30 H       -5.2730     6.6050     1.1750 H     1 <1>   0.0800 
 31 H       -3.8220     7.5610    -0.5260 H     1 <1>   0.0800 
 32 H       -2.9050     6.5060    -1.5710 H     1 <1>   0.0800 
 33 H       -4.8350     7.4710    -2.7550 H     1 <1>   0.0800 
 34 H       -4.9350     5.7390    -2.6710 H     1 <1>   0.0800 
 35 H       -7.6950     6.6210     1.2980 H     1 <1>   0.0800 
 36 H       -7.1220     6.7070    -2.1440 H     1 <1>   0.0800 
 37 H       -6.4170     7.7340    -0.9370 H     1 <1>   0.0800 
 38 H       -7.2920     4.3510    -1.8470 H     1 <1>   0.0800 
 39 H       -5.8060     3.7790    -1.1420 H     1 <1>   0.0800 
 40 H       -9.0220     5.5330    -0.9310 H     1 <1>   0.4000 
 41 H       -7.5990     4.3650     2.0310 H     1 <1>   0.0800 
 42 H       -9.1750     4.3560     1.2880 H     1 <1>   0.0800 
 43 H       -6.9630     2.7450     0.5860 H     1 <1>   0.0800 
 44 H       -8.3790     2.9630    -0.4180 H     1 <1>   0.0800 
@<TRIPOS>BOND
  1   1   2  1   
  2   2   3  ar  
  3   2   4  ar  
  4   3   5  1   
  5   3   6  ar  
  6   4   7  ar  
  7   4  24  1   
  8   6   8  ar  
  9   6  25  1   
 10   7   8  ar  
 11   7   9  1   
 12   8  10  1   
 13   9  11  2   
 14   9  12  2   
 15   9  13  am  
 16  10  26  1   
 17  10  27  1   
 18  10  28  1   
 19  13  14  1   
 20  13  15  1   
 21  14  16  1   
 22  14  29  1   
 23  14  30  1   
 24  15  17  1   
 25  15  31  1   
 26  15  32  1   
 27  16  18  1   
 28  16  19  1   
 29  16  20  1   
 30  17  19  1   
 31  17  33  1   
 32  17  34  1   
 33  18  21  1   
 34  18  22  1   
 35  18  35  1   
 36  19  36  1   
 37  19  37  1   
 38  20  23  1   
 39  20  38  1   
 40  20  39  1   
 41  21  40  1   
 42  22  23  1   
 43  22  41  1   
 44  22  42  1   
 45  23  43  1   
 46  23  44  1   
@<TRIPOS>SUBSTRUCTURE
  1 ****  13 GROUP 4 **** **** 0

# MOE 2024.06 (io_trps.svl 2023.06)
