@<TRIPOS>MOLECULE
Untitled Document
50 53 1 0 0 
SMALL
USER_CHARGES


@<TRIPOS>ATOM
  1 CL      -3.3660     0.5340    -2.9460 Cl    1 <1>  -0.1770 
  2 C       -3.2600    -0.3240    -1.4310 C.ar  1 <1>   0.1770 
  3 C       -3.7920    -1.5940    -1.3340 C.ar  1 <1>  -0.1500 
  4 C       -2.6430     0.2830    -0.3520 C.ar  1 <1>  -0.1500 
  5 C       -3.7120    -2.2850    -0.1330 C.ar  1 <1>   0.1000 
  6 C       -2.5590    -0.4020     0.8490 C.ar  1 <1>  -0.1500 
  7 N       -4.2500    -3.5630    -0.0420 N.pl3 1 <1>  -0.8380 
  8 C       -3.0910    -1.6760     0.9540 C.ar  1 <1>  -0.1500 
  9 C       -5.4640    -3.7160     0.8080 C.3   1 <1>   0.2090 
 10 C       -3.2760    -4.6880     0.0490 C.3   1 <1>   0.2090 
 11 C       -6.1430    -5.0780     0.5460 C.3   1 <1>   0.3430 
 12 C       -3.9800    -6.0390    -0.2020 C.3   1 <1>   0.3430 
 13 N       -5.1890    -6.2480     0.6860 N.4   1 <1>  -0.9590 
 14 C       -5.8320    -7.5670     0.3690 C.3   1 <1>   0.3430 
 15 C       -6.9320    -7.9550     1.3620 C.3   1 <1>   0.0960 
 16 N       -7.3660    -9.3160     1.0270 N.pl3 1 <1>   0.0480 
 17 C       -8.4000    -9.6970     0.2400 C.2   1 <1>  -0.3320 
 18 C       -6.7210   -10.4490     1.4170 C.2   1 <1>  -0.3020 
 19 C       -8.4320   -11.0630     0.1310 C.2   1 <1>  -0.0860 
 20 C       -9.4270    -8.8040    -0.4420 C.3   1 <1>   0.0200 
 21 C       -7.3430   -11.5300     0.8880 C.2   1 <1>  -0.1500 
 22 C       -9.4110   -11.8060    -0.6090 C.2   1 <1>   0.5950 
 23 C      -10.0820    -9.5560    -1.6170 C.3   1 <1>  -0.1600 
 24 O       -9.4080   -13.0030    -0.7470 O.2   1 <1>  -0.5700 
 25 C      -10.5280   -10.9890    -1.2440 C.3   1 <1>  -0.0990 
 26 H       -4.2650    -2.0440    -2.1850 H     1 <1>   0.1500 
 27 H       -2.2370     1.2730    -0.4560 H     1 <1>   0.1500 
 28 H       -2.0820     0.0590     1.6970 H     1 <1>   0.1500 
 29 H       -3.0210    -2.2000     1.8890 H     1 <1>   0.1500 
 30 H       -6.1560    -2.9220     0.5800 H     1 <1>   0.0800 
 31 H       -5.1940    -3.6310     1.8460 H     1 <1>   0.0800 
 32 H       -2.8100    -4.6890     1.0190 H     1 <1>   0.0800 
 33 H       -2.5030    -4.5460    -0.6890 H     1 <1>   0.0800 
 34 H       -6.5440    -5.0590    -0.4540 H     1 <1>   0.0800 
 35 H       -6.9680    -5.1890     1.2300 H     1 <1>   0.0800 
 36 H       -3.2700    -6.8350    -0.0490 H     1 <1>   0.0800 
 37 H       -4.2840    -6.0650    -1.2350 H     1 <1>   0.0800 
 38 H       -4.8450    -6.2600     1.6560 H     1 <1>   0.4500 
 39 H       -5.0800    -8.3400     0.3880 H     1 <1>   0.0800 
 40 H       -6.2520    -7.5370    -0.6230 H     1 <1>   0.0800 
 41 H       -7.7750    -7.2950     1.2920 H     1 <1>   0.0800 
 42 H       -6.5550    -7.9600     2.3680 H     1 <1>   0.0800 
 43 H       -5.8550   -10.4430     2.0560 H     1 <1>   0.1500 
 44 H       -8.9660    -7.9070    -0.8150 H     1 <1>   0.0800 
 45 H      -10.1820    -8.5280     0.2750 H     1 <1>   0.0800 
 46 H       -7.0950   -12.5740     1.0000 H     1 <1>   0.1500 
 47 H       -9.3670    -9.6240    -2.4190 H     1 <1>   0.0800 
 48 H      -10.9270    -8.9970    -1.9810 H     1 <1>   0.0800 
 49 H      -11.3430   -10.9470    -0.5460 H     1 <1>   0.0800 
 50 H      -10.8720   -11.5010    -2.1250 H     1 <1>   0.0800 
@<TRIPOS>BOND
  1   1   2  1   
  2   2   3  ar  
  3   2   4  ar  
  4   3   5  ar  
  5   3  26  1   
  6   4   6  ar  
  7   4  27  1   
  8   5   7  1   
  9   5   8  ar  
 10   6   8  ar  
 11   6  28  1   
 12   7   9  1   
 13   7  10  1   
 14   8  29  1   
 15   9  11  1   
 16   9  30  1   
 17   9  31  1   
 18  10  12  1   
 19  10  32  1   
 20  10  33  1   
 21  11  13  1   
 22  11  34  1   
 23  11  35  1   
 24  12  13  1   
 25  12  36  1   
 26  12  37  1   
 27  13  14  1   
 28  13  38  1   
 29  14  15  1   
 30  14  39  1   
 31  14  40  1   
 32  15  16  1   
 33  15  41  1   
 34  15  42  1   
 35  16  17  1   
 36  16  18  1   
 37  17  19  2   
 38  17  20  1   
 39  18  21  2   
 40  18  43  1   
 41  19  21  1   
 42  19  22  1   
 43  20  23  1   
 44  20  44  1   
 45  20  45  1   
 46  21  46  1   
 47  22  24  2   
 48  22  25  1   
 49  23  25  1   
 50  23  47  1   
 51  23  48  1   
 52  25  49  1   
 53  25  50  1   
@<TRIPOS>SUBSTRUCTURE
  1 ****  13 GROUP 4 **** **** 0

# MOE 2024.06 (io_trps.svl 2023.06)
