@<TRIPOS>MOLECULE
NONAME
55 56 1 0 0 
SMALL
USER_CHARGES


@<TRIPOS>ATOM
  1 S       -0.5070     0.7620     0.0810 S.o2  1 <1>   1.3330 
  2 O       -1.7830     0.5650    -0.5660 O.2   1 <1>  -0.6500 
  3 O       -0.3740     0.6410     1.5140 O.2   1 <1>  -0.6500 
  4 N        0.6340    -0.2620    -0.6510 N.am  1 <1>  -0.8490 
  5 C        0.1140     2.3920    -0.3500 C.3   1 <1>  -0.0550 
  6 C        0.3170    -0.5690    -2.0520 C.3   1 <1>   0.1160 
  7 C        0.7990    -1.5180     0.0910 C.3   1 <1>   0.1160 
  8 C        1.5140     2.6740     0.2330 C.3   1 <1>  -0.1600 
  9 C        1.9880     4.0900    -0.0850 C.3   1 <1>   0.3430 
 10 N        3.2620     4.3770     0.6340 N.4   1 <1>  -0.9590 
 11 C        3.5320     5.8570     0.6310 C.3   1 <1>   0.3430 
 12 C        4.4170     3.6110     0.0690 C.3   1 <1>   0.3430 
 13 C        4.8020     6.2240     1.4150 C.3   1 <1>   0.1000 
 14 C        5.6820     3.9060     0.8780 C.3   1 <1>  -0.1600 
 15 C        5.0560     7.7140     1.2740 C.2   1 <1>   0.2980 
 16 C        6.0070     5.4070     0.9140 C.3   1 <1>  -0.1600 
 17 O        5.9880     8.2660     2.0080 O.3   1 <1>  -0.0190 
 18 N        4.4310     8.5000     0.4930 N.2   1 <1>  -0.5650 
 19 N        5.9570     9.5140     1.6620 N.2   1 <1>  -0.4100 
 20 C        5.0510     9.6400     0.7770 C.2   1 <1>   0.3350 
 21 C        4.6810    10.9480     0.0980 C.3   1 <1>   0.0210 
 22 C        5.6400    11.3240    -1.0490 C.3   1 <1>  -0.0800 
 23 C        5.2900    12.7110    -1.6040 C.3   1 <1>  -0.2400 
 24 C        5.6110    10.2940    -2.1870 C.3   1 <1>  -0.2400 
 25 H       -0.5780     3.1220     0.0250 H     1 <1>   0.0800 
 26 H        0.1400     2.4840    -1.4180 H     1 <1>   0.0800 
 27 H        0.2060     0.3400    -2.6190 H     1 <1>   0.0800 
 28 H       -0.6030    -1.1270    -2.1170 H     1 <1>   0.0800 
 29 H        1.1090    -1.1500    -2.4930 H     1 <1>   0.0800 
 30 H        1.1390    -1.3150     1.0930 H     1 <1>   0.0800 
 31 H        1.5300    -2.1450    -0.3900 H     1 <1>   0.0800 
 32 H       -0.1390    -2.0470     0.1470 H     1 <1>   0.0800 
 33 H        2.1990     1.9490    -0.1720 H     1 <1>   0.0800 
 34 H        1.4680     2.5420     1.3000 H     1 <1>   0.0800 
 35 H        1.2310     4.7890     0.2360 H     1 <1>   0.0800 
 36 H        2.1250     4.2080    -1.1490 H     1 <1>   0.0800 
 37 H        3.1410     4.0780     1.6120 H     1 <1>   0.4500 
 38 H        2.6960     6.3880     1.0580 H     1 <1>   0.0800 
 39 H        3.6500     6.1980    -0.3860 H     1 <1>   0.0800 
 40 H        4.5750     3.8950    -0.9600 H     1 <1>   0.0800 
 41 H        4.2150     2.5520     0.1000 H     1 <1>   0.0800 
 42 H        4.6350     6.0180     2.4570 H     1 <1>   0.0800 
 43 H        6.5090     3.3770     0.4350 H     1 <1>   0.0800 
 44 H        5.5640     3.5270     1.8790 H     1 <1>   0.0800 
 45 H        6.8560     5.5810     1.5540 H     1 <1>   0.0800 
 46 H        6.2750     5.7380    -0.0760 H     1 <1>   0.0800 
 47 H        4.7020    11.7220     0.8430 H     1 <1>   0.0800 
 48 H        3.6740    10.8800    -0.2730 H     1 <1>   0.0800 
 49 H        6.6420    11.3640    -0.6510 H     1 <1>   0.0800 
 50 H        4.2970    12.7170    -2.0160 H     1 <1>   0.0800 
 51 H        5.9840    12.9890    -2.3790 H     1 <1>   0.0800 
 52 H        5.3460    13.4520    -0.8260 H     1 <1>   0.0800 
 53 H        4.6180    10.1990    -2.5890 H     1 <1>   0.0800 
 54 H        5.9340     9.3300    -1.8350 H     1 <1>   0.0800 
 55 H        6.2740    10.5950    -2.9790 H     1 <1>   0.0800 
@<TRIPOS>BOND
  1   1   2  2   
  2   1   3  2   
  3   1   4  am  
  4   1   5  1   
  5   4   6  1   
  6   4   7  1   
  7   5   8  1   
  8   5  25  1   
  9   5  26  1   
 10   6  27  1   
 11   6  28  1   
 12   6  29  1   
 13   7  30  1   
 14   7  31  1   
 15   7  32  1   
 16   8   9  1   
 17   8  33  1   
 18   8  34  1   
 19   9  10  1   
 20   9  35  1   
 21   9  36  1   
 22  10  11  1   
 23  10  12  1   
 24  10  37  1   
 25  11  13  1   
 26  11  38  1   
 27  11  39  1   
 28  12  14  1   
 29  12  40  1   
 30  12  41  1   
 31  13  15  1   
 32  13  16  1   
 33  13  42  1   
 34  14  16  1   
 35  14  43  1   
 36  14  44  1   
 37  15  17  1   
 38  15  18  2   
 39  16  45  1   
 40  16  46  1   
 41  17  19  1   
 42  18  20  1   
 43  19  20  2   
 44  20  21  1   
 45  21  22  1   
 46  21  47  1   
 47  21  48  1   
 48  22  23  1   
 49  22  24  1   
 50  22  49  1   
 51  23  50  1   
 52  23  51  1   
 53  23  52  1   
 54  24  53  1   
 55  24  54  1   
 56  24  55  1   
@<TRIPOS>SUBSTRUCTURE
  1 ****  11 GROUP 4 **** **** 0

# MOE 2024.06 (io_trps.svl 2023.06)
