@<TRIPOS>MOLECULE
NONAME
52 55 1 0 0 
SMALL
USER_CHARGES


@<TRIPOS>ATOM
  1 O       -2.6110    -0.2960    -1.5950 O.2   1 <1>  -0.5700 
  2 C       -2.8690    -0.3580    -0.4040 C.2   1 <1>   0.7160 
  3 N       -3.0630     0.8250     0.2720 N.am  1 <1>  -0.7300 
  4 C       -2.9830    -1.6380     0.3040 C.2   1 <1>   0.4300 
  5 C       -2.9840     2.1950    -0.3000 C.3   1 <1>   0.0600 
  6 N       -3.3410    -1.7640     1.5410 N.2   1 <1>  -0.4100 
  7 N       -2.7340    -2.8400    -0.2460 N.2   1 <1>  -0.5650 
  8 O       -3.3360    -3.0230     1.8380 O.3   1 <1>  -0.0190 
  9 C       -2.9630    -3.6130     0.7330 C.2   1 <1>   0.2980 
 10 C       -2.8550    -5.1340     0.7120 C.3   1 <1>   0.2900 
 11 N       -4.1810    -5.8040     0.5990 N.3   1 <1>  -0.8100 
 12 C       -4.8830    -5.4210    -0.6570 C.3   1 <1>   0.1100 
 13 C       -4.0620    -7.2780     0.6950 C.3   1 <1>   0.1100 
 14 C       -6.2320    -6.1580    -0.8370 C.3   1 <1>   0.3430 
 15 C       -5.4420    -7.9830     0.6290 C.3   1 <1>   0.3430 
 16 N       -6.5460    -6.9980     0.3700 N.4   1 <1>  -0.9590 
 17 C       -7.9130    -7.5980     0.4290 C.3   1 <1>   0.4230 
 18 C       -8.2050    -8.5370    -0.7510 C.3   1 <1>  -0.0170 
 19 C       -8.9650    -6.4900     0.4990 C.3   1 <1>  -0.1600 
 20 C       -9.6500    -9.0100    -0.7380 C.ar  1 <1>  -0.1430 
 21 C      -10.3320    -7.1020     0.8220 C.3   1 <1>  -0.0170 
 22 C      -10.6340    -8.3370    -0.0180 C.ar  1 <1>  -0.1430 
 23 C       -9.9890   -10.1350    -1.4760 C.ar  1 <1>  -0.1500 
 24 C      -11.9390    -8.8040    -0.0480 C.ar  1 <1>  -0.1500 
 25 C      -11.2930   -10.5930    -1.4990 C.ar  1 <1>  -0.1500 
 26 C      -12.2690    -9.9260    -0.7840 C.ar  1 <1>  -0.1500 
 27 H       -3.2910     0.7570     1.2680 H     1 <1>   0.3700 
 28 H       -2.7360     2.1540    -1.3470 H     1 <1>   0.0800 
 29 H       -2.2260     2.7600     0.2140 H     1 <1>   0.0800 
 30 H       -3.9330     2.6900    -0.1880 H     1 <1>   0.0800 
 31 H       -2.3690    -5.4480     1.6190 H     1 <1>   0.0800 
 32 H       -2.2320    -5.4210    -0.1170 H     1 <1>   0.0800 
 33 H       -4.2550    -5.6220    -1.5100 H     1 <1>   0.0800 
 34 H       -5.0790    -4.3610    -0.6520 H     1 <1>   0.0800 
 35 H       -3.5850    -7.5410     1.6250 H     1 <1>   0.0800 
 36 H       -3.4400    -7.6480    -0.1030 H     1 <1>   0.0800 
 37 H       -6.1810    -6.7790    -1.7160 H     1 <1>   0.0800 
 38 H       -7.0070    -5.4270    -0.9960 H     1 <1>   0.0800 
 39 H       -5.6180    -8.4890     1.5640 H     1 <1>   0.0800 
 40 H       -5.4190    -8.7300    -0.1470 H     1 <1>   0.0800 
 41 H       -6.4500    -6.3290     1.1500 H     1 <1>   0.4500 
 42 H       -7.9940    -8.1760     1.3350 H     1 <1>   0.0800 
 43 H       -7.5610    -9.3950    -0.6970 H     1 <1>   0.0800 
 44 H       -8.0410    -8.0350    -1.6860 H     1 <1>   0.0800 
 45 H       -9.0380    -5.9830    -0.4470 H     1 <1>   0.0800 
 46 H       -8.7170    -5.7760     1.2630 H     1 <1>   0.0800 
 47 H      -11.0990    -6.3630     0.6650 H     1 <1>   0.0800 
 48 H      -10.3630    -7.3870     1.8600 H     1 <1>   0.0800 
 49 H       -9.2430   -10.6650    -2.0420 H     1 <1>   0.1500 
 50 H      -12.7100    -8.2960     0.5050 H     1 <1>   0.1500 
 51 H      -11.5500   -11.4670    -2.0740 H     1 <1>   0.1500 
 52 H      -13.2860   -10.2810    -0.8010 H     1 <1>   0.1500 
@<TRIPOS>BOND
  1   1   2  2   
  2   2   3  am  
  3   2   4  1   
  4   3   5  1   
  5   3  27  1   
  6   4   6  2   
  7   4   7  1   
  8   5  28  1   
  9   5  29  1   
 10   5  30  1   
 11   6   8  1   
 12   7   9  2   
 13   8   9  1   
 14   9  10  1   
 15  10  11  1   
 16  10  31  1   
 17  10  32  1   
 18  11  12  1   
 19  11  13  1   
 20  12  14  1   
 21  12  33  1   
 22  12  34  1   
 23  13  15  1   
 24  13  35  1   
 25  13  36  1   
 26  14  16  1   
 27  14  37  1   
 28  14  38  1   
 29  15  16  1   
 30  15  39  1   
 31  15  40  1   
 32  16  17  1   
 33  16  41  1   
 34  17  18  1   
 35  17  19  1   
 36  17  42  1   
 37  18  20  1   
 38  18  43  1   
 39  18  44  1   
 40  19  21  1   
 41  19  45  1   
 42  19  46  1   
 43  20  22  ar  
 44  20  23  ar  
 45  21  22  1   
 46  21  47  1   
 47  21  48  1   
 48  22  24  ar  
 49  23  25  ar  
 50  23  49  1   
 51  24  26  ar  
 52  24  50  1   
 53  25  26  ar  
 54  25  51  1   
 55  26  52  1   
@<TRIPOS>SUBSTRUCTURE
  1 ****  14 GROUP 4 **** **** 0

# MOE 2024.06 (io_trps.svl 2023.06)
