@<TRIPOS>MOLECULE
NONAME
42 44 1 0 0 
SMALL
USER_CHARGES


@<TRIPOS>ATOM
  1 S        2.0070    -0.9470    -0.2670 S.3   1 <1>  -0.0800 
  2 C        3.1090    -0.1910     0.8600 C.2   1 <1>   0.1980 
  3 C        1.6470     0.6210    -0.9230 C.2   1 <1>  -0.1100 
  4 N        3.2040     1.0730     0.7380 N.2   1 <1>  -0.5650 
  5 C        3.8150    -1.0990     1.8400 C.3   1 <1>  -0.0600 
  6 C        2.3660     1.5440    -0.2660 C.2   1 <1>   0.0460 
  7 C        2.3180     3.0410    -0.5230 C.3   1 <1>   0.0820 
  8 C        3.5910     3.5320    -1.1880 C.2   1 <1>   0.5690 
  9 O        3.8140     3.2060    -2.3300 O.2   1 <1>  -0.5700 
 10 N        4.5250     4.2680    -0.5050 N.am  1 <1>  -0.6600 
 11 C        5.1200     3.6550     0.7380 C.3   1 <1>   0.2200 
 12 C        5.3700     5.2470    -1.2660 C.3   1 <1>   0.1400 
 13 C        5.8830     4.6580     1.6200 C.3   1 <1>   0.1200 
 14 C        6.0350     2.4610     0.3500 C.3   1 <1>   0.3430 
 15 C        6.8920     5.0190    -1.1590 C.3   1 <1>  -0.0800 
 16 O        7.2180     4.7570     1.2210 O.3   1 <1>  -0.5600 
 17 N        6.4460     2.4870    -1.1030 N.4   1 <1>  -0.9590 
 18 C        7.4670     5.5940     0.1440 C.3   1 <1>   0.1200 
 19 C        7.4010     3.5870    -1.4450 C.3   1 <1>   0.3430 
 20 C        6.9270     1.1560    -1.5590 C.3   1 <1>   0.2630 
 21 H        0.9330     0.6790    -1.7250 H     1 <1>   0.1500 
 22 H        4.4510    -0.5220     2.4860 H     1 <1>   0.0800 
 23 H        4.4090    -1.8210     1.3110 H     1 <1>   0.0800 
 24 H        3.0890    -1.6150     2.4410 H     1 <1>   0.0800 
 25 H        2.1520     3.5640     0.4000 H     1 <1>   0.0800 
 26 H        1.4960     3.2620    -1.1780 H     1 <1>   0.0800 
 27 H        4.3190     3.2830     1.3500 H     1 <1>   0.0800 
 28 H        5.0960     5.2260    -2.3080 H     1 <1>   0.0800 
 29 H        5.1350     6.2380    -0.9150 H     1 <1>   0.0800 
 30 H        5.8970     4.2910     2.6320 H     1 <1>   0.0800 
 31 H        5.4180     5.6300     1.6230 H     1 <1>   0.0800 
 32 H        5.4920     1.5520     0.5420 H     1 <1>   0.0800 
 33 H        6.9060     2.4510     0.9830 H     1 <1>   0.0800 
 34 H        7.3240     5.6350    -1.9270 H     1 <1>   0.0800 
 35 H        5.5670     2.7070    -1.6220 H     1 <1>   0.4500 
 36 H        7.0680     6.5720     0.3610 H     1 <1>   0.0800 
 37 H        8.5370     5.6850     0.0630 H     1 <1>   0.0800 
 38 H        8.3260     3.4350    -0.9130 H     1 <1>   0.0800 
 39 H        7.6190     3.5220    -2.4980 H     1 <1>   0.0800 
 40 H        7.8300     0.8840    -1.0360 H     1 <1>   0.0800 
 41 H        7.1290     1.1750    -2.6170 H     1 <1>   0.0800 
 42 H        6.1750     0.4070    -1.3690 H     1 <1>   0.0800 
@<TRIPOS>BOND
  1   1   2  1   
  2   1   3  1   
  3   2   4  2   
  4   2   5  1   
  5   3   6  2   
  6   3  21  1   
  7   4   6  1   
  8   5  22  1   
  9   5  23  1   
 10   5  24  1   
 11   6   7  1   
 12   7   8  1   
 13   7  25  1   
 14   7  26  1   
 15   8   9  2   
 16   8  10  am  
 17  10  11  1   
 18  10  12  1   
 19  11  13  1   
 20  11  14  1   
 21  11  27  1   
 22  12  15  1   
 23  12  28  1   
 24  12  29  1   
 25  13  16  1   
 26  13  30  1   
 27  13  31  1   
 28  14  17  1   
 29  14  32  1   
 30  14  33  1   
 31  15  18  1   
 32  15  19  1   
 33  15  34  1   
 34  16  18  1   
 35  17  19  1   
 36  17  20  1   
 37  17  35  1   
 38  18  36  1   
 39  18  37  1   
 40  19  38  1   
 41  19  39  1   
 42  20  40  1   
 43  20  41  1   
 44  20  42  1   
@<TRIPOS>SUBSTRUCTURE
  1 ****  14 GROUP 4 **** **** 0

# MOE 2024.06 (io_trps.svl 2023.06)
