@<TRIPOS>MOLECULE
NONAME
48 50 1 0 0 
SMALL
USER_CHARGES


@<TRIPOS>ATOM
  1 S        1.4050     1.3590     1.6080 S.3   1 <1>  -0.0800 
  2 C        3.1540     1.6020     1.5120 C.2   1 <1>  -0.0450 
  3 C        1.5160     0.6380     3.1980 C.2   1 <1>  -0.1100 
  4 C        3.7350     2.1960     0.3340 C.2   1 <1>   0.7150 
  5 C        3.7170     1.1280     2.6540 C.2   1 <1>  -0.1500 
  6 C        2.7980     0.5910     3.6020 C.2   1 <1>  -0.1500 
  7 O        4.9400     2.1580     0.1470 O.2   1 <1>  -0.5700 
  8 N        2.9980     2.8800    -0.6040 N.am  1 <1>  -0.6600 
  9 C        3.2500     2.6900    -2.0680 C.3   1 <1>   0.1400 
 10 C        2.2580     4.1130    -0.2330 C.3   1 <1>   0.1400 
 11 C        4.5480     3.3710    -2.5580 C.3   1 <1>   0.3430 
 12 C        3.2070     5.3190    -0.1800 C.3   1 <1>  -0.1600 
 13 N        5.0150     4.4420    -1.6270 N.4   1 <1>  -0.9590 
 14 C        4.0370     5.5520    -1.4460 C.3   1 <1>   0.3430 
 15 C        6.3810     4.9140    -1.9340 C.3   1 <1>   0.5230 
 16 C        6.8520     5.7230    -0.7480 C.2   1 <1>  -0.3320 
 17 N        7.3160     5.1900     0.4210 N.pl3 1 <1>   0.0480 
 18 C        6.8870     7.0770    -0.6610 C.2   1 <1>  -0.1500 
 19 C        7.6190     6.2260     1.2320 C.2   1 <1>  -0.3020 
 20 C        7.5150     3.7730     0.7880 C.3   1 <1>   0.0160 
 21 C        7.3680     7.4260     0.6140 C.2   1 <1>  -0.0860 
 22 C        7.5270     8.7750     1.0880 C.2   1 <1>   0.5950 
 23 O        7.1760     9.7380     0.4550 O.2   1 <1>  -0.5700 
 24 C        8.1510     9.0070     2.4450 C.3   1 <1>  -0.1790 
 25 H        0.6020     0.3200     3.6690 H     1 <1>   0.1500 
 26 H        4.7730     1.1360     2.8600 H     1 <1>   0.1500 
 27 H        3.1380     0.1930     4.5430 H     1 <1>   0.1500 
 28 H        2.4140     3.0730    -2.6270 H     1 <1>   0.0800 
 29 H        3.3110     1.6360    -2.2810 H     1 <1>   0.0800 
 30 H        1.7970     3.9880     0.7330 H     1 <1>   0.0800 
 31 H        1.4680     4.2880    -0.9450 H     1 <1>   0.0800 
 32 H        4.3980     3.7680    -3.5480 H     1 <1>   0.0800 
 33 H        5.3100     2.6110    -2.6230 H     1 <1>   0.0800 
 34 H        3.8640     5.2300     0.6680 H     1 <1>   0.0800 
 35 H        2.6100     6.1970    -0.0110 H     1 <1>   0.0800 
 36 H        5.0850     3.9670    -0.7090 H     1 <1>   0.4500 
 37 H        4.5610     6.4870    -1.3360 H     1 <1>   0.0800 
 38 H        3.3940     5.6320    -2.3070 H     1 <1>   0.0800 
 39 H        6.3710     5.5290    -2.8190 H     1 <1>   0.0800 
 40 H        7.0460     4.0810    -2.0950 H     1 <1>   0.0800 
 41 H        6.6080     7.8130    -1.3990 H     1 <1>   0.1500 
 42 H        8.0080     6.0770     2.2250 H     1 <1>   0.1500 
 43 H        7.4520     3.1450    -0.0800 H     1 <1>   0.0800 
 44 H        6.7640     3.4810     1.4990 H     1 <1>   0.0800 
 45 H        8.4860     3.6560     1.2350 H     1 <1>   0.0800 
 46 H        9.1210     8.5470     2.4820 H     1 <1>   0.0800 
 47 H        7.5240     8.5870     3.2080 H     1 <1>   0.0800 
 48 H        8.2600    10.0620     2.6220 H     1 <1>   0.0800 
@<TRIPOS>BOND
  1   1   2  1   
  2   1   3  1   
  3   2   4  1   
  4   2   5  2   
  5   3   6  2   
  6   3  25  1   
  7   4   7  2   
  8   4   8  am  
  9   5   6  1   
 10   5  26  1   
 11   6  27  1   
 12   8   9  1   
 13   8  10  1   
 14   9  11  1   
 15   9  28  1   
 16   9  29  1   
 17  10  12  1   
 18  10  30  1   
 19  10  31  1   
 20  11  13  1   
 21  11  32  1   
 22  11  33  1   
 23  12  14  1   
 24  12  34  1   
 25  12  35  1   
 26  13  14  1   
 27  13  15  1   
 28  13  36  1   
 29  14  37  1   
 30  14  38  1   
 31  15  16  1   
 32  15  39  1   
 33  15  40  1   
 34  16  17  1   
 35  16  18  2   
 36  17  19  1   
 37  17  20  1   
 38  18  21  1   
 39  18  41  1   
 40  19  21  2   
 41  19  42  1   
 42  20  43  1   
 43  20  44  1   
 44  20  45  1   
 45  21  22  1   
 46  22  23  2   
 47  22  24  1   
 48  24  46  1   
 49  24  47  1   
 50  24  48  1   
@<TRIPOS>SUBSTRUCTURE
  1 ****  13 GROUP 4 **** **** 0

# MOE 2024.06 (io_trps.svl 2023.06)
