@<TRIPOS>MOLECULE
NONAME
54 56 1 0 0 
SMALL
USER_CHARGES


@<TRIPOS>ATOM
  1 O       -1.1240     0.9020    -1.3210 O.2   1 <1>  -0.5700 
  2 C       -0.7200     1.8730    -0.7320 C.2   1 <1>   0.5690 
  3 N       -1.5810     2.7980    -0.2560 N.am  1 <1>  -0.7300 
  4 C        0.7850     2.0880    -0.5500 C.3   1 <1>   0.1810 
  5 C       -1.1580     4.0190     0.4720 C.3   1 <1>   0.3640 
  6 O        1.0950     3.0330     0.4520 O.3   1 <1>  -0.5600 
  7 C       -1.9250     5.2130    -0.0940 C.ar  1 <1>  -0.1440 
  8 C        0.3730     4.2550     0.3670 C.3   1 <1>   0.2610 
  9 C       -2.0800     5.3910    -1.4640 C.ar  1 <1>  -0.1500 
 10 C       -2.4730     6.1510     0.7700 C.ar  1 <1>  -0.1500 
 11 C        0.8720     5.2590     1.4230 C.2   1 <1>   0.5690 
 12 C       -2.7710     6.4840    -1.9580 C.ar  1 <1>  -0.1500 
 13 C       -3.1630     7.2440     0.2770 C.ar  1 <1>  -0.1500 
 14 O        0.1910     5.4510     2.4080 O.2   1 <1>  -0.5700 
 15 N        2.0590     5.9370     1.2460 N.am  1 <1>  -0.6600 
 16 C       -3.3140     7.4110    -1.0870 C.ar  1 <1>  -0.1500 
 17 C        3.0780     5.6170     0.2100 C.3   1 <1>   0.1400 
 18 C        2.4760     7.0260     2.1700 C.3   1 <1>   0.1400 
 19 C        3.3650     6.8690    -0.6230 C.3   1 <1>  -0.1600 
 20 C        2.7760     8.2970     1.3670 C.3   1 <1>  -0.1600 
 21 C        3.8180     8.0480     0.2580 C.3   1 <1>  -0.0800 
 22 C        4.0560     9.2940    -0.6160 C.3   1 <1>  -0.1600 
 23 C        4.6540    10.4690     0.1610 C.3   1 <1>   0.1400 
 24 N        4.9760    11.5590    -0.7840 N.am  1 <1>  -0.7300 
 25 C        4.3740    12.7590    -0.9430 C.2   1 <1>   0.5690 
 26 O        4.7950    13.5390    -1.7570 O.2   1 <1>  -0.5700 
 27 C        3.1720    13.1390    -0.1150 C.3   1 <1>  -0.1790 
 28 H       -2.5840     2.6580    -0.3840 H     1 <1>   0.3700 
 29 H        1.2110     2.4250    -1.4770 H     1 <1>   0.0800 
 30 H        1.2450     1.1580    -0.2730 H     1 <1>   0.0800 
 31 H       -1.4240     3.8850     1.5070 H     1 <1>   0.0800 
 32 H        0.5730     4.6780    -0.5990 H     1 <1>   0.0800 
 33 H       -1.6680     4.6790    -2.1580 H     1 <1>   0.1500 
 34 H       -2.3600     6.0390     1.8360 H     1 <1>   0.1500 
 35 H       -2.8890     6.6120    -3.0200 H     1 <1>   0.1500 
 36 H       -3.5830     7.9640     0.9580 H     1 <1>   0.1500 
 37 H       -3.8520     8.2610    -1.4700 H     1 <1>   0.1500 
 38 H        3.9800     5.2920     0.7000 H     1 <1>   0.0800 
 39 H        2.7540     4.8190    -0.4330 H     1 <1>   0.0800 
 40 H        1.7020     7.2340     2.8900 H     1 <1>   0.0800 
 41 H        3.3540     6.7120     2.7080 H     1 <1>   0.0800 
 42 H        4.1310     6.6390    -1.3420 H     1 <1>   0.0800 
 43 H        2.4750     7.1350    -1.1660 H     1 <1>   0.0800 
 44 H        1.8560     8.6510     0.9350 H     1 <1>   0.0800 
 45 H        3.1280     9.0470     2.0500 H     1 <1>   0.0800 
 46 H        4.7510     7.7740     0.7240 H     1 <1>   0.0800 
 47 H        3.1260     9.6040    -1.0610 H     1 <1>   0.0800 
 48 H        4.7340     9.0330    -1.4100 H     1 <1>   0.0800 
 49 H        5.5590    10.1610     0.6580 H     1 <1>   0.0800 
 50 H        3.9620    10.8180     0.9060 H     1 <1>   0.0800 
 51 H        5.7700    11.3950    -1.4070 H     1 <1>   0.3700 
 52 H        2.4020    12.4000    -0.2290 H     1 <1>   0.0800 
 53 H        2.7930    14.0890    -0.4450 H     1 <1>   0.0800 
 54 H        3.4530    13.2180     0.9180 H     1 <1>   0.0800 
@<TRIPOS>BOND
  1   1   2  2   
  2   2   3  am  
  3   2   4  1   
  4   3   5  1   
  5   3  28  1   
  6   4   6  1   
  7   4  29  1   
  8   4  30  1   
  9   5   7  1   
 10   5   8  1   
 11   5  31  1   
 12   6   8  1   
 13   7   9  ar  
 14   7  10  ar  
 15   8  11  1   
 16   8  32  1   
 17   9  12  ar  
 18   9  33  1   
 19  10  13  ar  
 20  10  34  1   
 21  11  14  2   
 22  11  15  am  
 23  12  16  ar  
 24  12  35  1   
 25  13  16  ar  
 26  13  36  1   
 27  15  17  1   
 28  15  18  1   
 29  16  37  1   
 30  17  19  1   
 31  17  38  1   
 32  17  39  1   
 33  18  20  1   
 34  18  40  1   
 35  18  41  1   
 36  19  21  1   
 37  19  42  1   
 38  19  43  1   
 39  20  21  1   
 40  20  44  1   
 41  20  45  1   
 42  21  22  1   
 43  21  46  1   
 44  22  23  1   
 45  22  47  1   
 46  22  48  1   
 47  23  24  1   
 48  23  49  1   
 49  23  50  1   
 50  24  25  am  
 51  24  51  1   
 52  25  26  2   
 53  25  27  1   
 54  27  52  1   
 55  27  53  1   
 56  27  54  1   
@<TRIPOS>SUBSTRUCTURE
  1 ****  15 GROUP 4 **** **** 0

# MOE 2024.06 (io_trps.svl 2023.06)
