@<TRIPOS>MOLECULE
NONAME
54 57 1 0 0 
SMALL
USER_CHARGES


@<TRIPOS>ATOM
  1 O       -1.4100    -1.1840     2.1140 O.2   1 <1>  -0.5700 
  2 C       -1.7910    -1.4740     0.9970 C.2   1 <1>   0.7160 
  3 N       -1.2890    -2.6240     0.4230 N.am  1 <1>  -0.6600 
  4 C       -2.8310    -0.7020     0.3400 C.2   1 <1>   0.2030 
  5 C       -1.3550    -3.8930     1.2240 C.3   1 <1>   0.2200 
  6 C       -0.9320    -2.6880    -1.0310 C.3   1 <1>   0.1400 
  7 N       -3.6900    -1.1710    -0.5210 N.2   1 <1>  -0.4100 
  8 C       -3.1080     0.6390     0.5460 C.2   1 <1>  -0.1500 
  9 C       -0.1400    -4.8080     1.0020 C.3   1 <1>   0.1200 
 10 C       -2.6860    -4.6370     0.9400 C.3   1 <1>   0.3430 
 11 C       -1.1890    -4.0520    -1.7030 C.3   1 <1>  -0.0800 
 12 O       -4.5080    -0.2220    -0.9060 O.3   1 <1>  -0.0190 
 13 C       -4.1510     0.8660    -0.2570 C.2   1 <1>  -0.0400 
 14 O       -0.3430    -5.6460    -0.0950 O.3   1 <1>  -0.5600 
 15 N       -3.3550    -4.1900    -0.3380 N.4   1 <1>  -0.9590 
 16 C       -0.1080    -5.0840    -1.3420 C.3   1 <1>   0.1200 
 17 C       -2.6100    -4.6380    -1.5580 C.3   1 <1>   0.3430 
 18 C       -4.9290     2.1450    -0.4950 C.3   1 <1>  -0.0600 
 19 C       -4.7940    -4.6160    -0.4030 C.3   1 <1>   0.4860 
 20 C       -4.9930    -6.1140    -0.1590 C.ar  1 <1>   0.1670 
 21 N       -4.5240    -6.9430    -1.0820 N.ar  1 <1>  -0.6200 
 22 C       -5.6390    -6.5290     0.9960 C.ar  1 <1>  -0.1500 
 23 C       -4.7050    -8.2340    -0.8410 C.ar  1 <1>   0.1600 
 24 C       -5.8150    -7.8750     1.2320 C.ar  1 <1>  -0.1500 
 25 C       -5.3300    -8.7500     0.2840 C.ar  1 <1>  -0.1430 
 26 C       -5.4850   -10.2520     0.4670 C.3   1 <1>  -0.0170 
 27 C       -6.8070   -10.7330    -0.1360 C.3   1 <1>  -0.2400 
 28 H       -1.3410    -3.6360     2.2690 H     1 <1>   0.0800 
 29 H       -1.4690    -1.9300    -1.5740 H     1 <1>   0.0800 
 30 H        0.1140    -2.4450    -1.1270 H     1 <1>   0.0800 
 31 H       -2.5780     1.2990     1.2100 H     1 <1>   0.1500 
 32 H       -0.0250    -5.4520     1.8570 H     1 <1>   0.0800 
 33 H        0.7700    -4.2450     0.8820 H     1 <1>   0.0800 
 34 H       -3.3480    -4.4500     1.7680 H     1 <1>   0.0800 
 35 H       -2.5050    -5.7000     0.9070 H     1 <1>   0.0800 
 36 H       -1.0500    -3.8840    -2.7560 H     1 <1>   0.0800 
 37 H       -3.3360    -3.1560    -0.3500 H     1 <1>   0.4500 
 38 H        0.8800    -4.6550    -1.3560 H     1 <1>   0.0800 
 39 H       -0.1280    -5.8940    -2.0530 H     1 <1>   0.0800 
 40 H       -2.5410    -5.7140    -1.5620 H     1 <1>   0.0800 
 41 H       -3.1800    -4.3520    -2.4270 H     1 <1>   0.0800 
 42 H       -4.5280     2.9440     0.1020 H     1 <1>   0.0800 
 43 H       -5.9620     2.0000    -0.2320 H     1 <1>   0.0800 
 44 H       -4.8700     2.4230    -1.5320 H     1 <1>   0.0800 
 45 H       -5.3580    -4.0700     0.3340 H     1 <1>   0.0800 
 46 H       -5.1990    -4.3710    -1.3700 H     1 <1>   0.0800 
 47 H       -6.0100    -5.8180     1.7130 H     1 <1>   0.1500 
 48 H       -4.3350    -8.9220    -1.5820 H     1 <1>   0.1500 
 49 H       -6.3150    -8.2290     2.1190 H     1 <1>   0.1500 
 50 H       -4.6660   -10.7660    -0.0050 H     1 <1>   0.0800 
 51 H       -5.4590   -10.4960     1.5160 H     1 <1>   0.0800 
 52 H       -6.8390   -10.5150    -1.1890 H     1 <1>   0.0800 
 53 H       -7.6360   -10.2430     0.3420 H     1 <1>   0.0800 
 54 H       -6.9100   -11.7950    -0.0010 H     1 <1>   0.0800 
@<TRIPOS>BOND
  1   1   2  2   
  2   2   3  am  
  3   2   4  1   
  4   3   5  1   
  5   3   6  1   
  6   4   7  2   
  7   4   8  1   
  8   5   9  1   
  9   5  10  1   
 10   5  28  1   
 11   6  11  1   
 12   6  29  1   
 13   6  30  1   
 14   7  12  1   
 15   8  13  2   
 16   8  31  1   
 17   9  14  1   
 18   9  32  1   
 19   9  33  1   
 20  10  15  1   
 21  10  34  1   
 22  10  35  1   
 23  11  16  1   
 24  11  17  1   
 25  11  36  1   
 26  12  13  1   
 27  13  18  1   
 28  14  16  1   
 29  15  17  1   
 30  15  19  1   
 31  15  37  1   
 32  16  38  1   
 33  16  39  1   
 34  17  40  1   
 35  17  41  1   
 36  18  42  1   
 37  18  43  1   
 38  18  44  1   
 39  19  20  1   
 40  19  45  1   
 41  19  46  1   
 42  20  21  ar  
 43  20  22  ar  
 44  21  23  ar  
 45  22  24  ar  
 46  22  47  1   
 47  23  25  ar  
 48  23  48  1   
 49  24  25  ar  
 50  24  49  1   
 51  25  26  1   
 52  26  27  1   
 53  26  50  1   
 54  26  51  1   
 55  27  52  1   
 56  27  53  1   
 57  27  54  1   
@<TRIPOS>SUBSTRUCTURE
  1 ****  15 GROUP 4 **** **** 0

# MOE 2024.06 (io_trps.svl 2023.06)
