@<TRIPOS>MOLECULE
NONAME
39 40 1 0 0 
SMALL
USER_CHARGES


@<TRIPOS>ATOM
  1 S        2.2130     1.6880     0.2780 S.3   1 <1>  -0.3320 
  2 C        0.8690     2.8300     0.4660 C.ar  1 <1>   0.7720 
  3 C        1.5500     0.0630     0.8710 C.3   1 <1>  -0.0100 
  4 N        1.1440     4.0880     0.0900 N.ar  1 <1>  -0.1790 
  5 N       -0.2620     2.4210     0.9400 N.ar  1 <1>  -0.6200 
  6 C        0.2250     5.0560     0.1950 C.ar  1 <1>   0.4610 
  7 C       -1.2130     3.3560     1.0610 C.ar  1 <1>   0.4100 
  8 N        0.5150     6.3290    -0.1790 N.pl3 1 <1>  -0.8690 
  9 C       -1.0020     4.6740     0.7020 C.ar  1 <1>  -0.1500 
 10 N       -2.3710     2.9100     1.5540 N.pl3 1 <1>  -0.9000 
 11 C        1.6940     6.8740    -0.8930 C.3   1 <1>   0.4270 
 12 C        2.9590     6.1200    -0.4800 C.2   1 <1>  -0.2760 
 13 C        1.7790     8.3670    -0.6070 C.3   1 <1>  -0.2400 
 14 C        3.5990     5.2910    -1.3160 C.2   1 <1>  -0.2880 
 15 C        3.4450     6.3570     0.9530 C.3   1 <1>  -0.0220 
 16 C        4.8620     4.5140    -0.9730 C.3   1 <1>  -0.0220 
 17 C        4.4200     5.2640     1.4120 C.3   1 <1>  -0.1600 
 18 C        5.4860     4.9980     0.3420 C.3   1 <1>  -0.1600 
 19 H        2.3330    -0.6680     0.7760 H     1 <1>   0.0800 
 20 H        0.7070    -0.1990     0.2570 H     1 <1>   0.0800 
 21 H        1.2550     0.1760     1.8990 H     1 <1>   0.0800 
 22 H        2.0790     4.3360    -0.2410 H     1 <1>   0.4570 
 23 H       -0.2000     7.0550    -0.0500 H     1 <1>   0.4000 
 24 H       -1.7890     5.3930     0.8180 H     1 <1>   0.1500 
 25 H       -3.2060     3.4810     1.7150 H     1 <1>   0.4000 
 26 H       -2.4790     1.9230     1.8060 H     1 <1>   0.4000 
 27 H        1.5390     6.7440    -1.9530 H     1 <1>   0.0800 
 28 H        1.8250     8.5620     0.4490 H     1 <1>   0.0800 
 29 H        0.9280     8.8750    -1.0240 H     1 <1>   0.0800 
 30 H        2.6640     8.7680    -1.0670 H     1 <1>   0.0800 
 31 H        3.2790     5.1070    -2.3310 H     1 <1>   0.1500 
 32 H        2.6170     6.3900     1.6400 H     1 <1>   0.0800 
 33 H        3.9430     7.3110     0.9980 H     1 <1>   0.0800 
 34 H        5.5850     4.6310    -1.7620 H     1 <1>   0.0800 
 35 H        4.6270     3.4660    -0.8980 H     1 <1>   0.0800 
 36 H        3.8850     4.3530     1.6150 H     1 <1>   0.0800 
 37 H        4.8970     5.5740     2.3260 H     1 <1>   0.0800 
 38 H        6.0260     5.9110     0.1570 H     1 <1>   0.0800 
 39 H        6.1930     4.2680     0.6970 H     1 <1>   0.0800 
@<TRIPOS>BOND
  1   1   2  1   
  2   1   3  1   
  3   2   4  ar  
  4   2   5  ar  
  5   3  19  1   
  6   3  20  1   
  7   3  21  1   
  8   4   6  ar  
  9   4  22  1   
 10   5   7  ar  
 11   6   8  1   
 12   6   9  ar  
 13   7   9  ar  
 14   7  10  1   
 15   8  11  1   
 16   8  23  1   
 17   9  24  1   
 18  10  25  1   
 19  10  26  1   
 20  11  12  1   
 21  11  13  1   
 22  11  27  1   
 23  12  14  2   
 24  12  15  1   
 25  13  28  1   
 26  13  29  1   
 27  13  30  1   
 28  14  16  1   
 29  14  31  1   
 30  15  17  1   
 31  15  32  1   
 32  15  33  1   
 33  16  18  1   
 34  16  34  1   
 35  16  35  1   
 36  17  18  1   
 37  17  36  1   
 38  17  37  1   
 39  18  38  1   
 40  18  39  1   
@<TRIPOS>SUBSTRUCTURE
  1 ****   4 GROUP 4 **** **** 0

# MOE 2024.06 (io_trps.svl 2023.06)
