@<TRIPOS>MOLECULE
NONAME
42 44 1 0 0 
SMALL
USER_CHARGES


@<TRIPOS>ATOM
  1 S       -0.2490     0.6260    -1.0850 S.o2  1 <1>   1.3330 
  2 O        0.5370     0.3590    -2.2680 O.2   1 <1>  -0.6500 
  3 O       -1.1910     1.7220    -1.0720 O.2   1 <1>  -0.6500 
  4 N       -1.0650    -0.7890    -0.6390 N.am  1 <1>  -0.8490 
  5 C        0.8900     0.8370     0.2660 C.3   1 <1>  -0.1350 
  6 C       -1.5240    -1.5490    -1.8090 C.3   1 <1>   0.1960 
  7 C       -2.1910    -0.5210     0.2640 C.3   1 <1>   0.1960 
  8 C       -2.0880    -2.9030    -1.3740 C.3   1 <1>  -0.1600 
  9 C       -2.7650    -1.8360     0.7930 C.3   1 <1>  -0.1600 
 10 C       -3.2290    -2.7450    -0.3590 C.3   1 <1>   0.4240 
 11 O       -4.2130    -2.0280    -1.0720 O.3   1 <1>  -0.5600 
 12 C       -3.7650    -4.1210     0.1330 C.ar  1 <1>  -0.1430 
 13 C       -5.5220    -2.0820    -0.6100 C.3   1 <1>   0.1200 
 14 C       -2.9550    -5.0410     0.8130 C.ar  1 <1>   0.0830 
 15 C       -5.0970    -4.4670    -0.0990 C.ar  1 <1>  -0.1430 
 16 C       -6.0290    -3.5020    -0.8020 C.3   1 <1>  -0.0170 
 17 O       -1.6610    -4.7150     1.0720 O.3   1 <1>  -0.3630 
 18 C       -3.4760    -6.2680     1.2200 C.ar  1 <1>  -0.1500 
 19 C       -5.6020    -5.6900     0.3080 C.ar  1 <1>  -0.1500 
 20 C       -0.7470    -5.6160     1.6570 C.3   1 <1>   0.0400 
 21 C       -4.7930    -6.5920     0.9660 C.ar  1 <1>  -0.1500 
 22 H        1.5000     1.7020     0.0980 H     1 <1>   0.0800 
 23 H        1.5240    -0.0230     0.3460 H     1 <1>   0.0800 
 24 H        0.3570     0.9630     1.1870 H     1 <1>   0.0800 
 25 H       -0.6980    -1.7280    -2.4770 H     1 <1>   0.0800 
 26 H       -2.2690    -0.9830    -2.3450 H     1 <1>   0.0800 
 27 H       -2.9560     0.0340    -0.2560 H     1 <1>   0.0800 
 28 H       -1.8570     0.0730     1.0960 H     1 <1>   0.0800 
 29 H       -1.2800    -3.4730    -0.9620 H     1 <1>   0.0800 
 30 H       -2.4540    -3.4390    -2.2300 H     1 <1>   0.0800 
 31 H       -3.5810    -1.6430     1.4610 H     1 <1>   0.0800 
 32 H       -1.9990    -2.3190     1.3650 H     1 <1>   0.0800 
 33 H       -6.1060    -1.3890    -1.1900 H     1 <1>   0.0800 
 34 H       -5.5510    -1.7920     0.4250 H     1 <1>   0.0800 
 35 H       -6.0670    -3.7310    -1.8520 H     1 <1>   0.0800 
 36 H       -7.0220    -3.5790    -0.4000 H     1 <1>   0.0800 
 37 H       -2.8760    -6.9900     1.7400 H     1 <1>   0.1500 
 38 H       -6.6290    -5.9460     0.1150 H     1 <1>   0.1500 
 39 H        0.2120    -5.1320     1.7070 H     1 <1>   0.0800 
 40 H       -0.6800    -6.4950     1.0410 H     1 <1>   0.0800 
 41 H       -1.0840    -5.8610     2.6480 H     1 <1>   0.0800 
 42 H       -5.1880    -7.5420     1.2810 H     1 <1>   0.1500 
@<TRIPOS>BOND
  1   1   2  2   
  2   1   3  2   
  3   1   4  am  
  4   1   5  1   
  5   4   6  1   
  6   4   7  1   
  7   5  22  1   
  8   5  23  1   
  9   5  24  1   
 10   6   8  1   
 11   6  25  1   
 12   6  26  1   
 13   7   9  1   
 14   7  27  1   
 15   7  28  1   
 16   8  10  1   
 17   8  29  1   
 18   8  30  1   
 19   9  10  1   
 20   9  31  1   
 21   9  32  1   
 22  10  11  1   
 23  10  12  1   
 24  11  13  1   
 25  12  14  ar  
 26  12  15  ar  
 27  13  16  1   
 28  13  33  1   
 29  13  34  1   
 30  14  17  1   
 31  14  18  ar  
 32  15  16  1   
 33  15  19  ar  
 34  16  35  1   
 35  16  36  1   
 36  17  20  1   
 37  18  21  ar  
 38  18  37  1   
 39  19  21  ar  
 40  19  38  1   
 41  20  39  1   
 42  20  40  1   
 43  20  41  1   
 44  21  42  1   
@<TRIPOS>SUBSTRUCTURE
  1 ****  10 GROUP 4 **** **** 0

# MOE 2024.06 (io_trps.svl 2023.06)
