@<TRIPOS>MOLECULE
NONAME
52 54 1 0 0 
SMALL
USER_CHARGES


@<TRIPOS>ATOM
  1 O        0.6490    -1.0610    -0.1350 O.3   1 <1>  -0.3630 
  2 C        0.2270    -2.3360    -0.3240 C.ar  1 <1>   0.0830 
  3 C        1.1320    -0.5880     1.1080 C.3   1 <1>   0.2000 
  4 C       -0.1570    -2.6730    -1.6110 C.ar  1 <1>  -0.1500 
  5 C        0.1620    -3.2970     0.6800 C.ar  1 <1>  -0.1500 
  6 C        1.2430     0.9290     1.0130 C.3   1 <1>  -0.1600 
  7 C        2.5810    -1.0370     1.2960 C.3   1 <1>  -0.1600 
  8 C       -0.6060    -3.9480    -1.9020 C.ar  1 <1>  -0.1500 
  9 C       -0.2870    -4.5740     0.3910 C.ar  1 <1>  -0.1500 
 10 C        2.5680     1.2030     0.2950 C.3   1 <1>  -0.1600 
 11 C        3.4210    -0.0610     0.4680 C.3   1 <1>  -0.1600 
 12 C       -0.6790    -4.9050    -0.8990 C.ar  1 <1>  -0.1430 
 13 C       -1.1900    -6.2980    -1.2010 C.3   1 <1>   0.4860 
 14 N       -2.5430    -6.4290    -0.6090 N.4   1 <1>  -0.9590 
 15 C       -2.9490    -7.8520    -0.4820 C.3   1 <1>   0.5240 
 16 C       -3.5640    -5.5410    -1.2430 C.3   1 <1>   0.3430 
 17 C       -2.1700    -8.4230     0.6950 C.2   1 <1>   0.0460 
 18 C       -4.7630    -5.2840    -0.3190 C.3   1 <1>   0.1200 
 19 N       -1.9560    -7.6490     1.7830 N.2   1 <1>  -0.5650 
 20 C       -1.6040    -9.6420     0.8500 C.2   1 <1>  -0.3320 
 21 O       -5.7630    -4.7050    -1.0790 O.3   1 <1>  -0.6800 
 22 C       -1.2810    -8.4140     2.5780 C.2   1 <1>   0.0360 
 23 N       -1.0320    -9.6400     2.0710 N.pl3 1 <1>   0.0330 
 24 C       -1.5540   -10.8560    -0.0660 C.3   1 <1>  -0.0600 
 25 H        0.4650    -0.8940     1.8940 H     1 <1>   0.0800 
 26 H       -0.0980    -1.9240    -2.3810 H     1 <1>   0.1500 
 27 H        0.4600    -3.0700     1.6860 H     1 <1>   0.1500 
 28 H        1.2940     1.3340     2.0090 H     1 <1>   0.0800 
 29 H        0.3990     1.3630     0.5040 H     1 <1>   0.0800 
 30 H        2.7400    -2.0600     1.0050 H     1 <1>   0.0800 
 31 H        2.8410    -0.9280     2.3340 H     1 <1>   0.0800 
 32 H       -0.8940    -4.1780    -2.9140 H     1 <1>   0.1500 
 33 H       -0.3250    -5.3040     1.1830 H     1 <1>   0.1500 
 34 H        3.0570     2.0700     0.7040 H     1 <1>   0.0800 
 35 H        2.3840     1.3680    -0.7530 H     1 <1>   0.0800 
 36 H        3.6210    -0.4900    -0.4990 H     1 <1>   0.0800 
 37 H        4.3570     0.1550     0.9540 H     1 <1>   0.0800 
 38 H       -0.5210    -7.0180    -0.7580 H     1 <1>   0.0800 
 39 H       -1.2240    -6.4630    -2.2650 H     1 <1>   0.0800 
 40 H       -2.4100    -6.1480     0.3800 H     1 <1>   0.4500 
 41 H       -2.7410    -8.4020    -1.3840 H     1 <1>   0.0800 
 42 H       -4.0000    -7.9210    -0.2600 H     1 <1>   0.0800 
 43 H       -3.9140    -5.9870    -2.1590 H     1 <1>   0.0800 
 44 H       -3.1210    -4.5870    -1.4780 H     1 <1>   0.0800 
 45 H       -4.4960    -4.6000     0.4690 H     1 <1>   0.0800 
 46 H       -5.1550    -6.1960     0.0950 H     1 <1>   0.0800 
 47 H       -6.5320    -4.4460    -0.5270 H     1 <1>   0.4000 
 48 H       -0.9380    -8.1260     3.5590 H     1 <1>   0.1500 
 49 H       -0.5230   -10.4030     2.5300 H     1 <1>   0.2700 
 50 H       -2.0780   -10.6690    -0.9850 H     1 <1>   0.0800 
 51 H       -2.0100   -11.7030     0.4170 H     1 <1>   0.0800 
 52 H       -0.5330   -11.1040    -0.2990 H     1 <1>   0.0800 
@<TRIPOS>BOND
  1   1   2  1   
  2   1   3  1   
  3   2   4  ar  
  4   2   5  ar  
  5   3   6  1   
  6   3   7  1   
  7   3  25  1   
  8   4   8  ar  
  9   4  26  1   
 10   5   9  ar  
 11   5  27  1   
 12   6  10  1   
 13   6  28  1   
 14   6  29  1   
 15   7  11  1   
 16   7  30  1   
 17   7  31  1   
 18   8  12  ar  
 19   8  32  1   
 20   9  12  ar  
 21   9  33  1   
 22  10  11  1   
 23  10  34  1   
 24  10  35  1   
 25  11  36  1   
 26  11  37  1   
 27  12  13  1   
 28  13  14  1   
 29  13  38  1   
 30  13  39  1   
 31  14  15  1   
 32  14  16  1   
 33  14  40  1   
 34  15  17  1   
 35  15  41  1   
 36  15  42  1   
 37  16  18  1   
 38  16  43  1   
 39  16  44  1   
 40  17  19  1   
 41  17  20  2   
 42  18  21  1   
 43  18  45  1   
 44  18  46  1   
 45  19  22  2   
 46  20  23  1   
 47  20  24  1   
 48  21  47  1   
 49  22  23  1   
 50  22  48  1   
 51  23  49  1   
 52  24  50  1   
 53  24  51  1   
 54  24  52  1   
@<TRIPOS>SUBSTRUCTURE
  1 ****   9 GROUP 4 **** **** 0

# MOE 2024.06 (io_trps.svl 2023.06)
