@<TRIPOS>MOLECULE
NONAME
53 56 1 0 0 
SMALL
USER_CHARGES


@<TRIPOS>ATOM
  1 F        0.6700    -4.6230    -1.7680 F     1 <1>  -0.1900 
  2 C        0.8460    -4.8840    -0.5000 C.ar  1 <1>   0.1900 
  3 C        0.4610    -3.9570     0.4620 C.ar  1 <1>  -0.0320 
  4 C        1.3980    -6.1100    -0.1790 C.ar  1 <1>  -0.1500 
  5 C        0.6400    -4.3100     1.7930 C.ar  1 <1>  -0.1500 
  6 C       -0.1580    -2.5950     0.1430 C.3   1 <1>   0.0320 
  7 C        1.5650    -6.4380     1.1550 C.ar  1 <1>  -0.1500 
  8 C        1.1840    -5.5380     2.1370 C.ar  1 <1>  -0.1500 
  9 C       -1.6430    -2.5560     0.5250 C.2   1 <1>   0.6300 
 10 C        0.3950    -1.6980    -0.9350 C.3   1 <1>  -0.2000 
 11 C        0.6830    -1.3990     0.4970 C.3   1 <1>  -0.2000 
 12 O       -1.9250    -2.2810     1.6670 O.2   1 <1>  -0.5700 
 13 N       -2.6250    -2.9380    -0.3580 N.am  1 <1>  -0.6600 
 14 C       -4.0050    -3.2330     0.1420 C.3   1 <1>   0.1400 
 15 C       -2.3650    -3.6170    -1.6610 C.3   1 <1>   0.1400 
 16 C       -4.1940    -4.7600     0.3510 C.3   1 <1>   0.4230 
 17 C       -2.5490    -5.1480    -1.5180 C.3   1 <1>   0.3430 
 18 N       -2.9910    -5.5590    -0.1260 N.4   1 <1>  -0.9590 
 19 C       -5.4880    -5.2660    -0.3260 C.3   1 <1>   0.1200 
 20 C       -3.2470    -7.0240     0.0560 C.3   1 <1>   0.4230 
 21 O       -5.6350    -6.6460    -0.1460 O.3   1 <1>  -0.5600 
 22 C       -4.5770    -7.4380    -0.6170 C.3   1 <1>   0.1200 
 23 C       -2.0390    -7.8430    -0.4260 C.3   1 <1>  -0.1600 
 24 C       -2.0870    -9.3020     0.0530 C.3   1 <1>  -0.1600 
 25 C       -0.8170   -10.0500    -0.3610 C.3   1 <1>  -0.2400 
 26 H        1.6960    -6.7930    -0.9550 H     1 <1>   0.1500 
 27 H        0.3570    -3.6190     2.5720 H     1 <1>   0.1500 
 28 H        1.9970    -7.3860     1.4310 H     1 <1>   0.1500 
 29 H        1.3200    -5.7890     3.1760 H     1 <1>   0.1500 
 30 H        1.2130    -2.0350    -1.5480 H     1 <1>   0.1000 
 31 H       -0.2700    -1.0370    -1.4630 H     1 <1>   0.1000 
 32 H        0.2040    -0.5520     0.9600 H     1 <1>   0.1000 
 33 H        1.6830    -1.5540     0.8640 H     1 <1>   0.1000 
 34 H       -4.1960    -2.7210     1.0710 H     1 <1>   0.0800 
 35 H       -4.7210    -2.8570    -0.5680 H     1 <1>   0.0800 
 36 H       -3.0600    -3.2440    -2.3940 H     1 <1>   0.0800 
 37 H       -1.3840    -3.3900    -2.0310 H     1 <1>   0.0800 
 38 H       -4.3130    -4.9200     1.4100 H     1 <1>   0.0800 
 39 H       -1.6140    -5.6270    -1.7580 H     1 <1>   0.0800 
 40 H       -3.2730    -5.4790    -2.2440 H     1 <1>   0.0800 
 41 H       -2.2240    -5.2870     0.5050 H     1 <1>   0.4500 
 42 H       -5.4880    -5.0560    -1.3810 H     1 <1>   0.0800 
 43 H       -6.3470    -4.7910     0.1170 H     1 <1>   0.0800 
 44 H       -3.3590    -7.2150     1.1110 H     1 <1>   0.0800 
 45 H       -4.8150    -8.4590    -0.3760 H     1 <1>   0.0800 
 46 H       -4.5240    -7.3450    -1.6870 H     1 <1>   0.0800 
 47 H       -1.9840    -7.8360    -1.5000 H     1 <1>   0.0800 
 48 H       -1.1420    -7.3980    -0.0320 H     1 <1>   0.0800 
 49 H       -2.1750    -9.3360     1.1260 H     1 <1>   0.0800 
 50 H       -2.9370    -9.8120    -0.3690 H     1 <1>   0.0800 
 51 H        0.0550    -9.5920     0.0740 H     1 <1>   0.0800 
 52 H       -0.7080   -10.0570    -1.4310 H     1 <1>   0.0800 
 53 H       -0.8650   -11.0700    -0.0210 H     1 <1>   0.0800 
@<TRIPOS>BOND
  1   1   2  1   
  2   2   3  ar  
  3   2   4  ar  
  4   3   5  ar  
  5   3   6  1   
  6   4   7  ar  
  7   4  26  1   
  8   5   8  ar  
  9   5  27  1   
 10   6   9  1   
 11   6  10  1   
 12   6  11  1   
 13   7   8  ar  
 14   7  28  1   
 15   8  29  1   
 16   9  12  2   
 17   9  13  am  
 18  10  11  1   
 19  10  30  1   
 20  10  31  1   
 21  11  32  1   
 22  11  33  1   
 23  13  14  1   
 24  13  15  1   
 25  14  16  1   
 26  14  34  1   
 27  14  35  1   
 28  15  17  1   
 29  15  36  1   
 30  15  37  1   
 31  16  18  1   
 32  16  19  1   
 33  16  38  1   
 34  17  18  1   
 35  17  39  1   
 36  17  40  1   
 37  18  20  1   
 38  18  41  1   
 39  19  21  1   
 40  19  42  1   
 41  19  43  1   
 42  20  22  1   
 43  20  23  1   
 44  20  44  1   
 45  21  22  1   
 46  22  45  1   
 47  22  46  1   
 48  23  24  1   
 49  23  47  1   
 50  23  48  1   
 51  24  25  1   
 52  24  49  1   
 53  24  50  1   
 54  25  51  1   
 55  25  52  1   
 56  25  53  1   
@<TRIPOS>SUBSTRUCTURE
  1 ****  18 GROUP 4 **** **** 0

# MOE 2024.06 (io_trps.svl 2023.06)
