@<TRIPOS>MOLECULE
NONAME
50 53 1 0 0 
SMALL
USER_CHARGES


@<TRIPOS>ATOM
  1 F       -1.9150    -1.7350     0.1840 F     1 <1>  -0.1900 
  2 C       -0.6830    -1.7110    -0.2540 C.ar  1 <1>   0.1900 
  3 C        0.2280    -2.6410     0.2420 C.ar  1 <1>   0.0000 
  4 C       -0.3510    -0.7580    -1.1980 C.ar  1 <1>  -0.1500 
  5 C       -0.1540    -3.6330     1.2170 C.ar  1 <1>   0.0000 
  6 C        1.5260    -2.5760    -0.2560 C.ar  1 <1>  -0.1500 
  7 C        0.9480    -0.7180    -1.6750 C.ar  1 <1>  -0.1500 
  8 C       -0.6340    -4.8700     0.8100 C.ar  1 <1>  -0.1500 
  9 C       -0.0810    -3.3690     2.5790 C.ar  1 <1>  -0.1500 
 10 C        1.8820    -1.6280    -1.2020 C.ar  1 <1>  -0.1500 
 11 C       -1.1010    -5.8230     1.7130 C.ar  1 <1>   0.0860 
 12 C       -0.4950    -4.3100     3.5020 C.ar  1 <1>  -0.1500 
 13 C       -1.6820    -7.0820     1.2770 C.2   1 <1>   0.5440 
 14 C       -1.0010    -5.5220     3.0700 C.ar  1 <1>  -0.1500 
 15 O       -1.2630    -8.1130     1.7700 O.2   1 <1>  -0.5700 
 16 N       -2.7100    -7.1570     0.3510 N.am  1 <1>  -0.6600 
 17 C       -3.4440    -5.9510    -0.1470 C.3   1 <1>   0.2200 
 18 C       -3.2240    -8.5010    -0.0580 C.3   1 <1>   0.0600 
 19 C       -4.9510    -5.9820     0.0860 C.3   1 <1>  -0.1600 
 20 C       -3.2950    -5.7370    -1.6520 C.3   1 <1>  -0.1600 
 21 C       -5.4900    -4.9250    -0.8850 C.3   1 <1>  -0.0800 
 22 C       -4.4760    -4.8340    -2.0390 C.3   1 <1>  -0.0800 
 23 C       -5.5640    -3.5170    -0.2750 C.3   1 <1>  -0.1600 
 24 C       -4.0910    -3.3520    -2.1770 C.3   1 <1>  -0.1600 
 25 C       -5.1640    -2.5920    -1.4130 C.3   1 <1>   0.2000 
 26 O       -4.6490    -1.4160    -0.9160 O.3   1 <1>  -0.6800 
 27 H       -1.0940    -0.0640    -1.5490 H     1 <1>   0.1500 
 28 H        2.2610    -3.2770     0.1030 H     1 <1>   0.1500 
 29 H        1.2310     0.0150    -2.4100 H     1 <1>   0.1500 
 30 H       -0.6600    -5.0960    -0.2400 H     1 <1>   0.1500 
 31 H        0.2980    -2.4190     2.9130 H     1 <1>   0.1500 
 32 H        2.8930    -1.5960    -1.5730 H     1 <1>   0.1500 
 33 H       -0.4280    -4.1000     4.5560 H     1 <1>   0.1500 
 34 H       -1.3300    -6.2550     3.7870 H     1 <1>   0.1500 
 35 H       -3.0860    -5.0660     0.3480 H     1 <1>   0.0800 
 36 H       -3.7190    -8.4590    -1.0100 H     1 <1>   0.0800 
 37 H       -3.9160    -8.8580     0.6840 H     1 <1>   0.0800 
 38 H       -2.4090    -9.2000    -0.1310 H     1 <1>   0.0800 
 39 H       -5.3600    -6.9360    -0.1880 H     1 <1>   0.0800 
 40 H       -5.2010    -5.7650     1.1090 H     1 <1>   0.0800 
 41 H       -2.3440    -5.3040    -1.9030 H     1 <1>   0.0800 
 42 H       -3.3950    -6.6690    -2.1760 H     1 <1>   0.0800 
 43 H       -6.4600    -5.2060    -1.2600 H     1 <1>   0.0800 
 44 H       -4.9270    -5.1800    -2.9550 H     1 <1>   0.0800 
 45 H       -4.8600    -3.4220     0.5330 H     1 <1>   0.0800 
 46 H       -6.5540    -3.2940     0.0810 H     1 <1>   0.0800 
 47 H       -4.0670    -3.0500    -3.2090 H     1 <1>   0.0800 
 48 H       -3.1300    -3.1730    -1.7300 H     1 <1>   0.0800 
 49 H       -6.0080    -2.3680    -2.0450 H     1 <1>   0.0800 
 50 H       -3.8460    -1.5990    -0.3870 H     1 <1>   0.4000 
@<TRIPOS>BOND
  1   1   2  1   
  2   2   3  ar  
  3   2   4  ar  
  4   3   5  1   
  5   3   6  ar  
  6   4   7  ar  
  7   4  27  1   
  8   5   8  ar  
  9   5   9  ar  
 10   6  10  ar  
 11   6  28  1   
 12   7  10  ar  
 13   7  29  1   
 14   8  11  ar  
 15   8  30  1   
 16   9  12  ar  
 17   9  31  1   
 18  10  32  1   
 19  11  13  1   
 20  11  14  ar  
 21  12  14  ar  
 22  12  33  1   
 23  13  15  2   
 24  13  16  am  
 25  14  34  1   
 26  16  17  1   
 27  16  18  1   
 28  17  19  1   
 29  17  20  1   
 30  17  35  1   
 31  18  36  1   
 32  18  37  1   
 33  18  38  1   
 34  19  21  1   
 35  19  39  1   
 36  19  40  1   
 37  20  22  1   
 38  20  41  1   
 39  20  42  1   
 40  21  22  1   
 41  21  23  1   
 42  21  43  1   
 43  22  24  1   
 44  22  44  1   
 45  23  25  1   
 46  23  45  1   
 47  23  46  1   
 48  24  25  1   
 49  24  47  1   
 50  24  48  1   
 51  25  26  1   
 52  25  49  1   
 53  26  50  1   
@<TRIPOS>SUBSTRUCTURE
  1 ****   8 GROUP 4 **** **** 0

# MOE 2024.06 (io_trps.svl 2023.06)
