@<TRIPOS>MOLECULE
NONAME
41 42 1 0 0 
SMALL
USER_CHARGES


@<TRIPOS>ATOM
  1 O       -0.0240     1.0730    -0.6310 O.2   1 <1>  -0.5700 
  2 C       -0.1020     2.2700    -0.5200 C.2   1 <1>   0.5690 
  3 N       -1.0290     2.8320     0.2830 N.am  1 <1>  -0.7300 
  4 C        0.8270     3.1820    -1.3190 C.3   1 <1>   0.1810 
  5 C       -1.2660     4.2960     0.3780 C.3   1 <1>   0.3640 
  6 O        0.9470     4.4580    -0.7350 O.3   1 <1>  -0.5600 
  7 C       -2.7220     4.5580    -0.0060 C.ar  1 <1>  -0.1440 
  8 C       -0.2900     5.1310    -0.5000 C.3   1 <1>   0.2610 
  9 C       -3.2950     3.9590    -1.1220 C.ar  1 <1>  -0.1500 
 10 C       -3.4970     5.4120     0.7660 C.ar  1 <1>  -0.1500 
 11 C       -0.0290     6.4910     0.1620 C.2   1 <1>   0.5690 
 12 C       -4.6150     4.2070    -1.4550 C.ar  1 <1>  -0.1500 
 13 C       -4.8170     5.6610     0.4340 C.ar  1 <1>  -0.1500 
 14 O       -0.9580     7.1930     0.4840 O.2   1 <1>  -0.5700 
 15 N        1.2560     6.8780     0.3810 N.am  1 <1>  -0.7300 
 16 C       -5.3780     5.0580    -0.6770 C.ar  1 <1>  -0.1500 
 17 C        1.6960     8.1650     0.9510 C.3   1 <1>   0.1400 
 18 C        2.7110     8.8030     0.0060 C.3   1 <1>  -0.1600 
 19 C        3.1570    10.1640     0.5310 C.3   1 <1>   0.1200 
 20 O        4.1040    10.6630    -0.3510 O.3   1 <1>  -0.5600 
 21 C        4.5900    11.9200    -0.0100 C.3   1 <1>   0.0400 
 22 H       -1.6940     2.2250     0.7640 H     1 <1>   0.3700 
 23 H        0.4530     3.2950    -2.3200 H     1 <1>   0.0800 
 24 H        1.8080     2.7440    -1.3590 H     1 <1>   0.0800 
 25 H       -1.1220     4.5810     1.4060 H     1 <1>   0.0800 
 26 H       -0.7420     5.3140    -1.4580 H     1 <1>   0.0800 
 27 H       -2.7210     3.2920    -1.7410 H     1 <1>   0.1500 
 28 H       -3.0760     5.8990     1.6300 H     1 <1>   0.1500 
 29 H       -5.0500     3.7370    -2.3200 H     1 <1>   0.1500 
 30 H       -5.4060     6.3280     1.0400 H     1 <1>   0.1500 
 31 H        1.9910     6.2280     0.0820 H     1 <1>   0.3700 
 32 H       -6.4050     5.2520    -0.9350 H     1 <1>   0.1500 
 33 H        0.8470     8.8180     1.0760 H     1 <1>   0.0800 
 34 H        2.1410     7.9920     1.9160 H     1 <1>   0.0800 
 35 H        2.2610     8.9360    -0.9620 H     1 <1>   0.0800 
 36 H        3.5710     8.1640    -0.0830 H     1 <1>   0.0800 
 37 H        3.6080    10.0710     1.5050 H     1 <1>   0.0800 
 38 H        2.3250    10.8480     0.5710 H     1 <1>   0.0800 
 39 H        5.3130    12.2110    -0.7510 H     1 <1>   0.0800 
 40 H        5.0610    11.8690     0.9560 H     1 <1>   0.0800 
 41 H        3.7760    12.6250    -0.0020 H     1 <1>   0.0800 
@<TRIPOS>BOND
  1   1   2  2   
  2   2   3  am  
  3   2   4  1   
  4   3   5  1   
  5   3  22  1   
  6   4   6  1   
  7   4  23  1   
  8   4  24  1   
  9   5   7  1   
 10   5   8  1   
 11   5  25  1   
 12   6   8  1   
 13   7   9  ar  
 14   7  10  ar  
 15   8  11  1   
 16   8  26  1   
 17   9  12  ar  
 18   9  27  1   
 19  10  13  ar  
 20  10  28  1   
 21  11  14  2   
 22  11  15  am  
 23  12  16  ar  
 24  12  29  1   
 25  13  16  ar  
 26  13  30  1   
 27  15  17  1   
 28  15  31  1   
 29  16  32  1   
 30  17  18  1   
 31  17  33  1   
 32  17  34  1   
 33  18  19  1   
 34  18  35  1   
 35  18  36  1   
 36  19  20  1   
 37  19  37  1   
 38  19  38  1   
 39  20  21  1   
 40  21  39  1   
 41  21  40  1   
 42  21  41  1   
@<TRIPOS>SUBSTRUCTURE
  1 ****   8 GROUP 4 **** **** 0

# MOE 2024.06 (io_trps.svl 2023.06)
