@<TRIPOS>MOLECULE
NONAME
45 47 1 0 0 
SMALL
USER_CHARGES


@<TRIPOS>ATOM
  1 S        0.9690     3.1910     0.6980 S.o2  1 <1>   1.3330 
  2 O        1.8890     4.2410     1.0740 O.2   1 <1>  -0.6500 
  3 O        0.7950     2.1010     1.6280 O.2   1 <1>  -0.6500 
  4 N        1.6090     2.4950    -0.7110 N.am  1 <1>  -0.8490 
  5 C       -0.6170     3.8350     0.2100 C.3   1 <1>  -0.1350 
  6 C        2.4070     1.2710    -0.4960 C.3   1 <1>   0.1960 
  7 C        2.0810     3.3650    -1.8000 C.3   1 <1>   0.1960 
  8 C        3.5940     1.4610     0.4810 C.3   1 <1>   0.3430 
  9 C        3.4290     4.0710    -1.5610 C.3   1 <1>  -0.1600 
 10 N        4.2170     2.8230     0.3920 N.4   1 <1>  -0.9590 
 11 C        4.5590     3.2060    -1.0010 C.3   1 <1>   0.3430 
 12 C        5.3380     3.0130     1.3660 C.3   1 <1>   0.3430 
 13 C        5.2580     4.3780     2.0800 C.3   1 <1>   0.1400 
 14 N        5.3020     5.5210     1.1340 N.am  1 <1>  -0.4770 
 15 C        6.3090     5.7750     0.2460 C.2   1 <1>   0.7800 
 16 C        4.5130     6.6540     1.1470 C.ar  1 <1>   0.1170 
 17 O        7.1760     4.9840    -0.0720 O.2   1 <1>  -0.5700 
 18 O        6.1790     6.9830    -0.2970 O.3   1 <1>  -0.2330 
 19 C        5.0780     7.5360     0.2500 C.ar  1 <1>   0.0820 
 20 C        3.3620     7.0050     1.8360 C.ar  1 <1>  -0.1500 
 21 C        4.5360     8.7830     0.0040 C.ar  1 <1>  -0.1500 
 22 C        2.8040     8.2530     1.6010 C.ar  1 <1>  -0.1500 
 23 C        3.3850     9.1350     0.6930 C.ar  1 <1>  -0.1500 
 24 H       -1.1160     4.2640     1.0570 H     1 <1>   0.0800 
 25 H       -1.2300     3.0480    -0.1840 H     1 <1>   0.0800 
 26 H       -0.5030     4.5930    -0.5390 H     1 <1>   0.0800 
 27 H        2.7770     0.9110    -1.4410 H     1 <1>   0.0800 
 28 H        1.7670     0.4980    -0.1040 H     1 <1>   0.0800 
 29 H        1.3320     4.1120    -2.0050 H     1 <1>   0.0800 
 30 H        2.1650     2.7650    -2.6920 H     1 <1>   0.0800 
 31 H        4.3320     0.7000     0.2900 H     1 <1>   0.0800 
 32 H        3.2230     1.3100     1.4820 H     1 <1>   0.0800 
 33 H        3.2850     4.9310    -0.9320 H     1 <1>   0.0800 
 34 H        3.7570     4.4580    -2.5090 H     1 <1>   0.0800 
 35 H        3.4690     3.4940     0.6720 H     1 <1>   0.4500 
 36 H        5.4740     3.7730    -1.0140 H     1 <1>   0.0800 
 37 H        4.7050     2.3300    -1.6120 H     1 <1>   0.0800 
 38 H        6.2880     2.9220     0.8650 H     1 <1>   0.0800 
 39 H        5.2920     2.2430     2.1190 H     1 <1>   0.0800 
 40 H        6.0890     4.4670     2.7590 H     1 <1>   0.0800 
 41 H        4.3530     4.4260     2.6600 H     1 <1>   0.0800 
 42 H        2.9080     6.3240     2.5330 H     1 <1>   0.1500 
 43 H        4.9990     9.4530    -0.6990 H     1 <1>   0.1500 
 44 H        1.9110     8.5460     2.1260 H     1 <1>   0.1500 
 45 H        2.9360    10.1000     0.5260 H     1 <1>   0.1500 
@<TRIPOS>BOND
  1   1   2  2   
  2   1   3  2   
  3   1   4  am  
  4   1   5  1   
  5   4   6  1   
  6   4   7  1   
  7   5  24  1   
  8   5  25  1   
  9   5  26  1   
 10   6   8  1   
 11   6  27  1   
 12   6  28  1   
 13   7   9  1   
 14   7  29  1   
 15   7  30  1   
 16   8  10  1   
 17   8  31  1   
 18   8  32  1   
 19   9  11  1   
 20   9  33  1   
 21   9  34  1   
 22  10  11  1   
 23  10  12  1   
 24  10  35  1   
 25  11  36  1   
 26  11  37  1   
 27  12  13  1   
 28  12  38  1   
 29  12  39  1   
 30  13  14  1   
 31  13  40  1   
 32  13  41  1   
 33  14  15  am  
 34  14  16  1   
 35  15  17  2   
 36  15  18  1   
 37  16  19  ar  
 38  16  20  ar  
 39  18  19  1   
 40  19  21  ar  
 41  20  22  ar  
 42  20  42  1   
 43  21  23  ar  
 44  21  43  1   
 45  22  23  ar  
 46  22  44  1   
 47  23  45  1   
@<TRIPOS>SUBSTRUCTURE
  1 ****  14 GROUP 4 **** **** 0

# MOE 2024.06 (io_trps.svl 2023.06)
