@<TRIPOS>MOLECULE
NONAME
43 45 1 0 0 
SMALL
USER_CHARGES


@<TRIPOS>ATOM
  1 O       -0.5150     0.3030     0.0140 O.2   1 <1>  -0.5700 
  2 C       -1.5180     0.8730     0.4060 C.2   1 <1>   0.6160 
  3 N       -2.6730     0.1360     0.5600 N.am  1 <1>  -0.6600 
  4 C       -1.4640     2.3090     0.6590 C.2   1 <1>   0.1140 
  5 C       -4.0420     0.6740     0.3410 C.3   1 <1>   0.1400 
  6 C       -2.6780    -1.3440     0.4140 C.3   1 <1>   0.1400 
  7 N       -0.5610     3.0740    -0.0700 N.pl3 1 <1>  -0.6000 
  8 C       -2.2320     2.9660     1.5820 C.2   1 <1>  -0.1360 
  9 C       -4.8320    -0.4950    -0.2420 C.3   1 <1>   0.2000 
 10 C       -4.1510    -1.7430     0.3080 C.3   1 <1>  -0.0800 
 11 C       -0.4350     4.4310     0.0750 C.2   1 <1>  -0.0380 
 12 C       -2.1500     4.3650     1.7670 C.2   1 <1>   0.5410 
 13 O       -6.1610    -0.4580     0.1450 O.3   1 <1>  -0.6800 
 14 C       -4.3880    -2.9950    -0.5480 C.3   1 <1>   0.0210 
 15 C       -1.2170     5.0790     0.9750 C.2   1 <1>  -0.1360 
 16 C        0.5930     5.1210    -0.7980 C.3   1 <1>  -0.1020 
 17 O       -2.8680     4.9370     2.5810 O.2   1 <1>  -0.5700 
 18 C       -3.6040    -4.1760    -0.0090 C.2   1 <1>   0.1080 
 19 N       -3.7760    -4.6470     1.1870 N.2   1 <1>  -0.7070 
 20 C       -2.6230    -4.8670    -0.7110 C.2   1 <1>  -0.1500 
 21 N       -2.9010    -5.6660     1.2800 N.pl3 1 <1>   0.3000 
 22 C       -2.1890    -5.8180     0.1430 C.2   1 <1>  -0.3320 
 23 C       -1.1230    -6.8780    -0.0600 C.3   1 <1>  -0.0600 
 24 H       -4.4610     0.9720     1.2860 H     1 <1>   0.0800 
 25 H       -4.0260     1.5050    -0.3440 H     1 <1>   0.0800 
 26 H       -2.1430    -1.6150    -0.4820 H     1 <1>   0.0800 
 27 H       -2.2070    -1.8140     1.2610 H     1 <1>   0.0800 
 28 H        0.0620     2.5480    -0.7020 H     1 <1>   0.4000 
 29 H       -2.9240     2.4470     2.2130 H     1 <1>   0.1500 
 30 H       -4.7890    -0.4620    -1.3180 H     1 <1>   0.0800 
 31 H       -4.4970    -1.9320     1.3100 H     1 <1>   0.0800 
 32 H       -6.2450    -0.6760     1.0940 H     1 <1>   0.4000 
 33 H       -4.0990    -2.8090    -1.5660 H     1 <1>   0.0800 
 34 H       -5.4350    -3.2450    -0.5380 H     1 <1>   0.0800 
 35 H       -1.1660     6.1390     1.1330 H     1 <1>   0.1500 
 36 H        1.5710     4.7220    -0.5980 H     1 <1>   0.0800 
 37 H        0.6080     6.1780    -0.6030 H     1 <1>   0.0800 
 38 H        0.3560     4.9670    -1.8350 H     1 <1>   0.0800 
 39 H       -2.2980    -4.6660    -1.7160 H     1 <1>   0.1500 
 40 H       -2.8150    -6.2370     2.1290 H     1 <1>   0.2700 
 41 H       -0.7010    -6.7930    -1.0460 H     1 <1>   0.0800 
 42 H       -1.5480    -7.8600     0.0480 H     1 <1>   0.0800 
 43 H       -0.3340    -6.7550     0.6600 H     1 <1>   0.0800 
@<TRIPOS>BOND
  1   1   2  2   
  2   2   3  am  
  3   2   4  1   
  4   3   5  1   
  5   3   6  1   
  6   4   7  1   
  7   4   8  2   
  8   5   9  1   
  9   5  24  1   
 10   5  25  1   
 11   6  10  1   
 12   6  26  1   
 13   6  27  1   
 14   7  11  1   
 15   7  28  1   
 16   8  12  1   
 17   8  29  1   
 18   9  10  1   
 19   9  13  1   
 20   9  30  1   
 21  10  14  1   
 22  10  31  1   
 23  11  15  2   
 24  11  16  1   
 25  12  15  1   
 26  12  17  2   
 27  13  32  1   
 28  14  18  1   
 29  14  33  1   
 30  14  34  1   
 31  15  35  1   
 32  16  36  1   
 33  16  37  1   
 34  16  38  1   
 35  18  19  2   
 36  18  20  1   
 37  19  21  1   
 38  20  22  2   
 39  20  39  1   
 40  21  22  1   
 41  21  40  1   
 42  22  23  1   
 43  23  41  1   
 44  23  42  1   
 45  23  43  1   
@<TRIPOS>SUBSTRUCTURE
  1 ****   3 GROUP 4 **** **** 0

# MOE 2024.06 (io_trps.svl 2023.06)
