@<TRIPOS>MOLECULE
NONAME
54 56 1 0 0 
SMALL
USER_CHARGES


@<TRIPOS>ATOM
  1 O       -1.1870    -2.3410    -0.5290 O.2   1 <1>  -0.5700 
  2 C       -0.1160    -2.8700    -0.6750 C.2   1 <1>   0.5690 
  3 N        0.1860    -3.5590    -1.7950 N.am  1 <1>  -0.7300 
  4 C        0.9420    -2.7920     0.4040 C.3   1 <1>  -0.0990 
  5 C        1.4770    -4.2470    -1.9970 C.3   1 <1>   0.1400 
  6 C        2.3250    -2.5190    -0.2170 C.3   1 <1>  -0.0800 
  7 C        2.6310    -3.3610    -1.4820 C.3   1 <1>  -0.0800 
  8 C        3.4810    -2.7630     0.7640 C.3   1 <1>  -0.1600 
  9 C        3.8980    -4.1620    -1.1540 C.3   1 <1>  -0.1600 
 10 C        4.6090    -3.3160    -0.0990 C.3   1 <1>   0.2200 
 11 N        5.6350    -4.0480     0.7080 N.am  1 <1>  -0.6600 
 12 C        6.8690    -3.5200     1.0140 C.2   1 <1>   0.5690 
 13 C        5.2850    -5.4190     1.2000 C.3   1 <1>   0.0600 
 14 O        7.7080    -4.1740     1.5890 O.2   1 <1>  -0.5700 
 15 C        7.2150    -2.0840     0.6390 C.3   1 <1>  -0.0990 
 16 C        8.5330    -1.5760     1.2420 C.3   1 <1>  -0.0170 
 17 C        8.7550    -0.1200     0.8630 C.ar  1 <1>  -0.1430 
 18 C        9.3430     0.2060    -0.3480 C.ar  1 <1>  -0.1500 
 19 C        8.3690     0.8980     1.7180 C.ar  1 <1>  -0.1500 
 20 C        9.5510     1.5250    -0.7160 C.ar  1 <1>   0.0830 
 21 C        8.5600     2.2220     1.3640 C.ar  1 <1>  -0.1500 
 22 O       10.1490     1.6970    -1.9300 O.3   1 <1>  -0.3630 
 23 C        9.1430     2.5580     0.1440 C.ar  1 <1>   0.0830 
 24 C       11.0640     2.7500    -2.1380 C.3   1 <1>   0.0400 
 25 O        9.3060     3.8620    -0.2320 O.3   1 <1>  -0.3630 
 26 C        8.7950     4.9330     0.5300 C.3   1 <1>   0.0400 
 27 H       -0.5420    -3.6440    -2.5080 H     1 <1>   0.3700 
 28 H        0.6870    -2.0140     1.1010 H     1 <1>   0.0800 
 29 H        0.9400    -3.7290     0.9280 H     1 <1>   0.0800 
 30 H        1.4490    -5.1780    -1.4570 H     1 <1>   0.0800 
 31 H        1.6170    -4.4640    -3.0430 H     1 <1>   0.0800 
 32 H        2.3460    -1.4830    -0.5140 H     1 <1>   0.0800 
 33 H        2.8790    -2.6700    -2.2710 H     1 <1>   0.0800 
 34 H        3.1940    -3.4890     1.5020 H     1 <1>   0.0800 
 35 H        3.7750    -1.8540     1.2580 H     1 <1>   0.0800 
 36 H        4.5150    -4.3050    -2.0230 H     1 <1>   0.0800 
 37 H        3.6140    -5.1160    -0.7520 H     1 <1>   0.0800 
 38 H        5.0630    -2.4910    -0.6190 H     1 <1>   0.0800 
 39 H        4.2560    -5.4620     1.5060 H     1 <1>   0.0800 
 40 H        5.8950    -5.6870     2.0460 H     1 <1>   0.0800 
 41 H        5.4550    -6.1360     0.4170 H     1 <1>   0.0800 
 42 H        7.2800    -2.0180    -0.4310 H     1 <1>   0.0800 
 43 H        6.4220    -1.4420     0.9740 H     1 <1>   0.0800 
 44 H        9.3520    -2.1740     0.8820 H     1 <1>   0.0800 
 45 H        8.5040    -1.6750     2.3130 H     1 <1>   0.0800 
 46 H        9.6530    -0.5700    -1.0250 H     1 <1>   0.1500 
 47 H        7.9150     0.6620     2.6650 H     1 <1>   0.1500 
 48 H        8.2430     2.9750     2.0590 H     1 <1>   0.1500 
 49 H       11.6910     2.4880    -2.9710 H     1 <1>   0.0800 
 50 H       11.6600     2.8800    -1.2520 H     1 <1>   0.0800 
 51 H       10.5160     3.6470    -2.3650 H     1 <1>   0.0800 
 52 H        9.0000     5.8460     0.0010 H     1 <1>   0.0800 
 53 H        9.2870     4.9480     1.4860 H     1 <1>   0.0800 
 54 H        7.7330     4.8070     0.6410 H     1 <1>   0.0800 
@<TRIPOS>BOND
  1   1   2  2   
  2   2   3  am  
  3   2   4  1   
  4   3   5  1   
  5   3  27  1   
  6   4   6  1   
  7   4  28  1   
  8   4  29  1   
  9   5   7  1   
 10   5  30  1   
 11   5  31  1   
 12   6   7  1   
 13   6   8  1   
 14   6  32  1   
 15   7   9  1   
 16   7  33  1   
 17   8  10  1   
 18   8  34  1   
 19   8  35  1   
 20   9  10  1   
 21   9  36  1   
 22   9  37  1   
 23  10  11  1   
 24  10  38  1   
 25  11  12  am  
 26  11  13  1   
 27  12  14  2   
 28  12  15  1   
 29  13  39  1   
 30  13  40  1   
 31  13  41  1   
 32  15  16  1   
 33  15  42  1   
 34  15  43  1   
 35  16  17  1   
 36  16  44  1   
 37  16  45  1   
 38  17  18  ar  
 39  17  19  ar  
 40  18  20  ar  
 41  18  46  1   
 42  19  21  ar  
 43  19  47  1   
 44  20  22  1   
 45  20  23  ar  
 46  21  23  ar  
 47  21  48  1   
 48  22  24  1   
 49  23  25  1   
 50  24  49  1   
 51  24  50  1   
 52  24  51  1   
 53  25  26  1   
 54  26  52  1   
 55  26  53  1   
 56  26  54  1   
@<TRIPOS>SUBSTRUCTURE
  1 ****  15 GROUP 4 **** **** 0

# MOE 2024.06 (io_trps.svl 2023.06)
