@<TRIPOS>MOLECULE
NONAME
45 48 1 0 0 
SMALL
USER_CHARGES


@<TRIPOS>ATOM
  1 S        0.0570     0.9590     2.3820 S.3   1 <1>  -0.0800 
  2 C        0.0120     2.3990     1.3880 C.2   1 <1>  -0.1400 
  3 C        1.8060     0.8790     2.2190 C.2   1 <1>  -0.1100 
  4 C        1.2330     2.7600     0.9720 C.2   1 <1>  -0.1810 
  5 C       -1.2660     3.1220     1.0630 C.3   1 <1>   0.0200 
  6 C        2.2670     1.8890     1.4550 C.2   1 <1>  -0.1500 
  7 C        1.4330     3.9800     0.0680 C.3   1 <1>   0.4610 
  8 C       -0.8790     4.5370     0.6070 C.3   1 <1>   0.1200 
  9 O        0.1790     4.5080    -0.3250 O.3   1 <1>  -0.5600 
 10 C        2.2040     5.0840     0.8090 C.3   1 <1>  -0.1600 
 11 C        2.1240     3.5690    -1.2470 C.3   1 <1>  -0.1600 
 12 C        2.7730     6.1020    -0.1750 C.3   1 <1>   0.1400 
 13 C        3.6000     3.9710    -1.3040 C.3   1 <1>   0.1400 
 14 N        3.7570     5.4410    -1.0880 N.am  1 <1>  -0.6600 
 15 C        4.8060     6.1120    -1.6780 C.2   1 <1>   0.5690 
 16 O        5.6720     5.5080    -2.2790 O.2   1 <1>  -0.5700 
 17 C        4.9330     7.6530    -1.5900 C.3   1 <1>   0.4040 
 18 O        5.7350     8.1530    -2.6130 O.3   1 <1>  -0.6800 
 19 C        5.5250     8.1320    -0.2620 C.ar  1 <1>  -0.1440 
 20 C        6.5600     7.4350     0.3560 C.ar  1 <1>  -0.1500 
 21 C        5.0150     9.2790     0.3380 C.ar  1 <1>  -0.1500 
 22 C        7.0720     7.8680     1.5670 C.ar  1 <1>  -0.1500 
 23 C        5.5200     9.7220     1.5490 C.ar  1 <1>  -0.1500 
 24 C        6.5390     9.0040     2.1430 C.ar  1 <1>   0.1900 
 25 F        7.0150     9.4140     3.2870 F     1 <1>  -0.1900 
 26 H        2.3090     0.0730     2.7210 H     1 <1>   0.1500 
 27 H       -1.8980     3.1770     1.9310 H     1 <1>   0.0800 
 28 H       -1.7930     2.6060     0.2810 H     1 <1>   0.0800 
 29 H        3.3000     2.0550     1.2100 H     1 <1>   0.1500 
 30 H       -0.5760     5.1290     1.4520 H     1 <1>   0.0800 
 31 H       -1.7190     5.0170     0.1360 H     1 <1>   0.0800 
 32 H        3.0200     4.6540     1.3610 H     1 <1>   0.0800 
 33 H        1.5690     5.5720     1.5230 H     1 <1>   0.0800 
 34 H        1.6300     4.0340    -2.0810 H     1 <1>   0.0800 
 35 H        2.0440     2.5070    -1.3830 H     1 <1>   0.0800 
 36 H        3.2500     6.8900     0.3810 H     1 <1>   0.0800 
 37 H        1.9740     6.5270    -0.7600 H     1 <1>   0.0800 
 38 H        4.0040     3.6960    -2.2640 H     1 <1>   0.0800 
 39 H        4.1570     3.4450    -0.5480 H     1 <1>   0.0800 
 40 H        3.9590     8.0850    -1.7290 H     1 <1>   0.0800 
 41 H        6.3840     7.4500    -2.8330 H     1 <1>   0.4000 
 42 H        6.9760     6.5520    -0.1010 H     1 <1>   0.1500 
 43 H        4.2270     9.8370    -0.1390 H     1 <1>   0.1500 
 44 H        7.8700     7.3390     2.0570 H     1 <1>   0.1500 
 45 H        5.1360    10.6070     2.0250 H     1 <1>   0.1500 
@<TRIPOS>BOND
  1   1   2  1   
  2   1   3  1   
  3   2   4  2   
  4   2   5  1   
  5   3   6  2   
  6   3  26  1   
  7   4   6  1   
  8   4   7  1   
  9   5   8  1   
 10   5  27  1   
 11   5  28  1   
 12   6  29  1   
 13   7   9  1   
 14   7  10  1   
 15   7  11  1   
 16   8   9  1   
 17   8  30  1   
 18   8  31  1   
 19  10  12  1   
 20  10  32  1   
 21  10  33  1   
 22  11  13  1   
 23  11  34  1   
 24  11  35  1   
 25  12  14  1   
 26  12  36  1   
 27  12  37  1   
 28  13  14  1   
 29  13  38  1   
 30  13  39  1   
 31  14  15  am  
 32  15  16  2   
 33  15  17  1   
 34  17  18  1   
 35  17  19  1   
 36  17  40  1   
 37  18  41  1   
 38  19  20  ar  
 39  19  21  ar  
 40  20  22  ar  
 41  20  42  1   
 42  21  23  ar  
 43  21  43  1   
 44  22  24  ar  
 45  22  44  1   
 46  23  24  ar  
 47  23  45  1   
 48  24  25  1   
@<TRIPOS>SUBSTRUCTURE
  1 ****  12 GROUP 4 **** **** 0

# MOE 2024.06 (io_trps.svl 2023.06)
