@<TRIPOS>MOLECULE
NONAME
51 54 1 0 0 
SMALL
USER_CHARGES


@<TRIPOS>ATOM
  1 CL       1.9830    -4.0160     2.0400 Cl    1 <1>  -0.1770 
  2 C        0.5370    -4.3660     1.1180 C.ar  1 <1>   0.1770 
  3 C       -0.4260    -3.3510     0.9160 C.ar  1 <1>   0.3100 
  4 C        0.3930    -5.6310     0.6160 C.ar  1 <1>  -0.1500 
  5 N       -0.2180    -2.1030     1.4140 N.ar  1 <1>  -0.6200 
  6 C       -1.5880    -3.6880     0.1830 C.ar  1 <1>   0.0000 
  7 C       -0.7440    -5.9480    -0.1280 C.ar  1 <1>  -0.1500 
  8 C       -1.1150    -1.1970     1.1930 C.ar  1 <1>   0.1670 
  9 C       -2.5750    -2.6880    -0.0020 C.ar  1 <1>   0.0860 
 10 C       -1.7050    -4.9970    -0.3390 C.ar  1 <1>  -0.1500 
 11 C       -2.2980    -1.4420     0.4960 C.ar  1 <1>  -0.1500 
 12 C       -0.8370     0.1880     1.7390 C.3   1 <1>  -0.0960 
 13 C       -3.8280    -2.9510    -0.6740 C.2   1 <1>   0.5440 
 14 O       -4.0600    -2.3810    -1.7230 O.2   1 <1>  -0.5700 
 15 N       -4.7710    -3.8150    -0.1460 N.am  1 <1>  -0.6600 
 16 C       -5.9610    -4.2080    -0.9620 C.3   1 <1>   0.2200 
 17 C       -4.6830    -4.3050     1.2650 C.3   1 <1>   0.0600 
 18 C       -6.3260    -5.6890    -0.8760 C.3   1 <1>  -0.1600 
 19 C       -7.2300    -3.4780    -0.5380 C.3   1 <1>  -0.1600 
 20 C       -7.7840    -5.7460    -1.3520 C.3   1 <1>  -0.0800 
 21 C       -8.3740    -4.3400    -1.0890 C.3   1 <1>  -0.0800 
 22 C       -8.5720    -6.9140    -0.7280 C.3   1 <1>   0.1400 
 23 C       -9.6180    -4.3510    -0.1820 C.3   1 <1>  -0.0990 
 24 N      -10.0320    -6.6850    -0.8660 N.am  1 <1>  -0.6600 
 25 C      -10.5690    -5.4560    -0.5970 C.2   1 <1>   0.5690 
 26 C      -10.8620    -7.8560    -1.2530 C.3   1 <1>   0.0600 
 27 O      -11.7500    -5.2170    -0.6670 O.2   1 <1>  -0.5700 
 28 H        1.1490    -6.3760     0.7890 H     1 <1>   0.1500 
 29 H       -0.8500    -6.9420    -0.5310 H     1 <1>   0.1500 
 30 H       -2.5730    -5.2510    -0.9240 H     1 <1>   0.1500 
 31 H       -3.0020    -0.6430     0.3510 H     1 <1>   0.1500 
 32 H       -1.6240     0.8740     1.4860 H     1 <1>   0.0800 
 33 H        0.0870     0.5540     1.3310 H     1 <1>   0.0800 
 34 H       -0.7450     0.1400     2.8090 H     1 <1>   0.0800 
 35 H       -5.7820    -3.9820    -2.0010 H     1 <1>   0.0800 
 36 H       -5.6610    -4.3520     1.7100 H     1 <1>   0.0800 
 37 H       -4.0800    -3.6450     1.8630 H     1 <1>   0.0800 
 38 H       -4.2440    -5.2870     1.2810 H     1 <1>   0.0800 
 39 H       -5.6830    -6.2850    -1.4990 H     1 <1>   0.0800 
 40 H       -6.2720    -6.0360     0.1380 H     1 <1>   0.0800 
 41 H       -7.2890    -3.4230     0.5330 H     1 <1>   0.0800 
 42 H       -7.2540    -2.4830    -0.9460 H     1 <1>   0.0800 
 43 H       -7.7770    -5.8960    -2.4190 H     1 <1>   0.0800 
 44 H       -8.6720    -3.9360    -2.0440 H     1 <1>   0.0800 
 45 H       -8.3460    -6.9970     0.3220 H     1 <1>   0.0800 
 46 H       -8.2920    -7.8360    -1.2080 H     1 <1>   0.0800 
 47 H      -10.1220    -3.4030    -0.2360 H     1 <1>   0.0800 
 48 H       -9.3400    -4.5270     0.8400 H     1 <1>   0.0800 
 49 H      -10.7440    -8.6420    -0.5280 H     1 <1>   0.0800 
 50 H      -10.5600    -8.2130    -2.2220 H     1 <1>   0.0800 
 51 H      -11.9030    -7.5830    -1.2970 H     1 <1>   0.0800 
@<TRIPOS>BOND
  1   1   2  1   
  2   2   3  ar  
  3   2   4  ar  
  4   3   5  ar  
  5   3   6  ar  
  6   4   7  ar  
  7   4  28  1   
  8   5   8  ar  
  9   6   9  ar  
 10   6  10  ar  
 11   7  10  ar  
 12   7  29  1   
 13   8  11  ar  
 14   8  12  1   
 15   9  11  ar  
 16   9  13  1   
 17  10  30  1   
 18  11  31  1   
 19  12  32  1   
 20  12  33  1   
 21  12  34  1   
 22  13  14  2   
 23  13  15  am  
 24  15  16  1   
 25  15  17  1   
 26  16  18  1   
 27  16  19  1   
 28  16  35  1   
 29  17  36  1   
 30  17  37  1   
 31  17  38  1   
 32  18  20  1   
 33  18  39  1   
 34  18  40  1   
 35  19  21  1   
 36  19  41  1   
 37  19  42  1   
 38  20  21  1   
 39  20  22  1   
 40  20  43  1   
 41  21  23  1   
 42  21  44  1   
 43  22  24  1   
 44  22  45  1   
 45  22  46  1   
 46  23  25  1   
 47  23  47  1   
 48  23  48  1   
 49  24  25  am  
 50  24  26  1   
 51  25  27  2   
 52  26  49  1   
 53  26  50  1   
 54  26  51  1   
@<TRIPOS>SUBSTRUCTURE
  1 ****  15 GROUP 4 **** **** 0

# MOE 2024.06 (io_trps.svl 2023.06)
