@<TRIPOS>MOLECULE
NONAME
50 53 1 0 0 
SMALL
USER_CHARGES


@<TRIPOS>ATOM
  1 O       -1.4640     0.1520    -2.0220 O.2   1 <1>  -0.5700 
  2 C       -2.5540     0.5390    -1.6680 C.2   1 <1>   0.6900 
  3 N       -3.6400     0.3870    -2.4610 N.am  1 <1>  -0.4900 
  4 N       -2.7230     1.1470    -0.4590 N.am  1 <1>  -0.5390 
  5 C       -4.8780     0.8200    -2.1000 C.2   1 <1>   0.6160 
  6 C       -3.9530     1.5890    -0.0050 C.2   1 <1>  -0.0290 
  7 O       -5.7830     0.6690    -2.8970 O.2   1 <1>  -0.5700 
  8 C       -5.0360     1.4480    -0.8170 C.2   1 <1>  -0.1240 
  9 C       -3.9340     2.1720     1.3990 C.3   1 <1>  -0.1020 
 10 C       -6.4540     1.9000    -0.4510 C.3   1 <1>   0.0390 
 11 C       -7.2750     0.7850     0.1890 C.2   1 <1>   0.5690 
 12 O       -6.6750    -0.0680     0.8030 O.2   1 <1>  -0.5700 
 13 N       -8.6470     0.7630     0.1110 N.am  1 <1>  -0.6600 
 14 C       -9.5160     1.8400    -0.4660 C.3   1 <1>   0.1400 
 15 C       -9.3850    -0.4380     0.6140 C.3   1 <1>   0.1400 
 16 C      -10.5400     2.3510     0.5730 C.3   1 <1>   0.1430 
 17 C      -10.8890    -0.1740     0.7950 C.3   1 <1>  -0.1600 
 18 C      -11.6130     3.1150    -0.1850 C.ar  1 <1>   0.1670 
 19 C      -11.1280     1.2010     1.4350 C.3   1 <1>  -0.1600 
 20 C       -9.9250     3.4610     1.4690 C.3   1 <1>  -0.1600 
 21 N      -12.5620     2.5740    -0.9180 N.ar  1 <1>  -0.6200 
 22 C      -11.4750     4.4630    -0.0350 C.ar  1 <1>  -0.1430 
 23 C      -10.2970     4.8140     0.8360 C.3   1 <1>  -0.0170 
 24 C      -13.3810     3.4460    -1.4870 C.ar  1 <1>   0.4770 
 25 C      -12.3810     5.2750    -0.6710 C.ar  1 <1>   0.1600 
 26 N      -13.3500     4.7700    -1.4060 N.ar  1 <1>  -0.6200 
 27 C      -14.4900     2.8590    -2.3270 C.3   1 <1>  -0.0970 
 28 H       -3.5270    -0.0730    -3.3560 H     1 <1>   0.3700 
 29 H       -1.8780     1.2080     0.1090 H     1 <1>   0.3700 
 30 H       -3.4250     1.4970     2.0640 H     1 <1>   0.0800 
 31 H       -4.9230     2.3170     1.7890 H     1 <1>   0.0800 
 32 H       -3.4170     3.1140     1.4000 H     1 <1>   0.0800 
 33 H       -6.9390     2.2420    -1.3450 H     1 <1>   0.0800 
 34 H       -6.4250     2.7300     0.2260 H     1 <1>   0.0800 
 35 H      -10.0450     1.4240    -1.3080 H     1 <1>   0.0800 
 36 H       -8.9420     2.6690    -0.8320 H     1 <1>   0.0800 
 37 H       -8.9670    -0.7240     1.5650 H     1 <1>   0.0800 
 38 H       -9.2370    -1.2570    -0.0690 H     1 <1>   0.0800 
 39 H      -11.3110    -0.9460     1.4140 H     1 <1>   0.0800 
 40 H      -11.3840    -0.2230    -0.1600 H     1 <1>   0.0800 
 41 H      -12.1810     1.3570     1.5920 H     1 <1>   0.0800 
 42 H      -10.6540     1.1900     2.4010 H     1 <1>   0.0800 
 43 H       -8.8620     3.3470     1.5880 H     1 <1>   0.0800 
 44 H      -10.3780     3.4270     2.4450 H     1 <1>   0.0800 
 45 H       -9.4930     5.1870     0.2260 H     1 <1>   0.0800 
 46 H      -10.5580     5.5420     1.5850 H     1 <1>   0.0800 
 47 H      -12.3150     6.3450    -0.5800 H     1 <1>   0.1500 
 48 H      -14.1480     1.9640    -2.8120 H     1 <1>   0.0800 
 49 H      -14.8020     3.5630    -3.0750 H     1 <1>   0.0800 
 50 H      -15.3240     2.6220    -1.6950 H     1 <1>   0.0800 
@<TRIPOS>BOND
  1   1   2  2   
  2   2   3  am  
  3   2   4  am  
  4   3   5  am  
  5   3  28  1   
  6   4   6  1   
  7   4  29  1   
  8   5   7  2   
  9   5   8  1   
 10   6   8  2   
 11   6   9  1   
 12   8  10  1   
 13   9  30  1   
 14   9  31  1   
 15   9  32  1   
 16  10  11  1   
 17  10  33  1   
 18  10  34  1   
 19  11  12  2   
 20  11  13  am  
 21  13  14  1   
 22  13  15  1   
 23  14  16  1   
 24  14  35  1   
 25  14  36  1   
 26  15  17  1   
 27  15  37  1   
 28  15  38  1   
 29  16  18  1   
 30  16  19  1   
 31  16  20  1   
 32  17  19  1   
 33  17  39  1   
 34  17  40  1   
 35  18  21  ar  
 36  18  22  ar  
 37  19  41  1   
 38  19  42  1   
 39  20  23  1   
 40  20  43  1   
 41  20  44  1   
 42  21  24  ar  
 43  22  23  1   
 44  22  25  ar  
 45  23  45  1   
 46  23  46  1   
 47  24  26  ar  
 48  24  27  1   
 49  25  26  ar  
 50  25  47  1   
 51  27  48  1   
 52  27  49  1   
 53  27  50  1   
@<TRIPOS>SUBSTRUCTURE
  1 ****  14 GROUP 4 **** **** 0

# MOE 2024.06 (io_trps.svl 2023.06)
