@<TRIPOS>MOLECULE
NONAME
48 50 1 0 0 
SMALL
USER_CHARGES


@<TRIPOS>ATOM
  1 S       -0.9820    -0.4180     1.4840 S.o2  1 <1>   1.4470 
  2 O       -0.0470    -1.4970     1.2590 O.2   1 <1>  -0.6500 
  3 O       -1.8890    -0.4820     2.6080 O.2   1 <1>  -0.6500 
  4 N       -1.9320    -0.4430     0.0970 N.am  1 <1>  -0.9140 
  5 C       -0.1570     1.1950     1.4090 C.ar  1 <1>  -0.0090 
  6 C       -3.1540    -1.2320     0.1770 C.3   1 <1>   0.1960 
  7 C       -0.8870     2.3740     1.4980 C.ar  1 <1>  -0.1500 
  8 C        1.2210     1.2970     1.2550 C.ar  1 <1>  -0.1500 
  9 C       -2.8430    -2.7270     0.3160 C.3   1 <1>  -0.1600 
 10 C       -0.2670     3.6100     1.4340 C.ar  1 <1>  -0.1500 
 11 C        1.8470     2.5300     1.1890 C.ar  1 <1>  -0.1500 
 12 C       -4.1230    -3.5570     0.3690 C.3   1 <1>   0.2090 
 13 C        1.1050     3.6940     1.2770 C.ar  1 <1>  -0.1440 
 14 N       -3.7470    -4.9690     0.6390 N.pl3 1 <1>  -0.8690 
 15 C        1.7880     5.0480     1.2080 C.3   1 <1>  -0.0970 
 16 C       -4.3340    -6.0550     0.0980 C.ar  1 <1>   0.7710 
 17 N       -5.3540    -5.8830    -0.7400 N.ar  1 <1>  -0.6200 
 18 N       -3.8620    -7.2750     0.4330 N.ar  1 <1>  -0.1260 
 19 C       -5.9240    -6.9500    -1.2560 C.ar  1 <1>   0.4100 
 20 C       -4.4360    -8.4030    -0.0950 C.ar  1 <1>   0.1560 
 21 N       -6.9470    -6.7240    -2.0870 N.pl3 1 <1>  -0.9000 
 22 C       -5.4820    -8.2560    -0.9520 C.ar  1 <1>   0.0000 
 23 N       -4.1970    -9.7290     0.0400 N.pl3 1 <1>   0.3140 
 24 C       -5.8220    -9.5710    -1.2920 C.2   1 <1>   0.1390 
 25 N       -5.0650   -10.4430    -0.7080 N.2   1 <1>  -0.7070 
 26 C       -3.1780   -10.4200     0.8500 C.3   1 <1>   0.0160 
 27 H       -1.3230    -0.8500    -0.6100 H     1 <1>   0.4200 
 28 H       -3.7240    -1.0680    -0.7230 H     1 <1>   0.0800 
 29 H       -3.7520    -0.8920     1.0080 H     1 <1>   0.0800 
 30 H       -1.9560     2.3230     1.6200 H     1 <1>   0.1500 
 31 H        1.8160     0.4010     1.1850 H     1 <1>   0.1500 
 32 H       -2.3000    -2.8950     1.2280 H     1 <1>   0.0800 
 33 H       -2.2470    -3.0470    -0.5210 H     1 <1>   0.0800 
 34 H       -0.8590     4.5060     1.5070 H     1 <1>   0.1500 
 35 H        2.9160     2.5770     1.0710 H     1 <1>   0.1500 
 36 H       -4.6570    -3.4680    -0.5640 H     1 <1>   0.0800 
 37 H       -4.7600    -3.2010     1.1630 H     1 <1>   0.0800 
 38 H       -2.9910    -5.0250     1.3260 H     1 <1>   0.4000 
 39 H        1.1320     5.7790     0.7700 H     1 <1>   0.0800 
 40 H        2.6790     4.9910     0.6080 H     1 <1>   0.0800 
 41 H        2.0560     5.3710     2.1980 H     1 <1>   0.0800 
 42 H       -3.0790    -7.3100     1.0770 H     1 <1>   0.4570 
 43 H       -7.4930    -7.4440    -2.5660 H     1 <1>   0.4000 
 44 H       -7.2460    -5.7650    -2.2860 H     1 <1>   0.4000 
 45 H       -6.6240    -9.8310    -1.9650 H     1 <1>   0.1500 
 46 H       -2.2080   -10.0030     0.6550 H     1 <1>   0.0800 
 47 H       -3.1690   -11.4630     0.5840 H     1 <1>   0.0800 
 48 H       -3.4230   -10.3300     1.8920 H     1 <1>   0.0800 
@<TRIPOS>BOND
  1   1   2  2   
  2   1   3  2   
  3   1   4  am  
  4   1   5  1   
  5   4   6  1   
  6   4  27  1   
  7   5   7  ar  
  8   5   8  ar  
  9   6   9  1   
 10   6  28  1   
 11   6  29  1   
 12   7  10  ar  
 13   7  30  1   
 14   8  11  ar  
 15   8  31  1   
 16   9  12  1   
 17   9  32  1   
 18   9  33  1   
 19  10  13  ar  
 20  10  34  1   
 21  11  13  ar  
 22  11  35  1   
 23  12  14  1   
 24  12  36  1   
 25  12  37  1   
 26  13  15  1   
 27  14  16  1   
 28  14  38  1   
 29  15  39  1   
 30  15  40  1   
 31  15  41  1   
 32  16  17  ar  
 33  16  18  ar  
 34  17  19  ar  
 35  18  20  ar  
 36  18  42  1   
 37  19  21  1   
 38  19  22  ar  
 39  20  22  ar  
 40  20  23  1   
 41  21  43  1   
 42  21  44  1   
 43  22  24  1   
 44  23  25  1   
 45  23  26  1   
 46  24  25  2   
 47  24  45  1   
 48  26  46  1   
 49  26  47  1   
 50  26  48  1   
@<TRIPOS>SUBSTRUCTURE
  1 ****   9 GROUP 4 **** **** 0

# MOE 2024.06 (io_trps.svl 2023.06)
