@<TRIPOS>MOLECULE
NONAME
54 57 1 0 0 
SMALL
USER_CHARGES


@<TRIPOS>ATOM
  1 O        0.1330    -1.2670     0.1650 O.2   1 <1>  -0.5700 
  2 C       -0.3770    -0.3370    -0.4100 C.2   1 <1>   0.5690 
  3 N       -1.3900    -0.5350    -1.3230 N.am  1 <1>  -0.6600 
  4 C        0.0630     1.0710    -0.0280 C.3   1 <1>   0.1810 
  5 C       -2.1690     0.5720    -1.9670 C.3   1 <1>   0.1400 
  6 C       -2.1490    -1.8240    -1.3290 C.3   1 <1>   0.1400 
  7 O       -1.0500     1.7650     0.5300 O.3   1 <1>  -0.3620 
  8 C       -3.4890     0.8360    -1.1930 C.3   1 <1>   0.4230 
  9 C       -3.5540    -1.6330    -0.7050 C.3   1 <1>   0.3430 
 10 C       -1.1030     3.1190     0.5650 C.ar  1 <1>   0.0830 
 11 N       -3.7600    -0.2370    -0.1550 N.4   1 <1>  -0.9590 
 12 C       -4.6830     0.9930    -2.1610 C.3   1 <1>   0.1200 
 13 C       -0.0500     3.9470     0.1900 C.ar  1 <1>  -0.1500 
 14 C       -2.2930     3.6850     0.9880 C.ar  1 <1>  -0.1500 
 15 C       -5.0820    -0.0060     0.5100 C.3   1 <1>   0.5180 
 16 O       -5.8720     1.1900    -1.4510 O.3   1 <1>  -0.5600 
 17 C       -0.1960     5.3260     0.2090 C.ar  1 <1>  -0.1430 
 18 C       -2.4430     5.0580     1.0100 C.ar  1 <1>  -0.1500 
 19 C       -5.3420    -1.1240     1.5400 C.3   1 <1>  -0.1950 
 20 C       -6.2030     0.1740    -0.5430 C.3   1 <1>   0.1200 
 21 C       -1.4030     5.8860     0.6170 C.ar  1 <1>  -0.1430 
 22 C        0.9760     6.2010    -0.2150 C.3   1 <1>  -0.0970 
 23 C       -6.0050    -2.4360     1.2330 C.3   1 <1>  -0.2000 
 24 C       -6.7030    -1.4210     2.0940 C.3   1 <1>  -0.2000 
 25 C       -1.6090     7.3940     0.6520 C.3   1 <1>  -0.0970 
 26 H        0.4060     1.5800    -0.9080 H     1 <1>   0.0800 
 27 H        0.8450     1.0360     0.7090 H     1 <1>   0.0800 
 28 H       -1.5940     1.4800    -2.0160 H     1 <1>   0.0800 
 29 H       -2.3850     0.2910    -2.9840 H     1 <1>   0.0800 
 30 H       -2.2450    -2.1800    -2.3400 H     1 <1>   0.0800 
 31 H       -1.6190    -2.5830    -0.7790 H     1 <1>   0.0800 
 32 H       -3.3730     1.7800    -0.6860 H     1 <1>   0.0800 
 33 H       -3.6730    -2.3590     0.0820 H     1 <1>   0.0800 
 34 H       -4.3000    -1.8440    -1.4530 H     1 <1>   0.0800 
 35 H       -3.0250    -0.1140     0.5550 H     1 <1>   0.4500 
 36 H       -4.7980     0.1260    -2.7880 H     1 <1>   0.0800 
 37 H       -4.5380     1.8540    -2.7910 H     1 <1>   0.0800 
 38 H        0.8950     3.5390    -0.1130 H     1 <1>   0.1500 
 39 H       -3.1020     3.0570     1.3080 H     1 <1>   0.1500 
 40 H       -5.0280     0.9200     1.0580 H     1 <1>   0.0800 
 41 H       -3.3750     5.4830     1.3390 H     1 <1>   0.1500 
 42 H       -4.5580    -1.1370     2.2780 H     1 <1>   0.1000 
 43 H       -7.1190     0.4650    -0.0600 H     1 <1>   0.0800 
 44 H       -6.3800    -0.7340    -1.0910 H     1 <1>   0.0800 
 45 H        1.8300     5.6070    -0.4850 H     1 <1>   0.0800 
 46 H        1.2620     6.8490     0.5940 H     1 <1>   0.0800 
 47 H        0.7010     6.8010    -1.0640 H     1 <1>   0.0800 
 48 H       -6.4420    -2.6430     0.2710 H     1 <1>   0.1000 
 49 H       -5.6450    -3.3320     1.7120 H     1 <1>   0.1000 
 50 H       -6.8010    -1.6300     3.1470 H     1 <1>   0.1000 
 51 H       -7.5890    -0.9540     1.6980 H     1 <1>   0.1000 
 52 H       -2.6030     7.6420     0.9770 H     1 <1>   0.0800 
 53 H       -1.4630     7.8100    -0.3290 H     1 <1>   0.0800 
 54 H       -0.9100     7.8460     1.3320 H     1 <1>   0.0800 
@<TRIPOS>BOND
  1   1   2  2   
  2   2   3  am  
  3   2   4  1   
  4   3   5  1   
  5   3   6  1   
  6   4   7  1   
  7   4  26  1   
  8   4  27  1   
  9   5   8  1   
 10   5  28  1   
 11   5  29  1   
 12   6   9  1   
 13   6  30  1   
 14   6  31  1   
 15   7  10  1   
 16   8  11  1   
 17   8  12  1   
 18   8  32  1   
 19   9  11  1   
 20   9  33  1   
 21   9  34  1   
 22  10  13  ar  
 23  10  14  ar  
 24  11  15  1   
 25  11  35  1   
 26  12  16  1   
 27  12  36  1   
 28  12  37  1   
 29  13  17  ar  
 30  13  38  1   
 31  14  18  ar  
 32  14  39  1   
 33  15  19  1   
 34  15  20  1   
 35  15  40  1   
 36  16  20  1   
 37  17  21  ar  
 38  17  22  1   
 39  18  21  ar  
 40  18  41  1   
 41  19  23  1   
 42  19  24  1   
 43  19  42  1   
 44  20  43  1   
 45  20  44  1   
 46  21  25  1   
 47  22  45  1   
 48  22  46  1   
 49  22  47  1   
 50  23  24  1   
 51  23  48  1   
 52  23  49  1   
 53  24  50  1   
 54  24  51  1   
 55  25  52  1   
 56  25  53  1   
 57  25  54  1   
@<TRIPOS>SUBSTRUCTURE
  1 ****   8 GROUP 4 **** **** 0

# MOE 2024.06 (io_trps.svl 2023.06)
