@<TRIPOS>MOLECULE
NONAME
46 48 1 0 0 
SMALL
USER_CHARGES


@<TRIPOS>ATOM
  1 F        0.6790     0.7860     2.5860 F     1 <1>  -0.1900 
  2 C        1.4800     1.1940     1.6340 C.ar  1 <1>   0.1900 
  3 C        1.6670     2.5500     1.4260 C.ar  1 <1>   0.1900 
  4 C        2.1200     0.2520     0.8470 C.ar  1 <1>  -0.1440 
  5 F        1.0460     3.4250     2.1750 F     1 <1>  -0.1900 
  6 C        2.5050     3.0020     0.4260 C.ar  1 <1>  -0.1500 
  7 C        2.9680     0.6990    -0.1650 C.ar  1 <1>   0.0830 
  8 C        1.8950    -1.2250     1.1000 C.3   1 <1>   0.4860 
  9 C        3.1560     2.0700    -0.3700 C.ar  1 <1>  -0.1500 
 10 O        3.5770    -0.2480    -0.9270 O.3   1 <1>  -0.3630 
 11 N        1.4050    -1.9100    -0.1370 N.4   1 <1>  -0.9590 
 12 C        4.6180     0.0920    -1.8240 C.3   1 <1>   0.0400 
 13 C       -0.0190    -1.7100    -0.5500 C.3   1 <1>   0.4230 
 14 C        1.7200    -3.3670    -0.0630 C.3   1 <1>   0.2630 
 15 C       -1.0430    -1.7140     0.5840 C.3   1 <1>  -0.1600 
 16 C       -0.2760    -0.4040    -1.2920 C.3   1 <1>  -0.1600 
 17 C       -2.2990    -1.0960    -0.0440 C.3   1 <1>  -0.0800 
 18 C       -1.7990    -0.2190    -1.2210 C.3   1 <1>  -0.0800 
 19 C       -3.2010    -0.3810     0.9860 C.3   1 <1>   0.1400 
 20 C       -2.2240     1.2620    -1.1350 C.3   1 <1>  -0.0990 
 21 N       -4.0880     0.5690     0.2870 N.am  1 <1>  -0.7300 
 22 C       -3.6730     1.3720    -0.7140 C.2   1 <1>   0.5690 
 23 O       -4.4150     2.1490    -1.2520 O.2   1 <1>  -0.5700 
 24 H        2.6430     4.0590     0.2760 H     1 <1>   0.1500 
 25 H        1.2080    -1.3750     1.9150 H     1 <1>   0.0800 
 26 H        2.8420    -1.6510     1.3890 H     1 <1>   0.0800 
 27 H        3.8030     2.4370    -1.1460 H     1 <1>   0.1500 
 28 H        1.9940    -1.4970    -0.8820 H     1 <1>   0.4500 
 29 H        5.0150    -0.8150    -2.2450 H     1 <1>   0.0800 
 30 H        5.3930     0.6090    -1.2850 H     1 <1>   0.0800 
 31 H        4.2210     0.7110    -2.6100 H     1 <1>   0.0800 
 32 H       -0.2920    -2.5020    -1.2300 H     1 <1>   0.0800 
 33 H        1.1510    -3.8340     0.7240 H     1 <1>   0.0800 
 34 H        2.7700    -3.5140     0.1340 H     1 <1>   0.0800 
 35 H        1.4790    -3.8500    -0.9960 H     1 <1>   0.0800 
 36 H       -1.2380    -2.7090     0.9450 H     1 <1>   0.0800 
 37 H       -0.7260    -1.0870     1.3940 H     1 <1>   0.0800 
 38 H        0.1970     0.4230    -0.8050 H     1 <1>   0.0800 
 39 H        0.0590    -0.4560    -2.3120 H     1 <1>   0.0800 
 40 H       -2.8840    -1.8950    -0.4700 H     1 <1>   0.0800 
 41 H       -2.2340    -0.6220    -2.1220 H     1 <1>   0.0800 
 42 H       -2.6060     0.1740     1.6920 H     1 <1>   0.0800 
 43 H       -3.7920    -1.1010     1.5270 H     1 <1>   0.0800 
 44 H       -2.0910     1.7450    -2.0870 H     1 <1>   0.0800 
 45 H       -1.6370     1.7880    -0.4050 H     1 <1>   0.0800 
 46 H       -5.0540     0.6780     0.6070 H     1 <1>   0.3700 
@<TRIPOS>BOND
  1   1   2  1   
  2   2   3  ar  
  3   2   4  ar  
  4   3   5  1   
  5   3   6  ar  
  6   4   7  ar  
  7   4   8  1   
  8   6   9  ar  
  9   6  24  1   
 10   7   9  ar  
 11   7  10  1   
 12   8  11  1   
 13   8  25  1   
 14   8  26  1   
 15   9  27  1   
 16  10  12  1   
 17  11  13  1   
 18  11  14  1   
 19  11  28  1   
 20  12  29  1   
 21  12  30  1   
 22  12  31  1   
 23  13  15  1   
 24  13  16  1   
 25  13  32  1   
 26  14  33  1   
 27  14  34  1   
 28  14  35  1   
 29  15  17  1   
 30  15  36  1   
 31  15  37  1   
 32  16  18  1   
 33  16  38  1   
 34  16  39  1   
 35  17  18  1   
 36  17  19  1   
 37  17  40  1   
 38  18  20  1   
 39  18  41  1   
 40  19  21  1   
 41  19  42  1   
 42  19  43  1   
 43  20  22  1   
 44  20  44  1   
 45  20  45  1   
 46  21  22  am  
 47  21  46  1   
 48  22  23  2   
@<TRIPOS>SUBSTRUCTURE
  1 ****  16 GROUP 4 **** **** 0

# MOE 2024.06 (io_trps.svl 2023.06)
