@<TRIPOS>MOLECULE
NONAME
56 60 1 0 0 
SMALL
USER_CHARGES


@<TRIPOS>ATOM
  1 O       -0.5480     0.8100     0.9210 O.3   1 <1>  -0.5600 
  2 C       -0.2650     1.3850    -0.3210 C.3   1 <1>   0.1200 
  3 C       -1.7160     1.3500     1.4690 C.3   1 <1>   0.1200 
  4 C       -1.0680     2.6800    -0.3880 C.3   1 <1>   0.2890 
  5 C       -2.2910     2.3370     0.4440 C.3   1 <1>  -0.0800 
  6 N       -0.3180     3.7640     0.2930 N.pl3 1 <1>  -0.8690 
  7 C       -3.4010     1.6960    -0.4160 C.3   1 <1>  -0.0170 
  8 C        0.0410     4.9500    -0.2980 C.ar  1 <1>   0.4100 
  9 C       -4.7010     1.3320     0.3140 C.ar  1 <1>  -0.1430 
 10 N       -0.5370     5.2790    -1.4370 N.ar  1 <1>  -0.6200 
 11 C        0.9750     5.7660     0.2890 C.ar  1 <1>  -0.1500 
 12 C       -5.6790     0.5400    -0.3380 C.ar  1 <1>   0.0000 
 13 C       -4.9870     1.7420     1.5870 C.ar  1 <1>  -0.1500 
 14 C       -0.1450     6.4280    -1.9530 C.ar  1 <1>   0.4700 
 15 C        1.3020     6.9440    -0.3380 C.ar  1 <1>   0.4100 
 16 C       -6.8550     0.2090     0.3800 C.ar  1 <1>   0.3100 
 17 C       -5.5650     0.0620    -1.6650 C.ar  1 <1>  -0.1500 
 18 C       -6.1850     1.3650     2.2030 C.ar  1 <1>   0.1600 
 19 N        0.7390     7.2840    -1.4840 N.ar  1 <1>  -0.6200 
 20 N        2.2250     7.8080     0.2130 N.pl3 1 <1>  -0.8380 
 21 N       -7.0920     0.6280     1.6480 N.ar  1 <1>  -0.6200 
 22 C       -7.8330    -0.5860    -0.2390 C.ar  1 <1>  -0.1500 
 23 C       -6.5380    -0.7090    -2.2410 C.ar  1 <1>  -0.1500 
 24 C        1.9210     8.4250     1.5280 C.3   1 <1>   0.2090 
 25 C        3.0480     8.6640    -0.6820 C.3   1 <1>   0.2090 
 26 C       -7.6870    -1.0410    -1.5200 C.ar  1 <1>  -0.1500 
 27 C        3.2310     8.7570     2.2500 C.3   1 <1>  -0.1600 
 28 C        4.3690     9.0080     0.0150 C.3   1 <1>  -0.1600 
 29 C        4.1390     9.6490     1.3910 C.3   1 <1>  -0.1600 
 30 H        0.7930     1.5520    -0.4120 H     1 <1>   0.0800 
 31 H       -0.5920     0.6970    -1.0800 H     1 <1>   0.0800 
 32 H       -2.3930     0.5460     1.7020 H     1 <1>   0.0800 
 33 H       -1.4400     1.8620     2.3740 H     1 <1>   0.0800 
 34 H       -1.3090     2.9450    -1.4030 H     1 <1>   0.0800 
 35 H       -2.6760     3.2240     0.9130 H     1 <1>   0.0800 
 36 H        0.2580     3.4250     1.0670 H     1 <1>   0.4000 
 37 H       -3.0010     0.8010    -0.8600 H     1 <1>   0.0800 
 38 H       -3.6510     2.3750    -1.2130 H     1 <1>   0.0800 
 39 H        1.4460     5.4980     1.2090 H     1 <1>   0.1500 
 40 H       -4.3230     2.3580     2.1620 H     1 <1>   0.1500 
 41 H       -0.6100     6.7040    -2.8840 H     1 <1>   0.1500 
 42 H       -4.6960     0.3070    -2.2450 H     1 <1>   0.1500 
 43 H       -6.3630     1.7120     3.2070 H     1 <1>   0.1500 
 44 H       -8.7090    -0.8260     0.3350 H     1 <1>   0.1500 
 45 H       -6.4330    -1.0660    -3.2510 H     1 <1>   0.1500 
 46 H        1.3510     9.3250     1.3690 H     1 <1>   0.0800 
 47 H        1.3310     7.7540     2.1280 H     1 <1>   0.0800 
 48 H        3.2480     8.1420    -1.6020 H     1 <1>   0.0800 
 49 H        2.5020     9.5630    -0.9120 H     1 <1>   0.0800 
 50 H       -8.4450    -1.6500    -1.9820 H     1 <1>   0.1500 
 51 H        3.0090     9.2520     3.1780 H     1 <1>   0.0800 
 52 H        3.7380     7.8360     2.4800 H     1 <1>   0.0800 
 53 H        4.9400     8.1030     0.1270 H     1 <1>   0.0800 
 54 H        4.9340     9.6770    -0.6090 H     1 <1>   0.0800 
 55 H        5.0830     9.7960     1.8880 H     1 <1>   0.0800 
 56 H        3.6750    10.6120     1.2620 H     1 <1>   0.0800 
@<TRIPOS>BOND
  1   1   2  1   
  2   1   3  1   
  3   2   4  1   
  4   2  30  1   
  5   2  31  1   
  6   3   5  1   
  7   3  32  1   
  8   3  33  1   
  9   4   5  1   
 10   4   6  1   
 11   4  34  1   
 12   5   7  1   
 13   5  35  1   
 14   6   8  1   
 15   6  36  1   
 16   7   9  1   
 17   7  37  1   
 18   7  38  1   
 19   8  10  ar  
 20   8  11  ar  
 21   9  12  ar  
 22   9  13  ar  
 23  10  14  ar  
 24  11  15  ar  
 25  11  39  1   
 26  12  16  ar  
 27  12  17  ar  
 28  13  18  ar  
 29  13  40  1   
 30  14  19  ar  
 31  14  41  1   
 32  15  19  ar  
 33  15  20  1   
 34  16  21  ar  
 35  16  22  ar  
 36  17  23  ar  
 37  17  42  1   
 38  18  21  ar  
 39  18  43  1   
 40  20  24  1   
 41  20  25  1   
 42  22  26  ar  
 43  22  44  1   
 44  23  26  ar  
 45  23  45  1   
 46  24  27  1   
 47  24  46  1   
 48  24  47  1   
 49  25  28  1   
 50  25  48  1   
 51  25  49  1   
 52  26  50  1   
 53  27  29  1   
 54  27  51  1   
 55  27  52  1   
 56  28  29  1   
 57  28  53  1   
 58  28  54  1   
 59  29  55  1   
 60  29  56  1   
@<TRIPOS>SUBSTRUCTURE
  1 ****   4 GROUP 4 **** **** 0

# MOE 2024.06 (io_trps.svl 2023.06)
