@<TRIPOS>MOLECULE
NONAME
47 48 1 0 0 
SMALL
USER_CHARGES


@<TRIPOS>ATOM
  1 S        0.3220     0.0600    -0.6050 S.o2  1 <1>   1.3330 
  2 O        1.7520     0.2100    -0.7670 O.2   1 <1>  -0.6500 
  3 O       -0.5350     0.1000    -1.7680 O.2   1 <1>  -0.6500 
  4 N        0.0380    -1.3930     0.2230 N.am  1 <1>  -0.8490 
  5 C       -0.2640     1.3080     0.5380 C.3   1 <1>  -0.0550 
  6 C        1.0720    -1.7120     1.2130 C.3   1 <1>   0.1160 
  7 C       -0.1390    -2.5240    -0.6930 C.3   1 <1>   0.1160 
  8 C       -0.2010     2.7360    -0.0430 C.3   1 <1>  -0.0800 
  9 C       -0.7480     3.8180     0.8840 C.3   1 <1>   0.2000 
 10 C        1.2160     3.2180    -0.3780 C.3   1 <1>   0.2090 
 11 O       -0.2300     3.6290     2.1570 O.3   1 <1>  -0.6800 
 12 C       -0.1450     5.1000     0.3140 C.3   1 <1>   0.2090 
 13 N        1.2170     4.7020    -0.1520 N.pl3 1 <1>  -0.8380 
 14 C        2.3500     5.4510    -0.1880 C.ar  1 <1>   0.4100 
 15 N        3.4820     4.7380    -0.1130 N.ar  1 <1>  -0.6200 
 16 C        2.4140     6.8650    -0.2790 C.ar  1 <1>  -0.1440 
 17 C        4.6180     5.3500    -0.0530 C.ar  1 <1>   0.5280 
 18 C        3.6430     7.4720    -0.1770 C.ar  1 <1>   0.2180 
 19 C        1.1580     7.7040    -0.5440 C.3   1 <1>  -0.0970 
 20 N        4.7310     6.6870    -0.0640 N.ar  1 <1>  -0.1790 
 21 C        5.8790     4.5150     0.0380 C.3   1 <1>  -0.0970 
 22 C        3.8870     8.9780    -0.1950 C.3   1 <1>  -0.0970 
 23 H       -1.2820     1.0880     0.7960 H     1 <1>   0.0800 
 24 H        0.3150     1.2590     1.4390 H     1 <1>   0.0800 
 25 H        0.7980    -2.5980     1.7610 H     1 <1>   0.0800 
 26 H        1.1790    -0.9020     1.9130 H     1 <1>   0.0800 
 27 H        2.0200    -1.8780     0.7280 H     1 <1>   0.0800 
 28 H       -0.3370    -3.4250    -0.1400 H     1 <1>   0.0800 
 29 H        0.7460    -2.6610    -1.2940 H     1 <1>   0.0800 
 30 H       -0.9750    -2.3400    -1.3480 H     1 <1>   0.0800 
 31 H       -0.7740     2.7580    -0.9550 H     1 <1>   0.0800 
 32 H       -1.8230     3.8380     0.9430 H     1 <1>   0.0800 
 33 H        1.4760     2.9890    -1.3980 H     1 <1>   0.0800 
 34 H        1.9310     2.7520     0.2790 H     1 <1>   0.0800 
 35 H        0.7330     3.8090     2.1200 H     1 <1>   0.4000 
 36 H       -0.1130     5.8710     1.0630 H     1 <1>   0.0800 
 37 H       -0.7310     5.4240    -0.5290 H     1 <1>   0.0800 
 38 H        1.3860     8.6470    -1.0050 H     1 <1>   0.0800 
 39 H        0.6280     7.8940     0.3720 H     1 <1>   0.0800 
 40 H        0.5090     7.1920    -1.2320 H     1 <1>   0.0800 
 41 H        5.6610     7.1010     0.0000 H     1 <1>   0.4570 
 42 H        5.6280     3.4680     0.0240 H     1 <1>   0.0800 
 43 H        6.4010     4.7220     0.9540 H     1 <1>   0.0800 
 44 H        6.5230     4.7150    -0.7980 H     1 <1>   0.0800 
 45 H        3.0580     9.5090     0.2370 H     1 <1>   0.0800 
 46 H        4.0250     9.3170    -1.2070 H     1 <1>   0.0800 
 47 H        4.7600     9.2360     0.3790 H     1 <1>   0.0800 
@<TRIPOS>BOND
  1   1   2  2   
  2   1   3  2   
  3   1   4  am  
  4   1   5  1   
  5   4   6  1   
  6   4   7  1   
  7   5   8  1   
  8   5  23  1   
  9   5  24  1   
 10   6  25  1   
 11   6  26  1   
 12   6  27  1   
 13   7  28  1   
 14   7  29  1   
 15   7  30  1   
 16   8   9  1   
 17   8  10  1   
 18   8  31  1   
 19   9  11  1   
 20   9  12  1   
 21   9  32  1   
 22  10  13  1   
 23  10  33  1   
 24  10  34  1   
 25  11  35  1   
 26  12  13  1   
 27  12  36  1   
 28  12  37  1   
 29  13  14  1   
 30  14  15  ar  
 31  14  16  ar  
 32  15  17  ar  
 33  16  18  ar  
 34  16  19  1   
 35  17  20  ar  
 36  17  21  1   
 37  18  20  ar  
 38  18  22  1   
 39  19  38  1   
 40  19  39  1   
 41  19  40  1   
 42  20  41  1   
 43  21  42  1   
 44  21  43  1   
 45  21  44  1   
 46  22  45  1   
 47  22  46  1   
 48  22  47  1   
@<TRIPOS>SUBSTRUCTURE
  1 ****  10 GROUP 4 **** **** 0

# MOE 2024.06 (io_trps.svl 2023.06)
