@<TRIPOS>MOLECULE
NONAME
47 49 1 0 0 
SMALL
USER_CHARGES


@<TRIPOS>ATOM
  1 O       -0.7030    -1.0540    -0.4130 O.2   1 <1>  -0.5700 
  2 C        0.1450    -1.8880    -0.2120 C.2   1 <1>   0.5690 
  3 N       -0.1240    -3.1440     0.2570 N.am  1 <1>  -0.6600 
  4 C        1.5940    -1.5400    -0.4860 C.3   1 <1>  -0.0990 
  5 C        0.9710    -4.1140     0.4980 C.3   1 <1>   0.1400 
  6 C       -1.5020    -3.5890     0.6010 C.3   1 <1>   0.0600 
  7 C        2.2900    -2.6870    -1.2420 C.3   1 <1>  -0.0800 
  8 C        1.9640    -4.0930    -0.6830 C.3   1 <1>  -0.0800 
  9 C        3.8180    -2.5620    -1.2530 C.3   1 <1>  -0.1600 
 10 C        3.3150    -4.7410    -0.3490 C.3   1 <1>  -0.1600 
 11 C        4.3170    -4.0020    -1.2330 C.3   1 <1>   0.4230 
 12 N        5.7310    -4.1260    -0.7900 N.4   1 <1>  -0.9590 
 13 C        6.0610    -3.6110     0.5710 C.3   1 <1>   0.4860 
 14 C        6.2890    -5.4930    -1.0120 C.3   1 <1>   0.2630 
 15 C        6.8860    -2.3660     0.3500 C.ar  1 <1>  -0.1440 
 16 C        8.0050    -2.4470    -0.4600 C.ar  1 <1>  -0.1500 
 17 C        6.5370    -1.1450     0.9060 C.ar  1 <1>  -0.1500 
 18 C        8.7630    -1.3290    -0.7910 C.ar  1 <1>  -0.1790 
 19 C        7.2960    -0.0230     0.6250 C.ar  1 <1>  -0.1500 
 20 C        9.8760    -1.4580    -1.7210 C.2   1 <1>   0.9790 
 21 C        8.3910    -0.1150    -0.2170 C.ar  1 <1>  -0.1500 
 22 O       10.6700    -0.5230    -1.9070 O.co2 1 <1>  -0.9000 
 23 O       10.0160    -2.5210    -2.3560 O.co2 1 <1>  -0.9000 
 24 H        1.6400    -0.6340    -1.0620 H     1 <1>   0.0800 
 25 H        2.0660    -1.3600     0.4620 H     1 <1>   0.0800 
 26 H        1.4650    -3.8370     1.4140 H     1 <1>   0.0800 
 27 H        0.5680    -5.1050     0.6180 H     1 <1>   0.0800 
 28 H       -1.7720    -4.4400     0.0010 H     1 <1>   0.0800 
 29 H       -2.2120    -2.8000     0.4150 H     1 <1>   0.0800 
 30 H       -1.5520    -3.8540     1.6420 H     1 <1>   0.0800 
 31 H        1.9360    -2.6600    -2.2610 H     1 <1>   0.0800 
 32 H        1.5120    -4.6580    -1.4820 H     1 <1>   0.0800 
 33 H        4.1350    -2.0290    -0.3770 H     1 <1>   0.0800 
 34 H        4.1590    -2.0380    -2.1290 H     1 <1>   0.0800 
 35 H        3.2980    -5.7950    -0.5630 H     1 <1>   0.0800 
 36 H        3.5370    -4.5880     0.6910 H     1 <1>   0.0800 
 37 H        4.2260    -4.3900    -2.2360 H     1 <1>   0.0800 
 38 H        6.2720    -3.4840    -1.3980 H     1 <1>   0.4500 
 39 H        5.1690    -3.3720     1.1240 H     1 <1>   0.0800 
 40 H        6.6400    -4.3320     1.1250 H     1 <1>   0.0800 
 41 H        5.7940    -6.2100    -0.3780 H     1 <1>   0.0800 
 42 H        7.3450    -5.5040    -0.7930 H     1 <1>   0.0800 
 43 H        6.1550    -5.7870    -2.0410 H     1 <1>   0.0800 
 44 H        8.3250    -3.3890    -0.8750 H     1 <1>   0.1500 
 45 H        5.6820    -1.0480     1.5530 H     1 <1>   0.1500 
 46 H        7.0390     0.9300     1.0540 H     1 <1>   0.1500 
 47 H        8.9790     0.7590    -0.4480 H     1 <1>   0.1500 
@<TRIPOS>BOND
  1   1   2  2   
  2   2   3  am  
  3   2   4  1   
  4   3   5  1   
  5   3   6  1   
  6   4   7  1   
  7   4  24  1   
  8   4  25  1   
  9   5   8  1   
 10   5  26  1   
 11   5  27  1   
 12   6  28  1   
 13   6  29  1   
 14   6  30  1   
 15   7   8  1   
 16   7   9  1   
 17   7  31  1   
 18   8  10  1   
 19   8  32  1   
 20   9  11  1   
 21   9  33  1   
 22   9  34  1   
 23  10  11  1   
 24  10  35  1   
 25  10  36  1   
 26  11  12  1   
 27  11  37  1   
 28  12  13  1   
 29  12  14  1   
 30  12  38  1   
 31  13  15  1   
 32  13  39  1   
 33  13  40  1   
 34  14  41  1   
 35  14  42  1   
 36  14  43  1   
 37  15  16  ar  
 38  15  17  ar  
 39  16  18  ar  
 40  16  44  1   
 41  17  19  ar  
 42  17  45  1   
 43  18  20  1   
 44  18  21  ar  
 45  19  21  ar  
 46  19  46  1   
 47  20  22  ar  
 48  20  23  ar  
 49  21  47  1   
@<TRIPOS>SUBSTRUCTURE
  1 ****   9 GROUP 4 **** **** 0

# MOE 2024.06 (io_trps.svl 2023.06)
