@<TRIPOS>MOLECULE
NONAME
39 41 1 0 0 
SMALL
USER_CHARGES


@<TRIPOS>ATOM
  1 O       -2.1120     0.6880    -2.1710 O.2   1 <1>  -0.5700 
  2 C       -2.2480    -0.2750    -1.4630 C.2   1 <1>   0.5690 
  3 N       -1.6570    -0.3180    -0.2500 N.am  1 <1>  -0.7300 
  4 C       -3.1610    -1.3990    -1.8970 C.3   1 <1>  -0.0190 
  5 C       -1.7500    -1.4570     0.7050 C.3   1 <1>   0.2200 
  6 C       -2.4520    -2.7680    -2.0170 C.3   1 <1>   0.1200 
  7 C       -4.3890    -1.3840    -0.9840 C.3   1 <1>   0.3430 
  8 C       -1.2660    -2.7980     0.0930 C.3   1 <1>   0.1200 
  9 C       -3.1870    -1.5670     1.2650 C.3   1 <1>   0.3430 
 10 O       -1.2480    -2.8010    -1.3050 O.3   1 <1>  -0.5600 
 11 N       -4.1970    -2.1270     0.3050 N.4   1 <1>  -0.9590 
 12 C       -5.4910    -2.4490     0.9640 C.3   1 <1>   0.4860 
 13 C       -5.5570    -3.9540     0.8990 C.ar  1 <1>  -0.1440 
 14 C       -5.4600    -4.5400    -0.3480 C.ar  1 <1>  -0.1500 
 15 C       -5.6420    -4.7620     2.0220 C.ar  1 <1>  -0.1500 
 16 C       -5.3400    -5.9120    -0.5190 C.ar  1 <1>  -0.1790 
 17 C       -5.5960    -6.1390     1.8760 C.ar  1 <1>  -0.1500 
 18 C       -5.0760    -6.4330    -1.8500 C.2   1 <1>   0.9790 
 19 C       -5.4380    -6.7050     0.6220 C.ar  1 <1>  -0.1500 
 20 O       -5.2380    -7.6310    -2.1220 O.co2 1 <1>  -0.9000 
 21 O       -4.6480    -5.6470    -2.7200 O.co2 1 <1>  -0.9000 
 22 H       -0.9340     0.3900    -0.0860 H     1 <1>   0.3700 
 23 H       -3.5200    -1.1480    -2.8780 H     1 <1>   0.0800 
 24 H       -1.1100    -1.2340     1.5410 H     1 <1>   0.0800 
 25 H       -2.1880    -2.9290    -3.0490 H     1 <1>   0.0800 
 26 H       -3.0700    -3.5990    -1.7200 H     1 <1>   0.0800 
 27 H       -5.2000    -1.8410    -1.5280 H     1 <1>   0.0800 
 28 H       -4.6670    -0.3620    -0.7830 H     1 <1>   0.0800 
 29 H       -1.8450    -3.6390     0.4350 H     1 <1>   0.0800 
 30 H       -0.2490    -2.9660     0.4030 H     1 <1>   0.0800 
 31 H       -3.5000    -0.5910     1.5970 H     1 <1>   0.0800 
 32 H       -3.1510    -2.2090     2.1310 H     1 <1>   0.0800 
 33 H       -3.8610    -3.0670     0.0270 H     1 <1>   0.4500 
 34 H       -5.5070    -2.1110     1.9870 H     1 <1>   0.0800 
 35 H       -6.3210    -2.0190     0.4270 H     1 <1>   0.0800 
 36 H       -5.4520    -3.9430    -1.2440 H     1 <1>   0.1500 
 37 H       -5.7390    -4.3430     3.0090 H     1 <1>   0.1500 
 38 H       -5.6740    -6.7800     2.7380 H     1 <1>   0.1500 
 39 H       -5.3810    -7.7760     0.5050 H     1 <1>   0.1500 
@<TRIPOS>BOND
  1   1   2  2   
  2   2   3  am  
  3   2   4  1   
  4   3   5  1   
  5   3  22  1   
  6   4   6  1   
  7   4   7  1   
  8   4  23  1   
  9   5   8  1   
 10   5   9  1   
 11   5  24  1   
 12   6  10  1   
 13   6  25  1   
 14   6  26  1   
 15   7  11  1   
 16   7  27  1   
 17   7  28  1   
 18   8  10  1   
 19   8  29  1   
 20   8  30  1   
 21   9  11  1   
 22   9  31  1   
 23   9  32  1   
 24  11  12  1   
 25  11  33  1   
 26  12  13  1   
 27  12  34  1   
 28  12  35  1   
 29  13  14  ar  
 30  13  15  ar  
 31  14  16  ar  
 32  14  36  1   
 33  15  17  ar  
 34  15  37  1   
 35  16  18  1   
 36  16  19  ar  
 37  17  19  ar  
 38  17  38  1   
 39  18  20  ar  
 40  18  21  ar  
 41  19  39  1   
@<TRIPOS>SUBSTRUCTURE
  1 ****  11 GROUP 4 **** **** 0

# MOE 2024.06 (io_trps.svl 2023.06)
