@<TRIPOS>MOLECULE
NONAME
45 46 1 0 0 
SMALL
USER_CHARGES


@<TRIPOS>ATOM
  1 S        0.0150     0.0980    -0.7940 S.o2  1 <1>   1.3330 
  2 O       -1.0100    -0.8940    -0.5610 O.2   1 <1>  -0.6500 
  3 O        0.8160     0.0310    -1.9960 O.2   1 <1>  -0.6500 
  4 N        1.0670     0.0620     0.5380 N.am  1 <1>  -0.8490 
  5 C       -0.7210     1.7330    -0.7200 C.3   1 <1>  -0.0550 
  6 C        2.1840    -0.8670     0.3420 C.3   1 <1>   0.1160 
  7 C        0.3950    -0.2300     1.8090 C.3   1 <1>   0.1160 
  8 C        0.2760     2.8920    -0.9410 C.3   1 <1>  -0.0800 
  9 C       -0.3860     4.2610    -1.1220 C.3   1 <1>   0.2000 
 10 C        1.2750     3.1030     0.2070 C.3   1 <1>   0.1400 
 11 O       -1.3780     4.4140    -0.1650 O.3   1 <1>  -0.6800 
 12 C        0.7340     5.2480    -0.8030 C.3   1 <1>   0.1400 
 13 N        1.5090     4.5680     0.2630 N.am  1 <1>  -0.6600 
 14 C        2.1540     5.1830     1.3110 C.2   1 <1>   0.5440 
 15 O        2.4690     4.5080     2.2710 O.2   1 <1>  -0.5700 
 16 C        2.4150     6.6050     1.3280 C.ar  1 <1>   0.0860 
 17 C        3.1700     7.2450     0.3420 C.ar  1 <1>   0.1900 
 18 C        1.9080     7.3940     2.3630 C.ar  1 <1>  -0.1500 
 19 F        3.6430     6.5090    -0.6320 F     1 <1>  -0.1900 
 20 C        3.4230     8.6180     0.3480 C.ar  1 <1>   0.0820 
 21 C        2.1270     8.7600     2.4000 C.ar  1 <1>  -0.1500 
 22 O        4.1520     9.2850    -0.5950 O.3   1 <1>  -0.3630 
 23 C        2.8730     9.3480     1.3950 C.ar  1 <1>   0.1900 
 24 C        5.3310     8.7180    -1.1280 C.3   1 <1>   0.0400 
 25 F        3.0620    10.6410     1.4550 F     1 <1>  -0.1900 
 26 H       -1.4730     1.7930    -1.4830 H     1 <1>   0.0800 
 27 H       -1.2180     1.8570     0.2220 H     1 <1>   0.0800 
 28 H        2.8400    -0.8480     1.1950 H     1 <1>   0.0800 
 29 H        2.7550    -0.5790    -0.5260 H     1 <1>   0.0800 
 30 H        1.8160    -1.8690     0.1970 H     1 <1>   0.0800 
 31 H        1.0930    -0.1450     2.6240 H     1 <1>   0.0800 
 32 H       -0.0130    -1.2280     1.7990 H     1 <1>   0.0800 
 33 H       -0.4060     0.4680     1.9760 H     1 <1>   0.0800 
 34 H        0.8460     2.6890    -1.8310 H     1 <1>   0.0800 
 35 H       -0.8200     4.4060    -2.0970 H     1 <1>   0.0800 
 36 H        2.1990     2.5800     0.0270 H     1 <1>   0.0800 
 37 H        0.8630     2.7760     1.1470 H     1 <1>   0.0800 
 38 H       -0.9530     4.4470     0.7170 H     1 <1>   0.4000 
 39 H        0.3470     6.2010    -0.4870 H     1 <1>   0.0800 
 40 H        1.3640     5.3790    -1.6660 H     1 <1>   0.0800 
 41 H        1.3380     6.9210     3.1460 H     1 <1>   0.1500 
 42 H        1.7310     9.3660     3.1960 H     1 <1>   0.1500 
 43 H        5.9290     9.5150    -1.5340 H     1 <1>   0.0800 
 44 H        5.0690     8.0300    -1.9110 H     1 <1>   0.0800 
 45 H        5.8720     8.2190    -0.3430 H     1 <1>   0.0800 
@<TRIPOS>BOND
  1   1   2  2   
  2   1   3  2   
  3   1   4  am  
  4   1   5  1   
  5   4   6  1   
  6   4   7  1   
  7   5   8  1   
  8   5  26  1   
  9   5  27  1   
 10   6  28  1   
 11   6  29  1   
 12   6  30  1   
 13   7  31  1   
 14   7  32  1   
 15   7  33  1   
 16   8   9  1   
 17   8  10  1   
 18   8  34  1   
 19   9  11  1   
 20   9  12  1   
 21   9  35  1   
 22  10  13  1   
 23  10  36  1   
 24  10  37  1   
 25  11  38  1   
 26  12  13  1   
 27  12  39  1   
 28  12  40  1   
 29  13  14  am  
 30  14  15  2   
 31  14  16  1   
 32  16  17  ar  
 33  16  18  ar  
 34  17  19  1   
 35  17  20  ar  
 36  18  21  ar  
 37  18  41  1   
 38  20  22  1   
 39  20  23  ar  
 40  21  23  ar  
 41  21  42  1   
 42  22  24  1   
 43  23  25  1   
 44  24  43  1   
 45  24  44  1   
 46  24  45  1   
@<TRIPOS>SUBSTRUCTURE
  1 ****  13 GROUP 4 **** **** 0

# MOE 2024.06 (io_trps.svl 2023.06)
