@<TRIPOS>MOLECULE
NONAME
50 52 1 0 0 
SMALL
USER_CHARGES


@<TRIPOS>ATOM
  1 S       -1.0810     0.3240     0.2700 S.3   1 <1>  -0.0800 
  2 C       -1.8420    -1.1120     0.9270 C.2   1 <1>  -0.1100 
  3 C       -1.4310    -0.1880    -1.3690 C.2   1 <1>  -0.1100 
  4 C       -2.3280    -1.8920    -0.0590 C.2   1 <1>  -0.1810 
  5 C       -2.0830    -1.3650    -1.3720 C.2   1 <1>  -0.1500 
  6 C       -3.0580    -3.2030     0.1480 C.3   1 <1>   0.5240 
  7 N       -4.4790    -2.8950     0.4560 N.4   1 <1>  -0.9590 
  8 C       -5.1280    -4.0680     1.1470 C.3   1 <1>   0.3430 
  9 C       -5.1920    -2.4100    -0.7720 C.3   1 <1>   0.3430 
 10 C       -6.6190    -3.8820     1.5030 C.3   1 <1>   0.1400 
 11 C       -6.3800    -1.5300    -0.3780 C.3   1 <1>  -0.1600 
 12 N       -7.4290    -3.7110     0.2660 N.am  1 <1>  -0.6600 
 13 C       -7.6820    -2.3070    -0.1580 C.3   1 <1>   0.1400 
 14 C       -7.6680    -4.7400    -0.6070 C.2   1 <1>   0.5690 
 15 O       -7.6080    -4.5600    -1.7980 O.2   1 <1>  -0.5700 
 16 C       -7.9480    -6.1410    -0.0900 C.3   1 <1>  -0.0990 
 17 C       -8.8980    -6.9270    -1.0040 C.3   1 <1>   0.0210 
 18 C       -9.1830    -8.2950    -0.4090 C.2   1 <1>  -0.1810 
 19 C       -8.6040    -9.4780    -0.6690 C.2   1 <1>  -0.0400 
 20 C      -10.1330    -8.6140     0.5640 C.2   1 <1>   0.1080 
 21 O       -9.1660   -10.3780     0.0920 O.3   1 <1>  -0.0190 
 22 C       -7.5010    -9.9010    -1.6170 C.3   1 <1>  -0.0600 
 23 N      -10.0940    -9.8660     0.8450 N.2   1 <1>  -0.4100 
 24 C      -11.1010    -7.6490     1.2150 C.3   1 <1>  -0.0590 
 25 H       -1.8360    -1.2050     2.0000 H     1 <1>   0.1500 
 26 H       -1.1000     0.4560    -2.1670 H     1 <1>   0.1500 
 27 H       -2.3930    -1.8810    -2.2660 H     1 <1>   0.1500 
 28 H       -2.6060    -3.7200     0.9790 H     1 <1>   0.0800 
 29 H       -2.9780    -3.8250    -0.7290 H     1 <1>   0.0800 
 30 H       -4.4470    -2.0970     1.1010 H     1 <1>   0.4500 
 31 H       -4.5910    -4.2770     2.0590 H     1 <1>   0.0800 
 32 H       -5.0450    -4.9400     0.5190 H     1 <1>   0.0800 
 33 H       -5.5220    -3.2370    -1.3830 H     1 <1>   0.0800 
 34 H       -4.5210    -1.8080    -1.3610 H     1 <1>   0.0800 
 35 H       -6.7440    -3.0300     2.1500 H     1 <1>   0.0800 
 36 H       -6.9630    -4.7470     2.0430 H     1 <1>   0.0800 
 37 H       -6.5610    -0.8350    -1.1790 H     1 <1>   0.0800 
 38 H       -6.1450    -0.9390     0.4880 H     1 <1>   0.0800 
 39 H       -8.2470    -2.3110    -1.0770 H     1 <1>   0.0800 
 40 H       -8.2890    -1.8100     0.5810 H     1 <1>   0.0800 
 41 H       -8.3940    -6.0760     0.8850 H     1 <1>   0.0800 
 42 H       -7.0210    -6.6750    -0.0060 H     1 <1>   0.0800 
 43 H       -8.4530    -7.0460    -1.9770 H     1 <1>   0.0800 
 44 H       -9.8200    -6.3880    -1.1350 H     1 <1>   0.0800 
 45 H       -7.1270    -9.0570    -2.1660 H     1 <1>   0.0800 
 46 H       -7.8820   -10.6270    -2.3120 H     1 <1>   0.0800 
 47 H       -6.6940   -10.3430    -1.0610 H     1 <1>   0.0800 
 48 H      -11.6470    -7.1120     0.4620 H     1 <1>   0.0800 
 49 H      -10.5670    -6.9540     1.8350 H     1 <1>   0.0800 
 50 H      -11.8000    -8.1910     1.8260 H     1 <1>   0.0800 
@<TRIPOS>BOND
  1   1   2  1   
  2   1   3  1   
  3   2   4  2   
  4   2  25  1   
  5   3   5  2   
  6   3  26  1   
  7   4   5  1   
  8   4   6  1   
  9   5  27  1   
 10   6   7  1   
 11   6  28  1   
 12   6  29  1   
 13   7   8  1   
 14   7   9  1   
 15   7  30  1   
 16   8  10  1   
 17   8  31  1   
 18   8  32  1   
 19   9  11  1   
 20   9  33  1   
 21   9  34  1   
 22  10  12  1   
 23  10  35  1   
 24  10  36  1   
 25  11  13  1   
 26  11  37  1   
 27  11  38  1   
 28  12  13  1   
 29  12  14  am  
 30  13  39  1   
 31  13  40  1   
 32  14  15  2   
 33  14  16  1   
 34  16  17  1   
 35  16  41  1   
 36  16  42  1   
 37  17  18  1   
 38  17  43  1   
 39  17  44  1   
 40  18  19  2   
 41  18  20  1   
 42  19  21  1   
 43  19  22  1   
 44  20  23  2   
 45  20  24  1   
 46  21  23  1   
 47  22  45  1   
 48  22  46  1   
 49  22  47  1   
 50  24  48  1   
 51  24  49  1   
 52  24  50  1   
@<TRIPOS>SUBSTRUCTURE
  1 ****  14 GROUP 4 **** **** 0

# MOE 2024.06 (io_trps.svl 2023.06)
