@<TRIPOS>MOLECULE
NONAME
39 41 1 0 0 
SMALL
USER_CHARGES


@<TRIPOS>ATOM
  1 O        0.4370     0.6320     1.2550 O.3   1 <1>  -0.0190 
  2 N        1.2760    -0.3580     1.1580 N.2   1 <1>  -0.4100 
  3 C        0.7200     1.5960     0.4210 C.2   1 <1>  -0.0400 
  4 C        2.1120    -0.0300     0.2410 C.2   1 <1>   0.1080 
  5 C        1.8070     1.2260    -0.2770 C.2   1 <1>  -0.1500 
  6 C       -0.1600     2.8350     0.4040 C.3   1 <1>   0.0200 
  7 C        3.2650    -0.8980    -0.2080 C.3   1 <1>  -0.0590 
  8 C        0.5010     4.0200    -0.3230 C.3   1 <1>  -0.0800 
  9 C       -0.3810     5.2620    -0.4730 C.3   1 <1>   0.2000 
 10 C        1.7460     4.5410     0.3940 C.3   1 <1>   0.2090 
 11 O       -1.0830     5.4590     0.7240 O.3   1 <1>  -0.5600 
 12 C        0.6330     6.3970    -0.6970 C.3   1 <1>   0.2090 
 13 N        1.9130     5.9330    -0.0940 N.pl3 1 <1>  -0.8380 
 14 C       -2.1940     6.2940     0.6340 C.3   1 <1>   0.0400 
 15 C        2.9780     6.7590     0.1550 C.2   1 <1>   0.2000 
 16 N        3.9570     6.2960     0.9710 N.pl3 1 <1>  -0.5500 
 17 C        3.1530     8.0140    -0.3410 C.2   1 <1>  -0.1360 
 18 C        5.0550     7.0480     1.2750 C.2   1 <1>   0.4400 
 19 C        4.2980     8.7520    -0.0020 C.2   1 <1>   0.7670 
 20 N        5.2570     8.2290     0.8280 N.2   1 <1>  -0.6610 
 21 O        4.4690     9.8840    -0.4420 O.2   1 <1>  -0.5700 
 22 H        2.3430     1.7340    -1.0560 H     1 <1>   0.1500 
 23 H       -1.0920     2.5890    -0.0730 H     1 <1>   0.0800 
 24 H       -0.3790     3.1110     1.4210 H     1 <1>   0.0800 
 25 H        4.1890    -0.3580    -0.1150 H     1 <1>   0.0800 
 26 H        3.1240    -1.1890    -1.2320 H     1 <1>   0.0800 
 27 H        3.3160    -1.7830     0.4010 H     1 <1>   0.0800 
 28 H        0.7940     3.7070    -1.3090 H     1 <1>   0.0800 
 29 H       -1.0820     5.1640    -1.2840 H     1 <1>   0.0800 
 30 H        2.6120     3.9450     0.1650 H     1 <1>   0.0800 
 31 H        1.5810     4.5610     1.4590 H     1 <1>   0.0800 
 32 H        0.3050     7.3170    -0.2460 H     1 <1>   0.0800 
 33 H        0.7840     6.5450    -1.7520 H     1 <1>   0.0800 
 34 H       -2.6400     6.3610     1.6110 H     1 <1>   0.0800 
 35 H       -2.9030     5.8710    -0.0560 H     1 <1>   0.0800 
 36 H       -1.8880     7.2740     0.3110 H     1 <1>   0.0800 
 37 H        3.8390     5.3750     1.3810 H     1 <1>   0.4000 
 38 H        2.4470     8.4780    -0.9950 H     1 <1>   0.1500 
 39 H        5.7780     6.5990     1.9340 H     1 <1>   0.0600 
@<TRIPOS>BOND
  1   1   2  1   
  2   1   3  1   
  3   2   4  2   
  4   3   5  2   
  5   3   6  1   
  6   4   5  1   
  7   4   7  1   
  8   5  22  1   
  9   6   8  1   
 10   6  23  1   
 11   6  24  1   
 12   7  25  1   
 13   7  26  1   
 14   7  27  1   
 15   8   9  1   
 16   8  10  1   
 17   8  28  1   
 18   9  11  1   
 19   9  12  1   
 20   9  29  1   
 21  10  13  1   
 22  10  30  1   
 23  10  31  1   
 24  11  14  1   
 25  12  13  1   
 26  12  32  1   
 27  12  33  1   
 28  13  15  1   
 29  14  34  1   
 30  14  35  1   
 31  14  36  1   
 32  15  16  1   
 33  15  17  2   
 34  16  18  1   
 35  16  37  1   
 36  17  19  1   
 37  17  38  1   
 38  18  20  2   
 39  18  39  1   
 40  19  20  1   
 41  19  21  2   
@<TRIPOS>SUBSTRUCTURE
  1 ****  10 GROUP 4 **** **** 0

# MOE 2024.06 (io_trps.svl 2023.06)
