@<TRIPOS>MOLECULE
NONAME
54 55 1 0 0 
SMALL
USER_CHARGES


@<TRIPOS>ATOM
  1 O       -0.9500     0.2020     2.0730 O.2   1 <1>  -0.5700 
  2 C       -1.1920     0.5310     0.9340 C.2   1 <1>   0.5690 
  3 N       -1.3860    -0.4160    -0.0470 N.am  1 <1>  -0.6600 
  4 C       -1.3030     2.0460     0.6990 C.3   1 <1>  -0.0190 
  5 C       -1.5310    -1.8520     0.3460 C.3   1 <1>   0.2840 
  6 C       -1.6330    -0.1600    -1.4970 C.3   1 <1>   0.1400 
  7 C       -2.7420     2.4980     0.3660 C.3   1 <1>  -0.1600 
  8 C       -0.2300     2.6280    -0.2550 C.3   1 <1>  -0.1600 
  9 C       -3.0060    -2.2350     0.3670 C.ar  1 <1>  -0.1440 
 10 C       -0.4630    -0.6670    -2.3390 C.3   1 <1>  -0.2400 
 11 C       -2.8850     4.0340     0.3310 C.3   1 <1>   0.2000 
 12 C       -0.6890     3.9070    -0.9780 C.3   1 <1>  -0.1600 
 13 C       -3.5820    -2.9860    -0.6540 C.ar  1 <1>   0.0820 
 14 C       -3.7820    -1.8210     1.4390 C.ar  1 <1>  -0.1500 
 15 O       -3.8930     4.3590    -0.5970 O.3   1 <1>  -0.5600 
 16 C       -1.5710     4.7610    -0.0650 C.3   1 <1>   0.2000 
 17 O       -2.7690    -3.3720    -1.6780 O.3   1 <1>  -0.3630 
 18 C       -4.9500    -3.2990    -0.6090 C.ar  1 <1>   0.0820 
 19 C       -5.1240    -2.1440     1.4990 C.ar  1 <1>  -0.1500 
 20 C       -5.1990     4.2010    -0.1360 C.3   1 <1>   0.0400 
 21 O       -1.8810     5.9240    -0.7400 O.3   1 <1>  -0.6800 
 22 C       -2.7630    -4.7270    -2.0720 C.3   1 <1>   0.0400 
 23 O       -5.5120    -3.9930    -1.6430 O.3   1 <1>  -0.3630 
 24 C       -5.7060    -2.8780     0.4820 C.ar  1 <1>  -0.1500 
 25 C       -6.9070    -4.1720    -1.7500 C.3   1 <1>   0.0400 
 26 H       -1.0960     2.4910     1.6580 H     1 <1>   0.0800 
 27 H       -0.9780    -2.4760    -0.3290 H     1 <1>   0.0800 
 28 H       -1.1140    -2.0210     1.3230 H     1 <1>   0.0800 
 29 H       -2.5430    -0.6490    -1.8020 H     1 <1>   0.0800 
 30 H       -1.7550     0.8870    -1.6880 H     1 <1>   0.0800 
 31 H       -3.4110     2.1000     1.1080 H     1 <1>   0.0800 
 32 H       -3.0390     2.1020    -0.5870 H     1 <1>   0.0800 
 33 H        0.6470     2.8500     0.3290 H     1 <1>   0.0800 
 34 H        0.0730     1.9080    -0.9910 H     1 <1>   0.0800 
 35 H       -0.4210    -1.7400    -2.3290 H     1 <1>   0.0800 
 36 H        0.4660    -0.2670    -1.9760 H     1 <1>   0.0800 
 37 H       -0.5960    -0.3540    -3.3590 H     1 <1>   0.0800 
 38 H       -3.1790     4.3990     1.3010 H     1 <1>   0.0800 
 39 H       -1.2540     3.6380    -1.8530 H     1 <1>   0.0800 
 40 H        0.1720     4.4730    -1.2890 H     1 <1>   0.0800 
 41 H       -3.3340    -1.2420     2.2300 H     1 <1>   0.1500 
 42 H       -1.0140     5.0300     0.8160 H     1 <1>   0.0800 
 43 H       -5.7140    -1.8210     2.3390 H     1 <1>   0.1500 
 44 H       -5.8690     4.4960    -0.9240 H     1 <1>   0.0800 
 45 H       -5.3520     4.8320     0.7230 H     1 <1>   0.0800 
 46 H       -5.3720     3.1690     0.1150 H     1 <1>   0.0800 
 47 H       -2.7590     5.7610    -1.1560 H     1 <1>   0.4000 
 48 H       -1.8070    -4.9440    -2.5120 H     1 <1>   0.0800 
 49 H       -3.5390    -4.8810    -2.8000 H     1 <1>   0.0800 
 50 H       -2.9240    -5.3480    -1.2090 H     1 <1>   0.0800 
 51 H       -6.7510    -3.1070     0.5620 H     1 <1>   0.1500 
 52 H       -7.1070    -4.6760    -2.6790 H     1 <1>   0.0800 
 53 H       -7.3840    -3.2080    -1.7470 H     1 <1>   0.0800 
 54 H       -7.2460    -4.7760    -0.9280 H     1 <1>   0.0800 
@<TRIPOS>BOND
  1   1   2  2   
  2   2   3  am  
  3   2   4  1   
  4   3   5  1   
  5   3   6  1   
  6   4   7  1   
  7   4   8  1   
  8   4  26  1   
  9   5   9  1   
 10   5  27  1   
 11   5  28  1   
 12   6  10  1   
 13   6  29  1   
 14   6  30  1   
 15   7  11  1   
 16   7  31  1   
 17   7  32  1   
 18   8  12  1   
 19   8  33  1   
 20   8  34  1   
 21   9  13  ar  
 22   9  14  ar  
 23  10  35  1   
 24  10  36  1   
 25  10  37  1   
 26  11  15  1   
 27  11  16  1   
 28  11  38  1   
 29  12  16  1   
 30  12  39  1   
 31  12  40  1   
 32  13  17  1   
 33  13  18  ar  
 34  14  19  ar  
 35  14  41  1   
 36  15  20  1   
 37  16  21  1   
 38  16  42  1   
 39  17  22  1   
 40  18  23  1   
 41  18  24  ar  
 42  19  24  ar  
 43  19  43  1   
 44  20  44  1   
 45  20  45  1   
 46  20  46  1   
 47  21  47  1   
 48  22  48  1   
 49  22  49  1   
 50  22  50  1   
 51  23  25  1   
 52  24  51  1   
 53  25  52  1   
 54  25  53  1   
 55  25  54  1   
@<TRIPOS>SUBSTRUCTURE
  1 ****   3 GROUP 4 **** **** 0

# MOE 2024.06 (io_trps.svl 2023.06)
