@<TRIPOS>MOLECULE
NONAME
44 46 1 0 0 
SMALL
USER_CHARGES


@<TRIPOS>ATOM
  1 O       -3.3200     1.0080    -2.8380 O.2   1 <1>  -0.5700 
  2 C       -2.6450     1.1390    -1.8310 C.2   1 <1>   0.7160 
  3 N       -2.2860    -0.0150    -1.1470 N.am  1 <1>  -0.6600 
  4 C       -2.2760     2.4960    -1.4190 C.2   1 <1>   0.2030 
  5 C       -2.4010    -1.3340    -1.8320 C.3   1 <1>   0.3200 
  6 C       -1.5140    -0.0270     0.1410 C.3   1 <1>   0.1400 
  7 N       -1.2280     2.8630    -0.6860 N.2   1 <1>  -0.7070 
  8 C       -3.0250     3.6130    -1.7890 C.2   1 <1>  -0.1500 
  9 C       -3.6950    -2.0290    -1.4590 C.2   1 <1>  -0.3320 
 10 C       -2.3010     0.5540     1.3290 C.3   1 <1>   0.1200 
 11 N       -1.3100     4.2050    -0.5940 N.pl3 1 <1>   0.6010 
 12 C       -2.4090     4.6920    -1.2570 C.2   1 <1>  -0.0260 
 13 N       -4.0990    -2.2860    -0.2020 N.pl3 1 <1>   0.0330 
 14 C       -4.6610    -2.5190    -2.2670 C.2   1 <1>   0.0770 
 15 O       -3.5530    -0.0340     1.4100 O.3   1 <1>  -0.6800 
 16 C       -0.4640     5.0920     0.0630 C.2   1 <1>  -0.1690 
 17 N       -2.7360     6.0300    -1.3120 N.2   1 <1>  -0.5760 
 18 C       -5.2850    -2.9170    -0.3270 C.2   1 <1>   0.0070 
 19 N       -5.6530    -3.0830    -1.5530 N.2   1 <1>  -0.5650 
 20 C       -0.7840     6.4120     0.0080 C.2   1 <1>  -0.1360 
 21 C        0.7530     4.5370     0.7910 C.3   1 <1>  -0.1020 
 22 C       -1.9440     6.8440    -0.7000 C.2   1 <1>   0.3750 
 23 C       -6.0970    -3.3660     0.8680 C.3   1 <1>  -0.0600 
 24 C       -2.2530     8.3240    -0.7290 C.3   1 <1>  -0.1790 
 25 H       -1.5670    -1.9600    -1.5670 H     1 <1>   0.0800 
 26 H       -2.3670    -1.2010    -2.9010 H     1 <1>   0.0800 
 27 H       -0.5960     0.5200     0.0150 H     1 <1>   0.0800 
 28 H       -1.2390    -1.0360     0.3910 H     1 <1>   0.0800 
 29 H       -3.9190     3.6060    -2.3870 H     1 <1>   0.1500 
 30 H       -2.4350     1.6170     1.2300 H     1 <1>   0.0800 
 31 H       -1.7800     0.3620     2.2510 H     1 <1>   0.0800 
 32 H       -3.6500    -1.9840     0.6720 H     1 <1>   0.2700 
 33 H       -4.6960    -2.4950    -3.3440 H     1 <1>   0.1500 
 34 H       -4.0440     0.1550     0.5790 H     1 <1>   0.4000 
 35 H       -0.1830     7.1630     0.4870 H     1 <1>   0.1500 
 36 H        0.4420     3.8500     1.5580 H     1 <1>   0.0800 
 37 H        1.3210     5.3280     1.2470 H     1 <1>   0.0800 
 38 H        1.3880     4.0130     0.0980 H     1 <1>   0.0800 
 39 H       -5.5420    -4.0830     1.4430 H     1 <1>   0.0800 
 40 H       -7.0120    -3.8220     0.5340 H     1 <1>   0.0800 
 41 H       -6.3390    -2.5210     1.4860 H     1 <1>   0.0800 
 42 H       -1.4420     8.8580    -1.1880 H     1 <1>   0.0800 
 43 H       -2.4000     8.6870     0.2710 H     1 <1>   0.0800 
 44 H       -3.1490     8.5040    -1.2960 H     1 <1>   0.0800 
@<TRIPOS>BOND
  1   1   2  2   
  2   2   3  am  
  3   2   4  1   
  4   3   5  1   
  5   3   6  1   
  6   4   7  2   
  7   4   8  1   
  8   5   9  1   
  9   5  25  1   
 10   5  26  1   
 11   6  10  1   
 12   6  27  1   
 13   6  28  1   
 14   7  11  1   
 15   8  12  2   
 16   8  29  1   
 17   9  13  1   
 18   9  14  2   
 19  10  15  1   
 20  10  30  1   
 21  10  31  1   
 22  11  12  1   
 23  11  16  1   
 24  12  17  1   
 25  13  18  1   
 26  13  32  1   
 27  14  19  1   
 28  14  33  1   
 29  15  34  1   
 30  16  20  2   
 31  16  21  1   
 32  17  22  2   
 33  18  19  2   
 34  18  23  1   
 35  20  22  1   
 36  20  35  1   
 37  21  36  1   
 38  21  37  1   
 39  21  38  1   
 40  22  24  1   
 41  23  39  1   
 42  23  40  1   
 43  23  41  1   
 44  24  42  1   
 45  24  43  1   
 46  24  44  1   
@<TRIPOS>SUBSTRUCTURE
  1 ****   4 GROUP 4 **** **** 0

# MOE 2024.06 (io_trps.svl 2023.06)
