@<TRIPOS>MOLECULE
NONAME
39 41 1 0 0 
SMALL
USER_CHARGES


@<TRIPOS>ATOM
  1 O       -0.7410     0.6090     1.2750 O.2   1 <1>  -0.5700 
  2 C       -1.6560     1.1200     0.6470 C.2   1 <1>   0.7160 
  3 N       -2.7420     0.3100     0.3640 N.am  1 <1>  -0.6600 
  4 C       -1.5490     2.5220     0.2430 C.2   1 <1>   0.1410 
  5 C       -3.9870     0.7150    -0.3370 C.3   1 <1>   0.1400 
  6 C       -2.7500    -1.1490     0.6300 C.3   1 <1>   0.1400 
  7 N       -2.4050     3.1920    -0.5900 N.2   1 <1>  -0.5650 
  8 C       -0.5670     3.3930     0.6230 C.2   1 <1>  -0.3020 
  9 C       -4.9290    -0.4750    -0.1630 C.3   1 <1>   0.2000 
 10 C       -3.9850    -1.6800    -0.1070 C.3   1 <1>  -0.0800 
 11 C       -1.9270     4.3880    -0.6730 C.2   1 <1>   0.0360 
 12 N       -0.8030     4.5760     0.0470 N.pl3 1 <1>   0.0480 
 13 O       -5.5780    -0.3390     1.0560 O.3   1 <1>  -0.6800 
 14 C       -4.5870    -2.9500     0.5230 C.3   1 <1>   0.0200 
 15 C       -0.0070     5.8080     0.1680 C.3   1 <1>   0.0160 
 16 C       -3.6680    -4.1560     0.4280 C.2   1 <1>  -0.0400 
 17 O       -4.0080    -5.2530     1.0510 O.3   1 <1>  -0.0190 
 18 C       -2.5000    -4.3880    -0.1950 C.2   1 <1>  -0.1500 
 19 N       -3.1320    -6.2010     0.8840 N.2   1 <1>  -0.4100 
 20 C       -2.2120    -5.7080     0.1370 C.2   1 <1>   0.1080 
 21 C       -0.9850    -6.4680    -0.3140 C.3   1 <1>  -0.0590 
 22 H       -4.4050     1.6170     0.0760 H     1 <1>   0.0800 
 23 H       -3.7670     0.8660    -1.3800 H     1 <1>   0.0800 
 24 H       -1.8420    -1.6040     0.2730 H     1 <1>   0.0800 
 25 H       -2.8320    -1.3100     1.6920 H     1 <1>   0.0800 
 26 H        0.2680     3.1970     1.2710 H     1 <1>   0.1500 
 27 H       -5.6710    -0.5450    -0.9400 H     1 <1>   0.0800 
 28 H       -3.6920    -1.9060    -1.1170 H     1 <1>   0.0800 
 29 H       -2.3670     5.1780    -1.2570 H     1 <1>   0.1500 
 30 H       -4.9260    -0.0510     1.7270 H     1 <1>   0.4000 
 31 H       -5.5130    -3.1880     0.0300 H     1 <1>   0.0800 
 32 H       -4.8100    -2.7750     1.5610 H     1 <1>   0.0800 
 33 H        0.7680     5.6640     0.9000 H     1 <1>   0.0800 
 34 H       -0.6450     6.6160     0.4770 H     1 <1>   0.0800 
 35 H        0.4370     6.0390    -0.7830 H     1 <1>   0.0800 
 36 H       -1.8980    -3.7470    -0.8100 H     1 <1>   0.1500 
 37 H       -0.9550    -6.5120    -1.3870 H     1 <1>   0.0800 
 38 H       -1.0120    -7.4710     0.0740 H     1 <1>   0.0800 
 39 H       -0.0990    -5.9790     0.0480 H     1 <1>   0.0800 
@<TRIPOS>BOND
  1   1   2  2   
  2   2   3  am  
  3   2   4  1   
  4   3   5  1   
  5   3   6  1   
  6   4   7  1   
  7   4   8  2   
  8   5   9  1   
  9   5  22  1   
 10   5  23  1   
 11   6  10  1   
 12   6  24  1   
 13   6  25  1   
 14   7  11  2   
 15   8  12  1   
 16   8  26  1   
 17   9  10  1   
 18   9  13  1   
 19   9  27  1   
 20  10  14  1   
 21  10  28  1   
 22  11  12  1   
 23  11  29  1   
 24  12  15  1   
 25  13  30  1   
 26  14  16  1   
 27  14  31  1   
 28  14  32  1   
 29  15  33  1   
 30  15  34  1   
 31  15  35  1   
 32  16  17  1   
 33  16  18  2   
 34  17  19  1   
 35  18  20  1   
 36  18  36  1   
 37  19  20  2   
 38  20  21  1   
 39  21  37  1   
 40  21  38  1   
 41  21  39  1   
@<TRIPOS>SUBSTRUCTURE
  1 ****   6 GROUP 4 **** **** 0

# MOE 2024.06 (io_trps.svl 2023.06)
