@<TRIPOS>MOLECULE
NONAME
39 41 1 0 0 
SMALL
USER_CHARGES


@<TRIPOS>ATOM
  1 O        0.4050    -0.4400     0.5610 O.3   1 <1>  -0.1800 
  2 N        0.9330    -0.2350    -0.7020 N.3   1 <1>  -0.6400 
  3 C       -0.0260    -1.7550     0.7160 C.3   1 <1>   0.1200 
  4 C        0.7600    -1.4880    -1.4520 C.3   1 <1>   0.1100 
  5 C        2.3370     0.1700    -0.5800 C.3   1 <1>   0.2900 
  6 C       -0.3290    -2.2190    -0.6950 C.3   1 <1>   0.2000 
  7 C        2.4600     1.5830    -0.0340 C.2   1 <1>  -0.3320 
  8 O       -1.5530    -1.6960    -1.0790 O.3   1 <1>  -0.6800 
  9 N        3.6320     2.1940     0.2470 N.pl3 1 <1>   0.0480 
 10 C        1.4870     2.4740     0.2650 C.2   1 <1>   0.0770 
 11 C        3.2760     3.4200     0.7000 C.2   1 <1>   0.0360 
 12 C        5.0110     1.6600     0.1070 C.3   1 <1>   0.1760 
 13 N        2.0020     3.6300     0.7250 N.2   1 <1>  -0.5650 
 14 C        5.6890     1.5510     1.4820 C.3   1 <1>  -0.1600 
 15 C        5.8370     2.5300    -0.8550 C.3   1 <1>  -0.1600 
 16 C        7.1240     1.0190     1.3500 C.3   1 <1>  -0.1600 
 17 C        7.2710     1.9970    -0.9880 C.3   1 <1>  -0.1600 
 18 C        7.9490     1.8810     0.3850 C.3   1 <1>  -0.1600 
 19 H       -0.8870    -1.7810     1.3590 H     1 <1>   0.0800 
 20 H        0.7830    -2.3170     1.1440 H     1 <1>   0.0800 
 21 H        1.6640    -2.0710    -1.4200 H     1 <1>   0.0800 
 22 H        0.4870    -1.2990    -2.4760 H     1 <1>   0.0800 
 23 H        2.7950     0.1390    -1.5540 H     1 <1>   0.0800 
 24 H        2.8510    -0.5180     0.0690 H     1 <1>   0.0800 
 25 H       -0.3370    -3.2860    -0.8280 H     1 <1>   0.0800 
 26 H       -1.4770    -0.7190    -1.0140 H     1 <1>   0.4000 
 27 H        0.4230     2.3300     0.1670 H     1 <1>   0.1500 
 28 H        4.0070     4.1450     1.0080 H     1 <1>   0.1500 
 29 H        4.9460     0.6730    -0.3120 H     1 <1>   0.0800 
 30 H        5.1200     0.8890     2.1120 H     1 <1>   0.0800 
 31 H        5.7200     2.5200     1.9500 H     1 <1>   0.0800 
 32 H        5.8760     3.5410    -0.4900 H     1 <1>   0.0800 
 33 H        5.3690     2.5390    -1.8250 H     1 <1>   0.0800 
 34 H        7.0990     0.0040     0.9890 H     1 <1>   0.0800 
 35 H        7.5960     1.0110     2.3180 H     1 <1>   0.0800 
 36 H        7.8440     2.6560    -1.6170 H     1 <1>   0.0800 
 37 H        7.2530     1.0280    -1.4590 H     1 <1>   0.0800 
 38 H        8.9290     1.4520     0.2670 H     1 <1>   0.0800 
 39 H        8.0720     2.8660     0.8050 H     1 <1>   0.0800 
@<TRIPOS>BOND
  1   1   2  1   
  2   1   3  1   
  3   2   4  1   
  4   2   5  1   
  5   3   6  1   
  6   3  19  1   
  7   3  20  1   
  8   4   6  1   
  9   4  21  1   
 10   4  22  1   
 11   5   7  1   
 12   5  23  1   
 13   5  24  1   
 14   6   8  1   
 15   6  25  1   
 16   7   9  1   
 17   7  10  2   
 18   8  26  1   
 19   9  11  1   
 20   9  12  1   
 21  10  13  1   
 22  10  27  1   
 23  11  13  2   
 24  11  28  1   
 25  12  14  1   
 26  12  15  1   
 27  12  29  1   
 28  14  16  1   
 29  14  30  1   
 30  14  31  1   
 31  15  17  1   
 32  15  32  1   
 33  15  33  1   
 34  16  18  1   
 35  16  34  1   
 36  16  35  1   
 37  17  18  1   
 38  17  36  1   
 39  17  37  1   
 40  18  38  1   
 41  18  39  1   
@<TRIPOS>SUBSTRUCTURE
  1 ****   7 GROUP 4 **** **** 0

# MOE 2024.06 (io_trps.svl 2023.06)
