@<TRIPOS>MOLECULE
NONAME
56 60 1 0 0 
SMALL
USER_CHARGES


@<TRIPOS>ATOM
  1 O       -1.0630    -0.8500     1.2110 O.2   1 <1>  -0.5700 
  2 C       -1.7200    -1.2410     0.2740 C.2   1 <1>   0.5690 
  3 N       -1.2630    -2.2110    -0.5650 N.am  1 <1>  -0.7300 
  4 C       -3.1000    -0.5890     0.0620 C.3   1 <1>   0.4040 
  5 C        0.0760    -2.8420    -0.4470 C.3   1 <1>   0.1400 
  6 N       -3.2220     0.7670     0.7280 N.4   1 <1>  -0.9590 
  7 C        0.0000    -4.1080     0.4180 C.3   1 <1>  -0.0800 
  8 C       -4.6410     1.1960     0.9110 C.3   1 <1>   0.2630 
  9 C       -2.4090     1.8050     0.0210 C.3   1 <1>   0.2630 
 10 C       -0.7490    -5.2440    -0.2980 C.3   1 <1>   0.2000 
 11 C        1.3600    -4.7960     0.6710 C.3   1 <1>  -0.0800 
 12 O        0.2790    -5.8160    -1.0130 O.3   1 <1>  -0.5600 
 13 C       -1.1080    -6.3800     0.6710 C.3   1 <1>  -0.1600 
 14 C        1.1420    -6.1560     0.0190 C.3   1 <1>   0.2800 
 15 C        2.6300    -4.2780    -0.0140 C.3   1 <1>   0.2090 
 16 C        0.2520    -7.0580     0.8730 C.3   1 <1>  -0.1600 
 17 C        2.5130    -6.6480    -0.4550 C.3   1 <1>   0.2090 
 18 N        3.4420    -5.4870    -0.2760 N.pl3 1 <1>  -0.8380 
 19 C        4.6380    -5.6170     0.3880 C.ar  1 <1>   0.4100 
 20 N        4.6640    -6.3950     1.4320 N.ar  1 <1>  -0.6200 
 21 C        5.7750    -4.8830    -0.0320 C.ar  1 <1>   0.0000 
 22 C        5.8170    -6.4430     2.1060 C.ar  1 <1>   0.4700 
 23 C        6.9150    -5.0080     0.7670 C.ar  1 <1>   0.3100 
 24 C        5.8390    -4.0590    -1.1750 C.ar  1 <1>  -0.1500 
 25 N        6.9170    -5.8070     1.8530 N.ar  1 <1>  -0.6200 
 26 C        8.0730    -4.2940     0.4270 C.ar  1 <1>  -0.1500 
 27 C        6.9820    -3.3720    -1.4930 C.ar  1 <1>  -0.1500 
 28 C        8.1120    -3.4870    -0.6810 C.ar  1 <1>  -0.1500 
 29 H       -1.8200    -2.5640    -1.3490 H     1 <1>   0.3700 
 30 H       -3.8360    -1.2550     0.4750 H     1 <1>   0.0800 
 31 H       -3.2860    -0.4950    -0.9940 H     1 <1>   0.0800 
 32 H        0.4390    -3.0830    -1.4320 H     1 <1>   0.0800 
 33 H        0.7600    -2.1410     0.0050 H     1 <1>   0.0800 
 34 H       -2.7750     0.6350     1.6570 H     1 <1>   0.4500 
 35 H       -0.4710    -3.8660     1.3540 H     1 <1>   0.0800 
 36 H       -5.1210     1.3250    -0.0450 H     1 <1>   0.0800 
 37 H       -4.6810     2.1320     1.4460 H     1 <1>   0.0800 
 38 H       -5.1860     0.4570     1.4770 H     1 <1>   0.0800 
 39 H       -2.7800     1.9590    -0.9800 H     1 <1>   0.0800 
 40 H       -1.3770     1.4950    -0.0340 H     1 <1>   0.0800 
 41 H       -2.4540     2.7410     0.5540 H     1 <1>   0.0800 
 42 H       -1.5520    -4.9390    -0.9450 H     1 <1>   0.0800 
 43 H        1.5600    -4.9130     1.7220 H     1 <1>   0.0800 
 44 H       -1.5270    -6.0090     1.5900 H     1 <1>   0.0800 
 45 H       -1.8060    -7.0550     0.2060 H     1 <1>   0.0800 
 46 H        3.1570    -3.5800     0.6150 H     1 <1>   0.0800 
 47 H        2.4190    -3.8190    -0.9630 H     1 <1>   0.0800 
 48 H        0.2500    -8.0590     0.4770 H     1 <1>   0.0800 
 49 H        0.5670    -7.0750     1.9010 H     1 <1>   0.0800 
 50 H        2.4710    -6.9400    -1.4890 H     1 <1>   0.0800 
 51 H        2.8320    -7.4850     0.1390 H     1 <1>   0.0800 
 52 H        5.8140    -7.0910     2.9660 H     1 <1>   0.1500 
 53 H        4.9680    -3.9840    -1.8010 H     1 <1>   0.1500 
 54 H        8.9320    -4.4020     1.0630 H     1 <1>   0.1500 
 55 H        7.0210    -2.7430    -2.3660 H     1 <1>   0.1500 
 56 H        9.0060    -2.9430    -0.9360 H     1 <1>   0.1500 
@<TRIPOS>BOND
  1   1   2  2   
  2   2   3  am  
  3   2   4  1   
  4   3   5  1   
  5   3  29  1   
  6   4   6  1   
  7   4  30  1   
  8   4  31  1   
  9   5   7  1   
 10   5  32  1   
 11   5  33  1   
 12   6   8  1   
 13   6   9  1   
 14   6  34  1   
 15   7  10  1   
 16   7  11  1   
 17   7  35  1   
 18   8  36  1   
 19   8  37  1   
 20   8  38  1   
 21   9  39  1   
 22   9  40  1   
 23   9  41  1   
 24  10  12  1   
 25  10  13  1   
 26  10  42  1   
 27  11  14  1   
 28  11  15  1   
 29  11  43  1   
 30  12  14  1   
 31  13  16  1   
 32  13  44  1   
 33  13  45  1   
 34  14  16  1   
 35  14  17  1   
 36  15  18  1   
 37  15  46  1   
 38  15  47  1   
 39  16  48  1   
 40  16  49  1   
 41  17  18  1   
 42  17  50  1   
 43  17  51  1   
 44  18  19  1   
 45  19  20  ar  
 46  19  21  ar  
 47  20  22  ar  
 48  21  23  ar  
 49  21  24  ar  
 50  22  25  ar  
 51  22  52  1   
 52  23  25  ar  
 53  23  26  ar  
 54  24  27  ar  
 55  24  53  1   
 56  26  28  ar  
 57  26  54  1   
 58  27  28  ar  
 59  27  55  1   
 60  28  56  1   
@<TRIPOS>SUBSTRUCTURE
  1 ****  15 GROUP 4 **** **** 0

# MOE 2024.06 (io_trps.svl 2023.06)
