@<TRIPOS>MOLECULE
NONAME
56 59 1 0 0 
SMALL
USER_CHARGES


@<TRIPOS>ATOM
  1 O       -1.0770     0.0850     2.3150 O.2   1 <1>  -0.5700 
  2 C       -2.0550     0.4130     1.6860 C.2   1 <1>   0.5410 
  3 C       -2.9080    -0.5440     1.0480 C.2   1 <1>  -0.1360 
  4 C       -2.4470     1.7810     1.5460 C.2   1 <1>  -0.1360 
  5 C       -4.0070    -0.2400     0.3220 C.2   1 <1>  -0.2760 
  6 C       -3.5210     2.1690     0.8340 C.2   1 <1>  -0.2880 
  7 C       -4.4710     1.2240     0.0760 C.3   1 <1>   0.2760 
  8 C       -4.8770    -1.3750    -0.2130 C.3   1 <1>   0.0580 
  9 C       -5.9620     1.3540     0.5450 C.3   1 <1>  -0.0800 
 10 C       -4.2790     1.6210    -1.3980 C.3   1 <1>  -0.2400 
 11 C       -6.3320    -1.1620     0.2100 C.3   1 <1>  -0.1600 
 12 C       -4.7150    -1.6310    -1.7170 C.3   1 <1>  -0.2400 
 13 C       -6.6140     2.7670     0.3900 C.3   1 <1>   0.2000 
 14 C       -6.8520     0.2490    -0.1180 C.3   1 <1>  -0.0800 
 15 O       -6.0190     3.6780     1.2390 O.3   1 <1>  -0.6800 
 16 C       -8.1150     2.8400     0.7300 C.3   1 <1>  -0.1600 
 17 C       -8.3110     0.4020     0.3490 C.3   1 <1>  -0.0800 
 18 C       -8.9340     1.7630    -0.0080 C.3   1 <1>   0.0000 
 19 C       -9.3530    -0.6280    -0.1030 C.3   1 <1>  -0.1600 
 20 C      -10.4160     1.5560     0.4400 C.3   1 <1>   0.3410 
 21 C       -8.8870     2.0700    -1.5350 C.3   1 <1>  -0.2400 
 22 C      -10.7090     0.1010     0.0010 C.3   1 <1>  -0.1600 
 23 O      -10.4710     1.5350     1.8380 O.3   1 <1>  -0.6800 
 24 C      -11.4290     2.5990    -0.1040 C.2   1 <1>   0.4480 
 25 O      -12.0280     2.4480    -1.1300 O.2   1 <1>  -0.5700 
 26 C      -11.6590     3.8650     0.7030 C.3   1 <1>  -0.1790 
 27 H       -2.5970    -1.5580     1.2160 H     1 <1>   0.1500 
 28 H       -1.8060     2.4820     2.0470 H     1 <1>   0.1500 
 29 H       -3.7560     3.2110     0.7260 H     1 <1>   0.1500 
 30 H       -4.5530    -2.2850     0.2650 H     1 <1>   0.0800 
 31 H       -5.9620     1.1400     1.5990 H     1 <1>   0.0800 
 32 H       -4.3600     2.6870    -1.5130 H     1 <1>   0.0800 
 33 H       -5.0020     1.1780    -2.0480 H     1 <1>   0.0800 
 34 H       -3.2980     1.3270    -1.7260 H     1 <1>   0.0800 
 35 H       -6.9420    -1.9090    -0.2650 H     1 <1>   0.0800 
 36 H       -6.3980    -1.3190     1.2730 H     1 <1>   0.0800 
 37 H       -5.2460    -0.9190    -2.3150 H     1 <1>   0.0800 
 38 H       -5.0990    -2.6060    -1.9600 H     1 <1>   0.0800 
 39 H       -3.6730    -1.6050    -1.9830 H     1 <1>   0.0800 
 40 H       -6.4590     3.1300    -0.6110 H     1 <1>   0.0800 
 41 H       -6.8330     0.3510    -1.1850 H     1 <1>   0.0800 
 42 H       -6.1220     3.3910     2.1660 H     1 <1>   0.4000 
 43 H       -8.2340     2.7160     1.7920 H     1 <1>   0.0800 
 44 H       -8.4830     3.8160     0.4680 H     1 <1>   0.0800 
 45 H       -8.2740     0.3260     1.4230 H     1 <1>   0.0800 
 46 H       -9.1740    -0.9170    -1.1250 H     1 <1>   0.0800 
 47 H       -9.3300    -1.5070     0.5180 H     1 <1>   0.0800 
 48 H       -7.8890     2.1060    -1.9260 H     1 <1>   0.0800 
 49 H       -9.3340     3.0270    -1.7380 H     1 <1>   0.0800 
 50 H       -9.4280     1.3360    -2.1050 H     1 <1>   0.0800 
 51 H      -11.3870    -0.3890     0.6780 H     1 <1>   0.0800 
 52 H      -11.1660     0.0950    -0.9730 H     1 <1>   0.0800 
 53 H      -10.0130     0.7350     2.1550 H     1 <1>   0.4000 
 54 H      -10.7260     4.3490     0.9140 H     1 <1>   0.0800 
 55 H      -12.1470     3.6200     1.6280 H     1 <1>   0.0800 
 56 H      -12.2860     4.5400     0.1500 H     1 <1>   0.0800 
@<TRIPOS>BOND
  1   1   2  2   
  2   2   3  1   
  3   2   4  1   
  4   3   5  2   
  5   3  27  1   
  6   4   6  2   
  7   4  28  1   
  8   5   7  1   
  9   5   8  1   
 10   6   7  1   
 11   6  29  1   
 12   7   9  1   
 13   7  10  1   
 14   8  11  1   
 15   8  12  1   
 16   8  30  1   
 17   9  13  1   
 18   9  14  1   
 19   9  31  1   
 20  10  32  1   
 21  10  33  1   
 22  10  34  1   
 23  11  14  1   
 24  11  35  1   
 25  11  36  1   
 26  12  37  1   
 27  12  38  1   
 28  12  39  1   
 29  13  15  1   
 30  13  16  1   
 31  13  40  1   
 32  14  17  1   
 33  14  41  1   
 34  15  42  1   
 35  16  18  1   
 36  16  43  1   
 37  16  44  1   
 38  17  18  1   
 39  17  19  1   
 40  17  45  1   
 41  18  20  1   
 42  18  21  1   
 43  19  22  1   
 44  19  46  1   
 45  19  47  1   
 46  20  22  1   
 47  20  23  1   
 48  20  24  1   
 49  21  48  1   
 50  21  49  1   
 51  21  50  1   
 52  22  51  1   
 53  22  52  1   
 54  23  53  1   
 55  24  25  2   
 56  24  26  1   
 57  26  54  1   
 58  26  55  1   
 59  26  56  1   
@<TRIPOS>SUBSTRUCTURE
  1 ****   9 GROUP 4 **** **** 0

# MOE 2024.06 (io_trps.svl 2023.06)
