@<TRIPOS>MOLECULE
NONAME
38 39 1 0 0 
SMALL
USER_CHARGES


@<TRIPOS>ATOM
  1 F       -0.8330    -0.0820    -1.6080 F     1 <1>  -0.1900 
  2 C       -1.8270    -0.8690    -1.2480 C.ar  1 <1>   0.1900 
  3 C       -2.8890    -0.4060    -0.4720 C.ar  1 <1>   0.4100 
  4 C       -1.8170    -2.1730    -1.6580 C.ar  1 <1>   0.1600 
  5 N       -3.8690    -1.2330    -0.1560 N.ar  1 <1>  -0.6200 
  6 N       -2.9950     0.8980     0.0070 N.pl3 1 <1>  -0.8380 
  7 N       -2.7890    -3.0050    -1.3370 N.ar  1 <1>  -0.6200 
  8 C       -3.7620    -2.4710    -0.6050 C.ar  1 <1>   0.7200 
  9 C       -4.3270     1.4920     0.3100 C.3   1 <1>   0.1290 
 10 C       -1.8350     1.5830     0.6380 C.3   1 <1>   0.1290 
 11 N       -4.7920    -3.2650    -0.2470 N.pl3 1 <1>  -0.8690 
 12 C       -4.7410    -4.7270    -0.1820 C.3   1 <1>   0.4330 
 13 C       -6.1780    -5.2390    -0.1260 C.ar  1 <1>  -0.1430 
 14 C       -3.9140    -5.1590     1.0410 C.3   1 <1>  -0.1600 
 15 C       -7.0280    -4.9770     0.9330 C.ar  1 <1>  -0.1500 
 16 C       -6.7100    -5.9960    -1.1520 C.ar  1 <1>  -0.1500 
 17 C       -3.8210    -6.6850     1.1990 C.3   1 <1>  -0.2400 
 18 C       -8.3200    -5.4750     0.9170 C.ar  1 <1>   0.1600 
 19 C       -8.0170    -6.4460    -1.0700 C.ar  1 <1>   0.1600 
 20 N       -8.8340    -6.2050    -0.0580 N.ar  1 <1>  -0.6200 
 21 H       -1.0030    -2.5410    -2.2570 H     1 <1>   0.1500 
 22 H       -5.0750     1.0750    -0.3420 H     1 <1>   0.0800 
 23 H       -4.2970     2.5570     0.1610 H     1 <1>   0.0800 
 24 H       -4.5960     1.2800     1.3300 H     1 <1>   0.0800 
 25 H       -1.0130     0.8990     0.7630 H     1 <1>   0.0800 
 26 H       -2.1120     1.9600     1.6070 H     1 <1>   0.0800 
 27 H       -1.5180     2.4030     0.0170 H     1 <1>   0.0800 
 28 H       -5.4470    -2.8150     0.3840 H     1 <1>   0.4000 
 29 H       -4.2670    -5.1020    -1.0740 H     1 <1>   0.0800 
 30 H       -4.3380    -4.7370     1.9330 H     1 <1>   0.0800 
 31 H       -2.9170    -4.7700     0.9320 H     1 <1>   0.0800 
 32 H       -6.7000    -4.3910     1.7710 H     1 <1>   0.1500 
 33 H       -6.1200    -6.2390    -2.0170 H     1 <1>   0.1500 
 34 H       -4.7950    -7.1120     1.3640 H     1 <1>   0.0800 
 35 H       -3.1980    -6.9280     2.0420 H     1 <1>   0.0800 
 36 H       -3.3920    -7.1290     0.3180 H     1 <1>   0.0800 
 37 H       -8.9650    -5.2590     1.7520 H     1 <1>   0.1500 
 38 H       -8.4110    -7.0350    -1.8800 H     1 <1>   0.1500 
@<TRIPOS>BOND
  1   1   2  1   
  2   2   3  ar  
  3   2   4  ar  
  4   3   5  ar  
  5   3   6  1   
  6   4   7  ar  
  7   4  21  1   
  8   5   8  ar  
  9   6   9  1   
 10   6  10  1   
 11   7   8  ar  
 12   8  11  1   
 13   9  22  1   
 14   9  23  1   
 15   9  24  1   
 16  10  25  1   
 17  10  26  1   
 18  10  27  1   
 19  11  12  1   
 20  11  28  1   
 21  12  13  1   
 22  12  14  1   
 23  12  29  1   
 24  13  15  ar  
 25  13  16  ar  
 26  14  17  1   
 27  14  30  1   
 28  14  31  1   
 29  15  18  ar  
 30  15  32  1   
 31  16  19  ar  
 32  16  33  1   
 33  17  34  1   
 34  17  35  1   
 35  17  36  1   
 36  18  20  ar  
 37  18  37  1   
 38  19  20  ar  
 39  19  38  1   
@<TRIPOS>SUBSTRUCTURE
  1 ****  11 GROUP 4 **** **** 0

# MOE 2024.06 (io_trps.svl 2023.06)
