@<TRIPOS>MOLECULE
NONAME
54 57 1 0 0 
SMALL
USER_CHARGES


@<TRIPOS>ATOM
  1 O        0.4140     0.6770    -0.1620 O.3   1 <1>  -0.3630 
  2 C       -0.6690     1.2970    -0.7010 C.ar  1 <1>   0.0830 
  3 C        0.6230    -0.7130    -0.2790 C.3   1 <1>   0.0400 
  4 C       -0.7000     2.6990    -0.6780 C.ar  1 <1>   0.0000 
  5 C       -1.7200     0.5810    -1.2690 C.ar  1 <1>  -0.1500 
  6 C        0.3560     3.4960    -0.0900 C.ar  1 <1>   0.3100 
  7 C       -1.8010     3.3360    -1.2510 C.ar  1 <1>  -0.1500 
  8 C       -2.8010     1.2410    -1.8230 C.ar  1 <1>  -0.1500 
  9 N        0.8850     4.4850    -0.8240 N.ar  1 <1>  -0.3100 
 10 C        0.7860     3.2670     1.2080 C.ar  1 <1>  -0.1500 
 11 C       -2.8400     2.6220    -1.8160 C.ar  1 <1>  -0.1500 
 12 N        1.8280     5.2530    -0.3370 N.ar  1 <1>  -0.3100 
 13 C        1.7750     4.0680     1.7180 C.ar  1 <1>  -0.1500 
 14 C        2.2890     5.0640     0.9080 C.ar  1 <1>   0.4100 
 15 N        3.3040     5.8910     1.3700 N.pl3 1 <1>  -0.8380 
 16 C        3.4070     7.2940     0.8480 C.3   1 <1>   0.2090 
 17 C        4.5840     5.2910     1.8410 C.3   1 <1>   0.2090 
 18 C        4.3760     7.4350    -0.3370 C.3   1 <1>   0.2090 
 19 C        5.4290     4.8220     0.6500 C.3   1 <1>  -0.1600 
 20 N        5.7930     7.2540     0.1020 N.pl3 1 <1>  -0.8380 
 21 C        6.3670     5.8880     0.0700 C.3   1 <1>   0.2090 
 22 C        6.6570     8.3440     0.0350 C.ar  1 <1>   0.1000 
 23 C        7.2710     8.7670    -1.1490 C.ar  1 <1>  -0.1430 
 24 C        6.9110     9.0400     1.2090 C.ar  1 <1>  -0.1500 
 25 C        8.1180     9.8640    -1.1260 C.ar  1 <1>  -0.1500 
 26 C        7.0390     8.0500    -2.4730 C.3   1 <1>  -0.0970 
 27 C        7.7560    10.1340     1.2250 C.ar  1 <1>  -0.1500 
 28 C        8.3620    10.5470     0.0530 C.ar  1 <1>  -0.1500 
 29 H        1.5750    -0.9450     0.1640 H     1 <1>   0.0800 
 30 H        0.6310    -0.9780    -1.3210 H     1 <1>   0.0800 
 31 H       -0.1600    -1.2300     0.2470 H     1 <1>   0.0800 
 32 H       -1.7180    -0.4910    -1.2910 H     1 <1>   0.1500 
 33 H       -1.8380     4.4130    -1.2520 H     1 <1>   0.1500 
 34 H       -3.6110     0.6820    -2.2620 H     1 <1>   0.1500 
 35 H        0.3480     2.4800     1.7920 H     1 <1>   0.1500 
 36 H       -3.6780     3.1410    -2.2500 H     1 <1>   0.1500 
 37 H        2.1420     3.9420     2.7170 H     1 <1>   0.1500 
 38 H        3.7280     7.9460     1.6400 H     1 <1>   0.0800 
 39 H        2.4320     7.6230     0.5350 H     1 <1>   0.0800 
 40 H        4.3650     4.4470     2.4700 H     1 <1>   0.0800 
 41 H        5.1310     6.0070     2.4320 H     1 <1>   0.0800 
 42 H        4.2650     8.4210    -0.7520 H     1 <1>   0.0800 
 43 H        4.1230     6.7230    -1.1020 H     1 <1>   0.0800 
 44 H        4.7880     4.4440    -0.1260 H     1 <1>   0.0800 
 45 H        6.0410     4.0000     0.9710 H     1 <1>   0.0800 
 46 H        6.6180     5.6280    -0.9430 H     1 <1>   0.0800 
 47 H        7.2800     5.9000     0.6410 H     1 <1>   0.0800 
 48 H        6.4360     8.7100     2.1140 H     1 <1>   0.1500 
 49 H        8.5970    10.1950    -2.0300 H     1 <1>   0.1500 
 50 H        5.9950     7.8340    -2.6050 H     1 <1>   0.0800 
 51 H        7.5910     7.1290    -2.4870 H     1 <1>   0.0800 
 52 H        7.3620     8.6560    -3.2990 H     1 <1>   0.0800 
 53 H        7.9410    10.6600     2.1440 H     1 <1>   0.1500 
 54 H        9.0210    11.3970     0.0570 H     1 <1>   0.1500 
@<TRIPOS>BOND
  1   1   2  1   
  2   1   3  1   
  3   2   4  ar  
  4   2   5  ar  
  5   3  29  1   
  6   3  30  1   
  7   3  31  1   
  8   4   6  1   
  9   4   7  ar  
 10   5   8  ar  
 11   5  32  1   
 12   6   9  ar  
 13   6  10  ar  
 14   7  11  ar  
 15   7  33  1   
 16   8  11  ar  
 17   8  34  1   
 18   9  12  ar  
 19  10  13  ar  
 20  10  35  1   
 21  11  36  1   
 22  12  14  ar  
 23  13  14  ar  
 24  13  37  1   
 25  14  15  1   
 26  15  16  1   
 27  15  17  1   
 28  16  18  1   
 29  16  38  1   
 30  16  39  1   
 31  17  19  1   
 32  17  40  1   
 33  17  41  1   
 34  18  20  1   
 35  18  42  1   
 36  18  43  1   
 37  19  21  1   
 38  19  44  1   
 39  19  45  1   
 40  20  21  1   
 41  20  22  1   
 42  21  46  1   
 43  21  47  1   
 44  22  23  ar  
 45  22  24  ar  
 46  23  25  ar  
 47  23  26  1   
 48  24  27  ar  
 49  24  48  1   
 50  25  28  ar  
 51  25  49  1   
 52  26  50  1   
 53  26  51  1   
 54  26  52  1   
 55  27  28  ar  
 56  27  53  1   
 57  28  54  1   
@<TRIPOS>SUBSTRUCTURE
  1 ****  12 GROUP 4 **** **** 0

# MOE 2024.06 (io_trps.svl 2023.06)
