@<TRIPOS>MOLECULE
NONAME
46 48 1 0 0 
SMALL
USER_CHARGES


@<TRIPOS>ATOM
  1 O       -0.1740     0.0780     0.4240 O.2   1 <1>  -0.5700 
  2 C       -1.1900     0.7160     0.6340 C.2   1 <1>   0.7160 
  3 N       -2.3950     0.0500     0.6440 N.am  1 <1>  -0.6600 
  4 C       -1.1280     2.1420     0.8530 C.2   1 <1>  -0.0860 
  5 C       -3.7030     0.6950     0.3620 C.3   1 <1>   0.1400 
  6 C       -2.4870    -1.4190     0.4490 C.3   1 <1>   0.1400 
  7 C       -0.4150     3.1320     0.2400 C.2   1 <1>  -0.3320 
  8 C       -1.8500     2.8300     1.8290 C.2   1 <1>   0.1390 
  9 C       -4.5430    -0.4010    -0.2910 C.3   1 <1>   0.2000 
 10 C       -3.9760    -1.7100     0.2510 C.3   1 <1>  -0.0800 
 11 N       -0.7380     4.2960     0.8380 N.pl3 1 <1>   0.3140 
 12 C        0.5770     2.9960    -0.9070 C.3   1 <1>  -0.0600 
 13 N       -1.6340     4.1050     1.8220 N.2   1 <1>  -0.7070 
 14 O       -5.8830    -0.2840     0.0370 O.3   1 <1>  -0.6800 
 15 C       -4.2520    -2.9140    -0.6620 C.3   1 <1>   0.0210 
 16 C       -0.2230     5.6490     0.5360 C.3   1 <1>   0.0960 
 17 C       -3.5930    -4.1680    -0.1200 C.2   1 <1>   0.1080 
 18 C       -1.0780     6.3420    -0.5330 C.3   1 <1>  -0.2400 
 19 N       -3.9070    -4.6870     1.0270 N.2   1 <1>  -0.7070 
 20 C       -2.5930    -4.8850    -0.7660 C.2   1 <1>  -0.1500 
 21 N       -3.1080    -5.7650     1.1420 N.pl3 1 <1>   0.3000 
 22 C       -2.3010    -5.9040     0.0690 C.2   1 <1>  -0.3320 
 23 C       -1.2850    -7.0200    -0.0950 C.3   1 <1>  -0.0600 
 24 H       -4.1480     1.0120     1.2880 H     1 <1>   0.0800 
 25 H       -3.5850     1.5340    -0.3020 H     1 <1>   0.0800 
 26 H       -1.9210    -1.6970    -0.4250 H     1 <1>   0.0800 
 27 H       -2.0970    -1.9450     1.3040 H     1 <1>   0.0800 
 28 H       -2.5170     2.3520     2.5250 H     1 <1>   0.1500 
 29 H       -4.4480    -0.3420    -1.3620 H     1 <1>   0.0800 
 30 H       -4.3900    -1.9070     1.2250 H     1 <1>   0.0800 
 31 H        0.6350     1.9740    -1.2380 H     1 <1>   0.0800 
 32 H        1.5570     3.3010    -0.5870 H     1 <1>   0.0800 
 33 H        0.2730     3.6040    -1.7400 H     1 <1>   0.0800 
 34 H       -6.0220    -0.4930     0.9820 H     1 <1>   0.4000 
 35 H       -3.8870    -2.7200    -1.6540 H     1 <1>   0.0800 
 36 H       -5.3130    -3.0830    -0.7220 H     1 <1>   0.0800 
 37 H       -0.2410     6.2220     1.4460 H     1 <1>   0.0800 
 38 H        0.7960     5.5670     0.2070 H     1 <1>   0.0800 
 39 H       -2.0930     6.4320    -0.1880 H     1 <1>   0.0800 
 40 H       -1.0620     5.7820    -1.4500 H     1 <1>   0.0800 
 41 H       -0.6940     7.3280    -0.7250 H     1 <1>   0.0800 
 42 H       -2.1620    -4.6550    -1.7240 H     1 <1>   0.1500 
 43 H       -3.1380    -6.3830     1.9610 H     1 <1>   0.2700 
 44 H       -0.7670    -6.9140    -1.0310 H     1 <1>   0.0800 
 45 H       -1.7770    -7.9760    -0.0820 H     1 <1>   0.0800 
 46 H       -0.5630    -6.9850     0.7010 H     1 <1>   0.0800 
@<TRIPOS>BOND
  1   1   2  2   
  2   2   3  am  
  3   2   4  1   
  4   3   5  1   
  5   3   6  1   
  6   4   7  2   
  7   4   8  1   
  8   5   9  1   
  9   5  24  1   
 10   5  25  1   
 11   6  10  1   
 12   6  26  1   
 13   6  27  1   
 14   7  11  1   
 15   7  12  1   
 16   8  13  2   
 17   8  28  1   
 18   9  10  1   
 19   9  14  1   
 20   9  29  1   
 21  10  15  1   
 22  10  30  1   
 23  11  13  1   
 24  11  16  1   
 25  12  31  1   
 26  12  32  1   
 27  12  33  1   
 28  14  34  1   
 29  15  17  1   
 30  15  35  1   
 31  15  36  1   
 32  16  18  1   
 33  16  37  1   
 34  16  38  1   
 35  17  19  2   
 36  17  20  1   
 37  18  39  1   
 38  18  40  1   
 39  18  41  1   
 40  19  21  1   
 41  20  22  2   
 42  20  42  1   
 43  21  22  1   
 44  21  43  1   
 45  22  23  1   
 46  23  44  1   
 47  23  45  1   
 48  23  46  1   
@<TRIPOS>SUBSTRUCTURE
  1 ****   3 GROUP 4 **** **** 0

# MOE 2024.06 (io_trps.svl 2023.06)
