@<TRIPOS>MOLECULE
NONAME
51 54 1 0 0 
SMALL
USER_CHARGES


@<TRIPOS>ATOM
  1 O        1.0790     1.4560     0.5260 O.3   1 <1>  -0.0190 
  2 N        2.0000     0.5790     0.7870 N.2   1 <1>  -0.4100 
  3 C        1.3430     2.1290    -0.5620 C.2   1 <1>  -0.0400 
  4 C        2.8620     0.6700    -0.1610 C.2   1 <1>   0.1080 
  5 C        2.4950     1.6620    -1.0660 C.2   1 <1>  -0.1500 
  6 C        0.4050     3.2320    -1.0120 C.3   1 <1>   0.0200 
  7 C        4.1020    -0.1910    -0.2670 C.3   1 <1>  -0.0590 
  8 C       -0.0190     4.1210     0.1750 C.3   1 <1>  -0.0800 
  9 C       -0.6970     5.4120    -0.2930 C.3   1 <1>   0.2000 
 10 C        1.1930     4.5850     1.0050 C.3   1 <1>   0.3430 
 11 O       -1.5910     5.8070     0.6960 O.3   1 <1>  -0.6800 
 12 C        0.4470     6.4230    -0.3050 C.3   1 <1>   0.3430 
 13 N        1.2200     6.0710     0.9170 N.4   1 <1>  -0.9590 
 14 C        2.5730     6.6870     0.9930 C.3   1 <1>   0.5230 
 15 C        2.4710     8.2010     1.0290 C.2   1 <1>  -0.0400 
 16 O        3.5170     8.8870     0.6240 O.3   1 <1>  -0.2800 
 17 C        1.4830     9.0450     1.4060 C.2   1 <1>  -0.1500 
 18 C        3.2530    10.1850     0.7170 C.2   1 <1>   0.0870 
 19 C        1.9900    10.3290     1.2030 C.2   1 <1>  -0.1500 
 20 C        4.2430    11.1650     0.3280 C.ar  1 <1>   0.0530 
 21 C        5.5300    10.7900    -0.0550 C.ar  1 <1>  -0.1500 
 22 C        3.9480    12.5280     0.3190 C.ar  1 <1>  -0.1500 
 23 C        6.4760    11.7270    -0.4290 C.ar  1 <1>  -0.1500 
 24 C        4.8910    13.4690    -0.0550 C.ar  1 <1>  -0.1500 
 25 C        6.1620    13.0740    -0.4330 C.ar  1 <1>  -0.1440 
 26 C        7.1990    14.1050    -0.8410 C.3   1 <1>  -0.0970 
 27 H        3.0400     1.9480    -1.9470 H     1 <1>   0.1500 
 28 H        0.8970     3.8120    -1.7740 H     1 <1>   0.0800 
 29 H       -0.4690     2.7810    -1.4500 H     1 <1>   0.0800 
 30 H        4.9810     0.4270    -0.2750 H     1 <1>   0.0800 
 31 H        4.0670    -0.7710    -1.1700 H     1 <1>   0.0800 
 32 H        4.1570    -0.8620     0.5720 H     1 <1>   0.0800 
 33 H       -0.6800     3.5430     0.7990 H     1 <1>   0.0800 
 34 H       -1.2170     5.3400    -1.2340 H     1 <1>   0.0800 
 35 H        2.1010     4.1660     0.6020 H     1 <1>   0.0800 
 36 H        1.0910     4.2670     2.0310 H     1 <1>   0.0800 
 37 H       -2.4140     5.2720     0.6700 H     1 <1>   0.4000 
 38 H        0.0770     7.4350    -0.2770 H     1 <1>   0.0800 
 39 H        1.0540     6.2830    -1.1830 H     1 <1>   0.0800 
 40 H        0.6520     6.4270     1.7000 H     1 <1>   0.4500 
 41 H        3.0920     6.3500     1.8760 H     1 <1>   0.0800 
 42 H        3.1510     6.3990     0.1310 H     1 <1>   0.0800 
 43 H        0.4990     8.8350     1.7900 H     1 <1>   0.1500 
 44 H        1.4600    11.2430     1.4050 H     1 <1>   0.1500 
 45 H        5.7980     9.7490    -0.0590 H     1 <1>   0.1500 
 46 H        2.9690    12.8630     0.6050 H     1 <1>   0.1500 
 47 H        7.4610    11.4020    -0.7170 H     1 <1>   0.1500 
 48 H        4.6310    14.5140    -0.0490 H     1 <1>   0.1500 
 49 H        7.8780    13.6880    -1.5630 H     1 <1>   0.0800 
 50 H        7.7580    14.4190     0.0210 H     1 <1>   0.0800 
 51 H        6.7240    14.9630    -1.2800 H     1 <1>   0.0800 
@<TRIPOS>BOND
  1   1   2  1   
  2   1   3  1   
  3   2   4  2   
  4   3   5  2   
  5   3   6  1   
  6   4   5  1   
  7   4   7  1   
  8   5  27  1   
  9   6   8  1   
 10   6  28  1   
 11   6  29  1   
 12   7  30  1   
 13   7  31  1   
 14   7  32  1   
 15   8   9  1   
 16   8  10  1   
 17   8  33  1   
 18   9  11  1   
 19   9  12  1   
 20   9  34  1   
 21  10  13  1   
 22  10  35  1   
 23  10  36  1   
 24  11  37  1   
 25  12  13  1   
 26  12  38  1   
 27  12  39  1   
 28  13  14  1   
 29  13  40  1   
 30  14  15  1   
 31  14  41  1   
 32  14  42  1   
 33  15  16  1   
 34  15  17  2   
 35  16  18  1   
 36  17  19  1   
 37  17  43  1   
 38  18  19  2   
 39  18  20  1   
 40  19  44  1   
 41  20  21  ar  
 42  20  22  ar  
 43  21  23  ar  
 44  21  45  1   
 45  22  24  ar  
 46  22  46  1   
 47  23  25  ar  
 48  23  47  1   
 49  24  25  ar  
 50  24  48  1   
 51  25  26  1   
 52  26  49  1   
 53  26  50  1   
 54  26  51  1   
@<TRIPOS>SUBSTRUCTURE
  1 ****  14 GROUP 4 **** **** 0

# MOE 2024.06 (io_trps.svl 2023.06)
