@<TRIPOS>MOLECULE
NONAME
49 52 1 0 0 
SMALL
USER_CHARGES


@<TRIPOS>ATOM
  1 O       -0.4340     0.4730     0.9900 O.2   1 <1>  -0.5700 
  2 C       -1.4050     0.9500     0.4510 C.2   1 <1>   0.5690 
  3 N       -2.4860     0.1760     0.1390 N.am  1 <1>  -0.6600 
  4 C       -1.4270     2.4340     0.1180 C.3   1 <1>  -0.0990 
  5 C       -3.7610     0.6220    -0.4780 C.3   1 <1>   0.1400 
  6 C       -2.5360    -1.2770     0.4350 C.3   1 <1>   0.1400 
  7 C       -0.0800     3.1350     0.3470 C.3   1 <1>   0.0210 
  8 C       -4.7510    -0.4910    -0.1380 C.3   1 <1>   0.2000 
  9 C       -3.8840    -1.7550    -0.1190 C.3   1 <1>  -0.0800 
 10 C       -0.1240     4.6120    -0.0130 C.2   1 <1>  -0.1810 
 11 O       -5.2470    -0.2480     1.1350 O.3   1 <1>  -0.6800 
 12 C       -4.4900    -2.9460     0.6490 C.3   1 <1>   0.0200 
 13 C        1.0030     5.4590     0.0960 C.ar  1 <1>   0.0000 
 14 C       -1.1540     5.3650    -0.4720 C.2   1 <1>  -0.3020 
 15 C       -3.6700    -4.2190     0.5210 C.2   1 <1>  -0.0400 
 16 C        0.5910     6.7230    -0.3140 C.ar  1 <1>  -0.1520 
 17 C        2.3280     5.2670     0.5040 C.ar  1 <1>  -0.1500 
 18 N       -0.7330     6.6510    -0.6590 N.pl3 1 <1>   0.0330 
 19 O       -4.0170    -5.2600     1.2310 O.3   1 <1>  -0.0190 
 20 C       -2.5930    -4.5630    -0.2040 C.2   1 <1>  -0.1500 
 21 C        1.4790     7.8020    -0.3250 C.ar  1 <1>  -0.1500 
 22 C        3.2020     6.3290     0.4930 C.ar  1 <1>  -0.1500 
 23 N       -3.2310    -6.2770     1.0240 N.2   1 <1>  -0.4100 
 24 C       -2.3620    -5.8850     0.1630 C.2   1 <1>   0.1080 
 25 C        2.7780     7.5980     0.0780 C.ar  1 <1>  -0.1500 
 26 C       -1.2440    -6.7520    -0.3710 C.3   1 <1>  -0.0590 
 27 H       -1.7020     2.5490    -0.9130 H     1 <1>   0.0800 
 28 H       -2.1720     2.9060     0.7300 H     1 <1>   0.0800 
 29 H       -4.0890     1.5740    -0.0980 H     1 <1>   0.0800 
 30 H       -3.6300     0.6810    -1.5450 H     1 <1>   0.0800 
 31 H       -1.7070    -1.7840    -0.0300 H     1 <1>   0.0800 
 32 H       -2.4810    -1.4190     1.5020 H     1 <1>   0.0800 
 33 H        0.6770     2.6550    -0.2490 H     1 <1>   0.0800 
 34 H        0.2030     3.0390     1.3810 H     1 <1>   0.0800 
 35 H       -5.5800    -0.5470    -0.8230 H     1 <1>   0.0800 
 36 H       -3.7300    -2.0540    -1.1410 H     1 <1>   0.0800 
 37 H       -4.4970    -0.0680     1.7380 H     1 <1>   0.4000 
 38 H       -5.4800    -3.1420     0.2800 H     1 <1>   0.0800 
 39 H       -4.5770    -2.7040     1.6940 H     1 <1>   0.0800 
 40 H       -2.1680     5.0730    -0.6790 H     1 <1>   0.1500 
 41 H        2.6420     4.2900     0.8200 H     1 <1>   0.1500 
 42 H       -1.2960     7.4370    -0.9980 H     1 <1>   0.2700 
 43 H       -2.0150    -3.9970    -0.9100 H     1 <1>   0.1500 
 44 H        1.1440     8.7720    -0.6450 H     1 <1>   0.1500 
 45 H        4.2230     6.1940     0.8040 H     1 <1>   0.1500 
 46 H        3.4820     8.4110     0.0790 H     1 <1>   0.1500 
 47 H       -0.2950    -6.3050    -0.1430 H     1 <1>   0.0800 
 48 H       -1.3420    -6.8580    -1.4360 H     1 <1>   0.0800 
 49 H       -1.2880    -7.7270     0.0810 H     1 <1>   0.0800 
@<TRIPOS>BOND
  1   1   2  2   
  2   2   3  am  
  3   2   4  1   
  4   3   5  1   
  5   3   6  1   
  6   4   7  1   
  7   4  27  1   
  8   4  28  1   
  9   5   8  1   
 10   5  29  1   
 11   5  30  1   
 12   6   9  1   
 13   6  31  1   
 14   6  32  1   
 15   7  10  1   
 16   7  33  1   
 17   7  34  1   
 18   8   9  1   
 19   8  11  1   
 20   8  35  1   
 21   9  12  1   
 22   9  36  1   
 23  10  13  1   
 24  10  14  2   
 25  11  37  1   
 26  12  15  1   
 27  12  38  1   
 28  12  39  1   
 29  13  16  ar  
 30  13  17  ar  
 31  14  18  1   
 32  14  40  1   
 33  15  19  1   
 34  15  20  2   
 35  16  18  1   
 36  16  21  ar  
 37  17  22  ar  
 38  17  41  1   
 39  18  42  1   
 40  19  23  1   
 41  20  24  1   
 42  20  43  1   
 43  21  25  ar  
 44  21  44  1   
 45  22  25  ar  
 46  22  45  1   
 47  23  24  2   
 48  24  26  1   
 49  25  46  1   
 50  26  47  1   
 51  26  48  1   
 52  26  49  1   
@<TRIPOS>SUBSTRUCTURE
  1 ****   2 GROUP 4 **** **** 0

# MOE 2024.06 (io_trps.svl 2023.06)
