@<TRIPOS>MOLECULE
NONAME
43 45 1 0 0 
SMALL
USER_CHARGES


@<TRIPOS>ATOM
  1 F       -0.8680    -0.7250     2.0660 F     1 <1>  -0.1900 
  2 C       -1.9210    -1.0220     1.3560 C.ar  1 <1>   0.1900 
  3 C       -2.2960    -0.1790     0.3120 C.ar  1 <1>   0.0860 
  4 C       -2.6230    -2.1650     1.7030 C.ar  1 <1>  -0.1500 
  5 C       -3.4540    -0.5590    -0.3630 C.ar  1 <1>   0.1900 
  6 C       -1.5410     0.9960    -0.0400 C.2   1 <1>   0.5440 
  7 C       -3.7650    -2.5030     0.9940 C.ar  1 <1>  -0.1500 
  8 F       -3.8860     0.1820    -1.3460 F     1 <1>  -0.1900 
  9 C       -4.1850    -1.6910    -0.0470 C.ar  1 <1>  -0.1500 
 10 O       -0.3550     0.9330    -0.3010 O.2   1 <1>  -0.5700 
 11 N       -2.1210     2.2320    -0.0780 N.am  1 <1>  -0.7300 
 12 C       -1.4030     3.4710    -0.4850 C.3   1 <1>   0.2200 
 13 C       -0.3000     3.8030     0.5400 C.3   1 <1>   0.4230 
 14 C       -2.3180     4.6890    -0.4220 C.3   1 <1>   0.1200 
 15 N        1.0280     4.1830    -0.0820 N.4   1 <1>  -0.9590 
 16 C       -0.9330     4.9310     1.3780 C.3   1 <1>   0.1200 
 17 O       -2.2110     5.1690     0.8750 O.3   1 <1>  -0.5600 
 18 C        1.5790     3.0340    -0.8730 C.3   1 <1>   0.3430 
 19 C        2.0240     4.6030     0.9510 C.3   1 <1>   0.3430 
 20 C        2.8500     3.4670    -1.6060 C.3   1 <1>  -0.1600 
 21 C        3.3050     5.0870     0.2690 C.3   1 <1>  -0.1600 
 22 C        3.9080     4.0050    -0.6350 C.3   1 <1>  -0.1600 
 23 H       -2.2800    -2.7780     2.5180 H     1 <1>   0.1500 
 24 H       -4.3210    -3.3900     1.2510 H     1 <1>   0.1500 
 25 H       -5.0710    -1.9340    -0.6100 H     1 <1>   0.1500 
 26 H       -3.1250     2.3300     0.1130 H     1 <1>   0.3700 
 27 H       -1.0280     3.3390    -1.4840 H     1 <1>   0.0800 
 28 H       -0.1470     2.9420     1.1700 H     1 <1>   0.0800 
 29 H       -3.3460     4.4560    -0.6380 H     1 <1>   0.0800 
 30 H       -1.9750     5.4630    -1.0870 H     1 <1>   0.0800 
 31 H        0.8870     4.9700    -0.7260 H     1 <1>   0.4500 
 32 H       -0.3840     5.8520     1.3100 H     1 <1>   0.0800 
 33 H       -1.0370     4.6380     2.4080 H     1 <1>   0.0800 
 34 H        1.8040     2.2100    -0.2130 H     1 <1>   0.0800 
 35 H        0.8580     2.6840    -1.5930 H     1 <1>   0.0800 
 36 H        1.6270     5.4010     1.5580 H     1 <1>   0.0800 
 37 H        2.2540     3.7690     1.5950 H     1 <1>   0.0800 
 38 H        3.2520     2.6210    -2.1360 H     1 <1>   0.0800 
 39 H        2.6040     4.2170    -2.3380 H     1 <1>   0.0800 
 40 H        3.0950     5.9720    -0.3060 H     1 <1>   0.0800 
 41 H        4.0240     5.3580     1.0230 H     1 <1>   0.0800 
 42 H        4.7430     4.4060    -1.1860 H     1 <1>   0.0800 
 43 H        4.2770     3.1950    -0.0270 H     1 <1>   0.0800 
@<TRIPOS>BOND
  1   1   2  1   
  2   2   3  ar  
  3   2   4  ar  
  4   3   5  ar  
  5   3   6  1   
  6   4   7  ar  
  7   4  23  1   
  8   5   8  1   
  9   5   9  ar  
 10   6  10  2   
 11   6  11  am  
 12   7   9  ar  
 13   7  24  1   
 14   9  25  1   
 15  11  12  1   
 16  11  26  1   
 17  12  13  1   
 18  12  14  1   
 19  12  27  1   
 20  13  15  1   
 21  13  16  1   
 22  13  28  1   
 23  14  17  1   
 24  14  29  1   
 25  14  30  1   
 26  15  18  1   
 27  15  19  1   
 28  15  31  1   
 29  16  17  1   
 30  16  32  1   
 31  16  33  1   
 32  18  20  1   
 33  18  34  1   
 34  18  35  1   
 35  19  21  1   
 36  19  36  1   
 37  19  37  1   
 38  20  22  1   
 39  20  38  1   
 40  20  39  1   
 41  21  22  1   
 42  21  40  1   
 43  21  41  1   
 44  22  42  1   
 45  22  43  1   
@<TRIPOS>SUBSTRUCTURE
  1 ****   6 GROUP 4 **** **** 0

# MOE 2024.06 (io_trps.svl 2023.06)
