@<TRIPOS>MOLECULE
NONAME
42 43 1 0 0 
SMALL
USER_CHARGES


@<TRIPOS>ATOM
  1 CL      -2.4660    -0.1140     2.1190 Cl    1 <1>  -0.1770 
  2 C       -2.8740    -1.1740     0.7940 C.ar  1 <1>   0.1770 
  3 C       -2.7380    -2.5410     0.9550 C.ar  1 <1>  -0.1500 
  4 C       -3.3250    -0.6310    -0.3940 C.ar  1 <1>  -0.1500 
  5 C       -3.0620    -3.3890    -0.0940 C.ar  1 <1>  -0.1440 
  6 C       -3.6480    -1.4760    -1.4410 C.ar  1 <1>  -0.1500 
  7 C       -3.5160    -2.8480    -1.2890 C.ar  1 <1>  -0.1500 
  8 C       -2.9280    -4.8950     0.0590 C.3   1 <1>  -0.0160 
  9 C       -4.2750    -5.5100     0.4380 C.3   1 <1>   0.1400 
 10 N       -4.1380    -6.9770     0.5920 N.am  1 <1>  -0.7300 
 11 C       -4.3860    -7.8830    -0.3940 C.2   1 <1>   0.5690 
 12 O       -4.7120    -7.5330    -1.5040 O.2   1 <1>  -0.5700 
 13 C       -4.2430    -9.3820    -0.0920 C.3   1 <1>   0.1710 
 14 N       -5.4770   -10.0720     0.3700 N.3   1 <1>  -0.8100 
 15 C       -6.5110   -10.0780    -0.6950 C.3   1 <1>   0.2910 
 16 C       -5.9850    -9.5490     1.6450 C.3   1 <1>   0.0300 
 17 C       -7.7420   -10.9100    -0.3370 C.2   1 <1>   0.0460 
 18 N       -7.6410   -12.2970    -0.3460 N.2   1 <1>  -0.5650 
 19 C       -8.9460   -10.4090    -0.0180 C.2   1 <1>  -0.1100 
 20 C       -8.7420   -12.8450    -0.0300 C.2   1 <1>   0.1980 
 21 S      -10.0390   -11.7210     0.3100 S.3   1 <1>  -0.0800 
 22 C       -9.0510   -14.3190     0.0830 C.3   1 <1>  -0.0600 
 23 H       -2.3830    -2.9250     1.8940 H     1 <1>   0.1500 
 24 H       -3.4210     0.4350    -0.4930 H     1 <1>   0.1500 
 25 H       -4.0010    -1.0700    -2.3740 H     1 <1>   0.1500 
 26 H       -3.7700    -3.4960    -2.1110 H     1 <1>   0.1500 
 27 H       -2.1980    -5.1210     0.8150 H     1 <1>   0.0800 
 28 H       -2.5930    -5.3190    -0.8720 H     1 <1>   0.0800 
 29 H       -4.9960    -5.2940    -0.3330 H     1 <1>   0.0800 
 30 H       -4.6310    -5.0820     1.3590 H     1 <1>   0.0800 
 31 H       -3.8670    -7.3090     1.5190 H     1 <1>   0.3700 
 32 H       -3.4790    -9.5110     0.6530 H     1 <1>   0.0800 
 33 H       -3.8930    -9.8670    -0.9850 H     1 <1>   0.0800 
 34 H       -6.0890   -10.4820    -1.5990 H     1 <1>   0.0800 
 35 H       -6.8220    -9.0680    -0.8990 H     1 <1>   0.0800 
 36 H       -5.1990    -9.5440     2.3790 H     1 <1>   0.0800 
 37 H       -6.7750   -10.1830     2.0100 H     1 <1>   0.0800 
 38 H       -6.3670    -8.5490     1.5220 H     1 <1>   0.0800 
 39 H       -9.3200    -9.4060     0.0660 H     1 <1>   0.1500 
 40 H       -8.1700   -14.8900    -0.1470 H     1 <1>   0.0800 
 41 H       -9.8310   -14.5820    -0.6070 H     1 <1>   0.0800 
 42 H       -9.3660   -14.5490     1.0840 H     1 <1>   0.0800 
@<TRIPOS>BOND
  1   1   2  1   
  2   2   3  ar  
  3   2   4  ar  
  4   3   5  ar  
  5   3  23  1   
  6   4   6  ar  
  7   4  24  1   
  8   5   7  ar  
  9   5   8  1   
 10   6   7  ar  
 11   6  25  1   
 12   7  26  1   
 13   8   9  1   
 14   8  27  1   
 15   8  28  1   
 16   9  10  1   
 17   9  29  1   
 18   9  30  1   
 19  10  11  am  
 20  10  31  1   
 21  11  12  2   
 22  11  13  1   
 23  13  14  1   
 24  13  32  1   
 25  13  33  1   
 26  14  15  1   
 27  14  16  1   
 28  15  17  1   
 29  15  34  1   
 30  15  35  1   
 31  16  36  1   
 32  16  37  1   
 33  16  38  1   
 34  17  18  1   
 35  17  19  2   
 36  18  20  2   
 37  19  21  1   
 38  19  39  1   
 39  20  21  1   
 40  20  22  1   
 41  22  40  1   
 42  22  41  1   
 43  22  42  1   
@<TRIPOS>SUBSTRUCTURE
  1 ****  11 GROUP 4 **** **** 0

# MOE 2024.06 (io_trps.svl 2023.06)
