@<TRIPOS>MOLECULE
NONAME
45 48 1 0 0 
SMALL
USER_CHARGES


@<TRIPOS>ATOM
  1 O       -0.7060    -1.3430    -0.7700 O.3   1 <1>  -0.6800 
  2 C        0.5380    -1.9240    -0.9610 C.3   1 <1>   0.1200 
  3 C        1.3520    -1.9430     0.3670 C.3   1 <1>   0.0000 
  4 C        2.7570    -2.5740     0.1370 C.3   1 <1>   0.4230 
  5 C        1.5520    -0.4860     0.8770 C.3   1 <1>  -0.1600 
  6 C        0.6060    -2.7510     1.4740 C.3   1 <1>  -0.1600 
  7 N        2.7260    -4.0530    -0.2430 N.4   1 <1>  -0.9590 
  8 C        3.6360    -1.6980    -0.7850 C.3   1 <1>   0.2090 
  9 C        2.4590     0.3740    -0.0130 C.3   1 <1>   0.2090 
 10 C        1.1110    -4.1950     1.6450 C.3   1 <1>  -0.1600 
 11 C        1.5530    -4.8000     0.3170 C.3   1 <1>   0.3430 
 12 C        2.8730    -4.3470    -1.7040 C.3   1 <1>   0.2630 
 13 N        3.7510    -0.3410    -0.1990 N.pl3 1 <1>  -0.8380 
 14 C        4.8530     0.0100     0.5700 C.ar  1 <1>   0.4100 
 15 N        5.4980    -0.9810     1.1610 N.ar  1 <1>  -0.6200 
 16 C        5.2810     1.3450     0.7410 C.ar  1 <1>   0.2270 
 17 C        6.5620    -0.6410     1.9080 C.ar  1 <1>   0.4700 
 18 N        4.8350     2.5610     0.2740 N.2   1 <1>  -0.5650 
 19 C        6.3840     1.5320     1.5330 C.ar  1 <1>   0.1050 
 20 N        7.0550     0.5510     2.1400 N.ar  1 <1>  -0.5670 
 21 C        5.6580     3.4140     0.7810 C.2   1 <1>   0.0360 
 22 N        6.6230     2.8560     1.5560 N.pl3 1 <1>   0.0330 
 23 H       -1.1990    -1.2450    -1.6110 H     1 <1>   0.4000 
 24 H        0.3690    -2.9190    -1.3290 H     1 <1>   0.0800 
 25 H        1.0410    -1.3530    -1.7210 H     1 <1>   0.0800 
 26 H        3.2440    -2.5220     1.0970 H     1 <1>   0.0800 
 27 H        2.0000    -0.5000     1.8550 H     1 <1>   0.0800 
 28 H        0.6010     0.0080     0.9810 H     1 <1>   0.0800 
 29 H        0.7040    -2.2630     2.4300 H     1 <1>   0.0800 
 30 H       -0.4500    -2.7730     1.2660 H     1 <1>   0.0800 
 31 H        3.5570    -4.4430     0.2260 H     1 <1>   0.4500 
 32 H        3.2100    -1.6110    -1.7670 H     1 <1>   0.0800 
 33 H        4.6160    -2.1320    -0.8810 H     1 <1>   0.0800 
 34 H        2.6140     1.3280     0.4600 H     1 <1>   0.0800 
 35 H        2.0030     0.5560    -0.9710 H     1 <1>   0.0800 
 36 H        0.3200    -4.7950     2.0640 H     1 <1>   0.0800 
 37 H        1.9320    -4.2230     2.3400 H     1 <1>   0.0800 
 38 H        0.7250    -4.7510    -0.3710 H     1 <1>   0.0800 
 39 H        1.8110    -5.8380     0.4550 H     1 <1>   0.0800 
 40 H        2.0550    -3.9200    -2.2600 H     1 <1>   0.0800 
 41 H        2.8830    -5.4120    -1.8710 H     1 <1>   0.0800 
 42 H        3.7980    -3.9400    -2.0810 H     1 <1>   0.0800 
 43 H        7.0740    -1.4640     2.3780 H     1 <1>   0.1500 
 44 H        5.6070     4.4770     0.6190 H     1 <1>   0.1500 
 45 H        7.3870     3.3120     2.0590 H     1 <1>   0.2700 
@<TRIPOS>BOND
  1   1   2  1   
  2   1  23  1   
  3   2   3  1   
  4   2  24  1   
  5   2  25  1   
  6   3   4  1   
  7   3   5  1   
  8   3   6  1   
  9   4   7  1   
 10   4   8  1   
 11   4  26  1   
 12   5   9  1   
 13   5  27  1   
 14   5  28  1   
 15   6  10  1   
 16   6  29  1   
 17   6  30  1   
 18   7  11  1   
 19   7  12  1   
 20   7  31  1   
 21   8  13  1   
 22   8  32  1   
 23   8  33  1   
 24   9  13  1   
 25   9  34  1   
 26   9  35  1   
 27  10  11  1   
 28  10  36  1   
 29  10  37  1   
 30  11  38  1   
 31  11  39  1   
 32  12  40  1   
 33  12  41  1   
 34  12  42  1   
 35  13  14  1   
 36  14  15  ar  
 37  14  16  ar  
 38  15  17  ar  
 39  16  18  1   
 40  16  19  ar  
 41  17  20  ar  
 42  17  43  1   
 43  18  21  2   
 44  19  20  ar  
 45  19  22  1   
 46  21  22  1   
 47  21  44  1   
 48  22  45  1   
@<TRIPOS>SUBSTRUCTURE
  1 ****  13 GROUP 4 **** **** 0

# MOE 2024.06 (io_trps.svl 2023.06)
