@<TRIPOS>MOLECULE
NONAME
46 48 1 0 0 
SMALL
USER_CHARGES


@<TRIPOS>ATOM
  1 CL       0.6290     0.3820    -0.6180 Cl    1 <1>  -0.1230 
  2 C        2.3120    -0.0110    -0.9240 C.2   1 <1>   0.1230 
  3 C        3.4130     0.8250    -0.7230 C.2   1 <1>   0.2030 
  4 C        2.7740    -1.1840    -1.3820 C.2   1 <1>  -0.3020 
  5 N        4.5230     0.1650    -1.0440 N.2   1 <1>  -0.7070 
  6 C        3.3130     2.1990    -0.2530 C.2   1 <1>   0.7160 
  7 N        4.1120    -1.0530    -1.4500 N.pl3 1 <1>   0.3140 
  8 O        2.4400     2.9310    -0.6840 O.2   1 <1>  -0.5700 
  9 N        4.2320     2.7580     0.6280 N.am  1 <1>  -0.6600 
 10 C        5.0430    -2.0920    -1.9110 C.3   1 <1>   0.0160 
 11 C        5.3780     2.0010     1.2120 C.3   1 <1>   0.1400 
 12 C        4.2450     4.2170     0.9090 C.3   1 <1>   0.1400 
 13 C        6.6370     2.0960     0.3260 C.3   1 <1>   0.3430 
 14 C        4.9880     4.9650    -0.2060 C.3   1 <1>  -0.1600 
 15 N        7.0070     3.5080    -0.0410 N.4   1 <1>  -0.9590 
 16 C        6.0290     4.1440    -0.9730 C.3   1 <1>   0.3430 
 17 C        8.4040     3.6180    -0.5580 C.3   1 <1>   0.4860 
 18 C        8.9230     5.0260    -0.2870 C.ar  1 <1>   0.1670 
 19 N        8.5300     5.6000     0.8460 N.ar  1 <1>  -0.6200 
 20 C        9.7580     5.6400    -1.2150 C.ar  1 <1>   0.1600 
 21 C        9.0390     6.8170     0.9840 C.ar  1 <1>   0.1600 
 22 N       10.2510     6.8550    -1.0750 N.ar  1 <1>  -0.6200 
 23 C        9.8750     7.4310     0.0530 C.ar  1 <1>   0.1670 
 24 C       10.4100     8.8280     0.2930 C.3   1 <1>  -0.0970 
 25 H        2.2400    -2.0750    -1.6520 H     1 <1>   0.1500 
 26 H        4.7780    -2.3860    -2.9090 H     1 <1>   0.0800 
 27 H        4.9800    -2.9400    -1.2540 H     1 <1>   0.0800 
 28 H        6.0440    -1.7040    -1.9050 H     1 <1>   0.0800 
 29 H        5.1090     0.9670     1.3390 H     1 <1>   0.0800 
 30 H        5.5990     2.3830     2.1940 H     1 <1>   0.0800 
 31 H        4.7240     4.3980     1.8560 H     1 <1>   0.0800 
 32 H        3.2350     4.5870     0.9870 H     1 <1>   0.0800 
 33 H        6.4700     1.5230    -0.5710 H     1 <1>   0.0800 
 34 H        7.4530     1.6350     0.8580 H     1 <1>   0.0800 
 35 H        5.4440     5.8500     0.1990 H     1 <1>   0.0800 
 36 H        4.2540     5.2990    -0.9180 H     1 <1>   0.0800 
 37 H        7.0320     4.1020     0.8060 H     1 <1>   0.4500 
 38 H        6.5400     4.8020    -1.6570 H     1 <1>   0.0800 
 39 H        5.5300     3.3820    -1.5520 H     1 <1>   0.0800 
 40 H        8.4400     3.3920    -1.6100 H     1 <1>   0.0800 
 41 H        9.0390     2.9240    -0.0330 H     1 <1>   0.0800 
 42 H       10.0370     5.1160    -2.1130 H     1 <1>   0.1500 
 43 H        8.7830     7.3570     1.8790 H     1 <1>   0.1500 
 44 H       10.0600     9.2270     1.2270 H     1 <1>   0.0800 
 45 H       10.0930     9.4780    -0.5030 H     1 <1>   0.0800 
 46 H       11.4850     8.8050     0.3080 H     1 <1>   0.0800 
@<TRIPOS>BOND
  1   1   2  1   
  2   2   3  1   
  3   2   4  2   
  4   3   5  2   
  5   3   6  1   
  6   4   7  1   
  7   4  25  1   
  8   5   7  1   
  9   6   8  2   
 10   6   9  am  
 11   7  10  1   
 12   9  11  1   
 13   9  12  1   
 14  10  26  1   
 15  10  27  1   
 16  10  28  1   
 17  11  13  1   
 18  11  29  1   
 19  11  30  1   
 20  12  14  1   
 21  12  31  1   
 22  12  32  1   
 23  13  15  1   
 24  13  33  1   
 25  13  34  1   
 26  14  16  1   
 27  14  35  1   
 28  14  36  1   
 29  15  16  1   
 30  15  17  1   
 31  15  37  1   
 32  16  38  1   
 33  16  39  1   
 34  17  18  1   
 35  17  40  1   
 36  17  41  1   
 37  18  19  ar  
 38  18  20  ar  
 39  19  21  ar  
 40  20  22  ar  
 41  20  42  1   
 42  21  23  ar  
 43  21  43  1   
 44  22  23  ar  
 45  23  24  1   
 46  24  44  1   
 47  24  45  1   
 48  24  46  1   
@<TRIPOS>SUBSTRUCTURE
  1 ****  15 GROUP 4 **** **** 0

# MOE 2024.06 (io_trps.svl 2023.06)
