@<TRIPOS>MOLECULE
NONAME
57 60 1 0 0 
SMALL
USER_CHARGES


@<TRIPOS>ATOM
  1 O       -0.7260     0.5600    -0.4210 O.2   1 <1>  -0.5700 
  2 C       -0.6360     1.7390    -0.1720 C.2   1 <1>   0.5690 
  3 N       -1.7160     2.5330     0.1320 N.am  1 <1>  -0.6600 
  4 C        0.7660     2.3490    -0.2250 C.3   1 <1>   0.1810 
  5 C       -1.5230     3.9940     0.4390 C.3   1 <1>   0.3640 
  6 C       -3.0820     2.0120     0.4280 C.3   1 <1>   0.2200 
  7 O        0.8850     3.5260     0.5330 O.3   1 <1>  -0.5600 
  8 C       -2.4790     4.8390    -0.4070 C.ar  1 <1>  -0.1440 
  9 C       -0.0790     4.5060     0.2050 C.3   1 <1>   0.2610 
 10 C       -3.0440     1.0950     1.6510 C.3   1 <1>  -0.2400 
 11 C       -3.6910     1.3150    -0.7900 C.3   1 <1>  -0.2400 
 12 C       -3.2110     5.8570     0.1880 C.ar  1 <1>  -0.1500 
 13 C       -2.6220     4.6170    -1.7710 C.ar  1 <1>  -0.1500 
 14 C        0.1910     5.8160     0.9650 C.2   1 <1>   0.5690 
 15 C       -4.0720     6.6370    -0.5640 C.ar  1 <1>  -0.1500 
 16 C       -3.4830     5.3960    -2.5240 C.ar  1 <1>  -0.1500 
 17 O       -0.4910     6.1070     1.9240 O.2   1 <1>  -0.5700 
 18 N        1.1910     6.6550     0.5450 N.am  1 <1>  -0.6600 
 19 C       -4.2090     6.4060    -1.9210 C.ar  1 <1>  -0.1500 
 20 C        1.4800     7.9460     1.2070 C.3   1 <1>   0.1400 
 21 C        2.2030     6.3600    -0.4940 C.3   1 <1>   0.1400 
 22 C        2.5340     8.6210     0.3220 C.3   1 <1>   0.0000 
 23 C        3.2700     7.4350    -0.3140 C.3   1 <1>  -0.1600 
 24 C        1.9150     9.5240    -0.7540 C.3   1 <1>  -0.1600 
 25 C        3.4750     9.5710     1.0650 C.3   1 <1>  -0.1600 
 26 C        3.0240    10.5020    -1.1570 C.3   1 <1>  -0.1600 
 27 C        4.0500    10.4880    -0.0170 C.3   1 <1>  -0.1600 
 28 H        1.0240     2.5690    -1.2440 H     1 <1>   0.0800 
 29 H        1.4720     1.6400     0.1660 H     1 <1>   0.0800 
 30 H       -1.7670     4.1260     1.4790 H     1 <1>   0.0800 
 31 H       -3.7250     2.8410     0.6720 H     1 <1>   0.0800 
 32 H        0.0320     4.7180    -0.8410 H     1 <1>   0.0800 
 33 H       -2.4820     0.2020     1.4450 H     1 <1>   0.0800 
 34 H       -4.0440     0.8060     1.9190 H     1 <1>   0.0800 
 35 H       -2.6030     1.6080     2.4850 H     1 <1>   0.0800 
 36 H       -3.1540     0.4170    -1.0350 H     1 <1>   0.0800 
 37 H       -3.6870     1.9750    -1.6370 H     1 <1>   0.0800 
 38 H       -4.7090     1.0460    -0.5790 H     1 <1>   0.0800 
 39 H       -3.1100     6.0550     1.2430 H     1 <1>   0.1500 
 40 H       -2.0670     3.8310    -2.2520 H     1 <1>   0.1500 
 41 H       -4.6340     7.4240    -0.0920 H     1 <1>   0.1500 
 42 H       -3.5900     5.2140    -3.5790 H     1 <1>   0.1500 
 43 H       -4.8790     7.0130    -2.5050 H     1 <1>   0.1500 
 44 H        0.5850     8.5370     1.3040 H     1 <1>   0.0800 
 45 H        1.8820     7.7480     2.1860 H     1 <1>   0.0800 
 46 H        2.6160     5.3740    -0.3640 H     1 <1>   0.0800 
 47 H        1.7480     6.4440    -1.4660 H     1 <1>   0.0800 
 48 H        4.0160     7.0570     0.3630 H     1 <1>   0.0800 
 49 H        3.7480     7.6820    -1.2450 H     1 <1>   0.0800 
 50 H        1.5370     8.9710    -1.5960 H     1 <1>   0.0800 
 51 H        1.1040    10.0870    -0.3250 H     1 <1>   0.0800 
 52 H        2.9030    10.1660     1.7560 H     1 <1>   0.0800 
 53 H        4.2450     9.0550     1.6100 H     1 <1>   0.0800 
 54 H        3.4920    10.1760    -2.0700 H     1 <1>   0.0800 
 55 H        2.6210    11.4890    -1.3080 H     1 <1>   0.0800 
 56 H        4.2270    11.4780     0.3680 H     1 <1>   0.0800 
 57 H        4.9800    10.0840    -0.3770 H     1 <1>   0.0800 
@<TRIPOS>BOND
  1   1   2  2   
  2   2   3  am  
  3   2   4  1   
  4   3   5  1   
  5   3   6  1   
  6   4   7  1   
  7   4  28  1   
  8   4  29  1   
  9   5   8  1   
 10   5   9  1   
 11   5  30  1   
 12   6  10  1   
 13   6  11  1   
 14   6  31  1   
 15   7   9  1   
 16   8  12  ar  
 17   8  13  ar  
 18   9  14  1   
 19   9  32  1   
 20  10  33  1   
 21  10  34  1   
 22  10  35  1   
 23  11  36  1   
 24  11  37  1   
 25  11  38  1   
 26  12  15  ar  
 27  12  39  1   
 28  13  16  ar  
 29  13  40  1   
 30  14  17  2   
 31  14  18  am  
 32  15  19  ar  
 33  15  41  1   
 34  16  19  ar  
 35  16  42  1   
 36  18  20  1   
 37  18  21  1   
 38  19  43  1   
 39  20  22  1   
 40  20  44  1   
 41  20  45  1   
 42  21  23  1   
 43  21  46  1   
 44  21  47  1   
 45  22  23  1   
 46  22  24  1   
 47  22  25  1   
 48  23  48  1   
 49  23  49  1   
 50  24  26  1   
 51  24  50  1   
 52  24  51  1   
 53  25  27  1   
 54  25  52  1   
 55  25  53  1   
 56  26  27  1   
 57  26  54  1   
 58  26  55  1   
 59  27  56  1   
 60  27  57  1   
@<TRIPOS>SUBSTRUCTURE
  1 ****   9 GROUP 4 **** **** 0

# MOE 2024.06 (io_trps.svl 2023.06)
