@<TRIPOS>MOLECULE
NONAME
53 56 1 0 0 
SMALL
USER_CHARGES


@<TRIPOS>ATOM
  1 F       -1.1780     0.2010     0.9120 F     1 <1>  -0.1900 
  2 C       -2.2110    -0.5830     0.7340 C.ar  1 <1>   0.1900 
  3 C       -3.1110    -0.2810    -0.2710 C.ar  1 <1>  -0.1500 
  4 C       -2.3640    -1.6820     1.5580 C.ar  1 <1>  -0.1500 
  5 C       -4.2010    -1.1140    -0.4540 C.ar  1 <1>  -0.1500 
  6 C       -3.4590    -2.5050     1.3620 C.ar  1 <1>  -0.1500 
  7 C       -4.3840    -2.2310     0.3600 C.ar  1 <1>   0.1000 
  8 N       -5.4720    -3.0780     0.1870 N.pl3 1 <1>  -0.8380 
  9 C       -5.4290    -3.9600    -0.9940 C.3   1 <1>   0.2090 
 10 C       -6.7990    -2.5170     0.5070 C.3   1 <1>   0.2090 
 11 C       -6.3240    -5.1620    -0.7050 C.3   1 <1>  -0.1600 
 12 C       -7.7190    -3.6890     0.8360 C.3   1 <1>  -0.1600 
 13 C       -7.7350    -4.7040    -0.3100 C.3   1 <1>   0.4230 
 14 N       -8.5620    -5.8520     0.1280 N.4   1 <1>  -0.9060 
 15 C       -8.9110    -6.8690    -0.9050 C.3   1 <1>   0.4230 
 16 C      -10.2470    -7.5330    -0.5650 C.3   1 <1>  -0.0800 
 17 C       -7.9890    -8.0720    -0.7250 C.3   1 <1>   0.1200 
 18 C       -9.8520    -8.6280     0.4400 C.3   1 <1>   0.1200 
 19 C      -11.3950    -6.6220    -0.0850 C.3   1 <1>  -0.0170 
 20 O       -8.4540    -8.6390     0.4530 O.3   1 <1>  -0.5600 
 21 C      -12.6690    -7.4270     0.0970 C.ar  1 <1>  -0.1430 
 22 C      -13.4760    -7.7620    -0.9730 C.ar  1 <1>  -0.1500 
 23 C      -13.0900    -7.8670     1.3380 C.ar  1 <1>  -0.1500 
 24 C      -14.6240    -8.5060    -0.7590 C.ar  1 <1>   0.1600 
 25 C      -14.2570    -8.6060     1.4430 C.ar  1 <1>   0.1600 
 26 N      -15.0300    -8.9370     0.4230 N.ar  1 <1>  -0.6200 
 27 H       -2.9560     0.5830    -0.8900 H     1 <1>   0.1500 
 28 H       -1.6430    -1.8840     2.3290 H     1 <1>   0.1500 
 29 H       -4.9120    -0.9010    -1.2290 H     1 <1>   0.1500 
 30 H       -3.6080    -3.3680     1.9850 H     1 <1>   0.1500 
 31 H       -5.7680    -3.4220    -1.8640 H     1 <1>   0.0800 
 32 H       -4.4140    -4.2840    -1.1670 H     1 <1>   0.0800 
 33 H       -6.7170    -1.8570     1.3560 H     1 <1>   0.0800 
 34 H       -7.1710    -1.9530    -0.3320 H     1 <1>   0.0800 
 35 H       -5.8730    -5.7230     0.0950 H     1 <1>   0.0800 
 36 H       -6.3540    -5.7700    -1.5890 H     1 <1>   0.0800 
 37 H       -8.7070    -3.3050     1.0130 H     1 <1>   0.0800 
 38 H       -7.3560    -4.1460     1.7400 H     1 <1>   0.0800 
 39 H       -8.1930    -4.2350    -1.1660 H     1 <1>   0.0800 
 40 H       -9.4200    -5.4950     0.5510 H     1 <1>   0.4500 
 41 H       -8.0750    -6.3690     0.8770 H     1 <1>   0.4500 
 42 H       -8.8900    -6.4580    -1.9010 H     1 <1>   0.0800 
 43 H      -10.5880    -8.0380    -1.4530 H     1 <1>   0.0800 
 44 H       -6.9480    -7.8250    -0.6190 H     1 <1>   0.0800 
 45 H       -8.1130    -8.7890    -1.5190 H     1 <1>   0.0800 
 46 H      -10.2050    -9.5990     0.1310 H     1 <1>   0.0800 
 47 H      -10.1930    -8.4230     1.4410 H     1 <1>   0.0800 
 48 H      -11.5780    -5.8480    -0.8110 H     1 <1>   0.0800 
 49 H      -11.1540    -6.1500     0.8510 H     1 <1>   0.0800 
 50 H      -13.2320    -7.4560    -1.9730 H     1 <1>   0.1500 
 51 H      -12.5320    -7.6470     2.2290 H     1 <1>   0.1500 
 52 H      -15.2430    -8.7590    -1.6030 H     1 <1>   0.1500 
 53 H      -14.5720    -8.9420     2.4160 H     1 <1>   0.1500 
@<TRIPOS>BOND
  1   1   2  1   
  2   2   3  ar  
  3   2   4  ar  
  4   3   5  ar  
  5   3  27  1   
  6   4   6  ar  
  7   4  28  1   
  8   5   7  ar  
  9   5  29  1   
 10   6   7  ar  
 11   6  30  1   
 12   7   8  1   
 13   8   9  1   
 14   8  10  1   
 15   9  11  1   
 16   9  31  1   
 17   9  32  1   
 18  10  12  1   
 19  10  33  1   
 20  10  34  1   
 21  11  13  1   
 22  11  35  1   
 23  11  36  1   
 24  12  13  1   
 25  12  37  1   
 26  12  38  1   
 27  13  14  1   
 28  13  39  1   
 29  14  15  1   
 30  14  40  1   
 31  14  41  1   
 32  15  16  1   
 33  15  17  1   
 34  15  42  1   
 35  16  18  1   
 36  16  19  1   
 37  16  43  1   
 38  17  20  1   
 39  17  44  1   
 40  17  45  1   
 41  18  20  1   
 42  18  46  1   
 43  18  47  1   
 44  19  21  1   
 45  19  48  1   
 46  19  49  1   
 47  21  22  ar  
 48  21  23  ar  
 49  22  24  ar  
 50  22  50  1   
 51  23  25  ar  
 52  23  51  1   
 53  24  26  ar  
 54  24  52  1   
 55  25  26  ar  
 56  25  53  1   
@<TRIPOS>SUBSTRUCTURE
  1 ****  13 GROUP 4 **** **** 0

# MOE 2024.06 (io_trps.svl 2023.06)
