@<TRIPOS>MOLECULE
NONAME
45 47 1 0 0 
SMALL
USER_CHARGES


@<TRIPOS>ATOM
  1 O       -1.9660    -0.5410    -2.7160 O.2   1 <1>  -0.5700 
  2 C       -2.0930    -0.8910    -1.5710 C.2   1 <1>   0.5690 
  3 N       -1.9980    -0.0170    -0.5250 N.am  1 <1>  -0.6600 
  4 C       -2.4160    -2.3410    -1.3250 C.3   1 <1>  -0.0190 
  5 C       -2.2110    -0.4230     0.8940 C.3   1 <1>   0.2200 
  6 C       -1.6140     1.4120    -0.7420 C.3   1 <1>   0.0600 
  7 C       -1.3440    -3.0420    -0.4640 C.3   1 <1>   0.1200 
  8 C       -3.8710    -2.4400    -0.8530 C.3   1 <1>   0.3430 
  9 C       -1.1620    -1.4760     1.3310 C.3   1 <1>   0.1200 
 10 C       -3.6840    -0.8540     1.1350 C.3   1 <1>   0.3430 
 11 O       -1.4770    -2.7760     0.9050 O.3   1 <1>  -0.5600 
 12 N       -4.0380    -2.2220     0.6210 N.4   1 <1>  -0.9590 
 13 C       -5.3380    -2.7270     1.1210 C.3   1 <1>   0.5240 
 14 C       -5.3850    -4.2140     0.8290 C.2   1 <1>  -0.1810 
 15 C       -6.2210    -4.8990     0.0000 C.2   1 <1>  -0.3320 
 16 C       -4.5050    -5.1500     1.3800 C.2   1 <1>  -0.1500 
 17 N       -5.8870    -6.2220     0.0200 N.pl3 1 <1>   0.0480 
 18 C       -7.3700    -4.3530    -0.8390 C.3   1 <1>  -0.0600 
 19 C       -4.8260    -6.3710     0.8690 C.2   1 <1>  -0.1320 
 20 C       -6.5590    -7.3240    -0.7110 C.3   1 <1>   0.0160 
 21 C       -4.1960    -7.6290     1.1340 C.1   1 <1>   0.5370 
 22 N       -3.6980    -8.6370     1.3150 N.1   1 <1>  -0.5570 
 23 H       -2.3800    -2.8140    -2.2910 H     1 <1>   0.0800 
 24 H       -2.0400     0.4500     1.5010 H     1 <1>   0.0800 
 25 H       -2.3940     2.0640    -0.3890 H     1 <1>   0.0800 
 26 H       -1.4530     1.6150    -1.7880 H     1 <1>   0.0800 
 27 H       -0.7010     1.6320    -0.2150 H     1 <1>   0.0800 
 28 H       -0.3520    -2.7580    -0.7790 H     1 <1>   0.0800 
 29 H       -1.4340    -4.1090    -0.5820 H     1 <1>   0.0800 
 30 H       -4.2220    -3.4290    -1.1020 H     1 <1>   0.0800 
 31 H       -4.4740    -1.7350    -1.4020 H     1 <1>   0.0800 
 32 H       -1.1210    -1.5080     2.4060 H     1 <1>   0.0800 
 33 H       -0.1810    -1.2140     0.9710 H     1 <1>   0.0800 
 34 H       -4.3350    -0.1180     0.6930 H     1 <1>   0.0800 
 35 H       -3.8530    -0.8400     2.1990 H     1 <1>   0.0800 
 36 H       -3.3150    -2.8490     1.0270 H     1 <1>   0.4500 
 37 H       -5.4200    -2.5710     2.1850 H     1 <1>   0.0800 
 38 H       -6.1530    -2.2220     0.6300 H     1 <1>   0.0800 
 39 H       -3.7140    -4.9450     2.0830 H     1 <1>   0.1500 
 40 H       -7.4950    -3.2960    -0.6960 H     1 <1>   0.0800 
 41 H       -8.2910    -4.8380    -0.5620 H     1 <1>   0.0800 
 42 H       -7.1880    -4.5340    -1.8840 H     1 <1>   0.0800 
 43 H       -7.1560    -6.9330    -1.5130 H     1 <1>   0.0800 
 44 H       -7.1900    -7.8680    -0.0300 H     1 <1>   0.0800 
 45 H       -5.8210    -7.9900    -1.1210 H     1 <1>   0.0800 
@<TRIPOS>BOND
  1   1   2  2   
  2   2   3  am  
  3   2   4  1   
  4   3   5  1   
  5   3   6  1   
  6   4   7  1   
  7   4   8  1   
  8   4  23  1   
  9   5   9  1   
 10   5  10  1   
 11   5  24  1   
 12   6  25  1   
 13   6  26  1   
 14   6  27  1   
 15   7  11  1   
 16   7  28  1   
 17   7  29  1   
 18   8  12  1   
 19   8  30  1   
 20   8  31  1   
 21   9  11  1   
 22   9  32  1   
 23   9  33  1   
 24  10  12  1   
 25  10  34  1   
 26  10  35  1   
 27  12  13  1   
 28  12  36  1   
 29  13  14  1   
 30  13  37  1   
 31  13  38  1   
 32  14  15  2   
 33  14  16  1   
 34  15  17  1   
 35  15  18  1   
 36  16  19  2   
 37  16  39  1   
 38  17  19  1   
 39  17  20  1   
 40  18  40  1   
 41  18  41  1   
 42  18  42  1   
 43  19  21  1   
 44  20  43  1   
 45  20  44  1   
 46  20  45  1   
 47  21  22  3   
@<TRIPOS>SUBSTRUCTURE
  1 ****  12 GROUP 4 **** **** 0

# MOE 2024.06 (io_trps.svl 2023.06)
