@<TRIPOS>MOLECULE
NONAME
48 50 1 0 0 
SMALL
USER_CHARGES


@<TRIPOS>ATOM
  1 F       -0.7590    -0.7000     0.6240 F     1 <1>  -0.1900 
  2 C       -1.8290    -1.4050     0.3720 C.ar  1 <1>   0.1900 
  3 C       -2.2890    -2.2830     1.3340 C.ar  1 <1>  -0.1500 
  4 C       -2.4610    -1.2470    -0.8460 C.ar  1 <1>  -0.1500 
  5 C       -3.4250    -3.0280     1.0620 C.ar  1 <1>  -0.1500 
  6 C       -3.5950    -1.9970    -1.1050 C.ar  1 <1>  -0.1500 
  7 C       -4.0810    -2.8870    -0.1550 C.ar  1 <1>  -0.1430 
  8 C       -5.3310    -3.7030    -0.4520 C.3   1 <1>  -0.0160 
  9 C       -6.6100    -2.8870    -0.1860 C.3   1 <1>  -0.0800 
 10 C       -7.9170    -3.5790    -0.5820 C.3   1 <1>   0.2200 
 11 C       -6.8140    -2.4820     1.2810 C.3   1 <1>  -0.1600 
 12 N       -7.9630    -4.9590    -0.0600 N.am  1 <1>  -0.7300 
 13 C       -8.9760    -2.7580     0.1450 C.3   1 <1>  -0.1600 
 14 C       -8.3280    -2.3010     1.4600 C.3   1 <1>  -0.1600 
 15 C       -7.8350    -6.0780    -0.8090 C.2   1 <1>   0.5690 
 16 O       -7.6630    -6.0430    -2.0020 O.2   1 <1>  -0.5700 
 17 C       -7.9180    -7.4200    -0.1290 C.3   1 <1>  -0.0990 
 18 C       -9.2280    -8.1100    -0.5170 C.3   1 <1>   0.0960 
 19 N       -9.3720    -9.3760     0.2180 N.pl3 1 <1>   0.3140 
 20 N       -9.6550    -9.4000     1.5330 N.2   1 <1>  -0.7070 
 21 C       -9.2340   -10.6220    -0.2770 C.2   1 <1>  -0.3020 
 22 C       -9.6940   -10.6610     1.8400 C.2   1 <1>   0.1390 
 23 C       -9.4370   -11.4780     0.7450 C.2   1 <1>  -0.1810 
 24 C       -9.4000   -12.9920     0.7310 C.3   1 <1>  -0.0590 
 25 H       -1.7700    -2.3790     2.2700 H     1 <1>   0.1500 
 26 H       -2.0720    -0.5540    -1.5690 H     1 <1>   0.1500 
 27 H       -3.7970    -3.7160     1.8010 H     1 <1>   0.1500 
 28 H       -4.1000    -1.8870    -2.0500 H     1 <1>   0.1500 
 29 H       -5.3170    -4.0130    -1.4830 H     1 <1>   0.0800 
 30 H       -5.3260    -4.5960     0.1470 H     1 <1>   0.0800 
 31 H       -6.5510    -1.9810    -0.7660 H     1 <1>   0.0800 
 32 H       -8.0660    -3.5760    -1.6500 H     1 <1>   0.0800 
 33 H       -6.4690    -3.2660     1.9330 H     1 <1>   0.0800 
 34 H       -6.2740    -1.5790     1.5110 H     1 <1>   0.0800 
 35 H       -8.0820    -5.0210     0.9520 H     1 <1>   0.3700 
 36 H       -9.1990    -1.8900    -0.4510 H     1 <1>   0.0800 
 37 H       -9.8880    -3.3090     0.2980 H     1 <1>   0.0800 
 38 H       -8.5730    -1.2720     1.6620 H     1 <1>   0.0800 
 39 H       -8.6740    -2.9070     2.2800 H     1 <1>   0.0800 
 40 H       -7.0830    -8.0180    -0.4420 H     1 <1>   0.0800 
 41 H       -7.8740    -7.2900     0.9370 H     1 <1>   0.0800 
 42 H       -9.2460    -8.3110    -1.5730 H     1 <1>   0.0800 
 43 H      -10.0640    -7.4830    -0.2680 H     1 <1>   0.0800 
 44 H       -9.0040   -10.8240    -1.3070 H     1 <1>   0.1500 
 45 H       -9.9030   -11.0210     2.8330 H     1 <1>   0.1500 
 46 H       -8.6430   -13.3460     1.4080 H     1 <1>   0.0800 
 47 H       -9.1750   -13.3480    -0.2580 H     1 <1>   0.0800 
 48 H      -10.3540   -13.3850     1.0330 H     1 <1>   0.0800 
@<TRIPOS>BOND
  1   1   2  1   
  2   2   3  ar  
  3   2   4  ar  
  4   3   5  ar  
  5   3  25  1   
  6   4   6  ar  
  7   4  26  1   
  8   5   7  ar  
  9   5  27  1   
 10   6   7  ar  
 11   6  28  1   
 12   7   8  1   
 13   8   9  1   
 14   8  29  1   
 15   8  30  1   
 16   9  10  1   
 17   9  11  1   
 18   9  31  1   
 19  10  12  1   
 20  10  13  1   
 21  10  32  1   
 22  11  14  1   
 23  11  33  1   
 24  11  34  1   
 25  12  15  am  
 26  12  35  1   
 27  13  14  1   
 28  13  36  1   
 29  13  37  1   
 30  14  38  1   
 31  14  39  1   
 32  15  16  2   
 33  15  17  1   
 34  17  18  1   
 35  17  40  1   
 36  17  41  1   
 37  18  19  1   
 38  18  42  1   
 39  18  43  1   
 40  19  20  1   
 41  19  21  1   
 42  20  22  2   
 43  21  23  2   
 44  21  44  1   
 45  22  23  1   
 46  22  45  1   
 47  23  24  1   
 48  24  46  1   
 49  24  47  1   
 50  24  48  1   
@<TRIPOS>SUBSTRUCTURE
  1 ****  12 GROUP 4 **** **** 0

# MOE 2024.06 (io_trps.svl 2023.06)
