@<TRIPOS>MOLECULE
NONAME
52 55 1 0 0 
SMALL
USER_CHARGES


@<TRIPOS>ATOM
  1 O        4.5010    -3.0050     1.6000 O.2   1 <1>  -0.5700 
  2 C        3.3930    -2.6760     1.2200 C.2   1 <1>   0.7160 
  3 N        3.1310    -1.3300     1.1030 N.am  1 <1>  -0.6600 
  4 C        2.4320    -3.6750     0.8290 C.2   1 <1>  -0.0860 
  5 C        3.9710    -0.3550     1.8980 C.3   1 <1>   0.2200 
  6 C        2.3360    -0.8200    -0.0570 C.3   1 <1>   0.1400 
  7 C        2.7420    -4.9930     0.4910 C.2   1 <1>   0.1390 
  8 C        1.0780    -3.6320     0.6790 C.2   1 <1>  -0.3020 
  9 C        3.1890     0.9070     2.2970 C.3   1 <1>   0.1200 
 10 C        5.2830     0.0030     1.1590 C.3   1 <1>   0.3430 
 11 C        2.8380     0.5080    -0.6540 C.3   1 <1>  -0.0800 
 12 N        1.7040    -5.6850     0.1450 N.2   1 <1>  -0.7070 
 13 N        0.6630    -4.8410     0.2640 N.pl3 1 <1>   0.3140 
 14 O        3.2530     1.8810     1.3010 O.3   1 <1>  -0.5600 
 15 N        5.2300    -0.3580    -0.2990 N.4   1 <1>  -0.9590 
 16 C        2.4220     1.7140     0.2040 C.3   1 <1>   0.1200 
 17 C        4.3280     0.5630    -1.0620 C.3   1 <1>   0.3430 
 18 C       -0.7220    -5.2700    -0.0340 C.3   1 <1>   0.2390 
 19 C        6.6370    -0.2600    -0.8690 C.3   1 <1>   0.2370 
 20 C       -1.5610    -4.1100    -0.5620 C.ar  1 <1>  -0.1430 
 21 C        7.2400     1.1470    -0.8320 C.2   1 <1>   0.9060 
 22 C       -1.4160    -3.6900    -1.8760 C.ar  1 <1>  -0.1500 
 23 C       -2.4670    -3.4620     0.2650 C.ar  1 <1>  -0.1500 
 24 O        6.9840     1.9050    -1.7720 O.co2 1 <1>  -0.9000 
 25 O        7.8370     1.4920     0.1910 O.co2 1 <1>  -0.9000 
 26 C       -2.1690    -2.6330    -2.3580 C.ar  1 <1>  -0.1500 
 27 C       -3.2200    -2.4060    -0.2170 C.ar  1 <1>  -0.1500 
 28 C       -3.0710    -1.9910    -1.5290 C.ar  1 <1>  -0.1500 
 29 H        4.2450    -0.8340     2.8210 H     1 <1>   0.0800 
 30 H        2.3440    -1.5630    -0.8380 H     1 <1>   0.0800 
 31 H        1.3120    -0.7020     0.2560 H     1 <1>   0.0800 
 32 H        3.7430    -5.3950     0.5120 H     1 <1>   0.1500 
 33 H        0.4030    -2.8130     0.8470 H     1 <1>   0.1500 
 34 H        3.6500     1.3390     3.1680 H     1 <1>   0.0800 
 35 H        2.1620     0.6860     2.5330 H     1 <1>   0.0800 
 36 H        6.0880    -0.5400     1.6240 H     1 <1>   0.0800 
 37 H        5.5030     1.0530     1.2740 H     1 <1>   0.0800 
 38 H        2.2870     0.6370    -1.5680 H     1 <1>   0.0800 
 39 H        4.8850    -1.3230    -0.3430 H     1 <1>   0.4500 
 40 H        1.4050     1.6300     0.5470 H     1 <1>   0.0800 
 41 H        2.5040     2.6160    -0.3800 H     1 <1>   0.0800 
 42 H        4.6830     1.5780    -0.9570 H     1 <1>   0.0800 
 43 H        4.4030     0.3170    -2.1080 H     1 <1>   0.0800 
 44 H       -0.6810    -6.0540    -0.7670 H     1 <1>   0.0800 
 45 H       -1.1510    -5.6700     0.8650 H     1 <1>   0.0800 
 46 H        7.2990    -0.9030    -0.3190 H     1 <1>   0.0800 
 47 H        6.6360    -0.5740    -1.8970 H     1 <1>   0.0800 
 48 H       -0.7180    -4.1840    -2.5300 H     1 <1>   0.1500 
 49 H       -2.5940    -3.7740     1.2880 H     1 <1>   0.1500 
 50 H       -2.0560    -2.3140    -3.3790 H     1 <1>   0.1500 
 51 H       -3.9240    -1.9080     0.4260 H     1 <1>   0.1500 
 52 H       -3.6600    -1.1720    -1.9050 H     1 <1>   0.1500 
@<TRIPOS>BOND
  1   1   2  2   
  2   2   3  am  
  3   2   4  1   
  4   3   5  1   
  5   3   6  1   
  6   4   7  1   
  7   4   8  2   
  8   5   9  1   
  9   5  10  1   
 10   5  29  1   
 11   6  11  1   
 12   6  30  1   
 13   6  31  1   
 14   7  12  2   
 15   7  32  1   
 16   8  13  1   
 17   8  33  1   
 18   9  14  1   
 19   9  34  1   
 20   9  35  1   
 21  10  15  1   
 22  10  36  1   
 23  10  37  1   
 24  11  16  1   
 25  11  17  1   
 26  11  38  1   
 27  12  13  1   
 28  13  18  1   
 29  14  16  1   
 30  15  17  1   
 31  15  19  1   
 32  15  39  1   
 33  16  40  1   
 34  16  41  1   
 35  17  42  1   
 36  17  43  1   
 37  18  20  1   
 38  18  44  1   
 39  18  45  1   
 40  19  21  1   
 41  19  46  1   
 42  19  47  1   
 43  20  22  ar  
 44  20  23  ar  
 45  21  24  ar  
 46  21  25  ar  
 47  22  26  ar  
 48  22  48  1   
 49  23  27  ar  
 50  23  49  1   
 51  26  28  ar  
 52  26  50  1   
 53  27  28  ar  
 54  27  51  1   
 55  28  52  1   
@<TRIPOS>SUBSTRUCTURE
  1 ****   6 GROUP 4 **** **** 0

# MOE 2024.06 (io_trps.svl 2023.06)
