@<TRIPOS>MOLECULE
NONAME
53 56 1 0 0 
SMALL
USER_CHARGES


@<TRIPOS>ATOM
  1 O        1.8110     0.1290     1.9410 O.2   1 <1>  -0.5700 
  2 C        1.8190    -0.5750     0.9480 C.2   1 <1>   0.5440 
  3 N        2.1380     0.0320    -0.2510 N.am  1 <1>  -0.6600 
  4 C        1.5470    -1.9960     1.0540 C.ar  1 <1>   0.0860 
  5 C        1.9600     1.5050    -0.4020 C.3   1 <1>   0.1400 
  6 C        2.8930    -0.6680    -1.3220 C.3   1 <1>   0.1400 
  7 C        0.7830    -2.6690     0.0970 C.ar  1 <1>  -0.1500 
  8 C        2.0420    -2.7430     2.1240 C.ar  1 <1>  -0.1500 
  9 C        3.0730     2.2790     0.3290 C.3   1 <1>   0.3430 
 10 C        4.2260     0.0340    -1.6120 C.3   1 <1>  -0.1600 
 11 C        0.5420    -4.0290     0.1800 C.ar  1 <1>  -0.1430 
 12 C        1.8110    -4.1020     2.2190 C.ar  1 <1>  -0.1500 
 13 N        4.4580     2.1200    -0.2590 N.4   1 <1>  -0.9590 
 14 C        4.8640     0.6800    -0.3760 C.3   1 <1>   0.3430 
 15 C        1.0700    -4.7510     1.2470 C.ar  1 <1>   0.0830 
 16 C       -0.2960    -4.7260    -0.8790 C.3   1 <1>  -0.0170 
 17 C        5.4390     2.8980     0.5510 C.3   1 <1>   0.4230 
 18 O        0.8720    -6.0810     1.3820 O.3   1 <1>  -0.3620 
 19 C       -0.8150    -6.0640    -0.3480 C.3   1 <1>  -0.1600 
 20 C        5.1150     4.4000     0.5540 C.3   1 <1>  -0.1600 
 21 C        6.8590     2.8010    -0.0130 C.3   1 <1>  -0.1600 
 22 C        0.3270    -6.8360     0.3190 C.3   1 <1>   0.1200 
 23 C        6.4160     5.1500     0.2430 C.3   1 <1>  -0.1600 
 24 C        7.5270     4.1160     0.3720 C.3   1 <1>  -0.1600 
 25 H        1.0150     1.7760     0.0390 H     1 <1>   0.0800 
 26 H        1.9230     1.7790    -1.4420 H     1 <1>   0.0800 
 27 H        2.2940    -0.7150    -2.2170 H     1 <1>   0.0800 
 28 H        3.0990    -1.6790    -1.0130 H     1 <1>   0.0800 
 29 H        0.3670    -2.1080    -0.7210 H     1 <1>   0.1500 
 30 H        2.6120    -2.2460     2.8900 H     1 <1>   0.1500 
 31 H        3.0810     1.9580     1.3580 H     1 <1>   0.0800 
 32 H        2.8030     3.3210     0.3250 H     1 <1>   0.0800 
 33 H        4.1030     0.7560    -2.3990 H     1 <1>   0.0800 
 34 H        4.9000    -0.7150    -1.9870 H     1 <1>   0.0800 
 35 H        2.1970    -4.6700     3.0470 H     1 <1>   0.1500 
 36 H        4.4670     2.5280    -1.1990 H     1 <1>   0.4500 
 37 H        5.9330     0.6130    -0.4890 H     1 <1>   0.0800 
 38 H        4.5900     0.1370     0.5160 H     1 <1>   0.0800 
 39 H        0.3160    -4.8970    -1.7470 H     1 <1>   0.0800 
 40 H       -1.1270    -4.1060    -1.1650 H     1 <1>   0.0800 
 41 H        5.4450     2.5420     1.5700 H     1 <1>   0.0800 
 42 H       -1.2280    -6.6440    -1.1540 H     1 <1>   0.0800 
 43 H       -1.5920    -5.8960     0.3780 H     1 <1>   0.0800 
 44 H        4.7650     4.6830     1.5320 H     1 <1>   0.0800 
 45 H        4.3750     4.6710    -0.1780 H     1 <1>   0.0800 
 46 H        6.8370     2.7310    -1.0870 H     1 <1>   0.0800 
 47 H        7.4000     1.9670     0.3990 H     1 <1>   0.0800 
 48 H       -0.0240    -7.7680     0.7260 H     1 <1>   0.0800 
 49 H        1.1190    -7.0330    -0.3830 H     1 <1>   0.0800 
 50 H        6.5720     5.9840     0.9060 H     1 <1>   0.0800 
 51 H        6.3890     5.5180    -0.7700 H     1 <1>   0.0800 
 52 H        8.3690     4.3470    -0.2600 H     1 <1>   0.0800 
 53 H        7.8610     4.0710     1.3960 H     1 <1>   0.0800 
@<TRIPOS>BOND
  1   1   2  2   
  2   2   3  am  
  3   2   4  1   
  4   3   5  1   
  5   3   6  1   
  6   4   7  ar  
  7   4   8  ar  
  8   5   9  1   
  9   5  25  1   
 10   5  26  1   
 11   6  10  1   
 12   6  27  1   
 13   6  28  1   
 14   7  11  ar  
 15   7  29  1   
 16   8  12  ar  
 17   8  30  1   
 18   9  13  1   
 19   9  31  1   
 20   9  32  1   
 21  10  14  1   
 22  10  33  1   
 23  10  34  1   
 24  11  15  ar  
 25  11  16  1   
 26  12  15  ar  
 27  12  35  1   
 28  13  14  1   
 29  13  17  1   
 30  13  36  1   
 31  14  37  1   
 32  14  38  1   
 33  15  18  1   
 34  16  19  1   
 35  16  39  1   
 36  16  40  1   
 37  17  20  1   
 38  17  21  1   
 39  17  41  1   
 40  18  22  1   
 41  19  22  1   
 42  19  42  1   
 43  19  43  1   
 44  20  23  1   
 45  20  44  1   
 46  20  45  1   
 47  21  24  1   
 48  21  46  1   
 49  21  47  1   
 50  22  48  1   
 51  22  49  1   
 52  23  24  1   
 53  23  50  1   
 54  23  51  1   
 55  24  52  1   
 56  24  53  1   
@<TRIPOS>SUBSTRUCTURE
  1 ****   2 GROUP 4 **** **** 0

# MOE 2024.06 (io_trps.svl 2023.06)
