@<TRIPOS>MOLECULE
NONAME
48 49 1 0 0 
SMALL
USER_CHARGES


@<TRIPOS>ATOM
  1 S        0.3740     0.1370    -0.7720 S.o2  1 <1>   1.3330 
  2 O        1.2070    -0.2250    -1.8980 O.2   1 <1>  -0.6500 
  3 O       -1.0120     0.4810    -0.9940 O.2   1 <1>  -0.6500 
  4 N        0.3840    -1.1670     0.3190 N.am  1 <1>  -0.8490 
  5 C        1.1670     1.4570     0.1580 C.3   1 <1>  -0.0550 
  6 C       -0.7280    -1.1360     1.2760 C.3   1 <1>   0.1160 
  7 C        0.4100    -2.4640    -0.3660 C.3   1 <1>   0.1160 
  8 C        2.7110     1.4510     0.2330 C.3   1 <1>  -0.0800 
  9 C        3.3820     1.7490    -1.1110 C.3   1 <1>   0.2200 
 10 C        3.3860     0.1580     0.7050 C.3   1 <1>   0.1200 
 11 N        4.1370     3.0130    -0.9990 N.am  1 <1>  -0.7300 
 12 C        4.3390     0.5730    -1.2900 C.3   1 <1>   0.1200 
 13 O        4.5790     0.0970    -0.0040 O.3   1 <1>  -0.5600 
 14 C        3.5910     4.2610    -1.0160 C.2   1 <1>   0.5440 
 15 O        2.4140     4.3570    -1.3150 O.2   1 <1>  -0.5700 
 16 C        4.3760     5.4390    -0.6820 C.ar  1 <1>   0.0860 
 17 C        5.5030     5.4120     0.1600 C.ar  1 <1>   0.0820 
 18 C        4.0040     6.6760    -1.2170 C.ar  1 <1>  -0.1500 
 19 O        5.8750     4.2280     0.7100 O.3   1 <1>  -0.3630 
 20 C        6.2120     6.5830     0.4260 C.ar  1 <1>  -0.1500 
 21 C        4.7080     7.8320    -0.9480 C.ar  1 <1>  -0.1500 
 22 C        6.9890     4.0660     1.5540 C.3   1 <1>   0.1200 
 23 C        5.8170     7.7860    -0.1260 C.ar  1 <1>  -0.1500 
 24 C        7.0650     2.5900     1.9350 C.3   1 <1>  -0.2400 
 25 H        0.8780     2.3930    -0.2830 H     1 <1>   0.0800 
 26 H        0.7780     1.4570     1.1560 H     1 <1>   0.0800 
 27 H       -0.6150    -1.9260     1.9990 H     1 <1>   0.0800 
 28 H       -1.6690    -1.2610     0.7660 H     1 <1>   0.0800 
 29 H       -0.7440    -0.1960     1.8000 H     1 <1>   0.0800 
 30 H        0.4220    -3.2660     0.3520 H     1 <1>   0.0800 
 31 H        1.2970    -2.5430    -0.9720 H     1 <1>   0.0800 
 32 H       -0.4530    -2.5690    -1.0020 H     1 <1>   0.0800 
 33 H        2.9860     2.2140     0.9390 H     1 <1>   0.0800 
 34 H        2.6920     1.8150    -1.9350 H     1 <1>   0.0800 
 35 H        2.8270    -0.7240     0.4560 H     1 <1>   0.0800 
 36 H        3.6040     0.1680     1.7580 H     1 <1>   0.0800 
 37 H        5.0390     2.9240    -0.5150 H     1 <1>   0.3700 
 38 H        5.2660     0.8530    -1.7560 H     1 <1>   0.0800 
 39 H        3.8660    -0.2150    -1.8520 H     1 <1>   0.0800 
 40 H        3.1400     6.7230    -1.8580 H     1 <1>   0.1500 
 41 H        7.0750     6.5810     1.0630 H     1 <1>   0.1500 
 42 H        4.3930     8.7680    -1.3780 H     1 <1>   0.1500 
 43 H        7.8730     4.3680     1.0180 H     1 <1>   0.0800 
 44 H        6.8510     4.6800     2.4280 H     1 <1>   0.0800 
 45 H        6.3680     8.6870     0.0840 H     1 <1>   0.1500 
 46 H        7.1810     1.9830     1.0540 H     1 <1>   0.0800 
 47 H        6.1710     2.2950     2.4540 H     1 <1>   0.0800 
 48 H        7.9070     2.4220     2.5800 H     1 <1>   0.0800 
@<TRIPOS>BOND
  1   1   2  2   
  2   1   3  2   
  3   1   4  am  
  4   1   5  1   
  5   4   6  1   
  6   4   7  1   
  7   5   8  1   
  8   5  25  1   
  9   5  26  1   
 10   6  27  1   
 11   6  28  1   
 12   6  29  1   
 13   7  30  1   
 14   7  31  1   
 15   7  32  1   
 16   8   9  1   
 17   8  10  1   
 18   8  33  1   
 19   9  11  1   
 20   9  12  1   
 21   9  34  1   
 22  10  13  1   
 23  10  35  1   
 24  10  36  1   
 25  11  14  am  
 26  11  37  1   
 27  12  13  1   
 28  12  38  1   
 29  12  39  1   
 30  14  15  2   
 31  14  16  1   
 32  16  17  ar  
 33  16  18  ar  
 34  17  19  1   
 35  17  20  ar  
 36  18  21  ar  
 37  18  40  1   
 38  19  22  1   
 39  20  23  ar  
 40  20  41  1   
 41  21  23  ar  
 42  21  42  1   
 43  22  24  1   
 44  22  43  1   
 45  22  44  1   
 46  23  45  1   
 47  24  46  1   
 48  24  47  1   
 49  24  48  1   
@<TRIPOS>SUBSTRUCTURE
  1 ****  11 GROUP 4 **** **** 0

# MOE 2024.06 (io_trps.svl 2023.06)
