@<TRIPOS>MOLECULE
NONAME
46 49 1 0 0 
SMALL
USER_CHARGES


@<TRIPOS>ATOM
  1 F       -1.2140    -2.1040    -1.2840 F     1 <1>  -0.1900 
  2 C       -0.2230    -2.9270    -1.0690 C.ar  1 <1>   0.1900 
  3 C        0.9640    -2.4260    -0.5740 C.ar  1 <1>  -0.1500 
  4 C       -0.3970    -4.2680    -1.3460 C.ar  1 <1>  -0.1500 
  5 C        2.0110    -3.3040    -0.3440 C.ar  1 <1>  -0.1500 
  6 C        0.6570    -5.1340    -1.1130 C.ar  1 <1>  -0.1500 
  7 C        1.8640    -4.6650    -0.5990 C.ar  1 <1>  -0.1080 
  8 C        3.0230    -5.6350    -0.3380 C.3   1 <1>   0.3330 
  9 N        2.5450    -6.9610     0.1650 N.am  1 <1>  -0.5100 
 10 C        3.7570    -5.4820     1.0230 C.3   1 <1>   0.0000 
 11 C        2.4690    -8.1570    -0.4780 C.2   1 <1>   0.5690 
 12 C        2.8120    -6.5700     1.5790 C.3   1 <1>   0.2250 
 13 O        2.6420    -8.2410    -1.6720 O.2   1 <1>  -0.5700 
 14 C        2.1260    -9.4300     0.3120 C.3   1 <1>   0.1710 
 15 N        0.6730    -9.7380     0.4420 N.3   1 <1>  -0.8100 
 16 C        0.0660    -9.9240    -0.8910 C.3   1 <1>   0.2530 
 17 C       -0.0360    -8.7030     1.2230 C.3   1 <1>   0.1100 
 18 C       -1.1900   -10.7790    -0.8250 C.ar  1 <1>  -0.1430 
 19 C       -1.4560    -9.1120     1.6350 C.3   1 <1>   0.1200 
 20 C       -2.3250   -10.3370    -0.1570 C.ar  1 <1>   0.0830 
 21 C       -1.2280   -12.0070    -1.4700 C.ar  1 <1>  -0.1500 
 22 O       -2.3240    -9.1730     0.5220 O.3   1 <1>  -0.3630 
 23 C       -3.4880   -11.0900    -0.1650 C.ar  1 <1>  -0.1500 
 24 C       -2.3850   -12.7700    -1.4650 C.ar  1 <1>  -0.1500 
 25 C       -3.5190   -12.3090    -0.8180 C.ar  1 <1>  -0.1500 
 26 H        1.0640    -1.3740    -0.3780 H     1 <1>   0.1500 
 27 H       -1.3330    -4.6230    -1.7390 H     1 <1>   0.1500 
 28 H        2.9410    -2.9150     0.0310 H     1 <1>   0.1500 
 29 H        0.5320    -6.1800    -1.3410 H     1 <1>   0.1500 
 30 H        3.6950    -5.7430    -1.1710 H     1 <1>   0.0000 
 31 H        3.6460    -4.5310     1.5120 H     1 <1>   0.0000 
 32 H        4.7820    -5.8080     0.9800 H     1 <1>   0.0000 
 33 H        3.3130    -7.3420     2.1350 H     1 <1>   0.0000 
 34 H        1.9260    -6.1800     2.0490 H     1 <1>   0.0000 
 35 H        2.5560    -9.3610     1.2940 H     1 <1>   0.0800 
 36 H        2.6080   -10.2580    -0.1770 H     1 <1>   0.0800 
 37 H        0.7730   -10.4090    -1.5430 H     1 <1>   0.0800 
 38 H       -0.1720    -8.9690    -1.3290 H     1 <1>   0.0800 
 39 H       -0.0820    -7.7770     0.6740 H     1 <1>   0.0800 
 40 H        0.5180    -8.5210     2.1270 H     1 <1>   0.0800 
 41 H       -1.8610    -8.3780     2.3070 H     1 <1>   0.0800 
 42 H       -1.4480   -10.0690     2.1290 H     1 <1>   0.0800 
 43 H       -0.3580   -12.3740    -1.9840 H     1 <1>   0.1500 
 44 H       -4.3580   -10.7190     0.3450 H     1 <1>   0.1500 
 45 H       -2.4030   -13.7200    -1.9690 H     1 <1>   0.1500 
 46 H       -4.4190   -12.8970    -0.8200 H     1 <1>   0.1500 
@<TRIPOS>BOND
  1   1   2  1   
  2   2   3  ar  
  3   2   4  ar  
  4   3   5  ar  
  5   3  26  1   
  6   4   6  ar  
  7   4  27  1   
  8   5   7  ar  
  9   5  28  1   
 10   6   7  ar  
 11   6  29  1   
 12   7   8  1   
 13   8   9  1   
 14   8  10  1   
 15   8  30  1   
 16   9  11  am  
 17   9  12  1   
 18  10  12  1   
 19  10  31  1   
 20  10  32  1   
 21  11  13  2   
 22  11  14  1   
 23  12  33  1   
 24  12  34  1   
 25  14  15  1   
 26  14  35  1   
 27  14  36  1   
 28  15  16  1   
 29  15  17  1   
 30  16  18  1   
 31  16  37  1   
 32  16  38  1   
 33  17  19  1   
 34  17  39  1   
 35  17  40  1   
 36  18  20  ar  
 37  18  21  ar  
 38  19  22  1   
 39  19  41  1   
 40  19  42  1   
 41  20  22  1   
 42  20  23  ar  
 43  21  24  ar  
 44  21  43  1   
 45  23  25  ar  
 46  23  44  1   
 47  24  25  ar  
 48  24  45  1   
 49  25  46  1   
@<TRIPOS>SUBSTRUCTURE
  1 ****  17 GROUP 4 **** **** 0

# MOE 2024.06 (io_trps.svl 2023.06)
