@<TRIPOS>MOLECULE
NONAME
46 48 1 0 0 
SMALL
USER_CHARGES


@<TRIPOS>ATOM
  1 S       -2.8550     0.1340     1.7340 S.3   1 <1>  -0.0800 
  2 C       -1.5680    -0.2310     0.6020 C.2   1 <1>   0.1980 
  3 C       -1.6660     0.3250     2.9880 C.2   1 <1>  -0.1100 
  4 N       -0.4000    -0.2070     1.1150 N.2   1 <1>  -0.5650 
  5 C       -1.9630    -0.5280    -0.8380 C.3   1 <1>   0.3200 
  6 C       -0.4510     0.1060     2.4650 C.2   1 <1>   0.0770 
  7 N       -2.5510    -1.9000    -0.9930 N.am  1 <1>  -0.6600 
  8 C       -3.8020    -2.0620    -1.5490 C.2   1 <1>   0.5690 
  9 C       -1.5960    -3.0110    -0.6930 C.3   1 <1>   0.0600 
 10 O       -4.4870    -1.1000    -1.8100 O.2   1 <1>  -0.5700 
 11 C       -4.4060    -3.4430    -1.8480 C.3   1 <1>   0.2610 
 12 O       -3.4990    -4.2510    -2.5850 O.3   1 <1>  -0.5600 
 13 C       -4.8900    -4.0930    -0.5210 C.3   1 <1>   0.3640 
 14 C       -3.9580    -5.5540    -2.8310 C.3   1 <1>   0.1810 
 15 N       -4.6850    -5.5790    -0.4460 N.am  1 <1>  -0.6600 
 16 C       -6.3750    -3.7750    -0.2890 C.ar  1 <1>  -0.1440 
 17 C       -4.2680    -6.2960    -1.5340 C.2   1 <1>   0.5690 
 18 C       -5.0010    -6.2190     0.8630 C.3   1 <1>   0.0600 
 19 C       -6.8010    -2.8100     0.6230 C.ar  1 <1>  -0.1440 
 20 C       -7.3300    -4.4750    -1.0200 C.ar  1 <1>  -0.1500 
 21 O       -4.1460    -7.4990    -1.5140 O.2   1 <1>  -0.5700 
 22 C       -8.1580    -2.5680     0.7820 C.ar  1 <1>  -0.1500 
 23 C       -5.8310    -1.9880     1.4610 C.3   1 <1>  -0.0970 
 24 C       -8.6790    -4.2280    -0.8550 C.ar  1 <1>  -0.1500 
 25 C       -9.0950    -3.2710     0.0490 C.ar  1 <1>  -0.1500 
 26 H       -2.0030     0.5790     3.9760 H     1 <1>   0.1500 
 27 H       -1.0850    -0.4590    -1.4560 H     1 <1>   0.0800 
 28 H       -2.6510     0.2300    -1.1690 H     1 <1>   0.0800 
 29 H        0.4820     0.1550     3.0020 H     1 <1>   0.1500 
 30 H       -1.0240    -2.7890     0.1920 H     1 <1>   0.0800 
 31 H       -0.9190    -3.1370    -1.5200 H     1 <1>   0.0800 
 32 H       -2.1110    -3.9400    -0.5270 H     1 <1>   0.0800 
 33 H       -5.2580    -3.2850    -2.4850 H     1 <1>   0.0800 
 34 H       -4.3100    -3.6680     0.2760 H     1 <1>   0.0800 
 35 H       -4.8380    -5.5030    -3.4450 H     1 <1>   0.0800 
 36 H       -3.1870    -6.0780    -3.3660 H     1 <1>   0.0800 
 37 H       -4.4480    -5.7380     1.6500 H     1 <1>   0.0800 
 38 H       -4.7400    -7.2630     0.8480 H     1 <1>   0.0800 
 39 H       -6.0550    -6.1330     1.0680 H     1 <1>   0.0800 
 40 H       -7.0290    -5.2290    -1.7260 H     1 <1>   0.1500 
 41 H       -8.4990    -1.8240     1.4800 H     1 <1>   0.1500 
 42 H       -6.3580    -1.3280     2.1270 H     1 <1>   0.0800 
 43 H       -5.2170    -1.3840     0.8200 H     1 <1>   0.0800 
 44 H       -5.2070    -2.6290     2.0570 H     1 <1>   0.0800 
 45 H       -9.4040    -4.7800    -1.4270 H     1 <1>   0.1500 
 46 H      -10.1440    -3.0730     0.1820 H     1 <1>   0.1500 
@<TRIPOS>BOND
  1   1   2  1   
  2   1   3  1   
  3   2   4  2   
  4   2   5  1   
  5   3   6  2   
  6   3  26  1   
  7   4   6  1   
  8   5   7  1   
  9   5  27  1   
 10   5  28  1   
 11   6  29  1   
 12   7   8  am  
 13   7   9  1   
 14   8  10  2   
 15   8  11  1   
 16   9  30  1   
 17   9  31  1   
 18   9  32  1   
 19  11  12  1   
 20  11  13  1   
 21  11  33  1   
 22  12  14  1   
 23  13  15  1   
 24  13  16  1   
 25  13  34  1   
 26  14  17  1   
 27  14  35  1   
 28  14  36  1   
 29  15  17  am  
 30  15  18  1   
 31  16  19  ar  
 32  16  20  ar  
 33  17  21  2   
 34  18  37  1   
 35  18  38  1   
 36  18  39  1   
 37  19  22  ar  
 38  19  23  1   
 39  20  24  ar  
 40  20  40  1   
 41  22  25  ar  
 42  22  41  1   
 43  23  42  1   
 44  23  43  1   
 45  23  44  1   
 46  24  25  ar  
 47  24  45  1   
 48  25  46  1   
@<TRIPOS>SUBSTRUCTURE
  1 ****  13 GROUP 4 **** **** 0

# MOE 2024.06 (io_trps.svl 2023.06)
