@<TRIPOS>MOLECULE
NONAME
49 51 1 0 0 
SMALL
USER_CHARGES


@<TRIPOS>ATOM
  1 O       -0.1820     0.9460     0.2490 O.2   1 <1>  -0.5700 
  2 C       -0.2690     2.1450     0.1240 C.2   1 <1>   0.5690 
  3 N       -1.1620     2.8960     0.8390 N.am  1 <1>  -0.6600 
  4 C        0.6430     2.8320    -0.8910 C.3   1 <1>   0.1810 
  5 C       -1.2790     4.3780     0.6300 C.3   1 <1>   0.3640 
  6 C       -2.0360     2.3100     1.8960 C.3   1 <1>   0.0600 
  7 O        0.8660     4.1850    -0.5800 O.3   1 <1>  -0.5600 
  8 C       -2.7380     4.7830     0.3610 C.ar  1 <1>  -0.1430 
  9 C       -0.3230     4.9550    -0.4490 C.3   1 <1>   0.2610 
 10 C       -3.5630     4.2050    -0.6100 C.ar  1 <1>  -0.1430 
 11 C       -3.2540     5.8030     1.1530 C.ar  1 <1>  -0.1500 
 12 C        0.0380     6.4000    -0.0870 C.2   1 <1>   0.5690 
 13 C       -4.8690     4.6530    -0.7510 C.ar  1 <1>  -0.1500 
 14 C       -3.1170     3.0820    -1.5410 C.3   1 <1>  -0.0960 
 15 C       -4.5550     6.2430     1.0010 C.ar  1 <1>  -0.1500 
 16 O       -0.7750     7.2810    -0.2330 O.2   1 <1>  -0.5700 
 17 N        1.2830     6.6670     0.3910 N.am  1 <1>  -0.7300 
 18 C       -5.3660     5.6650     0.0470 C.ar  1 <1>  -0.1500 
 19 C        1.7980     8.0120     0.7420 C.3   1 <1>   0.1400 
 20 C        2.3870     8.6840    -0.4970 C.3   1 <1>   0.1200 
 21 O        2.9500     9.9240    -0.1160 O.3   1 <1>  -0.3420 
 22 C        3.5490    10.6620    -1.0930 C.2   1 <1>   0.3510 
 23 N        3.6900    10.3270    -2.3130 N.2   1 <1>  -0.4100 
 24 C        4.1020    11.8980    -0.9120 C.2   1 <1>   0.1080 
 25 O        4.3170    11.3190    -2.9090 O.3   1 <1>   0.2420 
 26 N        4.5620    12.2720    -2.0370 N.2   1 <1>  -0.4100 
 27 C        4.1660    12.6970     0.3730 C.3   1 <1>  -0.0590 
 28 H        0.2120     2.7680    -1.8720 H     1 <1>   0.0800 
 29 H        1.5980     2.3370    -0.8990 H     1 <1>   0.0800 
 30 H       -0.9840     4.8270     1.5620 H     1 <1>   0.0800 
 31 H       -1.8980     2.8420     2.8210 H     1 <1>   0.0800 
 32 H       -1.7950     1.2730     2.0580 H     1 <1>   0.0800 
 33 H       -3.0680     2.3790     1.6010 H     1 <1>   0.0800 
 34 H       -0.8120     4.9710    -1.4040 H     1 <1>   0.0800 
 35 H       -2.6410     6.2790     1.8990 H     1 <1>   0.1500 
 36 H       -5.5170     4.2150    -1.4900 H     1 <1>   0.1500 
 37 H       -3.8240     2.9410    -2.3390 H     1 <1>   0.0800 
 38 H       -3.0460     2.1580    -0.9970 H     1 <1>   0.0800 
 39 H       -2.1690     3.3040    -1.9870 H     1 <1>   0.0800 
 40 H       -4.9330     7.0360     1.6220 H     1 <1>   0.1500 
 41 H        1.9550     5.8900     0.3860 H     1 <1>   0.3700 
 42 H       -6.3800     6.0030    -0.0770 H     1 <1>   0.1500 
 43 H        0.9890     8.6140     1.1220 H     1 <1>   0.0800 
 44 H        2.5520     7.9140     1.5030 H     1 <1>   0.0800 
 45 H        1.6160     8.8700    -1.2250 H     1 <1>   0.0800 
 46 H        3.1660     8.0760    -0.9230 H     1 <1>   0.0800 
 47 H        4.3940    12.0490     1.1990 H     1 <1>   0.0800 
 48 H        3.2200    13.1740     0.5500 H     1 <1>   0.0800 
 49 H        4.9290    13.4510     0.2990 H     1 <1>   0.0800 
@<TRIPOS>BOND
  1   1   2  2   
  2   2   3  am  
  3   2   4  1   
  4   3   5  1   
  5   3   6  1   
  6   4   7  1   
  7   4  28  1   
  8   4  29  1   
  9   5   8  1   
 10   5   9  1   
 11   5  30  1   
 12   6  31  1   
 13   6  32  1   
 14   6  33  1   
 15   7   9  1   
 16   8  10  ar  
 17   8  11  ar  
 18   9  12  1   
 19   9  34  1   
 20  10  13  ar  
 21  10  14  1   
 22  11  15  ar  
 23  11  35  1   
 24  12  16  2   
 25  12  17  am  
 26  13  18  ar  
 27  13  36  1   
 28  14  37  1   
 29  14  38  1   
 30  14  39  1   
 31  15  18  ar  
 32  15  40  1   
 33  17  19  1   
 34  17  41  1   
 35  18  42  1   
 36  19  20  1   
 37  19  43  1   
 38  19  44  1   
 39  20  21  1   
 40  20  45  1   
 41  20  46  1   
 42  21  22  1   
 43  22  23  2   
 44  22  24  1   
 45  23  25  1   
 46  24  26  2   
 47  24  27  1   
 48  25  26  1   
 49  27  47  1   
 50  27  48  1   
 51  27  49  1   
@<TRIPOS>SUBSTRUCTURE
  1 ****  12 GROUP 4 **** **** 0

# MOE 2024.06 (io_trps.svl 2023.06)
