@<TRIPOS>MOLECULE
NONAME
50 52 1 0 0 
SMALL
USER_CHARGES


@<TRIPOS>ATOM
  1 F       -5.9970    -1.2140     2.0070 F     1 <1>  -0.1900 
  2 C       -5.2010    -0.2280     1.6670 C.ar  1 <1>   0.1900 
  3 C       -4.2550    -0.4390     0.6650 C.ar  1 <1>   0.1170 
  4 C       -5.3470     0.9760     2.3260 C.ar  1 <1>  -0.1500 
  5 N       -4.1610    -1.6960     0.0370 N.am  1 <1>  -0.5470 
  6 C       -3.4340     0.6380     0.3430 C.ar  1 <1>  -0.1500 
  7 C       -4.5160     2.0280     1.9800 C.ar  1 <1>  -0.1500 
  8 C       -3.5210    -2.1430    -1.0830 C.2   1 <1>   0.5690 
  9 C       -3.5610     1.8600     0.9880 C.ar  1 <1>  -0.1440 
 10 O       -2.8310    -1.4550    -1.7970 O.2   1 <1>  -0.5700 
 11 C       -3.7170    -3.6190    -1.4350 C.3   1 <1>   0.1710 
 12 C       -2.6500     3.0160     0.6120 C.3   1 <1>  -0.0970 
 13 N       -4.9240    -4.2310    -0.7980 N.3   1 <1>  -0.8100 
 14 C       -4.8260    -5.6970    -0.7720 C.3   1 <1>   0.1100 
 15 C       -6.1630    -3.7840    -1.4600 C.3   1 <1>   0.1100 
 16 C       -5.9980    -6.2810     0.0200 C.3   1 <1>  -0.1600 
 17 C       -7.3730    -4.2970    -0.6800 C.3   1 <1>  -0.1600 
 18 C       -7.3340    -5.8200    -0.5700 C.3   1 <1>   0.2000 
 19 O       -8.3750    -6.2000     0.2700 O.3   1 <1>  -0.5600 
 20 C       -8.8340    -7.5160     0.1020 C.3   1 <1>   0.2630 
 21 C       -9.9880    -7.8550     1.0450 C.ar  1 <1>   0.1660 
 22 N      -10.5120    -9.0640     0.8830 N.ar  1 <1>  -0.6200 
 23 C      -10.4360    -6.9470     1.9980 C.ar  1 <1>  -0.1500 
 24 C      -11.5120    -9.3750     1.6920 C.ar  1 <1>   0.1600 
 25 C      -11.4790    -7.2860     2.8340 C.ar  1 <1>  -0.1500 
 26 C      -12.0260    -8.5390     2.6680 C.ar  1 <1>  -0.1500 
 27 H       -6.0930     1.0860     3.0920 H     1 <1>   0.1500 
 28 H       -4.7530    -2.4330     0.4410 H     1 <1>   0.3700 
 29 H       -2.6850     0.5220    -0.4180 H     1 <1>   0.1500 
 30 H       -4.6150     2.9740     2.4840 H     1 <1>   0.1500 
 31 H       -2.8360    -4.1360    -1.0990 H     1 <1>   0.0800 
 32 H       -3.7720    -3.7200    -2.5040 H     1 <1>   0.0800 
 33 H       -2.2670     2.8870    -0.3840 H     1 <1>   0.0800 
 34 H       -1.8230     3.0650     1.2970 H     1 <1>   0.0800 
 35 H       -3.1900     3.9450     0.6500 H     1 <1>   0.0800 
 36 H       -3.9040    -5.9880    -0.2950 H     1 <1>   0.0800 
 37 H       -4.8280    -6.0840    -1.7780 H     1 <1>   0.0800 
 38 H       -6.1940    -4.1510    -2.4720 H     1 <1>   0.0800 
 39 H       -6.2000    -2.7070    -1.4910 H     1 <1>   0.0800 
 40 H       -5.9220    -5.9520     1.0420 H     1 <1>   0.0800 
 41 H       -5.9290    -7.3520    -0.0020 H     1 <1>   0.0800 
 42 H       -8.2750    -3.9960    -1.1800 H     1 <1>   0.0800 
 43 H       -7.3640    -3.8600     0.3030 H     1 <1>   0.0800 
 44 H       -7.4880    -6.2500    -1.5470 H     1 <1>   0.0800 
 45 H       -8.0230    -8.1950     0.2900 H     1 <1>   0.0800 
 46 H       -9.1690    -7.6330    -0.9130 H     1 <1>   0.0800 
 47 H       -9.9760    -5.9800     2.0880 H     1 <1>   0.1500 
 48 H      -11.9470   -10.3520     1.5710 H     1 <1>   0.1500 
 49 H      -11.8450    -6.6020     3.5790 H     1 <1>   0.1500 
 50 H      -12.8410    -8.8660     3.2860 H     1 <1>   0.1500 
@<TRIPOS>BOND
  1   1   2  1   
  2   2   3  ar  
  3   2   4  ar  
  4   3   5  1   
  5   3   6  ar  
  6   4   7  ar  
  7   4  27  1   
  8   5   8  am  
  9   5  28  1   
 10   6   9  ar  
 11   6  29  1   
 12   7   9  ar  
 13   7  30  1   
 14   8  10  2   
 15   8  11  1   
 16   9  12  1   
 17  11  13  1   
 18  11  31  1   
 19  11  32  1   
 20  12  33  1   
 21  12  34  1   
 22  12  35  1   
 23  13  14  1   
 24  13  15  1   
 25  14  16  1   
 26  14  36  1   
 27  14  37  1   
 28  15  17  1   
 29  15  38  1   
 30  15  39  1   
 31  16  18  1   
 32  16  40  1   
 33  16  41  1   
 34  17  18  1   
 35  17  42  1   
 36  17  43  1   
 37  18  19  1   
 38  18  44  1   
 39  19  20  1   
 40  20  21  1   
 41  20  45  1   
 42  20  46  1   
 43  21  22  ar  
 44  21  23  ar  
 45  22  24  ar  
 46  23  25  ar  
 47  23  47  1   
 48  24  26  ar  
 49  24  48  1   
 50  25  26  ar  
 51  25  49  1   
 52  26  50  1   
@<TRIPOS>SUBSTRUCTURE
  1 ****  17 GROUP 4 **** **** 0

# MOE 2024.06 (io_trps.svl 2023.06)
