@<TRIPOS>MOLECULE
NONAME
64 66 1 0 0 
SMALL
USER_CHARGES


@<TRIPOS>ATOM
  1 O       -2.2120    -0.2420     1.6460 O.2   1 <1>  -0.5700 
  2 C       -2.5150     0.3680     0.6480 C.2   1 <1>   0.5690 
  3 N       -2.9610    -0.2580    -0.4850 N.am  1 <1>  -0.6600 
  4 C       -2.3170     1.8750     0.6880 C.3   1 <1>  -0.0990 
  5 C       -2.7500    -1.7400    -0.5970 C.3   1 <1>   0.3640 
  6 C       -3.6920     0.4480    -1.5820 C.3   1 <1>   0.1400 
  7 C       -0.9310     2.2400     0.1220 C.3   1 <1>  -0.1600 
  8 C       -1.2650    -1.9770    -0.8870 C.ar  1 <1>  -0.1440 
  9 C       -3.6440    -2.4800    -1.6370 C.3   1 <1>   0.2000 
 10 C       -4.1740    -0.4740    -2.7120 C.3   1 <1>   0.1200 
 11 C       -0.5710     3.7340     0.2190 C.3   1 <1>  -0.0800 
 12 C       -0.4840    -2.6270     0.0570 C.ar  1 <1>  -0.1500 
 13 C       -0.6690    -1.5390    -2.0600 C.ar  1 <1>  -0.1500 
 14 O       -4.6490    -1.6690    -2.1840 O.3   1 <1>  -0.5600 
 15 C       -4.3360    -3.7080    -1.0290 C.3   1 <1>   0.1200 
 16 C        0.7540     3.9850    -0.5220 C.3   1 <1>  -0.1600 
 17 C       -0.4460     4.2030     1.6820 C.3   1 <1>  -0.1600 
 18 C        0.8770    -2.8440    -0.1460 C.ar  1 <1>   0.0830 
 19 C        0.6770    -1.7630    -2.2860 C.ar  1 <1>  -0.1500 
 20 O       -3.3990    -4.6000    -0.5130 O.3   1 <1>  -0.6800 
 21 C        1.2470     5.4240    -0.3660 C.3   1 <1>   0.3430 
 22 C        0.0800     5.6350     1.7920 C.3   1 <1>   0.3430 
 23 O        1.6380    -3.4400     0.8180 O.3   1 <1>  -0.3630 
 24 C        1.4600    -2.4180    -1.3510 C.ar  1 <1>   0.0830 
 25 N        1.3850     5.7480     1.0820 N.4   1 <1>  -0.9590 
 26 C        1.2110    -3.4860     2.1640 C.3   1 <1>   0.0400 
 27 O        2.7650    -2.5740    -1.7180 O.3   1 <1>  -0.3620 
 28 C        1.9880     7.1010     1.2760 C.3   1 <1>   0.2630 
 29 C        3.5680    -3.6080    -1.1940 C.3   1 <1>   0.0400 
 30 H       -3.0960     2.3780     0.1490 H     1 <1>   0.0800 
 31 H       -2.3900     2.1740     1.7170 H     1 <1>   0.0800 
 32 H       -2.9710    -2.1680     0.3660 H     1 <1>   0.0800 
 33 H       -4.5550     0.9310    -1.1580 H     1 <1>   0.0800 
 34 H       -3.0610     1.2110    -2.0030 H     1 <1>   0.0800 
 35 H       -0.9000     1.9320    -0.9100 H     1 <1>   0.0800 
 36 H       -0.1870     1.6570     0.6430 H     1 <1>   0.0800 
 37 H       -3.0380    -2.8160    -2.4580 H     1 <1>   0.0800 
 38 H       -3.3830    -0.6890    -3.4090 H     1 <1>   0.0800 
 39 H       -4.9800    -0.0060    -3.2490 H     1 <1>   0.0800 
 40 H       -1.3450     4.3070    -0.2650 H     1 <1>   0.0800 
 41 H       -0.9610    -2.9530     0.9620 H     1 <1>   0.1500 
 42 H       -1.2420    -1.0180    -2.8030 H     1 <1>   0.1500 
 43 H       -4.9140    -4.2230    -1.7770 H     1 <1>   0.0800 
 44 H       -4.9810    -3.4070    -0.2220 H     1 <1>   0.0800 
 45 H        0.6220     3.7800    -1.5700 H     1 <1>   0.0800 
 46 H        1.5150     3.3140    -0.1600 H     1 <1>   0.0800 
 47 H        0.2070     3.5450     2.2280 H     1 <1>   0.0800 
 48 H       -1.4090     4.1680     2.1600 H     1 <1>   0.0800 
 49 H        1.1340    -1.4280    -3.1990 H     1 <1>   0.1500 
 50 H       -2.8380    -4.9760    -1.2200 H     1 <1>   0.4000 
 51 H        0.5430     6.0990    -0.8270 H     1 <1>   0.0800 
 52 H        2.1980     5.5330    -0.8630 H     1 <1>   0.0800 
 53 H        0.2010     5.8930     2.8320 H     1 <1>   0.0800 
 54 H       -0.6330     6.3160     1.3550 H     1 <1>   0.0800 
 55 H        2.0140     5.0410     1.4900 H     1 <1>   0.4500 
 56 H        2.0360    -3.8190     2.7650 H     1 <1>   0.0800 
 57 H        0.3940    -4.1800     2.2490 H     1 <1>   0.0800 
 58 H        0.9100    -2.4980     2.4690 H     1 <1>   0.0800 
 59 H        1.3490     7.8600     0.8560 H     1 <1>   0.0800 
 60 H        2.9510     7.1540     0.7920 H     1 <1>   0.0800 
 61 H        2.1220     7.3040     2.3260 H     1 <1>   0.0800 
 62 H        4.4280    -3.7190    -1.8280 H     1 <1>   0.0800 
 63 H        2.9990    -4.5210    -1.1790 H     1 <1>   0.0800 
 64 H        3.8800    -3.3360    -0.2020 H     1 <1>   0.0800 
@<TRIPOS>BOND
  1   1   2  2   
  2   2   3  am  
  3   2   4  1   
  4   3   5  1   
  5   3   6  1   
  6   4   7  1   
  7   4  30  1   
  8   4  31  1   
  9   5   8  1   
 10   5   9  1   
 11   5  32  1   
 12   6  10  1   
 13   6  33  1   
 14   6  34  1   
 15   7  11  1   
 16   7  35  1   
 17   7  36  1   
 18   8  12  ar  
 19   8  13  ar  
 20   9  14  1   
 21   9  15  1   
 22   9  37  1   
 23  10  14  1   
 24  10  38  1   
 25  10  39  1   
 26  11  16  1   
 27  11  17  1   
 28  11  40  1   
 29  12  18  ar  
 30  12  41  1   
 31  13  19  ar  
 32  13  42  1   
 33  15  20  1   
 34  15  43  1   
 35  15  44  1   
 36  16  21  1   
 37  16  45  1   
 38  16  46  1   
 39  17  22  1   
 40  17  47  1   
 41  17  48  1   
 42  18  23  1   
 43  18  24  ar  
 44  19  24  ar  
 45  19  49  1   
 46  20  50  1   
 47  21  25  1   
 48  21  51  1   
 49  21  52  1   
 50  22  25  1   
 51  22  53  1   
 52  22  54  1   
 53  23  26  1   
 54  24  27  1   
 55  25  28  1   
 56  25  55  1   
 57  26  56  1   
 58  26  57  1   
 59  26  58  1   
 60  27  29  1   
 61  28  59  1   
 62  28  60  1   
 63  28  61  1   
 64  29  62  1   
 65  29  63  1   
 66  29  64  1   
@<TRIPOS>SUBSTRUCTURE
  1 ****   2 GROUP 4 **** **** 0

# MOE 2024.06 (io_trps.svl 2023.06)
