@<TRIPOS>MOLECULE
NONAME
43 45 1 0 0 
SMALL
USER_CHARGES


@<TRIPOS>ATOM
  1 O        1.2120    -0.1130     1.8320 O.2   1 <1>  -0.5700 
  2 C        1.8340    -0.8210     1.0530 C.2   1 <1>   0.5440 
  3 N        2.5460    -0.2030     0.0400 N.am  1 <1>  -0.5090 
  4 C        1.8120    -2.2760     1.2450 C.ar  1 <1>   0.3960 
  5 C        2.2370     1.1740    -0.4150 C.3   1 <1>   0.0490 
  6 C        3.7900    -0.7970    -0.5300 C.3   1 <1>   0.3210 
  7 N        1.9530    -3.0950     0.1860 N.ar  1 <1>  -0.6200 
  8 C        1.6370    -2.7810     2.5350 C.ar  1 <1>  -0.1500 
  9 C        0.8310     1.5390    -0.7730 C.3   1 <1>  -0.2000 
 10 C        1.8580     1.3770    -1.8480 C.3   1 <1>  -0.2000 
 11 C        4.9530     0.1860    -0.4780 C.2   1 <1>  -0.1810 
 12 C        1.9260    -4.3870     0.4250 C.ar  1 <1>   0.4100 
 13 C        1.6100    -4.1380     2.7740 C.ar  1 <1>  -0.1500 
 14 C        5.6490     0.6950    -1.5710 C.2   1 <1>   0.1080 
 15 C        5.5400     0.7600     0.5970 C.2   1 <1>  -0.3320 
 16 N        2.0630    -5.1600    -0.6790 N.pl3 1 <1>  -0.9000 
 17 C        1.7620    -4.9550     1.6820 C.ar  1 <1>  -0.1500 
 18 N        6.5870     1.5140    -1.2170 N.2   1 <1>  -0.7070 
 19 C        5.3870     0.3670    -3.0240 C.3   1 <1>  -0.0590 
 20 N        6.5210     1.5590     0.1220 N.pl3 1 <1>   0.3140 
 21 C        5.2110     0.6000     2.0740 C.3   1 <1>  -0.0600 
 22 C        7.4350     2.4050     0.8970 C.3   1 <1>   0.0160 
 23 H        2.8510     1.9170     0.0690 H     1 <1>   0.1000 
 24 H        3.5950    -1.0950    -1.5440 H     1 <1>   0.0800 
 25 H        4.0760    -1.6720     0.0240 H     1 <1>   0.0800 
 26 H        1.5180    -2.0950     3.3560 H     1 <1>   0.1500 
 27 H        0.4860     2.5280    -0.5310 H     1 <1>   0.1000 
 28 H        0.0660     0.7920    -0.6520 H     1 <1>   0.1000 
 29 H        1.7820     0.5230    -2.4970 H     1 <1>   0.1000 
 30 H        2.2160     2.2570    -2.3510 H     1 <1>   0.1000 
 31 H        1.4770    -4.5350     3.7670 H     1 <1>   0.1500 
 32 H        1.5440    -6.0370    -0.7020 H     1 <1>   0.4000 
 33 H        1.9840    -4.6270    -1.5470 H     1 <1>   0.4000 
 34 H        1.7570    -6.0230     1.7850 H     1 <1>   0.1500 
 35 H        4.3830     0.6420    -3.2850 H     1 <1>   0.0800 
 36 H        5.5300    -0.6840    -3.1920 H     1 <1>   0.0800 
 37 H        6.0690     0.9150    -3.6480 H     1 <1>   0.0800 
 38 H        4.4260    -0.1190     2.2120 H     1 <1>   0.0800 
 39 H        4.8820     1.5390     2.4810 H     1 <1>   0.0800 
 40 H        6.0780     0.2650     2.6150 H     1 <1>   0.0800 
 41 H        6.8620     3.1050     1.4740 H     1 <1>   0.0800 
 42 H        8.0790     2.9360     0.2210 H     1 <1>   0.0800 
 43 H        8.0240     1.7850     1.5440 H     1 <1>   0.0800 
@<TRIPOS>BOND
  1   1   2  2   
  2   2   3  am  
  3   2   4  1   
  4   3   5  1   
  5   3   6  1   
  6   4   7  ar  
  7   4   8  ar  
  8   5   9  1   
  9   5  10  1   
 10   5  23  1   
 11   6  11  1   
 12   6  24  1   
 13   6  25  1   
 14   7  12  ar  
 15   8  13  ar  
 16   8  26  1   
 17   9  10  1   
 18   9  27  1   
 19   9  28  1   
 20  10  29  1   
 21  10  30  1   
 22  11  14  1   
 23  11  15  2   
 24  12  16  1   
 25  12  17  ar  
 26  13  17  ar  
 27  13  31  1   
 28  14  18  2   
 29  14  19  1   
 30  15  20  1   
 31  15  21  1   
 32  16  32  1   
 33  16  33  1   
 34  17  34  1   
 35  18  20  1   
 36  19  35  1   
 37  19  36  1   
 38  19  37  1   
 39  20  22  1   
 40  21  38  1   
 41  21  39  1   
 42  21  40  1   
 43  22  41  1   
 44  22  42  1   
 45  22  43  1   
@<TRIPOS>SUBSTRUCTURE
  1 ****   6 GROUP 4 **** **** 0

# MOE 2024.06 (io_trps.svl 2023.06)
