@<TRIPOS>MOLECULE
NONAME
52 54 1 0 0 
SMALL
USER_CHARGES


@<TRIPOS>ATOM
  1 O        2.5970    -0.3970     1.9130 O.2   1 <1>  -0.5700 
  2 C        2.2270    -0.8440     0.8430 C.2   1 <1>   0.5440 
  3 N        2.2620     0.0250    -0.2200 N.am  1 <1>  -0.6600 
  4 C        1.9520    -2.2620     0.6730 C.ar  1 <1>   0.0860 
  5 C        3.3330    -0.1390    -1.2450 C.3   1 <1>   0.1400 
  6 C        1.6470     1.3800    -0.1340 C.3   1 <1>   0.1400 
  7 C        0.8190    -2.7750     0.0190 C.ar  1 <1>  -0.1440 
  8 C        2.8750    -3.1750     1.1850 C.ar  1 <1>  -0.1500 
  9 C        4.7230     0.1740    -0.6440 C.3   1 <1>   0.3430 
 10 C        2.5340     2.3970     0.6050 C.3   1 <1>  -0.1600 
 11 C        0.6650    -4.1450    -0.1270 C.ar  1 <1>  -0.1500 
 12 C       -0.2930    -1.8810    -0.5280 C.3   1 <1>  -0.0160 
 13 C        2.7130    -4.5390     1.0360 C.ar  1 <1>  -0.1500 
 14 N        4.6330     1.1220     0.5170 N.4   1 <1>  -0.9590 
 15 C        4.0040     2.4240     0.1800 C.3   1 <1>   0.3430 
 16 C        1.6060    -5.0260     0.3720 C.ar  1 <1>  -0.1500 
 17 C       -1.1550    -1.3220     0.6080 C.3   1 <1>  -0.2400 
 18 C        5.8700     1.2530     1.3500 C.3   1 <1>   0.3430 
 19 C        7.1900     1.3370     0.5580 C.3   1 <1>  -0.0800 
 20 C        8.2940     1.6150     1.5660 C.3   1 <1>   0.1200 
 21 C        7.3300     2.5700    -0.3360 C.3   1 <1>  -0.1600 
 22 O        8.1720     2.9740     1.7960 O.3   1 <1>  -0.5600 
 23 C        7.9180     3.6320     0.5960 C.3   1 <1>   0.1200 
 24 H        3.1430     0.5180    -2.0760 H     1 <1>   0.0800 
 25 H        3.3240    -1.1470    -1.6240 H     1 <1>   0.0800 
 26 H        0.7040     1.3010     0.3830 H     1 <1>   0.0800 
 27 H        1.4360     1.7330    -1.1290 H     1 <1>   0.0800 
 28 H        3.7340    -2.8090     1.7180 H     1 <1>   0.1500 
 29 H        5.3690     0.5720    -1.4090 H     1 <1>   0.0800 
 30 H        5.1530    -0.7530    -0.3030 H     1 <1>   0.0800 
 31 H        2.4730     2.2200     1.6640 H     1 <1>   0.0800 
 32 H        2.1180     3.3750     0.4390 H     1 <1>   0.0800 
 33 H       -0.2000    -4.5460    -0.6280 H     1 <1>   0.1500 
 34 H       -0.9260    -2.4490    -1.1870 H     1 <1>   0.0800 
 35 H        0.1140    -1.0790    -1.1150 H     1 <1>   0.0800 
 36 H        3.4420    -5.2220     1.4380 H     1 <1>   0.1500 
 37 H        3.9160     0.6740     1.1360 H     1 <1>   0.4500 
 38 H        4.5050     3.2180     0.7110 H     1 <1>   0.0800 
 39 H        4.0840     2.6190    -0.8760 H     1 <1>   0.0800 
 40 H        1.4710    -6.0870     0.2500 H     1 <1>   0.1500 
 41 H       -1.5910    -2.1290     1.1700 H     1 <1>   0.0800 
 42 H       -1.9480    -0.7160     0.2070 H     1 <1>   0.0800 
 43 H       -0.5660    -0.7210     1.2770 H     1 <1>   0.0800 
 44 H        5.9310     0.4010     2.0070 H     1 <1>   0.0800 
 45 H        5.7860     2.1260     1.9790 H     1 <1>   0.0800 
 46 H        7.3880     0.4180     0.0370 H     1 <1>   0.0800 
 47 H        9.2710     1.4290     1.1500 H     1 <1>   0.0800 
 48 H        8.1830     1.0830     2.4960 H     1 <1>   0.0800 
 49 H        6.4200     2.9020    -0.7950 H     1 <1>   0.0800 
 50 H        8.0440     2.3770    -1.1180 H     1 <1>   0.0800 
 51 H        7.2310     4.4370     0.7910 H     1 <1>   0.0800 
 52 H        8.8470     4.0250     0.2170 H     1 <1>   0.0800 
@<TRIPOS>BOND
  1   1   2  2   
  2   2   3  am  
  3   2   4  1   
  4   3   5  1   
  5   3   6  1   
  6   4   7  ar  
  7   4   8  ar  
  8   5   9  1   
  9   5  24  1   
 10   5  25  1   
 11   6  10  1   
 12   6  26  1   
 13   6  27  1   
 14   7  11  ar  
 15   7  12  1   
 16   8  13  ar  
 17   8  28  1   
 18   9  14  1   
 19   9  29  1   
 20   9  30  1   
 21  10  15  1   
 22  10  31  1   
 23  10  32  1   
 24  11  16  ar  
 25  11  33  1   
 26  12  17  1   
 27  12  34  1   
 28  12  35  1   
 29  13  16  ar  
 30  13  36  1   
 31  14  15  1   
 32  14  18  1   
 33  14  37  1   
 34  15  38  1   
 35  15  39  1   
 36  16  40  1   
 37  17  41  1   
 38  17  42  1   
 39  17  43  1   
 40  18  19  1   
 41  18  44  1   
 42  18  45  1   
 43  19  20  1   
 44  19  21  1   
 45  19  46  1   
 46  20  22  1   
 47  20  47  1   
 48  20  48  1   
 49  21  23  1   
 50  21  49  1   
 51  21  50  1   
 52  22  23  1   
 53  23  51  1   
 54  23  52  1   
@<TRIPOS>SUBSTRUCTURE
  1 ****   3 GROUP 4 **** **** 0

# MOE 2024.06 (io_trps.svl 2023.06)
