@<TRIPOS>MOLECULE
NONAME
56 58 1 0 0 
SMALL
USER_CHARGES


@<TRIPOS>ATOM
  1 O       -0.8060     0.8430     1.1400 O.2   1 <1>  -0.5700 
  2 C       -0.8170     1.7060     0.2940 C.2   1 <1>   0.5690 
  3 N       -1.9860     2.2060    -0.2160 N.am  1 <1>  -0.6600 
  4 C        0.5250     2.2320    -0.1850 C.3   1 <1>  -0.0990 
  5 C       -2.0400     3.2410    -1.2800 C.3   1 <1>   0.1400 
  6 C       -3.3000     1.6860     0.2630 C.3   1 <1>   0.1400 
  7 C        0.7500     3.7140     0.1590 C.3   1 <1>  -0.1600 
  8 C       -1.4980     4.5820    -0.7740 C.3   1 <1>  -0.1600 
  9 C       -3.7390     2.4380     1.5190 C.3   1 <1>  -0.0990 
 10 C        0.0360     4.6810    -0.7950 C.3   1 <1>  -0.1600 
 11 C       -5.2140     2.2020     1.7630 C.2   1 <1>   0.5690 
 12 O       -5.5180     1.2330     2.4160 O.2   1 <1>  -0.5700 
 13 N       -6.1570     3.0520     1.2400 N.am  1 <1>  -0.6600 
 14 C       -7.6120     2.8030     1.4580 C.3   1 <1>   0.1400 
 15 C       -5.8540     4.2220     0.3580 C.3   1 <1>   0.1400 
 16 C       -8.3070     2.4600     0.1210 C.3   1 <1>   0.0000 
 17 C       -7.0520     4.6060    -0.5270 C.3   1 <1>  -0.1600 
 18 C       -9.8340     2.5400     0.2980 C.3   1 <1>   0.2000 
 19 C       -7.7830     3.3580    -1.0450 C.3   1 <1>  -0.1600 
 20 C       -8.1310     0.9780    -0.2510 C.3   1 <1>  -0.1600 
 21 O      -10.2960     3.8550     0.1970 O.3   1 <1>  -0.5600 
 22 C      -10.4240     1.6430    -0.7960 C.3   1 <1>  -0.1600 
 23 C       -9.3130     0.6510    -1.1690 C.3   1 <1>  -0.1600 
 24 C      -11.6050     4.0540     0.6260 C.3   1 <1>   0.0400 
 25 H        1.2910     1.6520     0.2980 H     1 <1>   0.0800 
 26 H        0.6200     2.0660    -1.2410 H     1 <1>   0.0800 
 27 H       -1.4780     2.9090    -2.1370 H     1 <1>   0.0800 
 28 H       -3.0590     3.3760    -1.5970 H     1 <1>   0.0800 
 29 H       -4.0390     1.7890    -0.5120 H     1 <1>   0.0800 
 30 H       -3.2180     0.6350     0.4920 H     1 <1>   0.0800 
 31 H        0.4360     3.8980     1.1730 H     1 <1>   0.0800 
 32 H        1.8060     3.9150     0.1090 H     1 <1>   0.0800 
 33 H       -1.8790     5.3530    -1.4200 H     1 <1>   0.0800 
 34 H       -1.8720     4.7810     0.2150 H     1 <1>   0.0800 
 35 H       -3.5410     3.4870     1.4310 H     1 <1>   0.0800 
 36 H       -3.1840     2.0640     2.3600 H     1 <1>   0.0800 
 37 H        0.3910     4.5180    -1.7990 H     1 <1>   0.0800 
 38 H        0.3120     5.6850    -0.5220 H     1 <1>   0.0800 
 39 H       -7.7670     2.0140     2.1730 H     1 <1>   0.0800 
 40 H       -8.0510     3.6950     1.8700 H     1 <1>   0.0800 
 41 H       -5.5700     5.0630     0.9670 H     1 <1>   0.0800 
 42 H       -5.0280     3.9730    -0.2840 H     1 <1>   0.0800 
 43 H       -7.7390     5.2110     0.0390 H     1 <1>   0.0800 
 44 H       -6.7090     5.2010    -1.3540 H     1 <1>   0.0800 
 45 H      -10.0980     2.1510     1.2680 H     1 <1>   0.0800 
 46 H       -7.0880     2.8060    -1.6520 H     1 <1>   0.0800 
 47 H       -8.5900     3.6560    -1.6910 H     1 <1>   0.0800 
 48 H       -7.1810     0.7700    -0.7120 H     1 <1>   0.0800 
 49 H       -8.2050     0.3720     0.6360 H     1 <1>   0.0800 
 50 H      -11.2920     1.1240    -0.4290 H     1 <1>   0.0800 
 51 H      -10.6890     2.2290    -1.6580 H     1 <1>   0.0800 
 52 H       -9.6300    -0.3700    -1.0420 H     1 <1>   0.0800 
 53 H       -9.0280     0.8010    -2.1970 H     1 <1>   0.0800 
 54 H      -11.8350     5.1000     0.5220 H     1 <1>   0.0800 
 55 H      -11.6890     3.7660     1.6600 H     1 <1>   0.0800 
 56 H      -12.2760     3.4760     0.0150 H     1 <1>   0.0800 
@<TRIPOS>BOND
  1   1   2  2   
  2   2   3  am  
  3   2   4  1   
  4   3   5  1   
  5   3   6  1   
  6   4   7  1   
  7   4  25  1   
  8   4  26  1   
  9   5   8  1   
 10   5  27  1   
 11   5  28  1   
 12   6   9  1   
 13   6  29  1   
 14   6  30  1   
 15   7  10  1   
 16   7  31  1   
 17   7  32  1   
 18   8  10  1   
 19   8  33  1   
 20   8  34  1   
 21   9  11  1   
 22   9  35  1   
 23   9  36  1   
 24  10  37  1   
 25  10  38  1   
 26  11  12  2   
 27  11  13  am  
 28  13  14  1   
 29  13  15  1   
 30  14  16  1   
 31  14  39  1   
 32  14  40  1   
 33  15  17  1   
 34  15  41  1   
 35  15  42  1   
 36  16  18  1   
 37  16  19  1   
 38  16  20  1   
 39  17  19  1   
 40  17  43  1   
 41  17  44  1   
 42  18  21  1   
 43  18  22  1   
 44  18  45  1   
 45  19  46  1   
 46  19  47  1   
 47  20  23  1   
 48  20  48  1   
 49  20  49  1   
 50  21  24  1   
 51  22  23  1   
 52  22  50  1   
 53  22  51  1   
 54  23  52  1   
 55  23  53  1   
 56  24  54  1   
 57  24  55  1   
 58  24  56  1   
@<TRIPOS>SUBSTRUCTURE
  1 ****  13 GROUP 4 **** **** 0

# MOE 2024.06 (io_trps.svl 2023.06)
