@<TRIPOS>MOLECULE
NONAME
49 52 1 0 0 
SMALL
USER_CHARGES


@<TRIPOS>ATOM
  1 O       -0.9650     0.8760     0.3980 O.2   1 <1>  -0.5700 
  2 C       -0.6760     2.0480     0.3340 C.2   1 <1>   0.5690 
  3 N       -1.5470     3.0560     0.6550 N.am  1 <1>  -0.5090 
  4 C        0.7210     2.4100    -0.1640 C.3   1 <1>   0.1810 
  5 C       -1.2320     4.4890     0.3530 C.3   1 <1>   0.3640 
  6 C       -2.8930     2.8000     1.2240 C.3   1 <1>   0.0490 
  7 O        1.1090     3.7030     0.2300 O.3   1 <1>  -0.5600 
  8 C       -2.2510     5.0250    -0.6540 C.ar  1 <1>  -0.1440 
  9 C        0.2100     4.7240    -0.1730 C.3   1 <1>   0.2610 
 10 C       -3.2440     3.4170     2.5420 C.3   1 <1>  -0.2000 
 11 C       -3.0290     1.9410     2.4410 C.3   1 <1>  -0.2000 
 12 C       -2.8740     6.2450    -0.4260 C.ar  1 <1>   0.1600 
 13 C       -2.5760     4.3260    -1.8030 C.ar  1 <1>  -0.1500 
 14 C        0.7200     6.0940     0.2930 C.2   1 <1>   0.5690 
 15 N       -3.7660     6.8060    -1.2260 N.ar  1 <1>  -0.6200 
 16 C       -3.5050     4.8960    -2.6470 C.ar  1 <1>  -0.1500 
 17 O       -0.0020     7.0600     0.2150 O.2   1 <1>  -0.5700 
 18 N        1.9810     6.2100     0.7880 N.am  1 <1>  -0.7300 
 19 C       -4.0610     6.1190    -2.3160 C.ar  1 <1>   0.1600 
 20 C        2.5680     7.4660     1.3140 C.3   1 <1>   0.1400 
 21 C        3.0440     8.3550     0.1620 C.3   1 <1>   0.0200 
 22 C        3.0220     9.8100     0.5880 C.2   1 <1>   0.0060 
 23 N        4.0560    10.4590     0.9990 N.2   1 <1>  -0.3380 
 24 N        1.9240    10.5770     0.5930 N.pl3 1 <1>   0.0480 
 25 N        3.6510    11.6960     1.2910 N.2   1 <1>  -0.3380 
 26 C        2.3880    11.7430     1.0430 C.2   1 <1>   0.0360 
 27 C        0.5360    10.2390     0.2170 C.3   1 <1>   0.0160 
 28 H        0.7540     2.3490    -1.2360 H     1 <1>   0.0800 
 29 H        1.4320     1.7160     0.2460 H     1 <1>   0.0800 
 30 H       -1.3380     5.0360     1.2730 H     1 <1>   0.0800 
 31 H       -3.6570     2.7280     0.4670 H     1 <1>   0.1000 
 32 H        0.1990     4.7320    -1.2480 H     1 <1>   0.0800 
 33 H       -2.5130     3.9870     3.0880 H     1 <1>   0.1000 
 34 H       -4.2480     3.7720     2.6970 H     1 <1>   0.1000 
 35 H       -3.8810     1.2900     2.5130 H     1 <1>   0.1000 
 36 H       -2.1400     1.5050     2.8610 H     1 <1>   0.1000 
 37 H       -2.6240     6.8000     0.4640 H     1 <1>   0.1500 
 38 H       -2.1370     3.3710    -2.0360 H     1 <1>   0.1500 
 39 H       -3.8000     4.3990    -3.5530 H     1 <1>   0.1500 
 40 H        2.5440     5.3550     0.8670 H     1 <1>   0.3700 
 41 H       -4.7870     6.5540    -2.9820 H     1 <1>   0.1500 
 42 H        1.8120     7.9840     1.8810 H     1 <1>   0.0800 
 43 H        3.3880     7.2490     1.9770 H     1 <1>   0.0800 
 44 H        2.4110     8.2360    -0.6980 H     1 <1>   0.0800 
 45 H        4.0450     8.0790    -0.1140 H     1 <1>   0.0800 
 46 H        1.7700    12.6110     1.1790 H     1 <1>   0.1500 
 47 H       -0.0450    11.1380     0.1260 H     1 <1>   0.0800 
 48 H        0.1050     9.6090     0.9740 H     1 <1>   0.0800 
 49 H        0.5320     9.7170    -0.7220 H     1 <1>   0.0800 
@<TRIPOS>BOND
  1   1   2  2   
  2   2   3  am  
  3   2   4  1   
  4   3   5  1   
  5   3   6  1   
  6   4   7  1   
  7   4  28  1   
  8   4  29  1   
  9   5   8  1   
 10   5   9  1   
 11   5  30  1   
 12   6  10  1   
 13   6  11  1   
 14   6  31  1   
 15   7   9  1   
 16   8  12  ar  
 17   8  13  ar  
 18   9  14  1   
 19   9  32  1   
 20  10  11  1   
 21  10  33  1   
 22  10  34  1   
 23  11  35  1   
 24  11  36  1   
 25  12  15  ar  
 26  12  37  1   
 27  13  16  ar  
 28  13  38  1   
 29  14  17  2   
 30  14  18  am  
 31  15  19  ar  
 32  16  19  ar  
 33  16  39  1   
 34  18  20  1   
 35  18  40  1   
 36  19  41  1   
 37  20  21  1   
 38  20  42  1   
 39  20  43  1   
 40  21  22  1   
 41  21  44  1   
 42  21  45  1   
 43  22  23  2   
 44  22  24  1   
 45  23  25  1   
 46  24  26  1   
 47  24  27  1   
 48  25  26  2   
 49  26  46  1   
 50  27  47  1   
 51  27  48  1   
 52  27  49  1   
@<TRIPOS>SUBSTRUCTURE
  1 ****  14 GROUP 4 **** **** 0

# MOE 2024.06 (io_trps.svl 2023.06)
