@<TRIPOS>MOLECULE
NONAME
51 55 1 0 0 
SMALL
USER_CHARGES


@<TRIPOS>ATOM
  1 O        0.2210     0.5290    -0.3500 O.2   1 <1>  -0.5700 
  2 C       -0.2660     1.6250    -0.5540 C.2   1 <1>   0.5440 
  3 N       -1.6280     1.7230    -0.7620 N.am  1 <1>  -0.6600 
  4 C        0.5980     2.7880    -0.5430 C.ar  1 <1>   0.0860 
  5 C       -2.3780     3.0180    -0.8040 C.3   1 <1>   0.1400 
  6 C       -2.4900     0.4980    -0.7790 C.3   1 <1>   0.1400 
  7 C        0.7270     3.6270    -1.6490 C.ar  1 <1>  -0.1500 
  8 C        1.3400     3.1140     0.5900 C.ar  1 <1>  -0.1500 
  9 C       -3.3120     3.1570     0.4180 C.3   1 <1>   0.1440 
 10 C       -3.9400     0.8020    -0.3620 C.3   1 <1>  -0.1600 
 11 C        1.5370     4.7460    -1.6120 C.ar  1 <1>  -0.1500 
 12 C        2.1510     4.2320     0.6270 C.ar  1 <1>  -0.1500 
 13 C       -4.3200     4.2470     0.0920 C.ar  1 <1>   0.1670 
 14 C       -3.9820     1.8100     0.7980 C.3   1 <1>  -0.1600 
 15 C       -2.5600     3.7710     1.6290 C.3   1 <1>  -0.1600 
 16 C        2.2710     5.0800    -0.4740 C.ar  1 <1>   0.0540 
 17 N       -5.3580     4.1160    -0.7050 N.ar  1 <1>  -0.6200 
 18 C       -4.0140     5.4170     0.7210 C.ar  1 <1>  -0.1430 
 19 C       -2.7670     5.2930     1.5590 C.3   1 <1>  -0.0170 
 20 C        3.1160     6.2570    -0.4520 C.2   1 <1>   0.2350 
 21 C       -6.0900     5.2130    -0.8370 C.ar  1 <1>   0.4770 
 22 C       -4.8400     6.4930     0.5100 C.ar  1 <1>   0.1600 
 23 N        2.9360     7.3060    -1.2190 N.2   1 <1>  -0.7070 
 24 C        4.2320     6.4440     0.3730 C.2   1 <1>  -0.1500 
 25 N       -5.8940     6.3990    -0.2750 N.ar  1 <1>  -0.6200 
 26 C       -7.2990     5.1040    -1.7340 C.3   1 <1>  -0.0970 
 27 N        3.9180     8.1610    -0.8940 N.pl3 1 <1>   0.3000 
 28 C        4.7160     7.6640     0.0680 C.2   1 <1>  -0.3020 
 29 H       -2.9690     3.0310    -1.7040 H     1 <1>   0.0800 
 30 H       -1.7170     3.8630    -0.8470 H     1 <1>   0.0800 
 31 H       -2.0810    -0.2250    -0.0930 H     1 <1>   0.0800 
 32 H       -2.4720     0.0650    -1.7640 H     1 <1>   0.0800 
 33 H        0.1820     3.3910    -2.5460 H     1 <1>   0.1500 
 34 H        1.2720     2.4700     1.4500 H     1 <1>   0.1500 
 35 H       -4.4230    -0.1140    -0.0720 H     1 <1>   0.0800 
 36 H       -4.4830     1.1970    -1.2040 H     1 <1>   0.0800 
 37 H        1.6130     5.3800    -2.4780 H     1 <1>   0.1500 
 38 H        2.6980     4.4520     1.5260 H     1 <1>   0.1500 
 39 H       -5.0000     1.9770     1.1060 H     1 <1>   0.0800 
 40 H       -3.4600     1.3660     1.6280 H     1 <1>   0.0800 
 41 H       -1.5180     3.5040     1.6410 H     1 <1>   0.0800 
 42 H       -3.0090     3.4230     2.5430 H     1 <1>   0.0800 
 43 H       -1.9420     5.7680     1.0560 H     1 <1>   0.0800 
 44 H       -2.8960     5.7220     2.5380 H     1 <1>   0.0800 
 45 H       -4.6390     7.4380     0.9850 H     1 <1>   0.1500 
 46 H        4.6100     5.7400     1.0910 H     1 <1>   0.1500 
 47 H       -7.2170     4.2430    -2.3710 H     1 <1>   0.0800 
 48 H       -7.3790     5.9840    -2.3440 H     1 <1>   0.0800 
 49 H       -8.1810     5.0130    -1.1290 H     1 <1>   0.0800 
 50 H        4.0200     9.0790    -1.3470 H     1 <1>   0.2700 
 51 H        5.5620     8.1940     0.4660 H     1 <1>   0.1500 
@<TRIPOS>BOND
  1   1   2  2   
  2   2   3  am  
  3   2   4  1   
  4   3   5  1   
  5   3   6  1   
  6   4   7  ar  
  7   4   8  ar  
  8   5   9  1   
  9   5  29  1   
 10   5  30  1   
 11   6  10  1   
 12   6  31  1   
 13   6  32  1   
 14   7  11  ar  
 15   7  33  1   
 16   8  12  ar  
 17   8  34  1   
 18   9  13  1   
 19   9  14  1   
 20   9  15  1   
 21  10  14  1   
 22  10  35  1   
 23  10  36  1   
 24  11  16  ar  
 25  11  37  1   
 26  12  16  ar  
 27  12  38  1   
 28  13  17  ar  
 29  13  18  ar  
 30  14  39  1   
 31  14  40  1   
 32  15  19  1   
 33  15  41  1   
 34  15  42  1   
 35  16  20  1   
 36  17  21  ar  
 37  18  19  1   
 38  18  22  ar  
 39  19  43  1   
 40  19  44  1   
 41  20  23  2   
 42  20  24  1   
 43  21  25  ar  
 44  21  26  1   
 45  22  25  ar  
 46  22  45  1   
 47  23  27  1   
 48  24  28  2   
 49  24  46  1   
 50  26  47  1   
 51  26  48  1   
 52  26  49  1   
 53  27  28  1   
 54  27  50  1   
 55  28  51  1   
@<TRIPOS>SUBSTRUCTURE
  1 ****   5 GROUP 4 **** **** 0

# MOE 2024.06 (io_trps.svl 2023.06)
