@<TRIPOS>MOLECULE
NONAME
53 55 1 0 0 
SMALL
USER_CHARGES


@<TRIPOS>ATOM
  1 O        0.6670    -0.1940    -1.2720 O.2   1 <1>  -0.5700 
  2 C        1.6440    -0.7980    -0.8570 C.2   1 <1>   0.5440 
  3 N        2.8870    -0.1980    -1.0150 N.am  1 <1>  -0.6600 
  4 C        1.4440    -2.1100    -0.2310 C.ar  1 <1>   0.3960 
  5 C        4.1810    -0.9030    -0.7690 C.3   1 <1>   0.1400 
  6 C        3.0110     1.2570    -1.3050 C.3   1 <1>   0.1400 
  7 N        2.0920    -2.4310     0.9070 N.ar  1 <1>  -0.6200 
  8 C        0.5610    -3.0030    -0.8330 C.ar  1 <1>  -0.1500 
  9 C        4.8720    -0.3770     0.4950 C.3   1 <1>   0.1400 
 10 C        3.1530     2.0200     0.0160 C.3   1 <1>  -0.1600 
 11 C        1.8520    -3.6240     1.4200 C.ar  1 <1>   0.1600 
 12 C        0.3240    -4.2460    -0.2910 C.ar  1 <1>   0.0820 
 13 N        5.4660     0.9750     0.2520 N.am  1 <1>  -0.6600 
 14 C        4.5930     2.1560     0.5380 C.3   1 <1>   0.1400 
 15 C        0.9950    -4.5590     0.8760 C.ar  1 <1>  -0.1500 
 16 O       -0.5390    -5.0670    -0.9270 O.3   1 <1>  -0.3630 
 17 C        6.7260     1.0710    -0.2980 C.2   1 <1>   0.5690 
 18 C       -0.8650    -6.3400    -0.4150 C.3   1 <1>   0.0400 
 19 O        7.3020     0.0830    -0.6980 O.2   1 <1>  -0.5700 
 20 C        7.4410     2.4320    -0.4430 C.3   1 <1>   0.2610 
 21 O        7.0260     3.0800    -1.6140 O.3   1 <1>  -0.6800 
 22 C        8.9750     2.3040    -0.4480 C.3   1 <1>  -0.0160 
 23 C        9.6700     3.6470    -0.2550 C.ar  1 <1>  -0.1440 
 24 C        9.8850     4.4910    -1.3340 C.ar  1 <1>  -0.1500 
 25 C       10.0950     4.0370     1.0060 C.ar  1 <1>  -0.1500 
 26 C       10.5170     5.7090    -1.1560 C.ar  1 <1>  -0.1500 
 27 C       10.7280     5.2560     1.1860 C.ar  1 <1>  -0.1500 
 28 C       10.9390     6.0930     0.1040 C.ar  1 <1>  -0.1500 
 29 H        4.8320    -0.7670    -1.6150 H     1 <1>   0.0800 
 30 H        4.0170    -1.9590    -0.6680 H     1 <1>   0.0800 
 31 H        2.1300     1.6000    -1.8200 H     1 <1>   0.0800 
 32 H        3.8550     1.4400    -1.9480 H     1 <1>   0.0800 
 33 H        0.0520    -2.7160    -1.7340 H     1 <1>   0.1500 
 34 H        5.6570    -1.0610     0.7670 H     1 <1>   0.0800 
 35 H        4.1720    -0.3440     1.3120 H     1 <1>   0.0800 
 36 H        2.5330     1.5600     0.7650 H     1 <1>   0.0800 
 37 H        2.7690     3.0140    -0.1270 H     1 <1>   0.0800 
 38 H        2.3700    -3.8730     2.3320 H     1 <1>   0.1500 
 39 H        4.5700     2.3260     1.6010 H     1 <1>   0.0800 
 40 H        5.0110     3.0340     0.0800 H     1 <1>   0.0800 
 41 H        0.8670    -5.5050     1.3660 H     1 <1>   0.1500 
 42 H       -1.5750    -6.7950    -1.0820 H     1 <1>   0.0800 
 43 H       -1.3030    -6.2230     0.5600 H     1 <1>   0.0800 
 44 H        0.0280    -6.9380    -0.3690 H     1 <1>   0.0800 
 45 H        7.1660     3.0590     0.3850 H     1 <1>   0.0800 
 46 H        7.2050     2.5000    -2.3800 H     1 <1>   0.4000 
 47 H        9.3020     1.8400    -1.3610 H     1 <1>   0.0800 
 48 H        9.2660     1.6510     0.3550 H     1 <1>   0.0800 
 49 H        9.5550     4.2040    -2.3170 H     1 <1>   0.1500 
 50 H        9.9390     3.3970     1.8550 H     1 <1>   0.1500 
 51 H       10.6780     6.3580    -1.9990 H     1 <1>   0.1500 
 52 H       11.0550     5.5520     2.1660 H     1 <1>   0.1500 
 53 H       11.4300     7.0400     0.2430 H     1 <1>   0.1500 
@<TRIPOS>BOND
  1   1   2  2   
  2   2   3  am  
  3   2   4  1   
  4   3   5  1   
  5   3   6  1   
  6   4   7  ar  
  7   4   8  ar  
  8   5   9  1   
  9   5  29  1   
 10   5  30  1   
 11   6  10  1   
 12   6  31  1   
 13   6  32  1   
 14   7  11  ar  
 15   8  12  ar  
 16   8  33  1   
 17   9  13  1   
 18   9  34  1   
 19   9  35  1   
 20  10  14  1   
 21  10  36  1   
 22  10  37  1   
 23  11  15  ar  
 24  11  38  1   
 25  12  15  ar  
 26  12  16  1   
 27  13  14  1   
 28  13  17  am  
 29  14  39  1   
 30  14  40  1   
 31  15  41  1   
 32  16  18  1   
 33  17  19  2   
 34  17  20  1   
 35  18  42  1   
 36  18  43  1   
 37  18  44  1   
 38  20  21  1   
 39  20  22  1   
 40  20  45  1   
 41  21  46  1   
 42  22  23  1   
 43  22  47  1   
 44  22  48  1   
 45  23  24  ar  
 46  23  25  ar  
 47  24  26  ar  
 48  24  49  1   
 49  25  27  ar  
 50  25  50  1   
 51  26  28  ar  
 52  26  51  1   
 53  27  28  ar  
 54  27  52  1   
 55  28  53  1   
@<TRIPOS>SUBSTRUCTURE
  1 ****  13 GROUP 4 **** **** 0

# MOE 2024.06 (io_trps.svl 2023.06)
