@<TRIPOS>MOLECULE
NONAME
53 55 1 0 0 
SMALL
USER_CHARGES


@<TRIPOS>ATOM
  1 O       -0.6530     0.1670    -0.6580 O.2   1 <1>  -0.5700 
  2 C       -1.5040     0.8380    -0.1060 C.2   1 <1>   0.5440 
  3 N       -2.5820     0.1990     0.4670 N.am  1 <1>  -0.6600 
  4 C       -1.3780     2.2840    -0.0880 C.ar  1 <1>   0.0860 
  5 C       -2.6230    -1.2880     0.6350 C.3   1 <1>   0.1400 
  6 C       -3.9360     0.8220     0.5750 C.3   1 <1>   0.1400 
  7 C       -1.5730     3.0200     1.0810 C.ar  1 <1>  -0.1500 
  8 C       -1.0580     2.9910    -1.2450 C.ar  1 <1>  -0.1500 
  9 C       -3.6940    -1.9130    -0.2750 C.3   1 <1>   0.3440 
 10 C       -4.9440     0.0960    -0.3470 C.3   1 <1>   0.2000 
 11 C       -1.4750     4.4000     1.0900 C.ar  1 <1>  -0.1500 
 12 C       -0.9590     4.3700    -1.2420 C.ar  1 <1>  -0.1500 
 13 O       -4.9300    -1.2800    -0.0650 O.3   1 <1>  -0.5600 
 14 C       -3.8290    -3.4080     0.0010 C.ar  1 <1>  -0.1430 
 15 C       -6.4080     0.6260    -0.2560 C.3   1 <1>   0.0000 
 16 C       -1.1710     5.0860    -0.0750 C.ar  1 <1>  -0.1430 
 17 C       -4.7150    -3.8940     0.9530 C.ar  1 <1>  -0.1500 
 18 C       -3.0410    -4.3070    -0.7050 C.ar  1 <1>  -0.1500 
 19 C       -7.0100     0.4290     1.1490 C.3   1 <1>  -0.2400 
 20 C       -7.2900    -0.1290    -1.2680 C.3   1 <1>  -0.2400 
 21 C       -6.4740     2.1230    -0.6080 C.3   1 <1>  -0.2400 
 22 C       -1.0620     6.6020    -0.0770 C.3   1 <1>   0.2630 
 23 C       -4.8100    -5.2540     1.1970 C.ar  1 <1>  -0.1500 
 24 C       -3.1350    -5.6660    -0.4630 C.ar  1 <1>  -0.1500 
 25 O        0.2500     6.9320    -0.3470 O.3   1 <1>  -0.6800 
 26 C       -4.0190    -6.1410     0.4890 C.ar  1 <1>  -0.1500 
 27 H       -1.6670    -1.7250     0.4090 H     1 <1>   0.0800 
 28 H       -2.8540    -1.5230     1.6590 H     1 <1>   0.0800 
 29 H       -4.2660     0.7610     1.5960 H     1 <1>   0.0800 
 30 H       -3.8910     1.8590     0.3000 H     1 <1>   0.0800 
 31 H       -1.8030     2.4960     1.9920 H     1 <1>   0.1500 
 32 H       -0.8830     2.4430    -2.1550 H     1 <1>   0.1500 
 33 H       -3.4190    -1.7670    -1.3060 H     1 <1>   0.0800 
 34 H       -4.6140     0.2180    -1.3650 H     1 <1>   0.0800 
 35 H       -1.6340     4.9360     2.0100 H     1 <1>   0.1500 
 36 H       -0.7100     4.8910    -2.1520 H     1 <1>   0.1500 
 37 H       -5.3360    -3.2120     1.5070 H     1 <1>   0.1500 
 38 H       -2.3460    -3.9510    -1.4470 H     1 <1>   0.1500 
 39 H       -8.0390     0.7410     1.1640 H     1 <1>   0.0800 
 40 H       -6.4790     1.0010     1.8870 H     1 <1>   0.0800 
 41 H       -6.9710    -0.6090     1.4300 H     1 <1>   0.0800 
 42 H       -8.3000     0.2410    -1.2480 H     1 <1>   0.0800 
 43 H       -7.3150    -1.1800    -1.0370 H     1 <1>   0.0800 
 44 H       -6.9050    -0.0140    -2.2660 H     1 <1>   0.0800 
 45 H       -7.4970     2.4550    -0.6430 H     1 <1>   0.0800 
 46 H       -6.0300     2.3050    -1.5720 H     1 <1>   0.0800 
 47 H       -5.9630     2.7220     0.1240 H     1 <1>   0.0800 
 48 H       -1.3230     7.0160     0.8820 H     1 <1>   0.0800 
 49 H       -1.6850     7.0390    -0.8380 H     1 <1>   0.0800 
 50 H       -5.5010    -5.6190     1.9360 H     1 <1>   0.1500 
 51 H       -2.5190    -6.3550    -1.0150 H     1 <1>   0.1500 
 52 H        0.8340     6.2780     0.0830 H     1 <1>   0.4000 
 53 H       -4.0940    -7.1970     0.6780 H     1 <1>   0.1500 
@<TRIPOS>BOND
  1   1   2  2   
  2   2   3  am  
  3   2   4  1   
  4   3   5  1   
  5   3   6  1   
  6   4   7  ar  
  7   4   8  ar  
  8   5   9  1   
  9   5  27  1   
 10   5  28  1   
 11   6  10  1   
 12   6  29  1   
 13   6  30  1   
 14   7  11  ar  
 15   7  31  1   
 16   8  12  ar  
 17   8  32  1   
 18   9  13  1   
 19   9  14  1   
 20   9  33  1   
 21  10  13  1   
 22  10  15  1   
 23  10  34  1   
 24  11  16  ar  
 25  11  35  1   
 26  12  16  ar  
 27  12  36  1   
 28  14  17  ar  
 29  14  18  ar  
 30  15  19  1   
 31  15  20  1   
 32  15  21  1   
 33  16  22  1   
 34  17  23  ar  
 35  17  37  1   
 36  18  24  ar  
 37  18  38  1   
 38  19  39  1   
 39  19  40  1   
 40  19  41  1   
 41  20  42  1   
 42  20  43  1   
 43  20  44  1   
 44  21  45  1   
 45  21  46  1   
 46  21  47  1   
 47  22  25  1   
 48  22  48  1   
 49  22  49  1   
 50  23  26  ar  
 51  23  50  1   
 52  24  26  ar  
 53  24  51  1   
 54  25  52  1   
 55  26  53  1   
@<TRIPOS>SUBSTRUCTURE
  1 ****   3 GROUP 4 **** **** 0

# MOE 2024.06 (io_trps.svl 2023.06)
