@<TRIPOS>MOLECULE
NONAME
37 38 1 0 0 
SMALL
USER_CHARGES


@<TRIPOS>ATOM
  1 O       -1.3300     0.2670    -1.5600 O.co2 1 <1>  -0.9000 
  2 C       -1.3190     0.0250    -0.3460 C.2   1 <1>   0.9060 
  3 O       -0.4090    -0.5830     0.2140 O.co2 1 <1>  -0.9000 
  4 C       -2.4330     0.6590     0.5250 C.3   1 <1>   0.3170 
  5 N       -2.5520     2.1650     0.3740 N.4   1 <1>  -0.9590 
  6 C       -3.8210     0.1210     0.1290 C.3   1 <1>  -0.1600 
  7 C       -3.4430     2.3090    -0.8030 C.3   1 <1>   0.3430 
  8 C       -1.2310     2.8240     0.1630 C.3   1 <1>   0.5230 
  9 C       -4.5490     1.2940    -0.5260 C.3   1 <1>   0.2000 
 10 C       -1.3730     4.3350     0.2730 C.2   1 <1>  -0.0400 
 11 O       -5.4090     1.8420     0.4190 O.3   1 <1>  -0.6800 
 12 O       -0.3160     5.0700    -0.0080 O.3   1 <1>  -0.2800 
 13 C       -2.4120     5.1300     0.6210 C.2   1 <1>  -0.1500 
 14 C       -0.6420     6.3370     0.1470 C.2   1 <1>  -0.0400 
 15 C       -1.9310     6.4420     0.5360 C.2   1 <1>  -0.1500 
 16 C        0.4260     7.3820    -0.1260 C.3   1 <1>   0.0200 
 17 C       -0.0820     8.8150     0.0850 C.3   1 <1>  -0.1600 
 18 C        1.0140     9.8490    -0.1980 C.3   1 <1>  -0.2400 
 19 H       -2.2090     0.4040     1.5450 H     1 <1>   0.0800 
 20 H       -3.0330     2.5490     1.1910 H     1 <1>   0.4500 
 21 H       -4.3420    -0.2630     0.9870 H     1 <1>   0.0800 
 22 H       -3.7050    -0.6810    -0.5800 H     1 <1>   0.0800 
 23 H       -3.8340     3.3080    -0.9050 H     1 <1>   0.0800 
 24 H       -2.9100     2.0280    -1.6980 H     1 <1>   0.0800 
 25 H       -0.5260     2.4820     0.9020 H     1 <1>   0.0800 
 26 H       -0.8440     2.5650    -0.8110 H     1 <1>   0.0800 
 27 H       -5.1060     1.0300    -1.4100 H     1 <1>   0.0800 
 28 H       -6.1630     1.2390     0.5860 H     1 <1>   0.4000 
 29 H       -3.4150     4.8700     0.9110 H     1 <1>   0.1500 
 30 H       -2.5030     7.3290     0.7480 H     1 <1>   0.1500 
 31 H        1.2600     7.1960     0.5270 H     1 <1>   0.0800 
 32 H        0.7650     7.2660    -1.1400 H     1 <1>   0.0800 
 33 H       -0.9170     8.9980    -0.5700 H     1 <1>   0.0800 
 34 H       -0.4210     8.9280     1.1010 H     1 <1>   0.0800 
 35 H        1.3530     9.7700    -1.2160 H     1 <1>   0.0800 
 36 H        1.8520     9.7000     0.4600 H     1 <1>   0.0800 
 37 H        0.6310    10.8420    -0.0430 H     1 <1>   0.0800 
@<TRIPOS>BOND
  1   1   2  ar  
  2   2   3  ar  
  3   2   4  1   
  4   4   5  1   
  5   4   6  1   
  6   4  19  1   
  7   5   7  1   
  8   5   8  1   
  9   5  20  1   
 10   6   9  1   
 11   6  21  1   
 12   6  22  1   
 13   7   9  1   
 14   7  23  1   
 15   7  24  1   
 16   8  10  1   
 17   8  25  1   
 18   8  26  1   
 19   9  11  1   
 20   9  27  1   
 21  10  12  1   
 22  10  13  2   
 23  11  28  1   
 24  12  14  1   
 25  13  15  1   
 26  13  29  1   
 27  14  15  2   
 28  14  16  1   
 29  15  30  1   
 30  16  17  1   
 31  16  31  1   
 32  16  32  1   
 33  17  18  1   
 34  17  33  1   
 35  17  34  1   
 36  18  35  1   
 37  18  36  1   
 38  18  37  1   
@<TRIPOS>SUBSTRUCTURE
  1 ****  10 GROUP 4 **** **** 0

# MOE 2024.06 (io_trps.svl 2023.06)
