@<TRIPOS>MOLECULE
NONAME
56 58 1 0 0 
SMALL
USER_CHARGES


@<TRIPOS>ATOM
  1 O       -1.9080     1.5830    -1.4600 O.2   1 <1>  -0.5700 
  2 C       -2.1330     1.4160    -0.2750 C.2   1 <1>   0.6900 
  3 N       -3.3200     0.8650     0.1370 N.am  1 <1>  -0.6600 
  4 N       -1.2230     1.7860     0.6630 N.am  1 <1>  -0.7300 
  5 C       -3.5330     0.2060     1.4540 C.3   1 <1>   0.1400 
  6 C       -4.4610     0.7050    -0.8060 C.3   1 <1>   0.1400 
  7 C        0.1010     2.4070     0.4700 C.3   1 <1>   0.2200 
  8 C       -3.7810    -1.2880     1.2350 C.3   1 <1>  -0.1600 
  9 C       -4.7130    -0.7850    -1.0460 C.3   1 <1>  -0.1600 
 10 C       -0.0520     3.7820    -0.1990 C.3   1 <1>  -0.1600 
 11 C        1.0110     1.4480    -0.2990 C.3   1 <1>  -0.2400 
 12 C       -4.9500    -1.5430     0.2710 C.3   1 <1>   0.4240 
 13 C        1.2410     4.6100    -0.1840 C.3   1 <1>  -0.2400 
 14 O       -6.0770    -0.9850     0.9060 O.3   1 <1>  -0.5600 
 15 C       -5.1260    -3.0570     0.0250 C.ar  1 <1>  -0.1440 
 16 C       -7.3320    -1.4370     0.5010 C.3   1 <1>   0.1200 
 17 C       -6.3200    -3.7030     0.3210 C.ar  1 <1>  -0.1440 
 18 C       -4.0880    -3.8100    -0.5090 C.ar  1 <1>  -0.1500 
 19 C       -7.4750    -2.9040     0.8910 C.3   1 <1>  -0.0170 
 20 C       -6.4630    -5.0620     0.0940 C.ar  1 <1>  -0.1500 
 21 C       -4.2090    -5.1700    -0.7350 C.ar  1 <1>   0.0830 
 22 C       -5.4210    -5.8150    -0.4410 C.ar  1 <1>   0.0830 
 23 O       -3.0930    -5.7650    -1.2470 O.3   1 <1>  -0.3630 
 24 O       -5.5660    -7.1490    -0.6970 O.3   1 <1>  -0.3620 
 25 C       -2.7720    -7.1040    -0.9450 C.3   1 <1>   0.0400 
 26 C       -6.8070    -7.8080    -0.5730 C.3   1 <1>   0.0400 
 27 H       -1.5680     1.8050     1.6160 H     1 <1>   0.3700 
 28 H       -4.3860     0.6540     1.9370 H     1 <1>   0.0800 
 29 H       -2.6800     0.3300     2.0950 H     1 <1>   0.0800 
 30 H       -4.2550     1.1950    -1.7420 H     1 <1>   0.0800 
 31 H       -5.3360     1.1630    -0.3780 H     1 <1>   0.0800 
 32 H        0.5290     2.5570     1.4470 H     1 <1>   0.0800 
 33 H       -3.9910    -1.7670     2.1740 H     1 <1>   0.0800 
 34 H       -2.8800    -1.7220     0.8450 H     1 <1>   0.0800 
 35 H       -3.8510    -1.1890    -1.5450 H     1 <1>   0.0800 
 36 H       -5.5480    -0.9160    -1.7060 H     1 <1>   0.0800 
 37 H       -0.8150     4.3350     0.3190 H     1 <1>   0.0800 
 38 H       -0.3720     3.6540    -1.2190 H     1 <1>   0.0800 
 39 H        0.6740     1.3400    -1.3150 H     1 <1>   0.0800 
 40 H        1.0150     0.4840     0.1750 H     1 <1>   0.0800 
 41 H        2.0180     1.8200    -0.3150 H     1 <1>   0.0800 
 42 H        1.5980     4.7360     0.8230 H     1 <1>   0.0800 
 43 H        1.0540     5.5820    -0.6050 H     1 <1>   0.0800 
 44 H        2.0060     4.1330    -0.7700 H     1 <1>   0.0800 
 45 H       -7.4300    -1.3060    -0.5630 H     1 <1>   0.0800 
 46 H       -8.0750    -0.8390     0.9990 H     1 <1>   0.0800 
 47 H       -3.1520    -3.3460    -0.7610 H     1 <1>   0.1500 
 48 H       -8.4100    -3.2790     0.5150 H     1 <1>   0.0800 
 49 H       -7.4810    -2.9900     1.9630 H     1 <1>   0.0800 
 50 H       -7.4000    -5.5190     0.3420 H     1 <1>   0.1500 
 51 H       -1.7240    -7.2480    -1.1330 H     1 <1>   0.0800 
 52 H       -3.3480    -7.7510    -1.5820 H     1 <1>   0.0800 
 53 H       -2.9910    -7.2940     0.0910 H     1 <1>   0.0800 
 54 H       -6.6770    -8.8260    -0.8930 H     1 <1>   0.0800 
 55 H       -7.5280    -7.3170    -1.2020 H     1 <1>   0.0800 
 56 H       -7.1130    -7.7870     0.4580 H     1 <1>   0.0800 
@<TRIPOS>BOND
  1   1   2  2   
  2   2   3  am  
  3   2   4  am  
  4   3   5  1   
  5   3   6  1   
  6   4   7  1   
  7   4  27  1   
  8   5   8  1   
  9   5  28  1   
 10   5  29  1   
 11   6   9  1   
 12   6  30  1   
 13   6  31  1   
 14   7  10  1   
 15   7  11  1   
 16   7  32  1   
 17   8  12  1   
 18   8  33  1   
 19   8  34  1   
 20   9  12  1   
 21   9  35  1   
 22   9  36  1   
 23  10  13  1   
 24  10  37  1   
 25  10  38  1   
 26  11  39  1   
 27  11  40  1   
 28  11  41  1   
 29  12  14  1   
 30  12  15  1   
 31  13  42  1   
 32  13  43  1   
 33  13  44  1   
 34  14  16  1   
 35  15  17  ar  
 36  15  18  ar  
 37  16  19  1   
 38  16  45  1   
 39  16  46  1   
 40  17  19  1   
 41  17  20  ar  
 42  18  21  ar  
 43  18  47  1   
 44  19  48  1   
 45  19  49  1   
 46  20  22  ar  
 47  20  50  1   
 48  21  22  ar  
 49  21  23  1   
 50  22  24  1   
 51  23  25  1   
 52  24  26  1   
 53  25  51  1   
 54  25  52  1   
 55  25  53  1   
 56  26  54  1   
 57  26  55  1   
 58  26  56  1   
@<TRIPOS>SUBSTRUCTURE
  1 ****  12 GROUP 4 **** **** 0

# MOE 2024.06 (io_trps.svl 2023.06)
