@<TRIPOS>MOLECULE
NONAME
34 34 1 0 0 
SMALL
USER_CHARGES


@<TRIPOS>ATOM
  1 F       -0.4750    -0.8250     0.9020 F     1 <1>  -0.1900 
  2 C       -1.6910    -1.1940     0.5530 C.ar  1 <1>   0.1900 
  3 C       -2.6130    -0.2890     0.0270 C.ar  1 <1>   0.4100 
  4 C       -2.0500    -2.5040     0.7020 C.ar  1 <1>   0.1600 
  5 N       -3.8120    -0.7180    -0.3260 N.ar  1 <1>  -0.6200 
  6 N       -2.3530     1.0680    -0.1600 N.pl3 1 <1>  -0.8380 
  7 N       -3.2490    -2.9350     0.3600 N.ar  1 <1>  -0.6200 
  8 C       -4.0570    -2.0030    -0.1350 C.ar  1 <1>   0.7200 
  9 C       -1.7000     1.8750     0.9070 C.3   1 <1>   0.1290 
 10 C       -3.1170     1.8560    -1.1670 C.3   1 <1>   0.1290 
 11 N       -5.3040    -2.3780    -0.5050 N.pl3 1 <1>  -0.8690 
 12 C       -5.6120    -3.7310    -1.0340 C.3   1 <1>   0.2090 
 13 C       -6.0570    -4.6520     0.1030 C.3   1 <1>   0.1200 
 14 O       -6.4560    -5.8760    -0.4370 O.3   1 <1>  -0.5600 
 15 C       -6.8400    -6.8090     0.5230 C.3   1 <1>   0.1200 
 16 C       -7.2860    -8.0820    -0.1940 C.3   1 <1>   0.1200 
 17 O       -7.5890    -9.0600     0.7450 O.3   1 <1>  -0.6800 
 18 H       -1.3470    -3.2110     1.1050 H     1 <1>   0.1500 
 19 H       -1.6050     1.2990     1.8120 H     1 <1>   0.0800 
 20 H       -2.2890     2.7490     1.1240 H     1 <1>   0.0800 
 21 H       -0.7210     2.1800     0.5810 H     1 <1>   0.0800 
 22 H       -3.3650     1.2350    -2.0110 H     1 <1>   0.0800 
 23 H       -2.5240     2.6840    -1.5140 H     1 <1>   0.0800 
 24 H       -4.0260     2.2240    -0.7260 H     1 <1>   0.0800 
 25 H       -5.7760    -1.6090    -0.9790 H     1 <1>   0.4000 
 26 H       -4.7400    -4.1450    -1.5110 H     1 <1>   0.0800 
 27 H       -6.4030    -3.6530    -1.7590 H     1 <1>   0.0800 
 28 H       -6.8920    -4.2170     0.6240 H     1 <1>   0.0800 
 29 H       -5.2380    -4.8180     0.7810 H     1 <1>   0.0800 
 30 H       -7.6550    -6.4010     1.0960 H     1 <1>   0.0800 
 31 H       -5.9940    -7.0090     1.1580 H     1 <1>   0.0800 
 32 H       -6.5060    -8.4570    -0.8340 H     1 <1>   0.0800 
 33 H       -8.1740    -7.8910    -0.7710 H     1 <1>   0.0800 
 34 H       -6.7790    -9.3760     1.1890 H     1 <1>   0.4000 
@<TRIPOS>BOND
  1   1   2  1   
  2   2   3  ar  
  3   2   4  ar  
  4   3   5  ar  
  5   3   6  1   
  6   4   7  ar  
  7   4  18  1   
  8   5   8  ar  
  9   6   9  1   
 10   6  10  1   
 11   7   8  ar  
 12   8  11  1   
 13   9  19  1   
 14   9  20  1   
 15   9  21  1   
 16  10  22  1   
 17  10  23  1   
 18  10  24  1   
 19  11  12  1   
 20  11  25  1   
 21  12  13  1   
 22  12  26  1   
 23  12  27  1   
 24  13  14  1   
 25  13  28  1   
 26  13  29  1   
 27  14  15  1   
 28  15  16  1   
 29  15  30  1   
 30  15  31  1   
 31  16  17  1   
 32  16  32  1   
 33  16  33  1   
 34  17  34  1   
@<TRIPOS>SUBSTRUCTURE
  1 ****   8 GROUP 4 **** **** 0

# MOE 2024.06 (io_trps.svl 2023.06)
