@<TRIPOS>MOLECULE
NONAME
54 55 1 0 0 
SMALL
USER_CHARGES


@<TRIPOS>ATOM
  1 O       -0.6690     1.6710    -1.9700 O.3   1 <1>  -0.6800 
  2 C       -0.4350     2.7860    -1.1730 C.3   1 <1>   0.2000 
  3 C       -1.4610     2.8470    -0.0040 C.3   1 <1>   0.0000 
  4 C        1.0260     2.7590    -0.6940 C.3   1 <1>   0.2090 
  5 C       -1.0740     4.0540     0.8940 C.3   1 <1>  -0.1600 
  6 C       -1.3930     1.5200     0.8080 C.3   1 <1>   0.1200 
  7 C       -2.9180     3.0170    -0.5310 C.3   1 <1>  -0.1600 
  8 N        1.2980     3.9160     0.2180 N.pl3 1 <1>  -0.8380 
  9 C        0.3810     4.0060     1.3830 C.3   1 <1>   0.2090 
 10 O       -2.2660     1.5340     1.8900 O.3   1 <1>  -0.6800 
 11 C       -3.1740     4.1740    -1.5170 C.3   1 <1>  -0.1600 
 12 C        2.5060     4.5310     0.2070 C.ar  1 <1>   0.4100 
 13 C       -4.6550     4.2350    -1.9030 C.3   1 <1>  -0.2400 
 14 N        3.5520     3.7310     0.2060 N.ar  1 <1>  -0.6200 
 15 C        2.6350     5.9450     0.2010 C.ar  1 <1>  -0.1430 
 16 C        4.7570     4.2690     0.2620 C.ar  1 <1>   0.7710 
 17 C        3.8920     6.4680     0.2790 C.ar  1 <1>   0.2180 
 18 C        1.3830     6.8210     0.0680 C.3   1 <1>  -0.0970 
 19 N        4.9280     5.5980     0.3070 N.ar  1 <1>  -0.1790 
 20 N        5.8560     3.4620     0.2720 N.pl3 1 <1>  -0.8380 
 21 C        4.2470     7.9500     0.3240 C.3   1 <1>  -0.0970 
 22 C        5.7230     1.9790     0.0740 C.3   1 <1>   0.1290 
 23 C        7.2730     3.8670     0.5360 C.3   1 <1>   0.1290 
 24 H       -1.5820     1.6990    -2.3170 H     1 <1>   0.4000 
 25 H       -0.5400     3.6510    -1.8020 H     1 <1>   0.0800 
 26 H        1.6750     2.8160    -1.5500 H     1 <1>   0.0800 
 27 H        1.2340     1.8410    -0.1740 H     1 <1>   0.0800 
 28 H       -1.7290     4.1100     1.7440 H     1 <1>   0.0800 
 29 H       -1.1960     4.9700     0.3500 H     1 <1>   0.0800 
 30 H       -0.4060     1.3280     1.1870 H     1 <1>   0.0800 
 31 H       -1.6750     0.6870     0.1860 H     1 <1>   0.0800 
 32 H       -3.2220     2.1000    -1.0060 H     1 <1>   0.0800 
 33 H       -3.5730     3.1490     0.3130 H     1 <1>   0.0800 
 34 H        0.5360     3.1510     2.0190 H     1 <1>   0.0800 
 35 H        0.6030     4.8840     1.9640 H     1 <1>   0.0800 
 36 H       -2.0190     2.2290     2.5280 H     1 <1>   0.4000 
 37 H       -2.9000     5.1150    -1.0750 H     1 <1>   0.0800 
 38 H       -2.5980     4.0420    -2.4150 H     1 <1>   0.0800 
 39 H       -5.2650     4.3980    -1.0320 H     1 <1>   0.0800 
 40 H       -4.9620     3.3170    -2.3730 H     1 <1>   0.0800 
 41 H       -4.8230     5.0440    -2.5920 H     1 <1>   0.0800 
 42 H        1.5990     7.7640    -0.3990 H     1 <1>   0.0800 
 43 H        0.9470     7.0030     1.0330 H     1 <1>   0.0800 
 44 H        0.6510     6.3340    -0.5530 H     1 <1>   0.0800 
 45 H        5.8900     5.9040     0.3260 H     1 <1>   0.4570 
 46 H        3.4070     8.5510     0.6170 H     1 <1>   0.0800 
 47 H        4.5820     8.2800    -0.6440 H     1 <1>   0.0800 
 48 H        5.0280     8.1290     1.0420 H     1 <1>   0.0800 
 49 H        6.5700     1.5970    -0.4710 H     1 <1>   0.0800 
 50 H        4.8360     1.7340    -0.4850 H     1 <1>   0.0800 
 51 H        5.6730     1.4860     1.0300 H     1 <1>   0.0800 
 52 H        7.7400     3.1480     1.1900 H     1 <1>   0.0800 
 53 H        7.3360     4.8280     1.0120 H     1 <1>   0.0800 
 54 H        7.8250     3.8890    -0.3900 H     1 <1>   0.0800 
@<TRIPOS>BOND
  1   1   2  1   
  2   1  24  1   
  3   2   3  1   
  4   2   4  1   
  5   2  25  1   
  6   3   5  1   
  7   3   6  1   
  8   3   7  1   
  9   4   8  1   
 10   4  26  1   
 11   4  27  1   
 12   5   9  1   
 13   5  28  1   
 14   5  29  1   
 15   6  10  1   
 16   6  30  1   
 17   6  31  1   
 18   7  11  1   
 19   7  32  1   
 20   7  33  1   
 21   8   9  1   
 22   8  12  1   
 23   9  34  1   
 24   9  35  1   
 25  10  36  1   
 26  11  13  1   
 27  11  37  1   
 28  11  38  1   
 29  12  14  ar  
 30  12  15  ar  
 31  13  39  1   
 32  13  40  1   
 33  13  41  1   
 34  14  16  ar  
 35  15  17  ar  
 36  15  18  1   
 37  16  19  ar  
 38  16  20  1   
 39  17  19  ar  
 40  17  21  1   
 41  18  42  1   
 42  18  43  1   
 43  18  44  1   
 44  19  45  1   
 45  20  22  1   
 46  20  23  1   
 47  21  46  1   
 48  21  47  1   
 49  21  48  1   
 50  22  49  1   
 51  22  50  1   
 52  22  51  1   
 53  23  52  1   
 54  23  53  1   
 55  23  54  1   
@<TRIPOS>SUBSTRUCTURE
  1 ****   8 GROUP 4 **** **** 0

# MOE 2024.06 (io_trps.svl 2023.06)
