@<TRIPOS>MOLECULE
NONAME
49 52 1 0 0 
SMALL
USER_CHARGES


@<TRIPOS>ATOM
  1 S        0.0720    -0.8320    -2.1660 S.3   1 <1>  -0.0800 
  2 C        0.8550    -0.9690    -0.6120 C.2   1 <1>  -0.1400 
  3 C        0.5640     0.8430    -2.2350 C.2   1 <1>   0.2280 
  4 C        1.4060     0.2160    -0.3030 C.2   1 <1>   0.0460 
  5 C        0.8130    -2.3100     0.0820 C.3   1 <1>   0.5230 
  6 N        1.2260     1.2320    -1.2200 N.2   1 <1>  -0.5650 
  7 C        2.2080     0.5810     0.9300 C.3   1 <1>  -0.0590 
  8 N       -0.3500    -2.3550     1.0180 N.4   1 <1>  -0.9590 
  9 C       -0.2950    -3.5380     1.9340 C.3   1 <1>   0.3430 
 10 C       -1.6830    -2.2640     0.3350 C.3   1 <1>   0.3430 
 11 C       -0.5960    -4.8330     1.1800 C.3   1 <1>  -0.1600 
 12 C       -2.0040    -3.5430    -0.4370 C.3   1 <1>  -0.1600 
 13 C       -1.9650    -4.7530     0.5020 C.3   1 <1>   0.4240 
 14 O       -2.8650    -4.4940     1.5490 O.3   1 <1>  -0.5600 
 15 C       -2.2690    -6.0680    -0.2400 C.ar  1 <1>  -0.1430 
 16 C       -4.1980    -4.8730     1.3650 C.3   1 <1>   0.1200 
 17 C       -3.3630    -6.8500     0.1140 C.ar  1 <1>  -0.1430 
 18 C       -1.4540    -6.4990    -1.2820 C.ar  1 <1>  -0.1500 
 19 C       -4.2730    -6.3920     1.2350 C.3   1 <1>  -0.0170 
 20 C       -3.6300    -8.0370    -0.5490 C.ar  1 <1>  -0.1500 
 21 C       -1.7210    -7.6810    -1.9470 C.ar  1 <1>  -0.1500 
 22 C       -2.8060    -8.4600    -1.5870 C.ar  1 <1>   0.0830 
 23 O       -2.9950    -9.6050    -2.2870 O.3   1 <1>  -0.3630 
 24 C       -4.0600   -10.4810    -1.9910 C.3   1 <1>   0.0400 
 25 H        0.2790     1.4100    -3.1050 H     1 <1>   0.1500 
 26 H        1.7260    -2.4380     0.6390 H     1 <1>   0.0800 
 27 H        0.7490    -3.0990    -0.6480 H     1 <1>   0.0800 
 28 H        2.3160    -0.2550     1.5930 H     1 <1>   0.0800 
 29 H        1.7210     1.3850     1.4520 H     1 <1>   0.0800 
 30 H        3.1860     0.9160     0.6330 H     1 <1>   0.0800 
 31 H       -0.2700    -1.5080     1.5950 H     1 <1>   0.4500 
 32 H       -1.0340    -3.4200     2.7120 H     1 <1>   0.0800 
 33 H        0.6730    -3.6050     2.4040 H     1 <1>   0.0800 
 34 H       -1.7070    -1.4160    -0.3310 H     1 <1>   0.0800 
 35 H       -2.4510    -2.1170     1.0790 H     1 <1>   0.0800 
 36 H       -0.6060    -5.6550     1.8740 H     1 <1>   0.0800 
 37 H        0.1770    -5.0350     0.4640 H     1 <1>   0.0800 
 38 H       -1.3110    -3.6690    -1.2460 H     1 <1>   0.0800 
 39 H       -2.9810    -3.4640    -0.8770 H     1 <1>   0.0800 
 40 H       -4.5870    -4.3940     0.4840 H     1 <1>   0.0800 
 41 H       -4.7600    -4.5440     2.2230 H     1 <1>   0.0800 
 42 H       -0.6010    -5.9260    -1.5950 H     1 <1>   0.1500 
 43 H       -5.2890    -6.6790     1.0310 H     1 <1>   0.0800 
 44 H       -3.9730    -6.8500     2.1610 H     1 <1>   0.0800 
 45 H       -4.4780    -8.6220    -0.2510 H     1 <1>   0.1500 
 46 H       -1.0900    -8.0140    -2.7510 H     1 <1>   0.1500 
 47 H       -4.0020   -11.3160    -2.6650 H     1 <1>   0.0800 
 48 H       -4.9900    -9.9600    -2.1330 H     1 <1>   0.0800 
 49 H       -3.9580   -10.8220    -0.9760 H     1 <1>   0.0800 
@<TRIPOS>BOND
  1   1   2  1   
  2   1   3  1   
  3   2   4  2   
  4   2   5  1   
  5   3   6  2   
  6   3  25  1   
  7   4   6  1   
  8   4   7  1   
  9   5   8  1   
 10   5  26  1   
 11   5  27  1   
 12   7  28  1   
 13   7  29  1   
 14   7  30  1   
 15   8   9  1   
 16   8  10  1   
 17   8  31  1   
 18   9  11  1   
 19   9  32  1   
 20   9  33  1   
 21  10  12  1   
 22  10  34  1   
 23  10  35  1   
 24  11  13  1   
 25  11  36  1   
 26  11  37  1   
 27  12  13  1   
 28  12  38  1   
 29  12  39  1   
 30  13  14  1   
 31  13  15  1   
 32  14  16  1   
 33  15  17  ar  
 34  15  18  ar  
 35  16  19  1   
 36  16  40  1   
 37  16  41  1   
 38  17  19  1   
 39  17  20  ar  
 40  18  21  ar  
 41  18  42  1   
 42  19  43  1   
 43  19  44  1   
 44  20  22  ar  
 45  20  45  1   
 46  21  22  ar  
 47  21  46  1   
 48  22  23  1   
 49  23  24  1   
 50  24  47  1   
 51  24  48  1   
 52  24  49  1   
@<TRIPOS>SUBSTRUCTURE
  1 ****  12 GROUP 4 **** **** 0

# MOE 2024.06 (io_trps.svl 2023.06)
