@<TRIPOS>MOLECULE
NONAME
33 35 1 0 0 
SMALL
USER_CHARGES


@<TRIPOS>ATOM
  1 O       -0.5340     0.2050    -0.9480 O.co2 1 <1>  -0.9000 
  2 C       -1.1680     0.2500     0.1190 C.2   1 <1>   0.9060 
  3 O       -0.8680    -0.4800     1.0760 O.co2 1 <1>  -0.9000 
  4 C       -2.4020     1.1970     0.1920 C.3   1 <1>   0.0840 
  5 N       -2.1820     2.6710     0.2290 N.3   1 <1>  -0.8100 
  6 C       -3.3420     0.9830     1.3770 C.3   1 <1>  -0.1600 
  7 C       -3.4950     3.2470     0.4830 C.3   1 <1>   0.1100 
  8 C       -1.5260     3.1410    -1.0120 C.3   1 <1>   0.2900 
  9 C       -4.1700     2.2700     1.4470 C.3   1 <1>  -0.1600 
 10 C       -1.3490     4.6560    -1.0470 C.2   1 <1>   0.2980 
 11 O       -0.5550     5.2230    -0.1850 O.3   1 <1>  -0.2800 
 12 N       -1.9190     5.4610    -1.8600 N.2   1 <1>  -0.3380 
 13 C       -0.6910     6.4800    -0.5280 C.2   1 <1>   0.4250 
 14 N       -1.4910     6.6560    -1.5240 N.2   1 <1>  -0.3380 
 15 C        0.0260     7.5030     0.1970 C.ar  1 <1>   0.0530 
 16 C        0.8310     7.1910     1.2950 C.ar  1 <1>   0.1600 
 17 C       -0.0510     8.8440    -0.1600 C.ar  1 <1>  -0.1500 
 18 N        1.5250     8.0550     2.0210 N.ar  1 <1>  -0.6200 
 19 C        0.6620     9.7600     0.5810 C.ar  1 <1>  -0.1500 
 20 C        1.4250     9.3200     1.6480 C.ar  1 <1>   0.1600 
 21 H       -2.9640     0.9750    -0.6970 H     1 <1>   0.0800 
 22 H       -2.7530     0.8710     2.2710 H     1 <1>   0.0800 
 23 H       -3.9430     0.1020     1.2420 H     1 <1>   0.0800 
 24 H       -4.0560     3.3000    -0.4360 H     1 <1>   0.0800 
 25 H       -3.4030     4.2310     0.9090 H     1 <1>   0.0800 
 26 H       -2.1020     2.8320    -1.8660 H     1 <1>   0.0800 
 27 H       -0.5530     2.6890    -1.0880 H     1 <1>   0.0800 
 28 H       -4.1560     2.6670     2.4460 H     1 <1>   0.0800 
 29 H       -5.1880     2.1000     1.1490 H     1 <1>   0.0800 
 30 H        0.9040     6.1580     1.5930 H     1 <1>   0.1500 
 31 H       -0.6540     9.1570    -0.9960 H     1 <1>   0.1500 
 32 H        0.6300    10.8060     0.3370 H     1 <1>   0.1500 
 33 H        1.9800    10.0430     2.2230 H     1 <1>   0.1500 
@<TRIPOS>BOND
  1   1   2  ar  
  2   2   3  ar  
  3   2   4  1   
  4   4   5  1   
  5   4   6  1   
  6   4  21  1   
  7   5   7  1   
  8   5   8  1   
  9   6   9  1   
 10   6  22  1   
 11   6  23  1   
 12   7   9  1   
 13   7  24  1   
 14   7  25  1   
 15   8  10  1   
 16   8  26  1   
 17   8  27  1   
 18   9  28  1   
 19   9  29  1   
 20  10  11  1   
 21  10  12  2   
 22  11  13  1   
 23  12  14  1   
 24  13  14  2   
 25  13  15  1   
 26  15  16  ar  
 27  15  17  ar  
 28  16  18  ar  
 29  16  30  1   
 30  17  19  ar  
 31  17  31  1   
 32  18  20  ar  
 33  19  20  ar  
 34  19  32  1   
 35  20  33  1   
@<TRIPOS>SUBSTRUCTURE
  1 ****  11 GROUP 4 **** **** 0

# MOE 2024.06 (io_trps.svl 2023.06)
