@<TRIPOS>MOLECULE
NONAME
47 49 1 0 0 
SMALL
USER_CHARGES


@<TRIPOS>ATOM
  1 S        0.1470    -0.8340     1.2760 S.o2  1 <1>   1.2040 
  2 O       -1.0730    -0.4220     1.9380 O.2   1 <1>  -0.6500 
  3 O        1.0510    -1.7670     1.9190 O.2   1 <1>  -0.6500 
  4 C        1.0810     0.6560     0.8500 C.ar  1 <1>  -0.0090 
  5 C       -0.2070    -1.4580    -0.3650 C.3   1 <1>  -0.0550 
  6 C        2.4630     0.6210     0.6980 C.ar  1 <1>  -0.1500 
  7 C        0.4340     1.8670     0.6270 C.ar  1 <1>  -0.1500 
  8 C       -0.7950    -2.8670    -0.3520 C.3   1 <1>   0.1100 
  9 C        3.1750     1.7500     0.3320 C.ar  1 <1>  -0.1500 
 10 C        1.1380     3.0010     0.2600 C.ar  1 <1>  -0.1500 
 11 N       -2.1260    -2.8530     0.2430 N.3   1 <1>  -0.8100 
 12 C        2.5120     2.9420     0.1110 C.ar  1 <1>  -0.1500 
 13 C       -3.2050    -2.3360    -0.6040 C.3   1 <1>   0.1100 
 14 C       -2.5730    -4.1610     0.7430 C.3   1 <1>   0.1100 
 15 C       -4.4710    -2.7820     0.1170 C.3   1 <1>   0.2000 
 16 C       -4.1080    -4.1800     0.6190 C.3   1 <1>  -0.0800 
 17 O       -4.6320    -1.9560     1.2130 O.3   1 <1>  -0.6800 
 18 C       -4.5940    -5.2620    -0.3630 C.3   1 <1>   0.0210 
 19 C       -4.1380    -6.6500     0.0470 C.2   1 <1>   0.1080 
 20 N       -4.4840    -7.2060     1.1660 N.2   1 <1>  -0.7070 
 21 C       -3.3050    -7.4680    -0.7090 C.2   1 <1>  -0.1500 
 22 N       -3.8730    -8.4050     1.1550 N.pl3 1 <1>   0.3000 
 23 C       -3.1510    -8.5870     0.0290 C.2   1 <1>  -0.3320 
 24 C       -2.3480    -9.8380    -0.2750 C.3   1 <1>  -0.0600 
 25 H       -0.8700    -0.7930    -0.8810 H     1 <1>   0.0800 
 26 H        0.7100    -1.4980    -0.9190 H     1 <1>   0.0800 
 27 H        2.9920    -0.3020     0.8740 H     1 <1>   0.1500 
 28 H       -0.6350     1.9250     0.7470 H     1 <1>   0.1500 
 29 H       -0.1500    -3.5040     0.2320 H     1 <1>   0.0800 
 30 H       -0.8450    -3.2650    -1.3520 H     1 <1>   0.0800 
 31 H        4.2450     1.7010     0.2220 H     1 <1>   0.1500 
 32 H        0.6180     3.9290     0.0950 H     1 <1>   0.1500 
 33 H        3.0620     3.8230    -0.1730 H     1 <1>   0.1500 
 34 H       -3.1630    -1.2640    -0.6980 H     1 <1>   0.0800 
 35 H       -3.1620    -2.7900    -1.5790 H     1 <1>   0.0800 
 36 H       -2.1280    -4.9560     0.1700 H     1 <1>   0.0800 
 37 H       -2.2770    -4.2710     1.7730 H     1 <1>   0.0800 
 38 H       -5.3620    -2.7390    -0.4840 H     1 <1>   0.0800 
 39 H       -4.5570    -4.3730     1.5790 H     1 <1>   0.0800 
 40 H       -3.7430    -1.8600     1.6260 H     1 <1>   0.4000 
 41 H       -4.2330    -5.0540    -1.3530 H     1 <1>   0.0800 
 42 H       -5.6690    -5.2580    -0.3910 H     1 <1>   0.0800 
 43 H       -2.8870    -7.2340    -1.6720 H     1 <1>   0.1500 
 44 H       -3.9680    -9.0710     1.9300 H     1 <1>   0.2700 
 45 H       -1.8650    -9.7440    -1.2310 H     1 <1>   0.0800 
 46 H       -2.9940   -10.6980    -0.3010 H     1 <1>   0.0800 
 47 H       -1.5930    -9.9880     0.4760 H     1 <1>   0.0800 
@<TRIPOS>BOND
  1   1   2  2   
  2   1   3  2   
  3   1   4  1   
  4   1   5  1   
  5   4   6  ar  
  6   4   7  ar  
  7   5   8  1   
  8   5  25  1   
  9   5  26  1   
 10   6   9  ar  
 11   6  27  1   
 12   7  10  ar  
 13   7  28  1   
 14   8  11  1   
 15   8  29  1   
 16   8  30  1   
 17   9  12  ar  
 18   9  31  1   
 19  10  12  ar  
 20  10  32  1   
 21  11  13  1   
 22  11  14  1   
 23  12  33  1   
 24  13  15  1   
 25  13  34  1   
 26  13  35  1   
 27  14  16  1   
 28  14  36  1   
 29  14  37  1   
 30  15  16  1   
 31  15  17  1   
 32  15  38  1   
 33  16  18  1   
 34  16  39  1   
 35  17  40  1   
 36  18  19  1   
 37  18  41  1   
 38  18  42  1   
 39  19  20  2   
 40  19  21  1   
 41  20  22  1   
 42  21  23  2   
 43  21  43  1   
 44  22  23  1   
 45  22  44  1   
 46  23  24  1   
 47  24  45  1   
 48  24  46  1   
 49  24  47  1   
@<TRIPOS>SUBSTRUCTURE
  1 ****  11 GROUP 4 **** **** 0

# MOE 2024.06 (io_trps.svl 2023.06)
