@<TRIPOS>MOLECULE
NONAME
50 53 1 0 0 
SMALL
USER_CHARGES


@<TRIPOS>ATOM
  1 O        1.5480     0.1120     0.7220 O.2   1 <1>  -0.5700 
  2 C        2.3130    -0.8310     0.6090 C.2   1 <1>   0.7150 
  3 N        3.6610    -0.5350     0.6940 N.am  1 <1>  -0.6600 
  4 C        1.8100    -2.1710     0.3580 C.2   1 <1>   0.0550 
  5 C        4.1450     0.5400     1.6200 C.3   1 <1>   0.1400 
  6 C        4.6950    -1.2110    -0.1420 C.3   1 <1>   0.1400 
  7 O        2.6010    -3.2280     0.6140 O.3   1 <1>  -0.2800 
  8 C        0.6080    -2.6200    -0.1030 C.2   1 <1>  -0.1810 
  9 C        4.8470     1.7540     0.9480 C.3   1 <1>   0.4230 
 10 C        5.3340    -0.2300    -1.1490 C.3   1 <1>  -0.0800 
 11 C        1.9320    -4.3380     0.3210 C.ar  1 <1>   0.1400 
 12 C        0.6680    -4.0240    -0.1370 C.ar  1 <1>   0.0000 
 13 C       -0.6340    -1.8520    -0.5240 C.3   1 <1>  -0.0590 
 14 N        4.4090     2.0860    -0.4670 N.4   1 <1>  -0.9590 
 15 C        6.3850     1.6480     1.0440 C.3   1 <1>   0.1200 
 16 C        6.7700     0.1740    -0.7810 C.3   1 <1>   0.1200 
 17 C        4.4120     0.9600    -1.4660 C.3   1 <1>   0.3430 
 18 C        2.3740    -5.6470     0.4310 C.ar  1 <1>  -0.1500 
 19 C       -0.1980    -5.0570    -0.5030 C.ar  1 <1>  -0.1500 
 20 C        3.0500     2.7130    -0.4480 C.3   1 <1>   0.2630 
 21 O        6.8800     0.4320     0.5790 O.3   1 <1>  -0.5600 
 22 C        1.5190    -6.6690     0.0680 C.ar  1 <1>   0.0820 
 23 C        0.2270    -6.3660    -0.4010 C.ar  1 <1>  -0.1500 
 24 O        1.9900    -7.9340     0.1880 O.3   1 <1>  -0.3620 
 25 C        1.2000    -9.0540    -0.1430 C.3   1 <1>   0.0400 
 26 H        3.3130     0.9140     2.1910 H     1 <1>   0.0800 
 27 H        4.8160     0.0940     2.3340 H     1 <1>   0.0800 
 28 H        5.4420    -1.6570     0.4950 H     1 <1>   0.0800 
 29 H        4.2400    -2.0090    -0.7020 H     1 <1>   0.0800 
 30 H        4.5990     2.6060     1.5590 H     1 <1>   0.0800 
 31 H        5.4220    -0.7780    -2.0700 H     1 <1>   0.0800 
 32 H       -0.9030    -2.1150    -1.5310 H     1 <1>   0.0800 
 33 H       -0.4760    -0.7910    -0.4800 H     1 <1>   0.0800 
 34 H       -1.4520    -2.1010     0.1280 H     1 <1>   0.0800 
 35 H        5.0720     2.7900    -0.8140 H     1 <1>   0.4500 
 36 H        6.6720     1.7120     2.0800 H     1 <1>   0.0800 
 37 H        6.8710     2.4500     0.5180 H     1 <1>   0.0800 
 38 H        7.1150     1.0270    -1.3410 H     1 <1>   0.0800 
 39 H        7.4330    -0.6500    -0.9860 H     1 <1>   0.0800 
 40 H        3.4100     0.5730    -1.5580 H     1 <1>   0.0800 
 41 H        4.6840     1.3570    -2.4300 H     1 <1>   0.0800 
 42 H        3.3620    -5.8580     0.7930 H     1 <1>   0.1500 
 43 H       -1.1840    -4.8190    -0.8590 H     1 <1>   0.1500 
 44 H        2.3170     2.0120    -0.0880 H     1 <1>   0.0800 
 45 H        2.7650     3.0230    -1.4410 H     1 <1>   0.0800 
 46 H        3.0400     3.5770     0.1960 H     1 <1>   0.0800 
 47 H       -0.4470    -7.1500    -0.6860 H     1 <1>   0.1500 
 48 H        1.7830    -9.9390     0.0390 H     1 <1>   0.0800 
 49 H        0.9340    -9.0000    -1.1830 H     1 <1>   0.0800 
 50 H        0.3240    -9.0610     0.4810 H     1 <1>   0.0800 
@<TRIPOS>BOND
  1   1   2  2   
  2   2   3  am  
  3   2   4  1   
  4   3   5  1   
  5   3   6  1   
  6   4   7  1   
  7   4   8  2   
  8   5   9  1   
  9   5  26  1   
 10   5  27  1   
 11   6  10  1   
 12   6  28  1   
 13   6  29  1   
 14   7  11  1   
 15   8  12  1   
 16   8  13  1   
 17   9  14  1   
 18   9  15  1   
 19   9  30  1   
 20  10  16  1   
 21  10  17  1   
 22  10  31  1   
 23  11  12  ar  
 24  11  18  ar  
 25  12  19  ar  
 26  13  32  1   
 27  13  33  1   
 28  13  34  1   
 29  14  17  1   
 30  14  20  1   
 31  14  35  1   
 32  15  21  1   
 33  15  36  1   
 34  15  37  1   
 35  16  21  1   
 36  16  38  1   
 37  16  39  1   
 38  17  40  1   
 39  17  41  1   
 40  18  22  ar  
 41  18  42  1   
 42  19  23  ar  
 43  19  43  1   
 44  20  44  1   
 45  20  45  1   
 46  20  46  1   
 47  22  23  ar  
 48  22  24  1   
 49  23  47  1   
 50  24  25  1   
 51  25  48  1   
 52  25  49  1   
 53  25  50  1   
@<TRIPOS>SUBSTRUCTURE
  1 ****   4 GROUP 4 **** **** 0

# MOE 2024.06 (io_trps.svl 2023.06)
