@<TRIPOS>MOLECULE
NONAME
51 53 1 0 0 
SMALL
USER_CHARGES


@<TRIPOS>ATOM
  1 O       -0.7000     0.3620     1.3840 O.2   1 <1>  -0.5700 
  2 C       -1.5440     1.0110     0.7970 C.2   1 <1>   0.7150 
  3 N       -2.6330     0.3540     0.2780 N.am  1 <1>  -0.6600 
  4 C       -1.3880     2.4260     0.6350 C.2   1 <1>  -0.2370 
  5 C       -3.5640     0.9170    -0.7340 C.3   1 <1>   0.1400 
  6 C       -2.7890    -1.1220     0.3520 C.3   1 <1>   0.1400 
  7 N       -0.2360     3.0230     0.2320 N.pl3 1 <1>   0.3140 
  8 C       -2.2700     3.4460     0.8250 C.2   1 <1>  -0.1500 
  9 C       -4.6030    -0.1830    -0.9480 C.3   1 <1>   0.2000 
 10 C       -3.8090    -1.4760    -0.7360 C.3   1 <1>  -0.0800 
 11 N       -0.3650     4.3560     0.1380 N.2   1 <1>  -0.7070 
 12 C        1.0510     2.3720    -0.1090 C.3   1 <1>   0.0960 
 13 C       -1.5860     4.6040     0.5010 C.2   1 <1>   0.1080 
 14 O       -5.5640    -0.0610     0.0450 O.3   1 <1>  -0.6800 
 15 C       -4.6530    -2.7240    -0.4180 C.3   1 <1>  -0.0170 
 16 C        0.9850     1.6760    -1.4760 C.3   1 <1>  -0.2400 
 17 C       -2.1580     6.0160     0.5510 C.3   1 <1>   0.1010 
 18 C       -3.7750    -3.9610    -0.3090 C.ar  1 <1>  -0.1430 
 19 C       -2.5750     6.3860     1.9790 C.3   1 <1>  -0.2400 
 20 C       -3.3410     6.1620    -0.4140 C.3   1 <1>  -0.2400 
 21 C       -3.3700    -4.6640    -1.4250 C.ar  1 <1>  -0.1500 
 22 C       -3.3360    -4.4440     0.9070 C.ar  1 <1>  -0.1500 
 23 C       -2.5650    -5.7820    -1.2760 C.ar  1 <1>   0.1600 
 24 C       -2.5320    -5.5710     0.9470 C.ar  1 <1>   0.1600 
 25 N       -2.1350    -6.2510    -0.1170 N.ar  1 <1>  -0.6200 
 26 H       -4.0250     1.8300    -0.4030 H     1 <1>   0.0800 
 27 H       -3.0220     1.0970    -1.6470 H     1 <1>   0.0800 
 28 H       -1.8490    -1.6210     0.1840 H     1 <1>   0.0800 
 29 H       -3.1590    -1.3830     1.3280 H     1 <1>   0.0800 
 30 H       -3.2880     3.3890     1.1630 H     1 <1>   0.1500 
 31 H       -5.0900    -0.1270    -1.9060 H     1 <1>   0.0800 
 32 H       -3.2560    -1.6670    -1.6390 H     1 <1>   0.0800 
 33 H        1.8120     3.1320    -0.1280 H     1 <1>   0.0800 
 34 H        1.3020     1.6680     0.6630 H     1 <1>   0.0800 
 35 H       -5.1120     0.0460     0.9060 H     1 <1>   0.4000 
 36 H       -5.3800    -2.8720    -1.1970 H     1 <1>   0.0800 
 37 H       -5.1940    -2.5880     0.5020 H     1 <1>   0.0800 
 38 H        0.7260     2.3880    -2.2400 H     1 <1>   0.0800 
 39 H        0.2590     0.8820    -1.4610 H     1 <1>   0.0800 
 40 H        1.9450     1.2530    -1.7120 H     1 <1>   0.0800 
 41 H       -1.3810     6.6940     0.2400 H     1 <1>   0.0800 
 42 H       -3.3650     5.7430     2.3240 H     1 <1>   0.0800 
 43 H       -2.9140     7.4060     2.0170 H     1 <1>   0.0800 
 44 H       -1.7330     6.2800     2.6400 H     1 <1>   0.0800 
 45 H       -4.1490     5.5140    -0.1250 H     1 <1>   0.0800 
 46 H       -3.0280     5.9020    -1.4090 H     1 <1>   0.0800 
 47 H       -3.6930     7.1780    -0.4190 H     1 <1>   0.0800 
 48 H       -3.6720    -4.3560    -2.4090 H     1 <1>   0.1500 
 49 H       -3.6090    -3.9570     1.8250 H     1 <1>   0.1500 
 50 H       -2.2590    -6.3180    -2.1580 H     1 <1>   0.1500 
 51 H       -2.1980    -5.9320     1.9040 H     1 <1>   0.1500 
@<TRIPOS>BOND
  1   1   2  2   
  2   2   3  am  
  3   2   4  1   
  4   3   5  1   
  5   3   6  1   
  6   4   7  1   
  7   4   8  2   
  8   5   9  1   
  9   5  26  1   
 10   5  27  1   
 11   6  10  1   
 12   6  28  1   
 13   6  29  1   
 14   7  11  1   
 15   7  12  1   
 16   8  13  1   
 17   8  30  1   
 18   9  10  1   
 19   9  14  1   
 20   9  31  1   
 21  10  15  1   
 22  10  32  1   
 23  11  13  2   
 24  12  16  1   
 25  12  33  1   
 26  12  34  1   
 27  13  17  1   
 28  14  35  1   
 29  15  18  1   
 30  15  36  1   
 31  15  37  1   
 32  16  38  1   
 33  16  39  1   
 34  16  40  1   
 35  17  19  1   
 36  17  20  1   
 37  17  41  1   
 38  18  21  ar  
 39  18  22  ar  
 40  19  42  1   
 41  19  43  1   
 42  19  44  1   
 43  20  45  1   
 44  20  46  1   
 45  20  47  1   
 46  21  23  ar  
 47  21  48  1   
 48  22  24  ar  
 49  22  49  1   
 50  23  25  ar  
 51  23  50  1   
 52  24  25  ar  
 53  24  51  1   
@<TRIPOS>SUBSTRUCTURE
  1 ****   3 GROUP 4 **** **** 0

# MOE 2024.06 (io_trps.svl 2023.06)
