@<TRIPOS>MOLECULE
NONAME
56 59 1 0 0 
SMALL
USER_CHARGES


@<TRIPOS>ATOM
  1 O        0.9750    -4.7680     3.3630 O.2   1 <1>  -0.5700 
  2 C        1.3690    -4.6830     2.2290 C.2   1 <1>   0.5690 
  3 N        0.5150    -4.5850     1.1890 N.am  1 <1>  -0.7300 
  4 C        2.8490    -4.6910     1.9190 C.3   1 <1>  -0.0990 
  5 C        0.9570    -4.5220    -0.2190 C.3   1 <1>   0.1400 
  6 C        3.1760    -3.6300     0.8530 C.3   1 <1>  -0.0800 
  7 C        2.1920    -3.6050    -0.3440 C.3   1 <1>  -0.0800 
  8 C        4.5810    -3.7950     0.2620 C.3   1 <1>  -0.1600 
  9 C        3.0430    -3.9100    -1.5840 C.3   1 <1>  -0.1600 
 10 C        4.4410    -3.4160    -1.2060 C.3   1 <1>   0.2200 
 11 N        5.5670    -3.9560    -2.0290 N.am  1 <1>  -0.6600 
 12 C        6.7200    -3.2560    -2.3080 C.2   1 <1>   0.5690 
 13 C        5.4450    -5.3680    -2.5120 C.3   1 <1>   0.0600 
 14 O        7.5200    -3.6660    -3.1170 O.2   1 <1>  -0.5700 
 15 C        7.0890    -1.9460    -1.6290 C.3   1 <1>  -0.0990 
 16 C        8.3630    -2.0980    -0.7810 C.3   1 <1>   0.2070 
 17 C        8.1040    -2.9980     0.4340 C.ar  1 <1>  -0.1440 
 18 C        8.9730    -0.7500    -0.3700 C.ar  1 <1>  -0.1440 
 19 C        7.7710    -2.4760     1.6780 C.ar  1 <1>  -0.1500 
 20 C        8.1940    -4.3760     0.2930 C.ar  1 <1>  -0.1500 
 21 C        8.2170     0.4040    -0.1870 C.ar  1 <1>  -0.1500 
 22 C       10.3440    -0.6840    -0.1630 C.ar  1 <1>  -0.1500 
 23 C        7.5250    -3.3130     2.7520 C.ar  1 <1>  -0.1500 
 24 C        7.9480    -5.2160     1.3650 C.ar  1 <1>  -0.1500 
 25 C        8.8220     1.5930     0.1840 C.ar  1 <1>  -0.1500 
 26 C       10.9500     0.5030     0.2090 C.ar  1 <1>  -0.1500 
 27 C        7.6110    -4.6850     2.5970 C.ar  1 <1>  -0.1500 
 28 C       10.1890     1.6440     0.3820 C.ar  1 <1>  -0.1500 
 29 H       -0.4860    -4.6170     1.3960 H     1 <1>   0.3700 
 30 H        3.4070    -4.4980     2.8180 H     1 <1>   0.0800 
 31 H        3.1040    -5.6730     1.5660 H     1 <1>   0.0800 
 32 H        1.1990    -5.5210    -0.5380 H     1 <1>   0.0800 
 33 H        0.1580    -4.1500    -0.8380 H     1 <1>   0.0800 
 34 H        3.1200    -2.6650     1.3310 H     1 <1>   0.0800 
 35 H        1.8320    -2.5940    -0.4380 H     1 <1>   0.0800 
 36 H        4.9080    -4.8170     0.3420 H     1 <1>   0.0800 
 37 H        5.2850    -3.1610     0.7660 H     1 <1>   0.0800 
 38 H        2.6700    -3.4070    -2.4580 H     1 <1>   0.0800 
 39 H        3.0380    -4.9710    -1.7470 H     1 <1>   0.0800 
 40 H        4.4130    -2.3440    -1.2870 H     1 <1>   0.0800 
 41 H        5.1050    -6.0040    -1.7150 H     1 <1>   0.0800 
 42 H        6.3950    -5.7440    -2.8510 H     1 <1>   0.0800 
 43 H        4.7510    -5.4130    -3.3320 H     1 <1>   0.0800 
 44 H        7.2700    -1.2230    -2.4020 H     1 <1>   0.0800 
 45 H        6.3040    -1.5780    -1.0050 H     1 <1>   0.0800 
 46 H        9.1000    -2.5850    -1.3970 H     1 <1>   0.0800 
 47 H        7.7020    -1.4130     1.8260 H     1 <1>   0.1500 
 48 H        8.4530    -4.8060    -0.6600 H     1 <1>   0.1500 
 49 H        7.1520     0.3990    -0.3250 H     1 <1>   0.1500 
 50 H       10.9500    -1.5650    -0.2870 H     1 <1>   0.1500 
 51 H        7.2700    -2.8960     3.7110 H     1 <1>   0.1500 
 52 H        8.0200    -6.2820     1.2390 H     1 <1>   0.1500 
 53 H        8.2270     2.4790     0.3210 H     1 <1>   0.1500 
 54 H       12.0140     0.5370     0.3650 H     1 <1>   0.1500 
 55 H        7.4200    -5.3360     3.4320 H     1 <1>   0.1500 
 56 H       10.6590     2.5680     0.6710 H     1 <1>   0.1500 
@<TRIPOS>BOND
  1   1   2  2   
  2   2   3  am  
  3   2   4  1   
  4   3   5  1   
  5   3  29  1   
  6   4   6  1   
  7   4  30  1   
  8   4  31  1   
  9   5   7  1   
 10   5  32  1   
 11   5  33  1   
 12   6   7  1   
 13   6   8  1   
 14   6  34  1   
 15   7   9  1   
 16   7  35  1   
 17   8  10  1   
 18   8  36  1   
 19   8  37  1   
 20   9  10  1   
 21   9  38  1   
 22   9  39  1   
 23  10  11  1   
 24  10  40  1   
 25  11  12  am  
 26  11  13  1   
 27  12  14  2   
 28  12  15  1   
 29  13  41  1   
 30  13  42  1   
 31  13  43  1   
 32  15  16  1   
 33  15  44  1   
 34  15  45  1   
 35  16  17  1   
 36  16  18  1   
 37  16  46  1   
 38  17  19  ar  
 39  17  20  ar  
 40  18  21  ar  
 41  18  22  ar  
 42  19  23  ar  
 43  19  47  1   
 44  20  24  ar  
 45  20  48  1   
 46  21  25  ar  
 47  21  49  1   
 48  22  26  ar  
 49  22  50  1   
 50  23  27  ar  
 51  23  51  1   
 52  24  27  ar  
 53  24  52  1   
 54  25  28  ar  
 55  25  53  1   
 56  26  28  ar  
 57  26  54  1   
 58  27  55  1   
 59  28  56  1   
@<TRIPOS>SUBSTRUCTURE
  1 ****   8 GROUP 4 **** **** 0

# MOE 2024.06 (io_trps.svl 2023.06)
