@<TRIPOS>MOLECULE
NONAME
52 55 1 0 0 
SMALL
USER_CHARGES


@<TRIPOS>ATOM
  1 O       -1.0130     0.5970     1.3660 O.2   1 <1>  -0.5700 
  2 C       -2.0570     1.0670     0.9470 C.2   1 <1>   0.5440 
  3 N       -3.1780     0.2610     0.9070 N.am  1 <1>  -0.6600 
  4 C       -2.0810     2.4220     0.4520 C.ar  1 <1>   0.0860 
  5 C       -3.1290    -1.1900     1.2660 C.3   1 <1>   0.1400 
  6 C       -4.4050     0.6000     0.1280 C.3   1 <1>   0.1400 
  7 C       -2.2640     3.5090     1.3150 C.ar  1 <1>   0.0830 
  8 C       -1.9360     2.6870    -0.9150 C.ar  1 <1>   0.0830 
  9 C       -3.3350    -2.0590     0.0100 C.3   1 <1>   0.3440 
 10 C       -4.5330    -0.3450    -1.0820 C.3   1 <1>   0.2950 
 11 O       -2.4250     3.2420     2.6350 O.3   1 <1>  -0.3630 
 12 C       -2.2900     4.8090     0.8160 C.ar  1 <1>  -0.1500 
 13 O       -1.7900     1.6860    -1.8060 O.3   1 <1>  -0.3630 
 14 C       -1.9740     3.9810    -1.4050 C.ar  1 <1>  -0.1500 
 15 O       -4.5130    -1.6810    -0.6610 O.3   1 <1>  -0.5600 
 16 C       -3.4080    -3.5380     0.3840 C.ar  1 <1>  -0.1430 
 17 C       -5.8440    -0.1150    -1.8390 C.3   1 <1>  -0.1950 
 18 C       -2.4740     4.2510     3.6180 C.3   1 <1>   0.0400 
 19 C       -2.1450     5.0440    -0.5390 C.ar  1 <1>  -0.1500 
 20 C       -0.4900     1.1600    -1.9660 C.3   1 <1>   0.0400 
 21 C       -2.2390    -4.2830     0.4480 C.ar  1 <1>  -0.1500 
 22 C       -4.6160    -4.1560     0.6760 C.ar  1 <1>  -0.1500 
 23 C       -5.9880    -0.5060    -3.2750 C.3   1 <1>  -0.2000 
 24 C       -5.9420     0.9460    -2.8900 C.3   1 <1>  -0.2000 
 25 C       -2.2760    -5.6230     0.7970 C.ar  1 <1>  -0.1500 
 26 C       -4.6560    -5.4950     1.0250 C.ar  1 <1>  -0.1500 
 27 C       -3.4850    -6.2300     1.0860 C.ar  1 <1>  -0.1500 
 28 H       -2.1880    -1.4420     1.7210 H     1 <1>   0.0800 
 29 H       -3.9030    -1.4070     1.9790 H     1 <1>   0.0800 
 30 H       -5.2680     0.4900     0.7600 H     1 <1>   0.0800 
 31 H       -4.3810     1.6170    -0.2180 H     1 <1>   0.0800 
 32 H       -2.5110    -1.9080    -0.6650 H     1 <1>   0.0800 
 33 H       -3.7030    -0.1920    -1.7500 H     1 <1>   0.0800 
 34 H       -2.4260     5.6530     1.4650 H     1 <1>   0.1500 
 35 H       -1.8680     4.1510    -2.4620 H     1 <1>   0.1500 
 36 H       -6.7030    -0.2560    -1.2060 H     1 <1>   0.1000 
 37 H       -2.5400     3.7750     4.5800 H     1 <1>   0.0800 
 38 H       -3.3440     4.8610     3.4510 H     1 <1>   0.0800 
 39 H       -1.5730     4.8360     3.5630 H     1 <1>   0.0800 
 40 H       -2.1690     6.0510    -0.9200 H     1 <1>   0.1500 
 41 H       -0.5230     0.4050    -2.7300 H     1 <1>   0.0800 
 42 H       -0.1630     0.7270    -1.0370 H     1 <1>   0.0800 
 43 H        0.1730     1.9540    -2.2590 H     1 <1>   0.0800 
 44 H       -1.2910    -3.8240     0.2280 H     1 <1>   0.1500 
 45 H       -5.5330    -3.5940     0.6280 H     1 <1>   0.1500 
 46 H       -5.1420    -0.9440    -3.7760 H     1 <1>   0.1000 
 47 H       -6.9220    -0.9350    -3.5950 H     1 <1>   0.1000 
 48 H       -6.8460     1.5270    -2.9590 H     1 <1>   0.1000 
 49 H       -5.0650     1.5150    -3.1500 H     1 <1>   0.1000 
 50 H       -1.3650    -6.1920     0.8430 H     1 <1>   0.1500 
 51 H       -5.5990    -5.9640     1.2470 H     1 <1>   0.1500 
 52 H       -3.5160    -7.2700     1.3560 H     1 <1>   0.1500 
@<TRIPOS>BOND
  1   1   2  2   
  2   2   3  am  
  3   2   4  1   
  4   3   5  1   
  5   3   6  1   
  6   4   7  ar  
  7   4   8  ar  
  8   5   9  1   
  9   5  28  1   
 10   5  29  1   
 11   6  10  1   
 12   6  30  1   
 13   6  31  1   
 14   7  11  1   
 15   7  12  ar  
 16   8  13  1   
 17   8  14  ar  
 18   9  15  1   
 19   9  16  1   
 20   9  32  1   
 21  10  15  1   
 22  10  17  1   
 23  10  33  1   
 24  11  18  1   
 25  12  19  ar  
 26  12  34  1   
 27  13  20  1   
 28  14  19  ar  
 29  14  35  1   
 30  16  21  ar  
 31  16  22  ar  
 32  17  23  1   
 33  17  24  1   
 34  17  36  1   
 35  18  37  1   
 36  18  38  1   
 37  18  39  1   
 38  19  40  1   
 39  20  41  1   
 40  20  42  1   
 41  20  43  1   
 42  21  25  ar  
 43  21  44  1   
 44  22  26  ar  
 45  22  45  1   
 46  23  24  1   
 47  23  46  1   
 48  23  47  1   
 49  24  48  1   
 50  24  49  1   
 51  25  27  ar  
 52  25  50  1   
 53  26  27  ar  
 54  26  51  1   
 55  27  52  1   
@<TRIPOS>SUBSTRUCTURE
  1 ****   3 GROUP 4 **** **** 0

# MOE 2024.06 (io_trps.svl 2023.06)
