@<TRIPOS>MOLECULE
NONAME
50 52 1 0 0 
SMALL
USER_CHARGES


@<TRIPOS>ATOM
  1 O       -2.7540     0.2570    -3.4490 O.2   1 <1>  -0.5700 
  2 C       -2.1940     0.6070    -2.4380 C.2   1 <1>   0.5690 
  3 N       -1.7980    -0.2920    -1.5020 N.am  1 <1>  -0.7300 
  4 C       -1.9430     2.0940    -2.2140 C.3   1 <1>   0.1810 
  5 C       -1.9720    -1.7600    -1.5770 C.3   1 <1>   0.2200 
  6 O       -1.4790     2.3480    -0.8930 O.3   1 <1>  -0.3630 
  7 C       -3.0820    -2.2330    -0.6490 C.3   1 <1>  -0.0800 
  8 C       -0.7660    -2.4350    -0.9390 C.3   1 <1>   0.1200 
  9 C       -1.1940     3.6120    -0.4850 C.ar  1 <1>   0.0820 
 10 C       -2.3690    -2.3640     0.7020 C.3   1 <1>   0.1200 
 11 C       -4.3490    -1.3600    -0.6130 C.3   1 <1>  -0.0160 
 12 O       -0.9960    -2.3760     0.4370 O.3   1 <1>  -0.5600 
 13 C       -0.7180     3.7550     0.8080 C.ar  1 <1>  -0.1500 
 14 C       -1.3540     4.7410    -1.2850 C.ar  1 <1>  -0.1500 
 15 C       -5.4110    -1.9810     0.2810 C.ar  1 <1>  -0.1440 
 16 C       -0.4010     5.0060     1.3100 C.ar  1 <1>  -0.1500 
 17 C       -1.0370     5.9910    -0.7830 C.ar  1 <1>  -0.1500 
 18 C       -6.2280    -3.0010    -0.1630 C.ar  1 <1>  -0.1500 
 19 C       -5.6140    -1.5600     1.5800 C.ar  1 <1>  -0.1500 
 20 C       -0.5610     6.1350     0.5100 C.ar  1 <1>   0.0820 
 21 C       -7.1760    -3.5400     0.6900 C.ar  1 <1>   0.1600 
 22 C       -6.5910    -2.1670     2.3510 C.ar  1 <1>   0.1600 
 23 O       -0.2760     7.3990     0.9170 O.3   1 <1>  -0.3620 
 24 N       -7.3760    -3.1490     1.9380 N.ar  1 <1>  -0.6200 
 25 C        0.2140     7.6540     2.2130 C.3   1 <1>   0.1200 
 26 C        0.4300     9.1580     2.3470 C.3   1 <1>  -0.2400 
 27 H       -1.3530     0.0490    -0.6430 H     1 <1>   0.3700 
 28 H       -2.8610     2.6320    -2.3610 H     1 <1>   0.0800 
 29 H       -1.1990     2.4360    -2.9080 H     1 <1>   0.0800 
 30 H       -2.1220    -2.0720    -2.5980 H     1 <1>   0.0800 
 31 H       -3.3660    -3.2240    -0.9570 H     1 <1>   0.0800 
 32 H        0.1620    -1.9450    -1.1750 H     1 <1>   0.0800 
 33 H       -0.7160    -3.4730    -1.2200 H     1 <1>   0.0800 
 34 H       -2.6370    -3.2740     1.2090 H     1 <1>   0.0800 
 35 H       -2.5680    -1.5200     1.3390 H     1 <1>   0.0800 
 36 H       -4.7390    -1.2560    -1.6110 H     1 <1>   0.0800 
 37 H       -4.1170    -0.3720    -0.2540 H     1 <1>   0.0800 
 38 H       -0.5950     2.8800     1.4210 H     1 <1>   0.1500 
 39 H       -1.7190     4.6740    -2.2920 H     1 <1>   0.1500 
 40 H       -0.0350     5.0790     2.3160 H     1 <1>   0.1500 
 41 H       -1.1560     6.8690    -1.3920 H     1 <1>   0.1500 
 42 H       -6.1360    -3.3810    -1.1640 H     1 <1>   0.1500 
 43 H       -5.0230    -0.7670     2.0000 H     1 <1>   0.1500 
 44 H       -7.8040    -4.3350     0.3260 H     1 <1>   0.1500 
 45 H       -6.7350    -1.8260     3.3630 H     1 <1>   0.1500 
 46 H       -0.5130     7.3090     2.9270 H     1 <1>   0.0800 
 47 H        1.1430     7.1250     2.3360 H     1 <1>   0.0800 
 48 H       -0.5000     9.6790     2.2050 H     1 <1>   0.0800 
 49 H        1.1450     9.4950     1.6180 H     1 <1>   0.0800 
 50 H        0.8060     9.3870     3.3280 H     1 <1>   0.0800 
@<TRIPOS>BOND
  1   1   2  2   
  2   2   3  am  
  3   2   4  1   
  4   3   5  1   
  5   3  27  1   
  6   4   6  1   
  7   4  28  1   
  8   4  29  1   
  9   5   7  1   
 10   5   8  1   
 11   5  30  1   
 12   6   9  1   
 13   7  10  1   
 14   7  11  1   
 15   7  31  1   
 16   8  12  1   
 17   8  32  1   
 18   8  33  1   
 19   9  13  ar  
 20   9  14  ar  
 21  10  12  1   
 22  10  34  1   
 23  10  35  1   
 24  11  15  1   
 25  11  36  1   
 26  11  37  1   
 27  13  16  ar  
 28  13  38  1   
 29  14  17  ar  
 30  14  39  1   
 31  15  18  ar  
 32  15  19  ar  
 33  16  20  ar  
 34  16  40  1   
 35  17  20  ar  
 36  17  41  1   
 37  18  21  ar  
 38  18  42  1   
 39  19  22  ar  
 40  19  43  1   
 41  20  23  1   
 42  21  24  ar  
 43  21  44  1   
 44  22  24  ar  
 45  22  45  1   
 46  23  25  1   
 47  25  26  1   
 48  25  46  1   
 49  25  47  1   
 50  26  48  1   
 51  26  49  1   
 52  26  50  1   
@<TRIPOS>SUBSTRUCTURE
  1 ****   6 GROUP 4 **** **** 0

# MOE 2024.06 (io_trps.svl 2023.06)
