@<TRIPOS>MOLECULE
NONAME
59 62 1 0 0 
SMALL
USER_CHARGES


@<TRIPOS>ATOM
  1 O        1.6560    -0.2180     1.4220 O.3   1 <1>  -0.6800 
  2 C        2.0170     0.6100     0.3780 C.3   1 <1>   0.2000 
  3 C        3.1470    -0.0480    -0.4610 C.3   1 <1>   0.0000 
  4 C        2.3490     1.9890     0.9490 C.3   1 <1>  -0.1600 
  5 C        3.6350     0.9910    -1.4910 C.3   1 <1>   0.3430 
  6 C        2.5000    -1.2170    -1.2390 C.3   1 <1>   0.1200 
  7 C        4.3380    -0.6390     0.3670 C.3   1 <1>  -0.0170 
  8 C        2.8580     2.9290    -0.1380 C.3   1 <1>   0.3430 
  9 N        3.9970     2.3010    -0.8640 N.4   1 <1>  -0.9590 
 10 O        3.3150    -1.5830    -2.3040 O.3   1 <1>  -0.6800 
 11 C        5.4640     0.3150     0.7540 C.ar  1 <1>  -0.1440 
 12 C        4.6280     3.2120    -1.8620 C.3   1 <1>   0.4860 
 13 C        5.4820     0.9240     1.9980 C.ar  1 <1>  -0.1500 
 14 C        6.5090     0.5520    -0.1290 C.ar  1 <1>  -0.1500 
 15 C        4.8300     4.5900    -1.2620 C.ar  1 <1>  -0.1440 
 16 C        6.5070     1.7870     2.3430 C.ar  1 <1>  -0.1500 
 17 C        7.5380     1.4100     0.2160 C.ar  1 <1>  -0.1500 
 18 C        5.7500     4.7900    -0.2560 C.ar  1 <1>  -0.1500 
 19 C        4.0560     5.6650    -1.7250 C.ar  1 <1>  -0.1500 
 20 C        7.5360     2.0310     1.4520 C.ar  1 <1>  -0.1500 
 21 C        5.8950     6.0570     0.3100 C.ar  1 <1>   0.0000 
 22 C        4.1930     6.9190    -1.1770 C.ar  1 <1>  -0.1500 
 23 C        5.1170     7.1150    -0.1470 C.ar  1 <1>  -0.1520 
 24 C        6.7150     6.5740     1.3330 C.2   1 <1>  -0.1500 
 25 N        5.4510     8.2410     0.5700 N.pl3 1 <1>   0.0480 
 26 C        6.4230     7.8890     1.4640 C.2   1 <1>  -0.3020 
 27 C        4.8780     9.5940     0.4110 C.3   1 <1>   0.0960 
 28 C        5.5990    10.3560    -0.7040 C.3   1 <1>  -0.2400 
 29 H        0.9090     0.1520     1.9360 H     1 <1>   0.4000 
 30 H        1.1430     0.7190    -0.2440 H     1 <1>   0.0800 
 31 H        1.4630     2.4210     1.3780 H     1 <1>   0.0800 
 32 H        3.0830     1.9190     1.7260 H     1 <1>   0.0800 
 33 H        2.8560     1.1490    -2.2190 H     1 <1>   0.0800 
 34 H        4.4860     0.5820    -2.0100 H     1 <1>   0.0800 
 35 H        1.5430    -0.9390    -1.6490 H     1 <1>   0.0800 
 36 H        2.3650    -2.0720    -0.5970 H     1 <1>   0.0800 
 37 H        3.9700    -1.1230     1.2550 H     1 <1>   0.0800 
 38 H        4.8020    -1.4250    -0.2040 H     1 <1>   0.0800 
 39 H        3.1720     3.8550     0.3190 H     1 <1>   0.0800 
 40 H        2.0630     3.1500    -0.8320 H     1 <1>   0.0800 
 41 H        4.7260     2.0960    -0.1540 H     1 <1>   0.4500 
 42 H        3.0010    -2.4200    -2.7100 H     1 <1>   0.4000 
 43 H        5.5810     2.8130    -2.1700 H     1 <1>   0.0800 
 44 H        3.9990     3.2950    -2.7330 H     1 <1>   0.0800 
 45 H        4.7050     0.7170     2.7160 H     1 <1>   0.1500 
 46 H        6.5380     0.0570    -1.0850 H     1 <1>   0.1500 
 47 H        6.5130     2.2580     3.3120 H     1 <1>   0.1500 
 48 H        8.3510     1.5860    -0.4700 H     1 <1>   0.1500 
 49 H        6.3690     3.9980     0.1190 H     1 <1>   0.1500 
 50 H        3.3440     5.5170    -2.5200 H     1 <1>   0.1500 
 51 H        8.3400     2.6930     1.7260 H     1 <1>   0.1500 
 52 H        3.6040     7.7470    -1.5310 H     1 <1>   0.1500 
 53 H        7.4340     5.9970     1.8860 H     1 <1>   0.1500 
 54 H        6.8540     8.6030     2.1440 H     1 <1>   0.1500 
 55 H        3.8310     9.5020     0.1850 H     1 <1>   0.0800 
 56 H        4.9790    10.1210     1.3430 H     1 <1>   0.0800 
 57 H        5.4930     9.8370    -1.6410 H     1 <1>   0.0800 
 58 H        6.6440    10.4560    -0.4710 H     1 <1>   0.0800 
 59 H        5.1760    11.3390    -0.8080 H     1 <1>   0.0800 
@<TRIPOS>BOND
  1   1   2  1   
  2   1  29  1   
  3   2   3  1   
  4   2   4  1   
  5   2  30  1   
  6   3   5  1   
  7   3   6  1   
  8   3   7  1   
  9   4   8  1   
 10   4  31  1   
 11   4  32  1   
 12   5   9  1   
 13   5  33  1   
 14   5  34  1   
 15   6  10  1   
 16   6  35  1   
 17   6  36  1   
 18   7  11  1   
 19   7  37  1   
 20   7  38  1   
 21   8   9  1   
 22   8  39  1   
 23   8  40  1   
 24   9  12  1   
 25   9  41  1   
 26  10  42  1   
 27  11  13  ar  
 28  11  14  ar  
 29  12  15  1   
 30  12  43  1   
 31  12  44  1   
 32  13  16  ar  
 33  13  45  1   
 34  14  17  ar  
 35  14  46  1   
 36  15  18  ar  
 37  15  19  ar  
 38  16  20  ar  
 39  16  47  1   
 40  17  20  ar  
 41  17  48  1   
 42  18  21  ar  
 43  18  49  1   
 44  19  22  ar  
 45  19  50  1   
 46  20  51  1   
 47  21  23  ar  
 48  21  24  1   
 49  22  23  ar  
 50  22  52  1   
 51  23  25  1   
 52  24  26  2   
 53  24  53  1   
 54  25  26  1   
 55  25  27  1   
 56  26  54  1   
 57  27  28  1   
 58  27  55  1   
 59  27  56  1   
 60  28  57  1   
 61  28  58  1   
 62  28  59  1   
@<TRIPOS>SUBSTRUCTURE
  1 ****   9 GROUP 4 **** **** 0

# MOE 2024.06 (io_trps.svl 2023.06)
