@<TRIPOS>MOLECULE
NONAME
57 59 1 0 0 
SMALL
USER_CHARGES


@<TRIPOS>ATOM
  1 F        0.6170    -0.8700     0.0640 F     1 <1>  -0.1900 
  2 C       -0.6070    -1.2910    -0.1140 C.ar  1 <1>   0.1900 
  3 C       -1.5960    -0.8420     0.7390 C.ar  1 <1>  -0.1500 
  4 C       -0.8660    -2.1700    -1.1470 C.ar  1 <1>  -0.1500 
  5 C       -2.8920    -1.2920     0.5460 C.ar  1 <1>  -0.1500 
  6 C       -2.1650    -2.6130    -1.3300 C.ar  1 <1>  -0.1500 
  7 C       -3.1800    -2.1750    -0.4880 C.ar  1 <1>  -0.1430 
  8 C       -4.6040    -2.6650    -0.6950 C.3   1 <1>  -0.0160 
  9 C       -4.8470    -3.9610     0.0890 C.3   1 <1>  -0.1600 
 10 C       -6.2870    -4.4790    -0.0930 C.3   1 <1>  -0.0990 
 11 C       -6.6020    -5.7590     0.6800 C.2   1 <1>   0.5690 
 12 O       -5.6770    -6.3760     1.1560 O.2   1 <1>  -0.5700 
 13 N       -7.9010    -6.1920     0.8250 N.am  1 <1>  -0.6600 
 14 C       -9.0640    -5.5610     0.1290 C.3   1 <1>   0.2200 
 15 C       -8.1670    -7.3770     1.7010 C.3   1 <1>   0.0600 
 16 C       -9.9350    -4.7450     1.0810 C.3   1 <1>  -0.1600 
 17 C      -10.0300    -6.5490    -0.5280 C.3   1 <1>  -0.1600 
 18 C      -11.2870    -4.6300     0.3630 C.3   1 <1>  -0.0800 
 19 C      -11.3400    -5.7620    -0.6700 C.3   1 <1>  -0.0800 
 20 C      -12.5230    -4.8200     1.2550 C.3   1 <1>  -0.1600 
 21 C      -12.6200    -6.5540    -0.3600 C.3   1 <1>  -0.1600 
 22 C      -13.5350    -5.5820     0.3930 C.3   1 <1>   0.4230 
 23 N      -14.2310    -4.6580    -0.5610 N.4   1 <1>  -0.9590 
 24 C      -15.0270    -3.5960     0.1370 C.3   1 <1>   0.2630 
 25 C      -15.1410    -5.3820    -1.5070 C.3   1 <1>   0.2630 
 26 H       -1.3550    -0.1590     1.5330 H     1 <1>   0.1500 
 27 H       -0.0690    -2.4990    -1.7890 H     1 <1>   0.1500 
 28 H       -3.6740    -0.9550     1.2030 H     1 <1>   0.1500 
 29 H       -2.3840    -3.3010    -2.1280 H     1 <1>   0.1500 
 30 H       -5.2950    -1.9070    -0.3700 H     1 <1>   0.0800 
 31 H       -4.7750    -2.8360    -1.7430 H     1 <1>   0.0800 
 32 H       -4.6610    -3.7870     1.1350 H     1 <1>   0.0800 
 33 H       -4.1520    -4.7130    -0.2450 H     1 <1>   0.0800 
 34 H       -6.4590    -4.6710    -1.1360 H     1 <1>   0.0800 
 35 H       -6.9650    -3.7120     0.2330 H     1 <1>   0.0800 
 36 H       -8.7190    -4.9040    -0.6490 H     1 <1>   0.0800 
 37 H       -9.1140    -7.2810     2.2010 H     1 <1>   0.0800 
 38 H       -7.4020    -7.4690     2.4540 H     1 <1>   0.0800 
 39 H       -8.1660    -8.2730     1.1060 H     1 <1>   0.0800 
 40 H      -10.0410    -5.2640     2.0150 H     1 <1>   0.0800 
 41 H       -9.5040    -3.7770     1.2660 H     1 <1>   0.0800 
 42 H       -9.6580    -6.8740    -1.4840 H     1 <1>   0.0800 
 43 H      -10.1840    -7.4080     0.0970 H     1 <1>   0.0800 
 44 H      -11.3410    -3.6850    -0.1520 H     1 <1>   0.0800 
 45 H      -11.3960    -5.3320    -1.6570 H     1 <1>   0.0800 
 46 H      -12.8800    -3.8940     1.6650 H     1 <1>   0.0800 
 47 H      -12.2710    -5.4580     2.0840 H     1 <1>   0.0800 
 48 H      -12.3900    -7.3580     0.3180 H     1 <1>   0.0800 
 49 H      -13.0500    -6.9960    -1.2390 H     1 <1>   0.0800 
 50 H      -14.2550    -6.1080     1.0010 H     1 <1>   0.0800 
 51 H      -13.4880    -4.2010    -1.1090 H     1 <1>   0.4500 
 52 H      -15.7560    -4.0450     0.7930 H     1 <1>   0.0800 
 53 H      -15.5450    -2.9840    -0.5840 H     1 <1>   0.0800 
 54 H      -14.3860    -2.9560     0.7180 H     1 <1>   0.0800 
 55 H      -15.8780    -5.9470    -0.9600 H     1 <1>   0.0800 
 56 H      -14.5840    -6.0570    -2.1350 H     1 <1>   0.0800 
 57 H      -15.6520    -4.6790    -2.1450 H     1 <1>   0.0800 
@<TRIPOS>BOND
  1   1   2  1   
  2   2   3  ar  
  3   2   4  ar  
  4   3   5  ar  
  5   3  26  1   
  6   4   6  ar  
  7   4  27  1   
  8   5   7  ar  
  9   5  28  1   
 10   6   7  ar  
 11   6  29  1   
 12   7   8  1   
 13   8   9  1   
 14   8  30  1   
 15   8  31  1   
 16   9  10  1   
 17   9  32  1   
 18   9  33  1   
 19  10  11  1   
 20  10  34  1   
 21  10  35  1   
 22  11  12  2   
 23  11  13  am  
 24  13  14  1   
 25  13  15  1   
 26  14  16  1   
 27  14  17  1   
 28  14  36  1   
 29  15  37  1   
 30  15  38  1   
 31  15  39  1   
 32  16  18  1   
 33  16  40  1   
 34  16  41  1   
 35  17  19  1   
 36  17  42  1   
 37  17  43  1   
 38  18  19  1   
 39  18  20  1   
 40  18  44  1   
 41  19  21  1   
 42  19  45  1   
 43  20  22  1   
 44  20  46  1   
 45  20  47  1   
 46  21  22  1   
 47  21  48  1   
 48  21  49  1   
 49  22  23  1   
 50  22  50  1   
 51  23  24  1   
 52  23  25  1   
 53  23  51  1   
 54  24  52  1   
 55  24  53  1   
 56  24  54  1   
 57  25  55  1   
 58  25  56  1   
 59  25  57  1   
@<TRIPOS>SUBSTRUCTURE
  1 ****  10 GROUP 4 **** **** 0

# MOE 2024.06 (io_trps.svl 2023.06)
