@<TRIPOS>MOLECULE
NONAME
56 59 1 0 0 
SMALL
USER_CHARGES


@<TRIPOS>ATOM
  1 O        1.4650     0.8530     1.4900 O.2   1 <1>  -0.5700 
  2 C        2.0990     0.4640     0.5270 C.2   1 <1>   0.7160 
  3 N        2.5310     1.3820    -0.4100 N.am  1 <1>  -0.6600 
  4 C        2.4140    -0.9410     0.4210 C.2   1 <1>  -0.0860 
  5 C        3.8100     1.1980    -1.1610 C.3   1 <1>   0.1400 
  6 C        1.9480     2.7540    -0.4670 C.3   1 <1>   0.1400 
  7 C        2.7670    -1.7950     1.4190 C.2   1 <1>  -0.0100 
  8 C        2.4030    -1.7540    -0.7330 C.2   1 <1>  -0.1500 
  9 C        5.0390     1.4110    -0.2570 C.3   1 <1>   0.2090 
 10 C        2.9580     3.8540    -0.1100 C.3   1 <1>  -0.1600 
 11 O        2.9830    -3.0050     0.9630 O.3   1 <1>  -0.2800 
 12 C        2.7610    -2.9910    -0.3340 C.2   1 <1>  -0.0100 
 13 N        5.2090     2.8390     0.1770 N.pl3 1 <1>  -0.8380 
 14 C        4.0350     3.4340     0.8950 C.3   1 <1>   0.2090 
 15 C        6.3290     3.5750    -0.0590 C.ar  1 <1>   0.4100 
 16 N        6.1800     4.8730    -0.2400 N.ar  1 <1>  -0.6200 
 17 C        7.6040     2.9780    -0.1040 C.ar  1 <1>  -0.1500 
 18 C        7.2490     5.6140    -0.4860 C.ar  1 <1>   0.7710 
 19 C        8.6890     3.7460    -0.3640 C.ar  1 <1>   0.2180 
 20 N        8.4760     5.0680    -0.5600 N.ar  1 <1>  -0.1790 
 21 N        7.1040     6.9540    -0.6730 N.pl3 1 <1>  -0.8380 
 22 C       10.1110     3.2030    -0.4400 C.3   1 <1>  -0.0170 
 23 C        5.7410     7.5970    -0.7760 C.3   1 <1>   0.2090 
 24 C        8.1890     7.9940    -0.7580 C.3   1 <1>   0.2090 
 25 C       11.0170     3.7990     0.6460 C.3   1 <1>  -0.2400 
 26 C        5.6080     8.7780     0.2000 C.3   1 <1>   0.1200 
 27 C        7.9220     9.1540     0.2210 C.3   1 <1>   0.1200 
 28 O        6.6510     9.6900     0.0110 O.3   1 <1>  -0.5600 
 29 H        3.8530     1.8850    -1.9880 H     1 <1>   0.0800 
 30 H        3.8510     0.2060    -1.5700 H     1 <1>   0.0800 
 31 H        1.1140     2.8200     0.2120 H     1 <1>   0.0800 
 32 H        1.5600     2.9300    -1.4560 H     1 <1>   0.0800 
 33 H        2.8770    -1.6020     2.4720 H     1 <1>   0.1500 
 34 H        2.1420    -1.4200    -1.7220 H     1 <1>   0.1500 
 35 H        5.9000     1.0980    -0.8170 H     1 <1>   0.0800 
 36 H        4.9640     0.7780     0.6100 H     1 <1>   0.0800 
 37 H        2.4030     4.6730     0.3100 H     1 <1>   0.0800 
 38 H        3.4270     4.2260    -1.0030 H     1 <1>   0.0800 
 39 H        2.8760    -3.9060    -0.8900 H     1 <1>   0.1500 
 40 H        3.6390     2.7350     1.6130 H     1 <1>   0.0800 
 41 H        4.3580     4.3020     1.4440 H     1 <1>   0.0800 
 42 H        7.6930     1.9260     0.0860 H     1 <1>   0.1500 
 43 H        9.2320     5.7010    -0.7810 H     1 <1>   0.4570 
 44 H       10.5270     3.4070    -1.4120 H     1 <1>   0.0800 
 45 H       10.0910     2.1330    -0.3210 H     1 <1>   0.0800 
 46 H        4.9450     6.9010    -0.5760 H     1 <1>   0.0800 
 47 H        5.5970     7.9640    -1.7790 H     1 <1>   0.0800 
 48 H        8.2210     8.3940    -1.7590 H     1 <1>   0.0800 
 49 H        9.1540     7.5810    -0.5340 H     1 <1>   0.0800 
 50 H       11.1360     4.8610     0.5270 H     1 <1>   0.0800 
 51 H       11.9940     3.3470     0.5930 H     1 <1>   0.0800 
 52 H       10.6130     3.6010     1.6250 H     1 <1>   0.0800 
 53 H        5.6260     8.4340     1.2200 H     1 <1>   0.0800 
 54 H        4.6820     9.2990     0.0290 H     1 <1>   0.0800 
 55 H        8.6360     9.9440     0.0670 H     1 <1>   0.0800 
 56 H        7.9910     8.8220     1.2420 H     1 <1>   0.0800 
@<TRIPOS>BOND
  1   1   2  2   
  2   2   3  am  
  3   2   4  1   
  4   3   5  1   
  5   3   6  1   
  6   4   7  2   
  7   4   8  1   
  8   5   9  1   
  9   5  29  1   
 10   5  30  1   
 11   6  10  1   
 12   6  31  1   
 13   6  32  1   
 14   7  11  1   
 15   7  33  1   
 16   8  12  2   
 17   8  34  1   
 18   9  13  1   
 19   9  35  1   
 20   9  36  1   
 21  10  14  1   
 22  10  37  1   
 23  10  38  1   
 24  11  12  1   
 25  12  39  1   
 26  13  14  1   
 27  13  15  1   
 28  14  40  1   
 29  14  41  1   
 30  15  16  ar  
 31  15  17  ar  
 32  16  18  ar  
 33  17  19  ar  
 34  17  42  1   
 35  18  20  ar  
 36  18  21  1   
 37  19  20  ar  
 38  19  22  1   
 39  20  43  1   
 40  21  23  1   
 41  21  24  1   
 42  22  25  1   
 43  22  44  1   
 44  22  45  1   
 45  23  26  1   
 46  23  46  1   
 47  23  47  1   
 48  24  27  1   
 49  24  48  1   
 50  24  49  1   
 51  25  50  1   
 52  25  51  1   
 53  25  52  1   
 54  26  28  1   
 55  26  53  1   
 56  26  54  1   
 57  27  28  1   
 58  27  55  1   
 59  27  56  1   
@<TRIPOS>SUBSTRUCTURE
  1 ****  13 GROUP 4 **** **** 0

# MOE 2024.06 (io_trps.svl 2023.06)
