@<TRIPOS>MOLECULE
NONAME
43 46 1 0 0 
SMALL
USER_CHARGES


@<TRIPOS>ATOM
  1 F       -1.4060    -1.6050    -2.1020 F     1 <1>  -0.1900 
  2 C       -2.1740    -0.7700    -1.4510 C.ar  1 <1>   0.1900 
  3 C       -1.6880    -0.0930    -0.3450 C.ar  1 <1>   0.1900 
  4 C       -3.4700    -0.5820    -1.8860 C.ar  1 <1>  -0.1500 
  5 F       -0.4610    -0.2780     0.0630 F     1 <1>  -0.1900 
  6 C       -2.4960     0.7920     0.3440 C.ar  1 <1>  -0.1500 
  7 C       -4.3140     0.2970    -1.2020 C.ar  1 <1>   0.0860 
  8 C       -3.7990     0.9800    -0.0920 C.ar  1 <1>  -0.1500 
  9 C       -5.6790     0.4970    -1.6490 C.2   1 <1>   0.5440 
 10 O       -5.8760     0.8390    -2.7990 O.2   1 <1>  -0.5700 
 11 N       -6.7580     0.3030    -0.8120 N.am  1 <1>  -0.6600 
 12 C       -8.1470     0.6450    -1.2770 C.3   1 <1>   0.1400 
 13 C       -6.6420    -0.3880     0.5090 C.3   1 <1>   0.1400 
 14 C       -9.0530     1.0440    -0.0970 C.3   1 <1>   0.1430 
 15 C       -7.9560    -1.0790     0.8930 C.3   1 <1>  -0.1600 
 16 C      -10.4370     1.4450    -0.5780 C.ar  1 <1>   0.1670 
 17 C       -9.1620    -0.1180     0.9240 C.3   1 <1>  -0.1600 
 18 C       -8.5530     2.3520     0.5790 C.3   1 <1>  -0.1600 
 19 N      -11.1800     0.7560    -1.4120 N.ar  1 <1>  -0.6200 
 20 C      -10.8380     2.6280    -0.0300 C.ar  1 <1>  -0.1440 
 21 C       -9.7960     3.2010     0.8950 C.3   1 <1>  -0.0170 
 22 C      -12.3560     1.3090    -1.6680 C.ar  1 <1>   0.7200 
 23 C      -12.0770     3.1090    -0.3810 C.ar  1 <1>   0.1600 
 24 N      -12.8520     2.4510    -1.2130 N.ar  1 <1>  -0.6200 
 25 N      -13.1340     0.6410    -2.5200 N.pl3 1 <1>  -0.9000 
 26 H       -3.8320    -1.1080    -2.7520 H     1 <1>   0.1500 
 27 H       -2.1090     1.3190     1.1980 H     1 <1>   0.1500 
 28 H       -4.4360     1.6750     0.4270 H     1 <1>   0.1500 
 29 H       -8.5680    -0.2100    -1.7780 H     1 <1>   0.0800 
 30 H       -8.1110     1.4520    -1.9890 H     1 <1>   0.0800 
 31 H       -6.3850     0.3360     1.2630 H     1 <1>   0.0800 
 32 H       -5.8570    -1.1240     0.4660 H     1 <1>   0.0800 
 33 H       -7.8490    -1.5530     1.8530 H     1 <1>   0.0800 
 34 H       -8.1430    -1.8580     0.1730 H     1 <1>   0.0800 
 35 H      -10.0440    -0.6980     0.7090 H     1 <1>   0.0800 
 36 H       -9.2890     0.2800     1.9150 H     1 <1>   0.0800 
 37 H       -7.9450     2.9010    -0.1190 H     1 <1>   0.0800 
 38 H       -7.9640     2.1670     1.4590 H     1 <1>   0.0800 
 39 H       -9.6220     4.2460     0.7030 H     1 <1>   0.0800 
 40 H      -10.1040     3.0610     1.9170 H     1 <1>   0.0800 
 41 H      -12.4350     4.0390     0.0250 H     1 <1>   0.1500 
 42 H      -13.8660     1.1940    -2.9550 H     1 <1>   0.4000 
 43 H      -12.6490    -0.0280    -3.1100 H     1 <1>   0.4000 
@<TRIPOS>BOND
  1   1   2  1   
  2   2   3  ar  
  3   2   4  ar  
  4   3   5  1   
  5   3   6  ar  
  6   4   7  ar  
  7   4  26  1   
  8   6   8  ar  
  9   6  27  1   
 10   7   8  ar  
 11   7   9  1   
 12   8  28  1   
 13   9  10  2   
 14   9  11  am  
 15  11  12  1   
 16  11  13  1   
 17  12  14  1   
 18  12  29  1   
 19  12  30  1   
 20  13  15  1   
 21  13  31  1   
 22  13  32  1   
 23  14  16  1   
 24  14  17  1   
 25  14  18  1   
 26  15  17  1   
 27  15  33  1   
 28  15  34  1   
 29  16  19  ar  
 30  16  20  ar  
 31  17  35  1   
 32  17  36  1   
 33  18  21  1   
 34  18  37  1   
 35  18  38  1   
 36  19  22  ar  
 37  20  21  1   
 38  20  23  ar  
 39  21  39  1   
 40  21  40  1   
 41  22  24  ar  
 42  22  25  1   
 43  23  24  ar  
 44  23  41  1   
 45  25  42  1   
 46  25  43  1   
@<TRIPOS>SUBSTRUCTURE
  1 ****  11 GROUP 4 **** **** 0

# MOE 2024.06 (io_trps.svl 2023.06)
