@<TRIPOS>MOLECULE
NONAME
56 60 1 0 0 
SMALL
USER_CHARGES


@<TRIPOS>ATOM
  1 O        0.4370     0.4810    -0.1740 O.2   1 <1>  -0.5700 
  2 C       -0.1210     1.4530     0.2790 C.2   1 <1>   0.5690 
  3 N       -1.4880     1.5550     0.2730 N.am  1 <1>  -0.6600 
  4 C        0.7330     2.5720     0.8700 C.3   1 <1>  -0.0990 
  5 C       -2.2800     2.7100     0.8040 C.3   1 <1>   0.1400 
  6 C       -2.3060     0.4300    -0.2790 C.3   1 <1>   0.1400 
  7 C        2.2520     2.3520     0.7320 C.3   1 <1>  -0.1600 
  8 C       -3.1790     3.3230    -0.2940 C.3   1 <1>   0.1440 
  9 C       -3.7620     0.8420    -0.5550 C.3   1 <1>  -0.1600 
 10 C        3.0560     3.5080     1.3450 C.3   1 <1>   0.0200 
 11 C       -4.2100     4.1940     0.4050 C.ar  1 <1>   0.1660 
 12 C       -3.8260     2.2370    -1.1960 C.3   1 <1>  -0.1600 
 13 C       -2.4040     4.3640    -1.1470 C.3   1 <1>  -0.1600 
 14 C        4.5480     3.3180     1.1460 C.2   1 <1>   0.2980 
 15 N       -5.2500     3.7550     1.0740 N.ar  1 <1>  -0.6200 
 16 C       -3.9180     5.5210     0.2780 C.ar  1 <1>  -0.1440 
 17 C       -2.6580     5.7450    -0.5190 C.3   1 <1>  -0.0170 
 18 O        5.1520     2.3450     1.7780 O.3   1 <1>  -0.0190 
 19 N        5.2900     4.0330     0.4080 N.2   1 <1>  -0.5650 
 20 C       -5.9930     4.7130     1.6080 C.ar  1 <1>   0.7200 
 21 C       -4.7680     6.4250     0.8680 C.ar  1 <1>   0.1600 
 22 N        6.3880     2.4490     1.4090 N.2   1 <1>  -0.4100 
 23 C        6.4740     3.4430     0.5970 C.2   1 <1>   0.4620 
 24 N       -5.8240     6.0270     1.5400 N.ar  1 <1>  -0.6200 
 25 N       -7.0660     4.3030     2.2840 N.pl3 1 <1>  -0.9000 
 26 C        7.6880     3.8990    -0.0530 C.ar  1 <1>   0.0540 
 27 C        8.9180     3.2840     0.1450 C.ar  1 <1>  -0.1500 
 28 C        7.7200     4.9830    -0.9210 C.ar  1 <1>  -0.1500 
 29 C       10.0490     3.7530    -0.4940 C.ar  1 <1>   0.1600 
 30 C        8.9060     5.3760    -1.5120 C.ar  1 <1>   0.1600 
 31 N       10.0740     4.7860    -1.3190 N.ar  1 <1>  -0.6200 
 32 H        0.4840     2.6620     1.9110 H     1 <1>   0.0800 
 33 H        0.4730     3.4880     0.3740 H     1 <1>   0.0800 
 34 H       -1.6490     3.4700     1.2240 H     1 <1>   0.0800 
 35 H       -2.9030     2.3430     1.6020 H     1 <1>   0.0800 
 36 H       -2.2830    -0.3970     0.4110 H     1 <1>   0.0800 
 37 H       -1.8550     0.1010    -1.2000 H     1 <1>   0.0800 
 38 H        2.5040     2.2590    -0.3120 H     1 <1>   0.0800 
 39 H        2.5250     1.4290     1.2170 H     1 <1>   0.0800 
 40 H       -4.3200     0.8380     0.3660 H     1 <1>   0.0800 
 41 H       -4.2160     0.1170    -1.2070 H     1 <1>   0.0800 
 42 H        2.8560     3.5800     2.3980 H     1 <1>   0.0800 
 43 H        2.7670     4.4350     0.8830 H     1 <1>   0.0800 
 44 H       -3.3010     2.1800    -2.1330 H     1 <1>   0.0800 
 45 H       -4.8480     2.4950    -1.4130 H     1 <1>   0.0800 
 46 H       -2.8110     4.3850    -2.1430 H     1 <1>   0.0800 
 47 H       -1.3560     4.1350    -1.2190 H     1 <1>   0.0800 
 48 H       -2.7900     6.5040    -1.2700 H     1 <1>   0.0800 
 49 H       -1.8540     6.0190     0.1430 H     1 <1>   0.0800 
 50 H       -4.5800     7.4820     0.7900 H     1 <1>   0.1500 
 51 H       -7.7850     5.0090     2.4190 H     1 <1>   0.4000 
 52 H       -7.3790     3.3620     2.0680 H     1 <1>   0.4000 
 53 H        8.9920     2.4360     0.8010 H     1 <1>   0.1500 
 54 H        6.8170     5.5240    -1.1370 H     1 <1>   0.1500 
 55 H       10.9870     3.2530    -0.3180 H     1 <1>   0.1500 
 56 H        8.8950     6.2200    -2.1800 H     1 <1>   0.1500 
@<TRIPOS>BOND
  1   1   2  2   
  2   2   3  am  
  3   2   4  1   
  4   3   5  1   
  5   3   6  1   
  6   4   7  1   
  7   4  32  1   
  8   4  33  1   
  9   5   8  1   
 10   5  34  1   
 11   5  35  1   
 12   6   9  1   
 13   6  36  1   
 14   6  37  1   
 15   7  10  1   
 16   7  38  1   
 17   7  39  1   
 18   8  11  1   
 19   8  12  1   
 20   8  13  1   
 21   9  12  1   
 22   9  40  1   
 23   9  41  1   
 24  10  14  1   
 25  10  42  1   
 26  10  43  1   
 27  11  15  ar  
 28  11  16  ar  
 29  12  44  1   
 30  12  45  1   
 31  13  17  1   
 32  13  46  1   
 33  13  47  1   
 34  14  18  1   
 35  14  19  2   
 36  15  20  ar  
 37  16  17  1   
 38  16  21  ar  
 39  17  48  1   
 40  17  49  1   
 41  18  22  1   
 42  19  23  1   
 43  20  24  ar  
 44  20  25  1   
 45  21  24  ar  
 46  21  50  1   
 47  22  23  2   
 48  23  26  1   
 49  25  51  1   
 50  25  52  1   
 51  26  27  ar  
 52  26  28  ar  
 53  27  29  ar  
 54  27  53  1   
 55  28  30  ar  
 56  28  54  1   
 57  29  31  ar  
 58  29  55  1   
 59  30  31  ar  
 60  30  56  1   
@<TRIPOS>SUBSTRUCTURE
  1 ****   4 GROUP 4 **** **** 0

# MOE 2024.06 (io_trps.svl 2023.06)
