@<TRIPOS>MOLECULE
NONAME
45 48 1 0 0 
SMALL
USER_CHARGES


@<TRIPOS>ATOM
  1 CL       0.5340    -0.3880    -0.3760 Cl    1 <1>  -0.1770 
  2 C       -0.5130    -1.7830    -0.3950 C.ar  1 <1>   0.1770 
  3 C       -0.0270    -2.9920    -0.8530 C.ar  1 <1>  -0.1500 
  4 C       -1.8160    -1.6650     0.0450 C.ar  1 <1>  -0.1500 
  5 C       -0.8620    -4.0950    -0.8670 C.ar  1 <1>  -0.1500 
  6 C       -2.6410    -2.7750     0.0240 C.ar  1 <1>  -0.1500 
  7 C       -2.1900    -4.0180    -0.4300 C.ar  1 <1>   0.0530 
  8 C       -3.0440    -5.1850    -0.4630 C.2   1 <1>   0.0870 
  9 O       -2.7060    -6.2200    -1.1960 O.3   1 <1>  -0.0190 
 10 C       -4.2240    -5.4990     0.1300 C.2   1 <1>  -0.2330 
 11 N       -3.5730    -7.1940    -1.1330 N.2   1 <1>  -0.4100 
 12 C       -4.5050    -6.7850    -0.3400 C.2   1 <1>   0.3720 
 13 C       -4.9960    -4.7210     1.0440 C.2   1 <1>   1.0330 
 14 N       -5.6220    -7.5710    -0.0140 N.pl3 1 <1>  -0.8210 
 15 O       -6.0700    -4.2000     0.6910 O.co2 1 <1>  -0.9000 
 16 O       -4.5510    -4.4480     2.1730 O.co2 1 <1>  -0.9000 
 17 C       -5.5550    -9.0200    -0.3500 C.3   1 <1>   0.2090 
 18 C       -6.9540    -6.9100    -0.1570 C.3   1 <1>   0.2090 
 19 C       -6.7190    -9.7700     0.3150 C.3   1 <1>  -0.0800 
 20 C       -7.9900    -7.8370    -0.8020 C.3   1 <1>  -0.1600 
 21 C       -8.1080    -9.1840    -0.0650 C.3   1 <1>  -0.0800 
 22 C       -6.6080   -11.2850     0.0540 C.3   1 <1>  -0.1600 
 23 C       -8.9610   -10.1620    -0.8920 C.3   1 <1>  -0.1600 
 24 C       -7.8710   -12.0120     0.5320 C.3   1 <1>  -0.1600 
 25 C       -9.1390   -11.5180    -0.1870 C.3   1 <1>  -0.1600 
 26 H        0.9910    -3.0650    -1.1900 H     1 <1>   0.1500 
 27 H       -2.1830    -0.7200     0.4030 H     1 <1>   0.1500 
 28 H       -0.4810    -5.0370    -1.2190 H     1 <1>   0.1500 
 29 H       -3.6550    -2.6680     0.3720 H     1 <1>   0.1500 
 30 H       -5.5920    -9.1400    -1.4190 H     1 <1>   0.0800 
 31 H       -4.6190    -9.4170     0.0040 H     1 <1>   0.0800 
 32 H       -7.2910    -6.6060     0.8200 H     1 <1>   0.0800 
 33 H       -6.8580    -6.0240    -0.7620 H     1 <1>   0.0800 
 34 H       -6.5960    -9.6230     1.3750 H     1 <1>   0.0800 
 35 H       -8.9430    -7.3400    -0.8060 H     1 <1>   0.0800 
 36 H       -7.7030    -7.9940    -1.8270 H     1 <1>   0.0800 
 37 H       -8.6330    -8.9990     0.8570 H     1 <1>   0.0800 
 38 H       -6.4700   -11.4690    -0.9970 H     1 <1>   0.0800 
 39 H       -5.7480   -11.6750     0.5710 H     1 <1>   0.0800 
 40 H       -9.9290    -9.7330    -1.0870 H     1 <1>   0.0800 
 41 H       -8.4820   -10.3230    -1.8430 H     1 <1>   0.0800 
 42 H       -7.7610   -13.0720     0.3850 H     1 <1>   0.0800 
 43 H       -7.9810   -11.8420     1.5900 H     1 <1>   0.0800 
 44 H       -9.9340   -11.4410     0.5340 H     1 <1>   0.0800 
 45 H       -9.4410   -12.2460    -0.9210 H     1 <1>   0.0800 
@<TRIPOS>BOND
  1   1   2  1   
  2   2   3  ar  
  3   2   4  ar  
  4   3   5  ar  
  5   3  26  1   
  6   4   6  ar  
  7   4  27  1   
  8   5   7  ar  
  9   5  28  1   
 10   6   7  ar  
 11   6  29  1   
 12   7   8  1   
 13   8   9  1   
 14   8  10  2   
 15   9  11  1   
 16  10  12  1   
 17  10  13  1   
 18  11  12  2   
 19  12  14  1   
 20  13  15  ar  
 21  13  16  ar  
 22  14  17  1   
 23  14  18  1   
 24  17  19  1   
 25  17  30  1   
 26  17  31  1   
 27  18  20  1   
 28  18  32  1   
 29  18  33  1   
 30  19  21  1   
 31  19  22  1   
 32  19  34  1   
 33  20  21  1   
 34  20  35  1   
 35  20  36  1   
 36  21  23  1   
 37  21  37  1   
 38  22  24  1   
 39  22  38  1   
 40  22  39  1   
 41  23  25  1   
 42  23  40  1   
 43  23  41  1   
 44  24  25  1   
 45  24  42  1   
 46  24  43  1   
 47  25  44  1   
 48  25  45  1   
@<TRIPOS>SUBSTRUCTURE
  1 ****  12 GROUP 4 **** **** 0

# MOE 2024.06 (io_trps.svl 2023.06)
