@<TRIPOS>MOLECULE
NONAME
46 48 1 0 0 
SMALL
USER_CHARGES


@<TRIPOS>ATOM
  1 F       -2.1240    -0.9980     1.3700 F     1 <1>  -0.1900 
  2 C       -1.0630    -1.7570     1.4640 C.ar  1 <1>   0.1900 
  3 C       -1.2100    -3.1310     1.5850 C.ar  1 <1>  -0.1440 
  4 C        0.1730    -1.1390     1.4260 C.ar  1 <1>  -0.1500 
  5 C       -0.0530    -3.8960     1.6700 C.ar  1 <1>  -0.1500 
  6 C       -2.5900    -3.7840     1.6180 C.3   1 <1>   0.4040 
  7 C        1.3120    -1.9190     1.5110 C.ar  1 <1>  -0.1500 
  8 C        1.1960    -3.2950     1.6320 C.ar  1 <1>  -0.1500 
  9 O       -2.7580    -4.3620     2.8770 O.3   1 <1>  -0.6800 
 10 C       -2.7490    -4.8520     0.5090 C.2   1 <1>   0.5690 
 11 O       -2.5530    -6.0120     0.8150 O.2   1 <1>  -0.5700 
 12 N       -3.1080    -4.5190    -0.7780 N.am  1 <1>  -0.6600 
 13 C       -3.4670    -5.5860    -1.7550 C.3   1 <1>   0.1400 
 14 C       -3.3380    -3.1350    -1.2670 C.3   1 <1>   0.1400 
 15 C       -4.8980    -6.0950    -1.5190 C.3   1 <1>   0.1400 
 16 C       -4.8260    -2.7690    -1.2200 C.3   1 <1>  -0.1600 
 17 N       -5.9120    -5.0140    -1.2690 N.am  1 <1>  -0.6600 
 18 C       -5.7410    -3.7250    -1.9990 C.3   1 <1>   0.1400 
 19 C       -6.9380    -5.1690    -0.3480 C.2   1 <1>   0.7160 
 20 O       -7.5090    -4.1610     0.0410 O.2   1 <1>  -0.5700 
 21 C       -7.3660    -6.4600     0.1780 C.2   1 <1>   0.2030 
 22 N       -7.2380    -7.6360    -0.3670 N.2   1 <1>  -0.4100 
 23 C       -8.0250    -6.6230     1.3890 C.2   1 <1>  -0.1500 
 24 O       -7.7560    -8.5600     0.4050 O.3   1 <1>  -0.0190 
 25 C       -8.2300    -7.9400     1.4630 C.2   1 <1>  -0.0400 
 26 C       -8.9020    -8.7590     2.5450 C.3   1 <1>  -0.0600 
 27 H        0.2380    -0.0700     1.3330 H     1 <1>   0.1500 
 28 H       -0.1200    -4.9680     1.7680 H     1 <1>   0.1500 
 29 H       -3.3690    -3.0520     1.5140 H     1 <1>   0.0800 
 30 H        2.2860    -1.4600     1.4840 H     1 <1>   0.1500 
 31 H        2.0820    -3.9030     1.7000 H     1 <1>   0.1500 
 32 H       -2.5450    -5.3150     2.7780 H     1 <1>   0.4000 
 33 H       -2.7820    -6.4110    -1.6550 H     1 <1>   0.0800 
 34 H       -3.3740    -5.2160    -2.7600 H     1 <1>   0.0800 
 35 H       -2.9790    -3.0560    -2.2800 H     1 <1>   0.0800 
 36 H       -2.7760    -2.4320    -0.6810 H     1 <1>   0.0800 
 37 H       -4.8570    -6.7490    -0.6650 H     1 <1>   0.0800 
 38 H       -5.2110    -6.6860    -2.3620 H     1 <1>   0.0800 
 39 H       -4.9330    -1.7880    -1.6450 H     1 <1>   0.0800 
 40 H       -5.1580    -2.7040    -0.2000 H     1 <1>   0.0800 
 41 H       -5.3520    -3.9070    -2.9860 H     1 <1>   0.0800 
 42 H       -6.7070    -3.2610    -2.1160 H     1 <1>   0.0800 
 43 H       -8.2860    -5.8340     2.0700 H     1 <1>   0.1500 
 44 H       -9.2380    -8.1200     3.3410 H     1 <1>   0.0800 
 45 H       -8.2070    -9.4760     2.9410 H     1 <1>   0.0800 
 46 H       -9.7470    -9.2800     2.1340 H     1 <1>   0.0800 
@<TRIPOS>BOND
  1   1   2  1   
  2   2   3  ar  
  3   2   4  ar  
  4   3   5  ar  
  5   3   6  1   
  6   4   7  ar  
  7   4  27  1   
  8   5   8  ar  
  9   5  28  1   
 10   6   9  1   
 11   6  10  1   
 12   6  29  1   
 13   7   8  ar  
 14   7  30  1   
 15   8  31  1   
 16   9  32  1   
 17  10  11  2   
 18  10  12  am  
 19  12  13  1   
 20  12  14  1   
 21  13  15  1   
 22  13  33  1   
 23  13  34  1   
 24  14  16  1   
 25  14  35  1   
 26  14  36  1   
 27  15  17  1   
 28  15  37  1   
 29  15  38  1   
 30  16  18  1   
 31  16  39  1   
 32  16  40  1   
 33  17  18  1   
 34  17  19  am  
 35  18  41  1   
 36  18  42  1   
 37  19  20  2   
 38  19  21  1   
 39  21  22  2   
 40  21  23  1   
 41  22  24  1   
 42  23  25  2   
 43  23  43  1   
 44  24  25  1   
 45  25  26  1   
 46  26  44  1   
 47  26  45  1   
 48  26  46  1   
@<TRIPOS>SUBSTRUCTURE
  1 ****  10 GROUP 4 **** **** 0

# MOE 2024.06 (io_trps.svl 2023.06)
