@<TRIPOS>MOLECULE
NONAME
54 57 1 0 0 
SMALL
USER_CHARGES


@<TRIPOS>ATOM
  1 O        0.1520    -0.3670     0.2480 O.2   1 <1>  -0.5700 
  2 C        0.2060    -1.5460     0.5260 C.2   1 <1>   0.5440 
  3 N       -0.2820    -1.8890     1.7380 N.am  1 <1>  -0.8000 
  4 C        0.7790    -2.5110    -0.3860 C.ar  1 <1>   0.0860 
  5 C        0.3240    -3.8450    -0.4910 C.ar  1 <1>   0.4100 
  6 C        1.8380    -2.1290    -1.2000 C.ar  1 <1>  -0.1500 
  7 N        0.8820    -4.7530    -1.2960 N.ar  1 <1>  -0.6200 
  8 N       -0.7760    -4.3160     0.2160 N.pl3 1 <1>  -0.8380 
  9 C        2.4010    -3.0640    -2.0350 C.ar  1 <1>  -0.1500 
 10 C        1.8930    -4.3490    -2.0390 C.ar  1 <1>   0.1600 
 11 C       -2.1270    -3.8200    -0.2010 C.3   1 <1>   0.2090 
 12 C       -0.7890    -5.7290     0.7090 C.3   1 <1>   0.2090 
 13 C       -2.7960    -4.7850    -1.2000 C.3   1 <1>   0.2090 
 14 C       -1.4810    -6.6820    -0.2930 C.3   1 <1>   0.2090 
 15 N       -2.8640    -6.2020    -0.6690 N.pl3 1 <1>  -0.8380 
 16 C       -4.0330    -6.8730    -0.5560 C.ar  1 <1>   0.7710 
 17 N       -5.1800    -6.2160    -0.7150 N.ar  1 <1>  -0.6200 
 18 N       -4.0190    -8.1830    -0.2950 N.ar  1 <1>  -0.1790 
 19 C       -6.3020    -6.8690    -0.5980 C.ar  1 <1>   0.4100 
 20 C       -5.1600    -8.9340    -0.1550 C.ar  1 <1>   0.3610 
 21 N       -7.4010    -6.1290    -0.7750 N.pl3 1 <1>  -0.9000 
 22 C       -6.3750    -8.2670    -0.3060 C.ar  1 <1>   0.0000 
 23 C       -5.1220   -10.2990     0.1240 C.ar  1 <1>  -0.1500 
 24 C       -7.5600    -9.0050    -0.1640 C.ar  1 <1>  -0.1500 
 25 C       -6.2960   -11.0150     0.2600 C.ar  1 <1>   0.0820 
 26 C       -7.5310   -10.3580     0.1150 C.ar  1 <1>   0.0820 
 27 O       -6.3150   -12.3430     0.5310 O.3   1 <1>  -0.3620 
 28 O       -8.6590   -11.1070     0.2600 O.3   1 <1>  -0.3620 
 29 C       -5.1570   -13.1330     0.6860 C.3   1 <1>   0.0400 
 30 C       -9.9530   -10.5560     0.1460 C.3   1 <1>   0.0400 
 31 H       -0.6950    -1.1770     2.3390 H     1 <1>   0.3700 
 32 H       -0.4620    -2.8730     1.9570 H     1 <1>   0.3700 
 33 H        2.2090    -1.1180    -1.1680 H     1 <1>   0.1500 
 34 H        3.2250    -2.8040    -2.6760 H     1 <1>   0.1500 
 35 H        2.3450    -5.0770    -2.6920 H     1 <1>   0.1500 
 36 H       -2.0360    -2.8510    -0.6610 H     1 <1>   0.0800 
 37 H       -2.7540    -3.7130     0.6670 H     1 <1>   0.0800 
 38 H       -1.3030    -5.7660     1.6530 H     1 <1>   0.0800 
 39 H        0.2220    -6.0600     0.8760 H     1 <1>   0.0800 
 40 H       -2.2180    -4.7800    -2.1090 H     1 <1>   0.0800 
 41 H       -3.7700    -4.3990    -1.4460 H     1 <1>   0.0800 
 42 H       -1.5060    -7.6610     0.1450 H     1 <1>   0.0800 
 43 H       -0.8740    -6.7370    -1.1820 H     1 <1>   0.0800 
 44 H       -3.1110    -8.6210    -0.2530 H     1 <1>   0.4570 
 45 H       -8.3630    -6.4680    -0.7250 H     1 <1>   0.4000 
 46 H       -7.3170    -5.1300    -0.9870 H     1 <1>   0.4000 
 47 H       -4.1750   -10.7890     0.2320 H     1 <1>   0.1500 
 48 H       -8.4960    -8.4930    -0.2770 H     1 <1>   0.1500 
 49 H       -5.4710   -14.1410     0.8890 H     1 <1>   0.0800 
 50 H       -4.5840   -12.7600     1.5160 H     1 <1>   0.0800 
 51 H       -4.5890   -13.1080    -0.2270 H     1 <1>   0.0800 
 52 H      -10.6650   -11.3460     0.3050 H     1 <1>   0.0800 
 53 H      -10.0760   -10.1500    -0.8420 H     1 <1>   0.0800 
 54 H      -10.0790    -9.7970     0.8980 H     1 <1>   0.0800 
@<TRIPOS>BOND
  1   1   2  2   
  2   2   3  am  
  3   2   4  1   
  4   3  31  1   
  5   3  32  1   
  6   4   5  ar  
  7   4   6  ar  
  8   5   7  ar  
  9   5   8  1   
 10   6   9  ar  
 11   6  33  1   
 12   7  10  ar  
 13   8  11  1   
 14   8  12  1   
 15   9  10  ar  
 16   9  34  1   
 17  10  35  1   
 18  11  13  1   
 19  11  36  1   
 20  11  37  1   
 21  12  14  1   
 22  12  38  1   
 23  12  39  1   
 24  13  15  1   
 25  13  40  1   
 26  13  41  1   
 27  14  15  1   
 28  14  42  1   
 29  14  43  1   
 30  15  16  1   
 31  16  17  ar  
 32  16  18  ar  
 33  17  19  ar  
 34  18  20  ar  
 35  18  44  1   
 36  19  21  1   
 37  19  22  ar  
 38  20  22  ar  
 39  20  23  ar  
 40  21  45  1   
 41  21  46  1   
 42  22  24  ar  
 43  23  25  ar  
 44  23  47  1   
 45  24  26  ar  
 46  24  48  1   
 47  25  26  ar  
 48  25  27  1   
 49  26  28  1   
 50  27  29  1   
 51  28  30  1   
 52  29  49  1   
 53  29  50  1   
 54  29  51  1   
 55  30  52  1   
 56  30  53  1   
 57  30  54  1   
@<TRIPOS>SUBSTRUCTURE
  1 ****  15 GROUP 4 **** **** 0

# MOE 2024.06 (io_trps.svl 2023.06)
