@<TRIPOS>MOLECULE
NONAME
44 47 1 0 0 
SMALL
USER_CHARGES


@<TRIPOS>ATOM
  1 O       -0.5990    -1.6650     1.6490 O.co2 1 <1>  -0.9000 
  2 C       -0.4160    -1.4590     0.4380 C.2   1 <1>   1.0330 
  3 O       -1.0980    -0.5850    -0.1250 O.co2 1 <1>  -0.9000 
  4 C        0.5310    -2.2290    -0.2980 C.2   1 <1>  -0.2330 
  5 C        0.3720    -3.5220    -0.8160 C.2   1 <1>   0.3720 
  6 C        1.8030    -1.8920    -0.6330 C.2   1 <1>   0.0870 
  7 N        1.4600    -3.9050    -1.3940 N.2   1 <1>  -0.4100 
  8 N       -0.7590    -4.3680    -0.7850 N.pl3 1 <1>  -0.8210 
  9 O        2.3060    -2.9180    -1.2750 O.3   1 <1>  -0.0190 
 10 C        2.6160    -0.7180    -0.4140 C.ar  1 <1>   0.0530 
 11 C       -0.4620    -5.8190    -0.5690 C.3   1 <1>   0.2090 
 12 C       -1.9550    -3.9450     0.0090 C.3   1 <1>   0.2090 
 13 C        2.0640     0.5530    -0.2450 C.ar  1 <1>  -0.1500 
 14 C        4.0080    -0.8130    -0.3690 C.ar  1 <1>  -0.1500 
 15 C       -1.7150    -6.6990    -0.7540 C.3   1 <1>   0.2950 
 16 C       -3.1320    -4.9190    -0.1750 C.3   1 <1>   0.1200 
 17 C        2.8520     1.6690    -0.0350 C.ar  1 <1>  -0.1500 
 18 C        4.8050     0.2970    -0.1630 C.ar  1 <1>  -0.1500 
 19 O       -2.7570    -6.2480     0.0720 O.3   1 <1>  -0.5600 
 20 C       -1.4080    -8.1770    -0.4400 C.3   1 <1>  -0.1950 
 21 C        4.2370     1.5490     0.0080 C.ar  1 <1>   0.0820 
 22 C       -2.4690    -9.1540    -0.0350 C.3   1 <1>  -0.2000 
 23 C       -1.4260    -8.7190     0.9560 C.3   1 <1>  -0.2000 
 24 O        5.0810     2.5890     0.2090 O.3   1 <1>  -0.3630 
 25 C        4.5930     3.8920     0.4370 C.3   1 <1>   0.0400 
 26 H       -0.0730    -5.9570     0.4250 H     1 <1>   0.0800 
 27 H        0.2870    -6.1430    -1.2680 H     1 <1>   0.0800 
 28 H       -2.2800    -2.9720    -0.3150 H     1 <1>   0.0800 
 29 H       -1.6980    -3.8870     1.0540 H     1 <1>   0.0800 
 30 H        0.9950     0.6750    -0.2830 H     1 <1>   0.1500 
 31 H        4.4700    -1.7760    -0.4950 H     1 <1>   0.1500 
 32 H       -2.0480    -6.6230    -1.7750 H     1 <1>   0.0800 
 33 H       -3.5110    -4.8500    -1.1790 H     1 <1>   0.0800 
 34 H       -3.9210    -4.6680     0.5100 H     1 <1>   0.0800 
 35 H        2.3650     2.6170     0.0910 H     1 <1>   0.1500 
 36 H        5.8750     0.2020    -0.1310 H     1 <1>   0.1500 
 37 H       -0.6410    -8.5570    -1.0910 H     1 <1>   0.1000 
 38 H       -2.4290   -10.1560    -0.4260 H     1 <1>   0.1000 
 39 H       -3.4780    -8.8030     0.1010 H     1 <1>   0.1000 
 40 H       -1.7270    -8.0710     1.7620 H     1 <1>   0.1000 
 41 H       -0.6630    -9.4180     1.2510 H     1 <1>   0.1000 
 42 H        5.4340     4.5430     0.5870 H     1 <1>   0.0800 
 43 H        3.9740     3.8820     1.3160 H     1 <1>   0.0800 
 44 H        4.0330     4.2090    -0.4250 H     1 <1>   0.0800 
@<TRIPOS>BOND
  1   1   2  ar  
  2   2   3  ar  
  3   2   4  1   
  4   4   5  1   
  5   4   6  2   
  6   5   7  2   
  7   5   8  1   
  8   6   9  1   
  9   6  10  1   
 10   7   9  1   
 11   8  11  1   
 12   8  12  1   
 13  10  13  ar  
 14  10  14  ar  
 15  11  15  1   
 16  11  26  1   
 17  11  27  1   
 18  12  16  1   
 19  12  28  1   
 20  12  29  1   
 21  13  17  ar  
 22  13  30  1   
 23  14  18  ar  
 24  14  31  1   
 25  15  19  1   
 26  15  20  1   
 27  15  32  1   
 28  16  19  1   
 29  16  33  1   
 30  16  34  1   
 31  17  21  ar  
 32  17  35  1   
 33  18  21  ar  
 34  18  36  1   
 35  20  22  1   
 36  20  23  1   
 37  20  37  1   
 38  21  24  1   
 39  22  23  1   
 40  22  38  1   
 41  22  39  1   
 42  23  40  1   
 43  23  41  1   
 44  24  25  1   
 45  25  42  1   
 46  25  43  1   
 47  25  44  1   
@<TRIPOS>SUBSTRUCTURE
  1 ****   4 GROUP 4 **** **** 0

# MOE 2024.06 (io_trps.svl 2023.06)
