@<TRIPOS>MOLECULE
NONAME
46 49 1 0 0 
SMALL
USER_CHARGES


@<TRIPOS>ATOM
  1 F        0.7970     0.1540    -0.8440 F     1 <1>  -0.1370 
  2 C        2.0090    -0.1460    -0.4520 C.2   1 <1>  -0.0150 
  3 N        2.3080    -1.3670    -0.0080 N.pl3 1 <1>   0.3340 
  4 C        3.0990     0.6670    -0.4170 C.2   1 <1>   0.1410 
  5 C        3.6450    -1.2550     0.3090 C.2   1 <1>   0.1410 
  6 C        1.6090    -2.5550     0.1730 C.2   1 <1>  -0.1810 
  7 N        4.1460    -0.0580     0.0800 N.2   1 <1>  -0.5650 
  8 C        3.1830     2.0540    -0.8510 C.2   1 <1>   0.7160 
  9 C        4.3040    -2.4010     0.8280 C.2   1 <1>  -0.1050 
 10 C        2.2420    -3.6490     0.6720 C.2   1 <1>  -0.1380 
 11 O        2.5190     2.4390    -1.7950 O.2   1 <1>  -0.5700 
 12 N        4.0510     2.9660    -0.2700 N.am  1 <1>  -0.6600 
 13 C        3.6220    -3.5660     1.0060 C.2   1 <1>  -0.1500 
 14 C        1.5240    -4.9690     0.8890 C.3   1 <1>  -0.1020 
 15 C        4.6130     2.7600     1.1170 C.3   1 <1>   0.2200 
 16 C        4.4530     4.1830    -1.0420 C.3   1 <1>   0.1400 
 17 C        4.5760     4.0340     1.9770 C.3   1 <1>   0.1200 
 18 C        6.0510     2.1890     1.0490 C.3   1 <1>   0.3430 
 19 C        5.8140     4.7840    -0.6380 C.3   1 <1>  -0.0800 
 20 O        5.7240     4.8030     1.7740 O.3   1 <1>  -0.5600 
 21 N        6.6740     2.3820    -0.3070 N.4   1 <1>  -0.9590 
 22 C        5.7140     5.6160     0.6500 C.3   1 <1>   0.1200 
 23 C        7.0140     3.8100    -0.6160 C.3   1 <1>   0.3430 
 24 C        7.8390     1.4720    -0.4960 C.3   1 <1>   0.2630 
 25 H        0.5700    -2.5410    -0.1030 H     1 <1>   0.1500 
 26 H        5.3470    -2.3130     1.0710 H     1 <1>   0.1500 
 27 H        4.1080    -4.4440     1.3990 H     1 <1>   0.1500 
 28 H        1.9900    -5.7420     0.3030 H     1 <1>   0.0800 
 29 H        0.4920    -4.8960     0.5980 H     1 <1>   0.0800 
 30 H        1.5680    -5.2460     1.9270 H     1 <1>   0.0800 
 31 H        3.9960     2.0460     1.6340 H     1 <1>   0.0800 
 32 H        4.4920     3.9280    -2.0890 H     1 <1>   0.0800 
 33 H        3.6810     4.9270    -0.9330 H     1 <1>   0.0800 
 34 H        4.5780     3.7560     3.0170 H     1 <1>   0.0800 
 35 H        3.6920     4.6210     1.7890 H     1 <1>   0.0800 
 36 H        5.9930     1.1350     1.2630 H     1 <1>   0.0800 
 37 H        6.6610     2.6420     1.8130 H     1 <1>   0.0800 
 38 H        6.0410     5.5090    -1.3990 H     1 <1>   0.0800 
 39 H        5.9210     2.1060    -0.9580 H     1 <1>   0.4500 
 40 H        4.8280     6.2290     0.6660 H     1 <1>   0.0800 
 41 H        6.5680     6.2670     0.7320 H     1 <1>   0.0800 
 42 H        7.7390     4.1680     0.0970 H     1 <1>   0.0800 
 43 H        7.4770     3.8400    -1.5880 H     1 <1>   0.0800 
 44 H        8.6230     1.7190     0.2010 H     1 <1>   0.0800 
 45 H        8.2240     1.5610    -1.4980 H     1 <1>   0.0800 
 46 H        7.5390     0.4490    -0.3340 H     1 <1>   0.0800 
@<TRIPOS>BOND
  1   1   2  1   
  2   2   3  1   
  3   2   4  2   
  4   3   5  1   
  5   3   6  1   
  6   4   7  1   
  7   4   8  1   
  8   5   7  2   
  9   5   9  1   
 10   6  10  2   
 11   6  25  1   
 12   8  11  2   
 13   8  12  am  
 14   9  13  2   
 15   9  26  1   
 16  10  13  1   
 17  10  14  1   
 18  12  15  1   
 19  12  16  1   
 20  13  27  1   
 21  14  28  1   
 22  14  29  1   
 23  14  30  1   
 24  15  17  1   
 25  15  18  1   
 26  15  31  1   
 27  16  19  1   
 28  16  32  1   
 29  16  33  1   
 30  17  20  1   
 31  17  34  1   
 32  17  35  1   
 33  18  21  1   
 34  18  36  1   
 35  18  37  1   
 36  19  22  1   
 37  19  23  1   
 38  19  38  1   
 39  20  22  1   
 40  21  23  1   
 41  21  24  1   
 42  21  39  1   
 43  22  40  1   
 44  22  41  1   
 45  23  42  1   
 46  23  43  1   
 47  24  44  1   
 48  24  45  1   
 49  24  46  1   
@<TRIPOS>SUBSTRUCTURE
  1 ****   7 GROUP 4 **** **** 0

# MOE 2024.06 (io_trps.svl 2023.06)
