@<TRIPOS>MOLECULE
NONAME
45 46 1 0 0 
SMALL
USER_CHARGES


@<TRIPOS>ATOM
  1 O       -0.9000     0.1560     2.8430 O.2   1 <1>  -0.5700 
  2 C       -1.4090     0.5730     1.8280 C.2   1 <1>   0.5690 
  3 N       -1.9630    -0.2920     0.9170 N.am  1 <1>  -0.6600 
  4 C       -1.4530     2.0910     1.6520 C.3   1 <1>   0.0440 
  5 C       -2.3650    -1.6620     1.3630 C.3   1 <1>   0.3210 
  6 C       -2.1120    -0.0190    -0.5450 C.3   1 <1>   0.1400 
  7 C       -0.7270     2.6520     0.4260 C.ar  1 <1>  -0.1440 
  8 C       -3.7280    -2.0690     0.8000 C.2   1 <1>   0.0460 
  9 C       -3.4070     0.7370    -0.8590 C.3   1 <1>   0.1200 
 10 C       -1.2640     3.6700    -0.3610 C.ar  1 <1>  -0.1440 
 11 C        0.5130     2.1200     0.0960 C.ar  1 <1>  -0.1500 
 12 N       -4.8610    -1.4800     1.2390 N.2   1 <1>  -0.5650 
 13 C       -4.0080    -2.9950    -0.1500 C.2   1 <1>  -0.3320 
 14 O       -3.1790     1.6040    -1.9210 O.3   1 <1>  -0.6800 
 15 C       -0.5700     4.0970    -1.4830 C.ar  1 <1>  -0.1500 
 16 C       -2.5830     4.3580    -0.0280 C.3   1 <1>  -0.0970 
 17 C        1.2030     2.5520    -1.0230 C.ar  1 <1>  -0.1440 
 18 C       -5.7970    -2.0530     0.5590 C.2   1 <1>   0.0360 
 19 N       -5.3460    -2.9840    -0.3040 N.pl3 1 <1>   0.0330 
 20 C       -3.1040    -3.9150    -0.9540 C.3   1 <1>  -0.0600 
 21 C        0.6510     3.5410    -1.8150 C.ar  1 <1>  -0.1500 
 22 C        2.5520     1.9520    -1.3740 C.3   1 <1>  -0.0970 
 23 H       -1.0160     2.5400     2.5250 H     1 <1>   0.0800 
 24 H       -2.4880     2.3650     1.6500 H     1 <1>   0.0800 
 25 H       -2.4240    -1.6990     2.4370 H     1 <1>   0.0800 
 26 H       -1.6140    -2.3620     1.0500 H     1 <1>   0.0800 
 27 H       -2.1130    -0.9480    -1.0880 H     1 <1>   0.0800 
 28 H       -1.2650     0.5400    -0.8910 H     1 <1>   0.0800 
 29 H       -3.7350     1.3170    -0.0160 H     1 <1>   0.0800 
 30 H       -4.1880     0.0520    -1.1420 H     1 <1>   0.0800 
 31 H        0.9480     1.3540     0.7160 H     1 <1>   0.1500 
 32 H       -2.4420     2.2160    -1.7010 H     1 <1>   0.4000 
 33 H       -0.9730     4.8740    -2.1080 H     1 <1>   0.1500 
 34 H       -2.5570     4.7300     0.9810 H     1 <1>   0.0800 
 35 H       -3.4070     3.6760    -0.1280 H     1 <1>   0.0800 
 36 H       -2.7590     5.1920    -0.6830 H     1 <1>   0.0800 
 37 H       -6.8440    -1.8230     0.6570 H     1 <1>   0.1500 
 38 H       -5.9090    -3.5570    -0.9390 H     1 <1>   0.2700 
 39 H       -2.0730    -3.7590    -0.6970 H     1 <1>   0.0800 
 40 H       -3.2240    -3.7230    -2.0060 H     1 <1>   0.0800 
 41 H       -3.3530    -4.9430    -0.7570 H     1 <1>   0.0800 
 42 H        1.1730     3.8880    -2.6900 H     1 <1>   0.1500 
 43 H        2.6380     0.9570    -0.9760 H     1 <1>   0.0800 
 44 H        3.3380     2.5590    -0.9620 H     1 <1>   0.0800 
 45 H        2.6730     1.9020    -2.4410 H     1 <1>   0.0800 
@<TRIPOS>BOND
  1   1   2  2   
  2   2   3  am  
  3   2   4  1   
  4   3   5  1   
  5   3   6  1   
  6   4   7  1   
  7   4  23  1   
  8   4  24  1   
  9   5   8  1   
 10   5  25  1   
 11   5  26  1   
 12   6   9  1   
 13   6  27  1   
 14   6  28  1   
 15   7  10  ar  
 16   7  11  ar  
 17   8  12  1   
 18   8  13  2   
 19   9  14  1   
 20   9  29  1   
 21   9  30  1   
 22  10  15  ar  
 23  10  16  1   
 24  11  17  ar  
 25  11  31  1   
 26  12  18  2   
 27  13  19  1   
 28  13  20  1   
 29  14  32  1   
 30  15  21  ar  
 31  15  33  1   
 32  16  34  1   
 33  16  35  1   
 34  16  36  1   
 35  17  21  ar  
 36  17  22  1   
 37  18  19  1   
 38  18  37  1   
 39  19  38  1   
 40  20  39  1   
 41  20  40  1   
 42  20  41  1   
 43  21  42  1   
 44  22  43  1   
 45  22  44  1   
 46  22  45  1   
@<TRIPOS>SUBSTRUCTURE
  1 ****   6 GROUP 4 **** **** 0

# MOE 2024.06 (io_trps.svl 2023.06)
