@<TRIPOS>MOLECULE
NONAME
54 57 1 0 0 
SMALL
USER_CHARGES


@<TRIPOS>ATOM
  1 O       -2.5860    -2.1880     1.0030 O.3   1 <1>  -0.5600 
  2 C       -2.1600    -1.2230     0.0910 C.3   1 <1>   0.1200 
  3 C       -1.5440    -2.9560     1.5210 C.3   1 <1>   0.0400 
  4 C       -3.3710    -0.4490    -0.4380 C.3   1 <1>   0.0960 
  5 N       -4.2400    -1.2870    -1.3010 N.pl3 1 <1>   0.0480 
  6 C       -5.0980    -2.2940    -0.9890 C.2   1 <1>   0.0060 
  7 C       -4.3590    -1.1450    -2.6340 C.2   1 <1>  -0.3020 
  8 N       -5.7290    -2.7760    -2.0180 N.2   1 <1>  -0.5650 
  9 C       -5.2860    -2.8090     0.4350 C.3   1 <1>   0.5230 
 10 C       -5.2630    -2.0550    -3.0520 C.2   1 <1>   0.0770 
 11 N       -6.5410    -3.5990     0.5270 N.4   1 <1>  -0.9590 
 12 C       -7.8050    -2.8460     0.2810 C.3   1 <1>   0.3430 
 13 C       -6.7260    -4.4310     1.7330 C.3   1 <1>   0.3430 
 14 C       -8.8370    -3.4380     1.2560 C.3   1 <1>   0.2000 
 15 C       -8.2230    -4.7630     1.7240 C.3   1 <1>  -0.0800 
 16 O       -8.9760    -2.6010     2.3580 O.3   1 <1>  -0.6800 
 17 C       -8.6110    -5.9220     0.7610 C.3   1 <1>  -0.0170 
 18 C       -7.4330    -6.7380     0.2480 C.ar  1 <1>   0.1670 
 19 N       -6.7280    -6.2080    -0.7060 N.ar  1 <1>  -0.6200 
 20 C       -7.1490    -7.9870     0.8220 C.ar  1 <1>  -0.1500 
 21 C       -5.6630    -6.9100    -1.1760 C.ar  1 <1>   0.3100 
 22 C       -6.0810    -8.7070     0.3780 C.ar  1 <1>  -0.1500 
 23 C       -5.2930    -8.1680    -0.6520 C.ar  1 <1>   0.0000 
 24 C       -4.8890    -6.3600    -2.2100 C.ar  1 <1>  -0.1500 
 25 C       -4.1610    -8.8210    -1.1780 C.ar  1 <1>  -0.1500 
 26 C       -3.7920    -7.0110    -2.7070 C.ar  1 <1>  -0.1500 
 27 C       -3.4240    -8.2550    -2.1830 C.ar  1 <1>  -0.1500 
 28 H       -1.4910    -0.5500     0.6000 H     1 <1>   0.0800 
 29 H       -1.6370    -1.7030    -0.7200 H     1 <1>   0.0800 
 30 H       -1.9560    -3.6660     2.2160 H     1 <1>   0.0800 
 31 H       -0.8470    -2.3150     2.0330 H     1 <1>   0.0800 
 32 H       -1.0520    -3.4800     0.7180 H     1 <1>   0.0800 
 33 H       -3.0220     0.3830    -1.0220 H     1 <1>   0.0800 
 34 H       -3.9450    -0.0590     0.3820 H     1 <1>   0.0800 
 35 H       -3.8100    -0.4220    -3.2100 H     1 <1>   0.1500 
 36 H       -5.3080    -1.9850     1.1260 H     1 <1>   0.0800 
 37 H       -4.4490    -3.4410     0.6800 H     1 <1>   0.0800 
 38 H       -5.6060    -2.2290    -4.0600 H     1 <1>   0.1500 
 39 H       -6.4690    -4.2680    -0.2730 H     1 <1>   0.4500 
 40 H       -7.6840    -1.7900     0.4530 H     1 <1>   0.0800 
 41 H       -8.1160    -3.0050    -0.7390 H     1 <1>   0.0800 
 42 H       -6.1090    -5.3150     1.7050 H     1 <1>   0.0800 
 43 H       -6.4870    -3.8590     2.6140 H     1 <1>   0.0800 
 44 H       -9.8100    -3.5460     0.8060 H     1 <1>   0.0800 
 45 H       -8.5540    -5.0200     2.7150 H     1 <1>   0.0800 
 46 H       -8.1360    -2.4420     2.8280 H     1 <1>   0.4000 
 47 H       -9.1260    -5.5390    -0.1030 H     1 <1>   0.0800 
 48 H       -9.3080    -6.5730     1.2590 H     1 <1>   0.0800 
 49 H       -7.7790    -8.3690     1.6060 H     1 <1>   0.1500 
 50 H       -5.8310    -9.6680     0.7910 H     1 <1>   0.1500 
 51 H       -5.1850    -5.4050    -2.6080 H     1 <1>   0.1500 
 52 H       -3.8840    -9.7800    -0.7760 H     1 <1>   0.1500 
 53 H       -3.2060    -6.5800    -3.5010 H     1 <1>   0.1500 
 54 H       -2.5600    -8.7570    -2.5850 H     1 <1>   0.1500 
@<TRIPOS>BOND
  1   1   2  1   
  2   1   3  1   
  3   2   4  1   
  4   2  28  1   
  5   2  29  1   
  6   3  30  1   
  7   3  31  1   
  8   3  32  1   
  9   4   5  1   
 10   4  33  1   
 11   4  34  1   
 12   5   6  1   
 13   5   7  1   
 14   6   8  2   
 15   6   9  1   
 16   7  10  2   
 17   7  35  1   
 18   8  10  1   
 19   9  11  1   
 20   9  36  1   
 21   9  37  1   
 22  10  38  1   
 23  11  12  1   
 24  11  13  1   
 25  11  39  1   
 26  12  14  1   
 27  12  40  1   
 28  12  41  1   
 29  13  15  1   
 30  13  42  1   
 31  13  43  1   
 32  14  15  1   
 33  14  16  1   
 34  14  44  1   
 35  15  17  1   
 36  15  45  1   
 37  16  46  1   
 38  17  18  1   
 39  17  47  1   
 40  17  48  1   
 41  18  19  ar  
 42  18  20  ar  
 43  19  21  ar  
 44  20  22  ar  
 45  20  49  1   
 46  21  23  ar  
 47  21  24  ar  
 48  22  23  ar  
 49  22  50  1   
 50  23  25  ar  
 51  24  26  ar  
 52  24  51  1   
 53  25  27  ar  
 54  25  52  1   
 55  26  27  ar  
 56  26  53  1   
 57  27  54  1   
@<TRIPOS>SUBSTRUCTURE
  1 ****  11 GROUP 4 **** **** 0

# MOE 2024.06 (io_trps.svl 2023.06)
