@<TRIPOS>MOLECULE
NONAME
44 47 1 0 0 
SMALL
USER_CHARGES


@<TRIPOS>ATOM
  1 S        1.6940    -0.4690    -0.3850 S.3   1 <1>  -0.0800 
  2 C        0.3140    -1.1740     0.4260 C.2   1 <1>   0.4620 
  3 C        1.7320    -1.8420    -1.4460 C.2   1 <1>  -0.1100 
  4 N       -0.0630    -2.2960    -0.0510 N.2   1 <1>  -0.5650 
  5 N       -0.2420    -0.5120     1.4680 N.pl3 1 <1>  -0.8840 
  6 C        0.7350    -2.7020    -1.1360 C.2   1 <1>   0.1410 
  7 C        0.5110    -3.9660    -1.8370 C.2   1 <1>   0.7160 
  8 O        1.4710    -4.5360    -2.3280 O.2   1 <1>  -0.5700 
  9 N       -0.7300    -4.5550    -1.9840 N.am  1 <1>  -0.6600 
 10 C       -2.0350    -3.8690    -1.7540 C.3   1 <1>   0.1400 
 11 C       -0.8880    -6.0310    -2.1380 C.3   1 <1>   0.1400 
 12 C       -2.7260    -4.4670    -0.5160 C.3   1 <1>   0.1900 
 13 C       -1.6490    -6.6150    -0.9320 C.3   1 <1>   0.1100 
 14 N       -2.9420    -5.9260    -0.7040 N.3   1 <1>  -0.8100 
 15 C       -4.0610    -3.7480    -0.2400 C.3   1 <1>   0.1200 
 16 C       -3.6660    -6.4760     0.4660 C.3   1 <1>   0.3330 
 17 O       -4.7010    -4.3070     0.8730 O.3   1 <1>  -0.5600 
 18 C       -4.0130    -7.9500     0.2570 C.ar  1 <1>  -0.1440 
 19 C       -4.9610    -5.6780     0.7300 C.3   1 <1>   0.1200 
 20 C       -3.7520    -8.8740     1.2590 C.ar  1 <1>  -0.1500 
 21 C       -4.5950    -8.3850    -0.9260 C.ar  1 <1>  -0.1500 
 22 C       -4.0690   -10.2100     1.0820 C.ar  1 <1>  -0.1500 
 23 C       -4.9130    -9.7200    -1.1050 C.ar  1 <1>  -0.1500 
 24 C       -4.6500   -10.6330    -0.1000 C.ar  1 <1>  -0.1500 
 25 H        2.4970    -1.8860    -2.2000 H     1 <1>   0.1500 
 26 H        0.1920     0.3200     1.8680 H     1 <1>   0.4000 
 27 H       -0.9700    -0.9670     2.0210 H     1 <1>   0.4000 
 28 H       -1.9000    -2.8100    -1.6350 H     1 <1>   0.0800 
 29 H       -2.6650    -4.0190    -2.6130 H     1 <1>   0.0800 
 30 H       -1.4380    -6.2380    -3.0390 H     1 <1>   0.0800 
 31 H        0.0720    -6.5110    -2.2170 H     1 <1>   0.0800 
 32 H       -2.0840    -4.3010     0.3330 H     1 <1>   0.0800 
 33 H       -1.0300    -6.5300    -0.0550 H     1 <1>   0.0800 
 34 H       -1.8210    -7.6620    -1.1150 H     1 <1>   0.0800 
 35 H       -4.7170    -3.8260    -1.0890 H     1 <1>   0.0800 
 36 H       -3.8860    -2.7080    -0.0270 H     1 <1>   0.0800 
 37 H       -3.0400    -6.3850     1.3370 H     1 <1>   0.0800 
 38 H       -5.4230    -6.0210     1.6380 H     1 <1>   0.0800 
 39 H       -5.6540    -5.8130    -0.0810 H     1 <1>   0.0800 
 40 H       -3.3010    -8.5590     2.1840 H     1 <1>   0.1500 
 41 H       -4.7950    -7.6770    -1.7130 H     1 <1>   0.1500 
 42 H       -3.8650   -10.9210     1.8640 H     1 <1>   0.1500 
 43 H       -5.3640   -10.0460    -2.0260 H     1 <1>   0.1500 
 44 H       -4.8970   -11.6710    -0.2390 H     1 <1>   0.1500 
@<TRIPOS>BOND
  1   1   2  1   
  2   1   3  1   
  3   2   4  2   
  4   2   5  1   
  5   3   6  2   
  6   3  25  1   
  7   4   6  1   
  8   5  26  1   
  9   5  27  1   
 10   6   7  1   
 11   7   8  2   
 12   7   9  am  
 13   9  10  1   
 14   9  11  1   
 15  10  12  1   
 16  10  28  1   
 17  10  29  1   
 18  11  13  1   
 19  11  30  1   
 20  11  31  1   
 21  12  14  1   
 22  12  15  1   
 23  12  32  1   
 24  13  14  1   
 25  13  33  1   
 26  13  34  1   
 27  14  16  1   
 28  15  17  1   
 29  15  35  1   
 30  15  36  1   
 31  16  18  1   
 32  16  19  1   
 33  16  37  1   
 34  17  19  1   
 35  18  20  ar  
 36  18  21  ar  
 37  19  38  1   
 38  19  39  1   
 39  20  22  ar  
 40  20  40  1   
 41  21  23  ar  
 42  21  41  1   
 43  22  24  ar  
 44  22  42  1   
 45  23  24  ar  
 46  23  43  1   
 47  24  44  1   
@<TRIPOS>SUBSTRUCTURE
  1 ****  12 GROUP 4 **** **** 0

# MOE 2024.06 (io_trps.svl 2023.06)
