@<TRIPOS>MOLECULE
NONAME
55 56 1 0 0 
SMALL
USER_CHARGES


@<TRIPOS>ATOM
  1 O       -2.5690     0.8930    -2.1710 O.2   1 <1>  -0.5700 
  2 C       -2.3010     0.7700    -0.9970 C.2   1 <1>   0.5690 
  3 N       -2.3130    -0.4650    -0.3940 N.am  1 <1>  -0.6600 
  4 C       -1.9600     2.0410    -0.2050 C.3   1 <1>  -0.0190 
  5 C       -2.7980    -1.6560    -1.1470 C.3   1 <1>   0.2840 
  6 C       -1.9640    -0.7320     1.0300 C.3   1 <1>   0.0600 
  7 C       -2.7480     3.2750    -0.6950 C.3   1 <1>  -0.1600 
  8 C       -0.4390     2.3290    -0.2390 C.3   1 <1>  -0.1600 
  9 C       -4.1980    -2.0270    -0.6700 C.ar  1 <1>  -0.1430 
 10 C       -2.5210     4.5070     0.2080 C.3   1 <1>   0.2000 
 11 C       -0.0730     3.7900     0.0930 C.3   1 <1>  -0.1600 
 12 C       -4.4320    -3.1850     0.0560 C.ar  1 <1>  -0.1500 
 13 C       -5.2570    -1.1850    -0.9670 C.ar  1 <1>  -0.1500 
 14 O       -2.5830     5.6650    -0.5880 O.3   1 <1>  -0.5600 
 15 C       -1.1530     4.4670     0.9410 C.3   1 <1>   0.2000 
 16 C       -5.7160    -3.5010     0.4820 C.ar  1 <1>  -0.1430 
 17 C       -6.5350    -1.4880    -0.5360 C.ar  1 <1>  -0.1500 
 18 C       -3.8660     6.0650    -0.9590 C.3   1 <1>   0.0400 
 19 O       -0.7430     5.7560     1.2100 O.3   1 <1>  -0.6800 
 20 C       -6.7650    -2.6420     0.1900 C.ar  1 <1>  -0.1500 
 21 C       -5.9780    -4.7780     1.2570 C.3   1 <1>   0.4860 
 22 N       -5.9760    -5.9260     0.3040 N.4   1 <1>  -0.9590 
 23 C       -7.0970    -5.8250    -0.6840 C.3   1 <1>   0.2630 
 24 C       -6.0050    -7.2360     1.0220 C.3   1 <1>   0.2630 
 25 H       -2.2590     1.8840     0.8140 H     1 <1>   0.0800 
 26 H       -2.8270    -1.4540    -2.2040 H     1 <1>   0.0800 
 27 H       -2.1160    -2.4740    -0.9980 H     1 <1>   0.0800 
 28 H       -1.5260    -1.7100     1.1260 H     1 <1>   0.0800 
 29 H       -2.8540    -0.6880     1.6330 H     1 <1>   0.0800 
 30 H       -1.2520    -0.0150     1.3950 H     1 <1>   0.0800 
 31 H       -3.7970     3.0420    -0.7220 H     1 <1>   0.0800 
 32 H       -2.4280     3.5030    -1.6980 H     1 <1>   0.0800 
 33 H        0.0550     1.6710     0.4540 H     1 <1>   0.0800 
 34 H       -0.0560     2.1020    -1.2200 H     1 <1>   0.0800 
 35 H       -3.2920     4.5630     0.9580 H     1 <1>   0.0800 
 36 H        0.0280     4.3390    -0.8280 H     1 <1>   0.0800 
 37 H        0.8720     3.8200     0.6080 H     1 <1>   0.0800 
 38 H       -3.6040    -3.8330     0.2880 H     1 <1>   0.1500 
 39 H       -5.0820    -0.2840    -1.5330 H     1 <1>   0.1500 
 40 H       -1.2460     3.9490     1.8790 H     1 <1>   0.0800 
 41 H       -7.3470    -0.8190    -0.7680 H     1 <1>   0.1500 
 42 H       -3.7810     6.9710    -1.5310 H     1 <1>   0.0800 
 43 H       -4.4520     6.2490    -0.0750 H     1 <1>   0.0800 
 44 H       -4.3210     5.3000    -1.5640 H     1 <1>   0.0800 
 45 H       -1.1090     6.3070     0.4800 H     1 <1>   0.4000 
 46 H       -7.7680    -2.8530     0.5190 H     1 <1>   0.1500 
 47 H       -6.9270    -4.7130     1.7640 H     1 <1>   0.0800 
 48 H       -5.2040    -4.9080     1.9970 H     1 <1>   0.0800 
 49 H       -5.0960    -5.8490    -0.2280 H     1 <1>   0.4500 
 50 H       -8.0490    -5.8500    -0.1790 H     1 <1>   0.0800 
 51 H       -7.0550    -6.6440    -1.3840 H     1 <1>   0.0800 
 52 H       -7.0260    -4.9010    -1.2380 H     1 <1>   0.0800 
 53 H       -6.9160    -7.3330     1.5900 H     1 <1>   0.0800 
 54 H       -5.1670    -7.3140     1.6970 H     1 <1>   0.0800 
 55 H       -5.9520    -8.0500     0.3170 H     1 <1>   0.0800 
@<TRIPOS>BOND
  1   1   2  2   
  2   2   3  am  
  3   2   4  1   
  4   3   5  1   
  5   3   6  1   
  6   4   7  1   
  7   4   8  1   
  8   4  25  1   
  9   5   9  1   
 10   5  26  1   
 11   5  27  1   
 12   6  28  1   
 13   6  29  1   
 14   6  30  1   
 15   7  10  1   
 16   7  31  1   
 17   7  32  1   
 18   8  11  1   
 19   8  33  1   
 20   8  34  1   
 21   9  12  ar  
 22   9  13  ar  
 23  10  14  1   
 24  10  15  1   
 25  10  35  1   
 26  11  15  1   
 27  11  36  1   
 28  11  37  1   
 29  12  16  ar  
 30  12  38  1   
 31  13  17  ar  
 32  13  39  1   
 33  14  18  1   
 34  15  19  1   
 35  15  40  1   
 36  16  20  ar  
 37  16  21  1   
 38  17  20  ar  
 39  17  41  1   
 40  18  42  1   
 41  18  43  1   
 42  18  44  1   
 43  19  45  1   
 44  20  46  1   
 45  21  22  1   
 46  21  47  1   
 47  21  48  1   
 48  22  23  1   
 49  22  24  1   
 50  22  49  1   
 51  23  50  1   
 52  23  51  1   
 53  23  52  1   
 54  24  53  1   
 55  24  54  1   
 56  24  55  1   
@<TRIPOS>SUBSTRUCTURE
  1 ****   3 GROUP 4 **** **** 0

# MOE 2024.06 (io_trps.svl 2023.06)
