@<TRIPOS>MOLECULE
NONAME
34 34 1 0 0 
SMALL
USER_CHARGES


@<TRIPOS>ATOM
  1 O        0.9230    -1.7840     2.0370 O.3   1 <1>  -0.6800 
  2 C        0.0740    -2.2010     1.0180 C.3   1 <1>   0.1200 
  3 C        0.8140    -2.2490    -0.3420 C.3   1 <1>   0.0000 
  4 C        2.1460    -3.0530    -0.2990 C.3   1 <1>  -0.1600 
  5 C        1.1520    -0.8080    -0.7740 C.3   1 <1>  -0.2400 
  6 C       -0.1400    -2.8050    -1.4180 C.3   1 <1>  -0.2400 
  7 C        2.2370    -4.3570     0.5320 C.3   1 <1>  -0.0800 
  8 C        3.7020    -4.8320     0.5420 C.3   1 <1>  -0.1600 
  9 C        1.3250    -5.4920     0.0330 C.3   1 <1>  -0.1600 
 10 C        3.8820    -6.1440     1.3020 C.3   1 <1>   0.3430 
 11 C        1.5650    -6.8050     0.7810 C.3   1 <1>   0.3430 
 12 N        3.0010    -7.1780     0.7010 N.4   1 <1>  -0.9060 
 13 H        0.4100    -1.4940     2.8170 H     1 <1>   0.4000 
 14 H       -0.7480    -1.5070     0.9650 H     1 <1>   0.0800 
 15 H       -0.3100    -3.1690     1.2830 H     1 <1>   0.0800 
 16 H        2.8870    -2.3900     0.1180 H     1 <1>   0.0800 
 17 H        2.4620    -3.2510    -1.3080 H     1 <1>   0.0800 
 18 H        1.7990    -0.3360    -0.0550 H     1 <1>   0.0800 
 19 H        0.2610    -0.2110    -0.8540 H     1 <1>   0.0800 
 20 H        1.6490    -0.8020    -1.7280 H     1 <1>   0.0800 
 21 H       -0.5100    -3.7790    -1.1720 H     1 <1>   0.0800 
 22 H        0.3560    -2.8610    -2.3710 H     1 <1>   0.0800 
 23 H       -0.9930    -2.1580    -1.5290 H     1 <1>   0.0800 
 24 H        1.9680    -4.1310     1.5510 H     1 <1>   0.0800 
 25 H        4.3140    -4.0820     1.0140 H     1 <1>   0.0800 
 26 H        4.0630    -4.9510    -0.4650 H     1 <1>   0.0800 
 27 H        1.4620    -5.6440    -1.0240 H     1 <1>   0.0800 
 28 H        0.2990    -5.2230     0.1960 H     1 <1>   0.0800 
 29 H        3.6230    -5.9980     2.3390 H     1 <1>   0.0800 
 30 H        4.9130    -6.4560     1.2490 H     1 <1>   0.0800 
 31 H        0.9540    -7.5830     0.3500 H     1 <1>   0.0800 
 32 H        1.2790    -6.6830     1.8130 H     1 <1>   0.0800 
 33 H        3.1550    -8.0820     1.1650 H     1 <1>   0.4500 
 34 H        3.2570    -7.2930    -0.2870 H     1 <1>   0.4500 
@<TRIPOS>BOND
  1   1   2  1   
  2   1  13  1   
  3   2   3  1   
  4   2  14  1   
  5   2  15  1   
  6   3   4  1   
  7   3   5  1   
  8   3   6  1   
  9   4   7  1   
 10   4  16  1   
 11   4  17  1   
 12   5  18  1   
 13   5  19  1   
 14   5  20  1   
 15   6  21  1   
 16   6  22  1   
 17   6  23  1   
 18   7   8  1   
 19   7   9  1   
 20   7  24  1   
 21   8  10  1   
 22   8  25  1   
 23   8  26  1   
 24   9  11  1   
 25   9  27  1   
 26   9  28  1   
 27  10  12  1   
 28  10  29  1   
 29  10  30  1   
 30  11  12  1   
 31  11  31  1   
 32  11  32  1   
 33  12  33  1   
 34  12  34  1   
@<TRIPOS>SUBSTRUCTURE
  1 ****   7 GROUP 4 **** **** 0

# MOE 2024.06 (io_trps.svl 2023.06)
