@<TRIPOS>MOLECULE
NONAME
48 49 1 0 0 
SMALL
USER_CHARGES


@<TRIPOS>ATOM
  1 F       -0.6780    -0.2870    -0.7190 F     1 <1>  -0.3400 
  2 C        0.0520    -1.2540    -1.2600 C.3   1 <1>   0.8800 
  3 F        0.3390    -0.8490    -2.4880 F     1 <1>  -0.3400 
  4 O       -0.7450    -2.4140    -1.3600 O.3   1 <1>  -0.3630 
  5 C       -0.9920    -3.1940    -0.2780 C.ar  1 <1>   0.0820 
  6 C       -1.6010    -4.4120    -0.5230 C.ar  1 <1>  -0.1500 
  7 C       -0.6740    -2.8370     1.0290 C.ar  1 <1>  -0.1500 
  8 C       -1.9180    -5.3000     0.5040 C.ar  1 <1>   0.0860 
  9 C       -0.9610    -3.7080     2.0630 C.ar  1 <1>  -0.1500 
 10 C       -2.5900    -6.5590     0.2250 C.2   1 <1>   0.5440 
 11 C       -1.5710    -4.9220     1.8030 C.ar  1 <1>  -0.1500 
 12 O       -2.5800    -7.0490    -0.8870 O.2   1 <1>  -0.5700 
 13 N       -3.3640    -7.1930     1.1590 N.am  1 <1>  -0.6600 
 14 C       -3.1480    -8.6470     1.4390 C.3   1 <1>   0.3210 
 15 C       -4.5820    -6.5380     1.7340 C.3   1 <1>   0.1400 
 16 C       -4.1830    -9.5610     0.7830 C.2   1 <1>   0.0460 
 17 C       -5.8330    -6.7390     0.8500 C.3   1 <1>   0.3430 
 18 N       -5.3930    -9.7670     1.3470 N.2   1 <1>  -0.5650 
 19 C       -4.0500   -10.3040    -0.3420 C.2   1 <1>  -0.3320 
 20 N       -5.4950    -6.7410    -0.6100 N.4   1 <1>  -0.9590 
 21 C       -5.9470   -10.6540     0.5850 C.2   1 <1>   0.0360 
 22 N       -5.1830   -11.0190    -0.4640 N.pl3 1 <1>   0.0330 
 23 C       -2.8970   -10.4240    -1.3270 C.3   1 <1>  -0.0600 
 24 C       -5.3890    -5.3760    -1.2010 C.3   1 <1>   0.2630 
 25 C       -6.4150    -7.6210    -1.3770 C.3   1 <1>   0.2630 
 26 H        0.9570    -1.4050    -0.7000 H     1 <1>   0.0800 
 27 H       -1.8300    -4.6760    -1.5410 H     1 <1>   0.1500 
 28 H       -0.2130    -1.8950     1.2690 H     1 <1>   0.1500 
 29 H       -0.7090    -3.4390     3.0760 H     1 <1>   0.1500 
 30 H       -1.7780    -5.5870     2.6230 H     1 <1>   0.1500 
 31 H       -3.1650    -8.8120     2.5020 H     1 <1>   0.0800 
 32 H       -2.1700    -8.9280     1.0890 H     1 <1>   0.0800 
 33 H       -4.4020    -5.4820     1.8380 H     1 <1>   0.0800 
 34 H       -4.7760    -6.9310     2.7170 H     1 <1>   0.0800 
 35 H       -6.5640    -5.9780     1.0670 H     1 <1>   0.0800 
 36 H       -6.2760    -7.6840     1.1120 H     1 <1>   0.0800 
 37 H       -4.5440    -7.1820    -0.6570 H     1 <1>   0.4500 
 38 H       -6.9220   -11.0800     0.7570 H     1 <1>   0.1500 
 39 H       -5.4050   -11.7220    -1.1770 H     1 <1>   0.2700 
 40 H       -2.0920    -9.7650    -1.0590 H     1 <1>   0.0800 
 41 H       -3.2240   -10.1630    -2.3180 H     1 <1>   0.0800 
 42 H       -2.5210   -11.4310    -1.3390 H     1 <1>   0.0800 
 43 H       -6.3450    -4.8800    -1.1760 H     1 <1>   0.0800 
 44 H       -5.0570    -5.4420    -2.2250 H     1 <1>   0.0800 
 45 H       -4.6740    -4.7870    -0.6510 H     1 <1>   0.0800 
 46 H       -7.4190    -7.2330    -1.3470 H     1 <1>   0.0800 
 47 H       -6.4110    -8.6110    -0.9510 H     1 <1>   0.0800 
 48 H       -6.0940    -7.6890    -2.4040 H     1 <1>   0.0800 
@<TRIPOS>BOND
  1   1   2  1   
  2   2   3  1   
  3   2   4  1   
  4   2  26  1   
  5   4   5  1   
  6   5   6  ar  
  7   5   7  ar  
  8   6   8  ar  
  9   6  27  1   
 10   7   9  ar  
 11   7  28  1   
 12   8  10  1   
 13   8  11  ar  
 14   9  11  ar  
 15   9  29  1   
 16  10  12  2   
 17  10  13  am  
 18  11  30  1   
 19  13  14  1   
 20  13  15  1   
 21  14  16  1   
 22  14  31  1   
 23  14  32  1   
 24  15  17  1   
 25  15  33  1   
 26  15  34  1   
 27  16  18  1   
 28  16  19  2   
 29  17  20  1   
 30  17  35  1   
 31  17  36  1   
 32  18  21  2   
 33  19  22  1   
 34  19  23  1   
 35  20  24  1   
 36  20  25  1   
 37  20  37  1   
 38  21  22  1   
 39  21  38  1   
 40  22  39  1   
 41  23  40  1   
 42  23  41  1   
 43  23  42  1   
 44  24  43  1   
 45  24  44  1   
 46  24  45  1   
 47  25  46  1   
 48  25  47  1   
 49  25  48  1   
@<TRIPOS>SUBSTRUCTURE
  1 ****  10 GROUP 4 **** **** 0

# MOE 2024.06 (io_trps.svl 2023.06)
