@<TRIPOS>MOLECULE
NONAME
31 32 1 0 0 
SMALL
USER_CHARGES


@<TRIPOS>ATOM
  1 F       -1.1250    -0.7410    -1.2020 F     1 <1>  -0.3400 
  2 C       -1.4180    -0.5430     0.0770 C.3   1 <1>   1.3000 
  3 F       -2.6090     0.0400     0.1520 F     1 <1>  -0.3400 
  4 F       -0.5270     0.3120     0.5610 F     1 <1>  -0.3400 
  5 O       -1.3750    -1.7430     0.8170 O.3   1 <1>  -0.3630 
  6 C       -2.2390    -2.7180     0.4650 C.ar  1 <1>   0.0820 
  7 C       -3.4840    -2.7870     1.0670 C.ar  1 <1>  -0.1500 
  8 C       -1.8770    -3.6540    -0.4890 C.ar  1 <1>  -0.1500 
  9 C       -4.3660    -3.7930     0.7120 C.ar  1 <1>  -0.1500 
 10 C       -2.7650    -4.6550    -0.8360 C.ar  1 <1>  -0.1500 
 11 C       -4.0130    -4.7520    -0.2330 C.ar  1 <1>  -0.1430 
 12 C       -4.9520    -5.9050    -0.6550 C.3   1 <1>   0.0370 
 13 C       -5.4460    -5.6820    -2.1150 C.2   1 <1>   0.9060 
 14 C       -4.2310    -7.2640    -0.5110 C.3   1 <1>  -0.1600 
 15 C       -6.1300    -6.1330     0.3190 C.3   1 <1>  -0.1600 
 16 O       -4.7300    -6.0390    -3.0660 O.co2 1 <1>  -0.9000 
 17 O       -6.5510    -5.1540    -2.3240 O.co2 1 <1>  -0.9000 
 18 C       -5.3310    -8.3220    -0.3840 C.3   1 <1>  -0.1600 
 19 C       -6.5810    -7.5740     0.0860 C.3   1 <1>  -0.1600 
 20 H       -3.7680    -2.0600     1.8040 H     1 <1>   0.1500 
 21 H       -0.9140    -3.6030    -0.9630 H     1 <1>   0.1500 
 22 H       -5.3340    -3.8130     1.1750 H     1 <1>   0.1500 
 23 H       -2.4910    -5.3670    -1.5980 H     1 <1>   0.1500 
 24 H       -3.6440    -7.2560     0.3910 H     1 <1>   0.0800 
 25 H       -3.5810    -7.4720    -1.3420 H     1 <1>   0.0800 
 26 H       -6.9310    -5.4320     0.1580 H     1 <1>   0.0800 
 27 H       -5.7830    -6.0490     1.3330 H     1 <1>   0.0800 
 28 H       -5.0440    -9.0930     0.3090 H     1 <1>   0.0800 
 29 H       -5.5190    -8.7620    -1.3490 H     1 <1>   0.0800 
 30 H       -7.3200    -7.5880    -0.6990 H     1 <1>   0.0800 
 31 H       -7.0010    -8.0050     0.9770 H     1 <1>   0.0800 
@<TRIPOS>BOND
  1   1   2  1   
  2   2   3  1   
  3   2   4  1   
  4   2   5  1   
  5   5   6  1   
  6   6   7  ar  
  7   6   8  ar  
  8   7   9  ar  
  9   7  20  1   
 10   8  10  ar  
 11   8  21  1   
 12   9  11  ar  
 13   9  22  1   
 14  10  11  ar  
 15  10  23  1   
 16  11  12  1   
 17  12  13  1   
 18  12  14  1   
 19  12  15  1   
 20  13  16  ar  
 21  13  17  ar  
 22  14  18  1   
 23  14  24  1   
 24  14  25  1   
 25  15  19  1   
 26  15  26  1   
 27  15  27  1   
 28  18  19  1   
 29  18  28  1   
 30  18  29  1   
 31  19  30  1   
 32  19  31  1   
@<TRIPOS>SUBSTRUCTURE
  1 ****  11 GROUP 4 **** **** 0

# MOE 2024.06 (io_trps.svl 2023.06)
