@<TRIPOS>MOLECULE
NONAME
47 50 1 0 0 
SMALL
USER_CHARGES


@<TRIPOS>ATOM
  1 O       -0.2370     0.4370    -0.8340 O.2   1 <1>  -0.5700 
  2 C       -0.5910     1.5140    -0.3920 C.2   1 <1>   0.7800 
  3 O        0.2190     2.3520     0.2510 O.3   1 <1>  -0.2330 
  4 N       -1.8630     2.0100    -0.4620 N.am  1 <1>  -0.4770 
  5 C       -0.5300     3.4160     0.6040 C.ar  1 <1>   0.0830 
  6 C       -1.8270     3.2370     0.1720 C.ar  1 <1>   0.1170 
  7 C       -2.9830     1.3940    -1.2040 C.3   1 <1>   0.1400 
  8 C       -0.1350     4.5480     1.2920 C.ar  1 <1>  -0.1500 
  9 C       -2.7850     4.2100     0.4190 C.ar  1 <1>  -0.1500 
 10 C       -3.2520    -0.0250    -0.6730 C.3   1 <1>   0.3430 
 11 C       -1.0910     5.5200     1.5410 C.ar  1 <1>  -0.1500 
 12 C       -2.4050     5.3520     1.1080 C.ar  1 <1>  -0.1500 
 13 N       -4.2430    -0.7940    -1.5010 N.4   1 <1>  -0.9590 
 14 C       -5.6200    -0.1990    -1.4320 C.3   1 <1>   0.3430 
 15 C       -4.3610    -2.1850    -0.9470 C.3   1 <1>   0.3430 
 16 C       -6.3460    -0.9530    -0.3150 C.3   1 <1>   0.2000 
 17 C       -5.8130    -2.3740    -0.4920 C.3   1 <1>  -0.0800 
 18 O       -5.9270    -0.4310     0.9050 O.3   1 <1>  -0.6800 
 19 C       -5.9460    -3.3070     0.7270 C.3   1 <1>  -0.0170 
 20 C       -5.3370    -4.6640     0.4150 C.ar  1 <1>  -0.1430 
 21 C       -4.1220    -5.0610     0.9400 C.ar  1 <1>  -0.1500 
 22 C       -5.9690    -5.5710    -0.4120 C.ar  1 <1>  -0.1500 
 23 C       -3.6070    -6.3030     0.6080 C.ar  1 <1>   0.1600 
 24 C       -5.3670    -6.7880    -0.6820 C.ar  1 <1>   0.1600 
 25 N       -4.1970    -7.1700    -0.1980 N.ar  1 <1>  -0.6200 
 26 H       -3.8580     2.0080    -1.0910 H     1 <1>   0.0800 
 27 H       -2.7110     1.3500    -2.2440 H     1 <1>   0.0800 
 28 H        0.8840     4.6610     1.6180 H     1 <1>   0.1500 
 29 H       -3.7990     4.0860     0.0880 H     1 <1>   0.1500 
 30 H       -3.6080     0.0460     0.3420 H     1 <1>   0.0800 
 31 H       -2.3190    -0.5660    -0.6620 H     1 <1>   0.0800 
 32 H       -0.8180     6.4150     2.0750 H     1 <1>   0.1500 
 33 H       -3.1300     6.1220     1.3130 H     1 <1>   0.1500 
 34 H       -3.9080    -0.8400    -2.4740 H     1 <1>   0.4500 
 35 H       -5.6070     0.8590    -1.2360 H     1 <1>   0.0800 
 36 H       -6.1340    -0.3790    -2.3620 H     1 <1>   0.0800 
 37 H       -4.1000    -2.9260    -1.6860 H     1 <1>   0.0800 
 38 H       -3.7050    -2.3010    -0.1000 H     1 <1>   0.0800 
 39 H       -7.4180    -0.8720    -0.3860 H     1 <1>   0.0800 
 40 H       -6.3450    -2.8230    -1.3130 H     1 <1>   0.0800 
 41 H       -6.5180    -0.7150     1.6360 H     1 <1>   0.4000 
 42 H       -6.9840    -3.4360     0.9800 H     1 <1>   0.0800 
 43 H       -5.4500    -2.8870     1.5850 H     1 <1>   0.0800 
 44 H       -3.5690    -4.4280     1.6090 H     1 <1>   0.1500 
 45 H       -6.9260    -5.3510    -0.8500 H     1 <1>   0.1500 
 46 H       -2.6600    -6.6020     1.0260 H     1 <1>   0.1500 
 47 H       -5.8730    -7.4860    -1.3280 H     1 <1>   0.1500 
@<TRIPOS>BOND
  1   1   2  2   
  2   2   3  1   
  3   2   4  am  
  4   3   5  1   
  5   4   6  1   
  6   4   7  1   
  7   5   6  ar  
  8   5   8  ar  
  9   6   9  ar  
 10   7  10  1   
 11   7  26  1   
 12   7  27  1   
 13   8  11  ar  
 14   8  28  1   
 15   9  12  ar  
 16   9  29  1   
 17  10  13  1   
 18  10  30  1   
 19  10  31  1   
 20  11  12  ar  
 21  11  32  1   
 22  12  33  1   
 23  13  14  1   
 24  13  15  1   
 25  13  34  1   
 26  14  16  1   
 27  14  35  1   
 28  14  36  1   
 29  15  17  1   
 30  15  37  1   
 31  15  38  1   
 32  16  17  1   
 33  16  18  1   
 34  16  39  1   
 35  17  19  1   
 36  17  40  1   
 37  18  41  1   
 38  19  20  1   
 39  19  42  1   
 40  19  43  1   
 41  20  21  ar  
 42  20  22  ar  
 43  21  23  ar  
 44  21  44  1   
 45  22  24  ar  
 46  22  45  1   
 47  23  25  ar  
 48  23  46  1   
 49  24  25  ar  
 50  24  47  1   
@<TRIPOS>SUBSTRUCTURE
  1 ****  10 GROUP 4 **** **** 0

# MOE 2024.06 (io_trps.svl 2023.06)
