@<TRIPOS>MOLECULE
NONAME
56 59 1 0 0 
SMALL
USER_CHARGES


@<TRIPOS>ATOM
  1 CL      -1.4200    -0.0020     3.5940 Cl    1 <1>  -0.1770 
  2 C       -2.2510     0.9490     2.3890 C.ar  1 <1>   0.1770 
  3 C       -2.0000     2.3110     2.3150 C.ar  1 <1>  -0.1500 
  4 C       -3.1410     0.3220     1.5320 C.ar  1 <1>  -0.1500 
  5 C       -2.6460     3.0850     1.3590 C.ar  1 <1>  -0.1440 
  6 C       -3.7890     1.0990     0.5880 C.ar  1 <1>  -0.1440 
  7 C       -3.5450     2.4480     0.5130 C.ar  1 <1>   0.0830 
  8 C       -2.3940     4.5810     1.2390 C.3   1 <1>   0.2540 
  9 C       -4.7980     0.7230    -0.4640 C.3   1 <1>   0.1440 
 10 O       -4.2680     3.0520    -0.4440 O.3   1 <1>  -0.3630 
 11 N       -1.4210     4.9050     0.1680 N.3   1 <1>  -0.8100 
 12 C       -5.0330     2.0900    -1.1530 C.3   1 <1>   0.1200 
 13 C       -4.2100    -0.3080    -1.4350 C.3   1 <1>  -0.2400 
 14 C       -6.0790     0.1910     0.1900 C.3   1 <1>  -0.2400 
 15 C       -1.2820     6.3780    -0.0100 C.3   1 <1>   0.3700 
 16 C       -0.1170     4.2570     0.3950 C.3   1 <1>   0.1100 
 17 C       -2.6160     7.1110    -0.2060 C.2   1 <1>   0.2980 
 18 C       -0.3520     6.6760    -1.1980 C.3   1 <1>  -0.1600 
 19 C        0.8270     4.5130    -0.7820 C.3   1 <1>  -0.1600 
 20 O       -3.3750     6.7960    -1.2270 O.3   1 <1>  -0.0190 
 21 N       -3.0750     8.0300     0.5530 N.2   1 <1>  -0.5650 
 22 C        1.0180     6.0110    -1.0350 C.3   1 <1>  -0.1600 
 23 N       -4.4030     7.5810    -1.1090 N.2   1 <1>  -0.4100 
 24 C       -4.2170     8.2890    -0.0680 C.2   1 <1>   0.3350 
 25 C       -5.1740     9.3410     0.4480 C.3   1 <1>   0.0210 
 26 C       -4.5570    10.7300     0.3120 C.3   1 <1>   0.1200 
 27 O       -5.4740    11.6680     0.7790 O.3   1 <1>  -0.5600 
 28 C       -5.0210    12.9810     0.7100 C.3   1 <1>   0.0400 
 29 H       -1.3000     2.7540     3.0000 H     1 <1>   0.1500 
 30 H       -3.3180    -0.7340     1.6080 H     1 <1>   0.1500 
 31 H       -2.0430     4.9680     2.1790 H     1 <1>   0.0800 
 32 H       -3.3410     5.0470     1.0260 H     1 <1>   0.0800 
 33 H       -6.0640     2.3910    -1.1160 H     1 <1>   0.0800 
 34 H       -4.6890     2.0880    -2.1720 H     1 <1>   0.0800 
 35 H       -3.2920     0.0630    -1.8570 H     1 <1>   0.0800 
 36 H       -4.9010    -0.5100    -2.2340 H     1 <1>   0.0800 
 37 H       -3.9970    -1.2290    -0.9220 H     1 <1>   0.0800 
 38 H       -6.4640     0.9120     0.8890 H     1 <1>   0.0800 
 39 H       -5.8770    -0.7210     0.7220 H     1 <1>   0.0800 
 40 H       -6.8290    -0.0040    -0.5550 H     1 <1>   0.0800 
 41 H       -0.8280     6.7810     0.8790 H     1 <1>   0.0800 
 42 H       -0.2470     3.1920     0.4830 H     1 <1>   0.0800 
 43 H        0.3230     4.6230     1.3080 H     1 <1>   0.0800 
 44 H       -0.2260     7.7390    -1.2920 H     1 <1>   0.0800 
 45 H       -0.8190     6.3190    -2.1000 H     1 <1>   0.0800 
 46 H        0.4160     4.0440    -1.6590 H     1 <1>   0.0800 
 47 H        1.7790     4.0550    -0.5820 H     1 <1>   0.0800 
 48 H        1.5390     6.4530    -0.2040 H     1 <1>   0.0800 
 49 H        1.6080     6.1610    -1.9220 H     1 <1>   0.0800 
 50 H       -5.3910     9.1400     1.4800 H     1 <1>   0.0800 
 51 H       -6.0870     9.2980    -0.1180 H     1 <1>   0.0800 
 52 H       -4.3370    10.9420    -0.7200 H     1 <1>   0.0800 
 53 H       -3.6580    10.7990     0.9010 H     1 <1>   0.0800 
 54 H       -5.7960    13.6220     1.0920 H     1 <1>   0.0800 
 55 H       -4.8140    13.2330    -0.3150 H     1 <1>   0.0800 
 56 H       -4.1360    13.0840     1.3140 H     1 <1>   0.0800 
@<TRIPOS>BOND
  1   1   2  1   
  2   2   3  ar  
  3   2   4  ar  
  4   3   5  ar  
  5   3  29  1   
  6   4   6  ar  
  7   4  30  1   
  8   5   7  ar  
  9   5   8  1   
 10   6   7  ar  
 11   6   9  1   
 12   7  10  1   
 13   8  11  1   
 14   8  31  1   
 15   8  32  1   
 16   9  12  1   
 17   9  13  1   
 18   9  14  1   
 19  10  12  1   
 20  11  15  1   
 21  11  16  1   
 22  12  33  1   
 23  12  34  1   
 24  13  35  1   
 25  13  36  1   
 26  13  37  1   
 27  14  38  1   
 28  14  39  1   
 29  14  40  1   
 30  15  17  1   
 31  15  18  1   
 32  15  41  1   
 33  16  19  1   
 34  16  42  1   
 35  16  43  1   
 36  17  20  1   
 37  17  21  2   
 38  18  22  1   
 39  18  44  1   
 40  18  45  1   
 41  19  22  1   
 42  19  46  1   
 43  19  47  1   
 44  20  23  1   
 45  21  24  1   
 46  22  48  1   
 47  22  49  1   
 48  23  24  2   
 49  24  25  1   
 50  25  26  1   
 51  25  50  1   
 52  25  51  1   
 53  26  27  1   
 54  26  52  1   
 55  26  53  1   
 56  27  28  1   
 57  28  54  1   
 58  28  55  1   
 59  28  56  1   
@<TRIPOS>SUBSTRUCTURE
  1 ****   8 GROUP 4 **** **** 0

# MOE 2024.06 (io_trps.svl 2023.06)
