@<TRIPOS>MOLECULE
NONAME
50 51 1 0 0 
SMALL
USER_CHARGES


@<TRIPOS>ATOM
  1 S        0.4090     2.0490    -1.4970 S.o2  1 <1>   1.3330 
  2 O        0.5660     3.4870    -1.4230 O.2   1 <1>  -0.6500 
  3 O        0.1460     1.4000    -2.7550 O.2   1 <1>  -0.6500 
  4 N        1.8520     1.4050    -0.8760 N.am  1 <1>  -0.8490 
  5 C       -0.8360     1.5710    -0.2820 C.3   1 <1>  -0.0550 
  6 C        1.9150    -0.0650    -0.9840 C.3   1 <1>   0.1160 
  7 C        3.0180     1.9390    -1.5980 C.3   1 <1>   0.1160 
  8 C       -0.8390     2.3170     1.0810 C.3   1 <1>  -0.0800 
  9 C       -1.4680     3.7180     0.9730 C.3   1 <1>   0.2000 
 10 C        0.5470     2.5640     1.6910 C.3   1 <1>   0.3430 
 11 O       -2.4820     3.8400     1.9120 O.3   1 <1>  -0.6800 
 12 C       -0.3520     4.7310     1.2620 C.3   1 <1>   0.3430 
 13 N        0.9070     3.9340     1.2620 N.4   1 <1>  -0.9590 
 14 C        2.0540     4.5730     1.9500 C.3   1 <1>   0.4860 
 15 C        2.2960     5.9240     1.3010 C.ar  1 <1>  -0.1440 
 16 C        2.6080     6.0180    -0.0480 C.ar  1 <1>  -0.1500 
 17 C        2.1830     7.0870     2.0460 C.ar  1 <1>  -0.1500 
 18 C        2.7860     7.2530    -0.6410 C.ar  1 <1>  -0.1500 
 19 C        2.3670     8.3190     1.4450 C.ar  1 <1>  -0.1500 
 20 C        2.6710     8.4370     0.0890 C.ar  1 <1>   0.0860 
 21 C        2.8470     9.7420    -0.5260 C.2   1 <1>   0.5440 
 22 O        2.3080    10.7220    -0.0520 O.2   1 <1>  -0.5700 
 23 N        3.6260     9.8930    -1.6420 N.am  1 <1>  -0.7300 
 24 C        3.8520    11.1700    -2.3680 C.3   1 <1>   0.0600 
 25 H       -1.8050     1.6980    -0.7270 H     1 <1>   0.0800 
 26 H       -0.7400     0.5200    -0.0920 H     1 <1>   0.0800 
 27 H        2.8440    -0.4280    -0.5750 H     1 <1>   0.0800 
 28 H        1.8510    -0.3740    -2.0150 H     1 <1>   0.0800 
 29 H        1.1120    -0.5260    -0.4380 H     1 <1>   0.0800 
 30 H        3.9300     1.5380    -1.1890 H     1 <1>   0.0800 
 31 H        3.0570     3.0110    -1.5170 H     1 <1>   0.0800 
 32 H        2.9630     1.6810    -2.6440 H     1 <1>   0.0800 
 33 H       -1.4100     1.7080     1.7620 H     1 <1>   0.0800 
 34 H       -1.9000     3.9050     0.0040 H     1 <1>   0.0800 
 35 H        1.2740     1.8370     1.3670 H     1 <1>   0.0800 
 36 H        0.4750     2.5320     2.7670 H     1 <1>   0.0800 
 37 H       -2.2160     3.5800     2.8160 H     1 <1>   0.4000 
 38 H       -0.5120     5.1890     2.2240 H     1 <1>   0.0800 
 39 H       -0.3170     5.4920     0.4990 H     1 <1>   0.0800 
 40 H        1.1650     3.8810     0.2550 H     1 <1>   0.4500 
 41 H        1.8390     4.7000     2.9980 H     1 <1>   0.0800 
 42 H        2.9360     3.9610     1.8490 H     1 <1>   0.0800 
 43 H        2.7060     5.1370    -0.6580 H     1 <1>   0.1500 
 44 H        1.9480     7.0540     3.0970 H     1 <1>   0.1500 
 45 H        3.0060     7.3000    -1.6930 H     1 <1>   0.1500 
 46 H        2.2730     9.2190     2.0310 H     1 <1>   0.1500 
 47 H        4.1730     9.0980    -1.9730 H     1 <1>   0.3700 
 48 H        3.2180    11.9460    -1.9730 H     1 <1>   0.0800 
 49 H        3.6260    11.0400    -3.4120 H     1 <1>   0.0800 
 50 H        4.8780    11.4740    -2.2610 H     1 <1>   0.0800 
@<TRIPOS>BOND
  1   1   2  2   
  2   1   3  2   
  3   1   4  am  
  4   1   5  1   
  5   4   6  1   
  6   4   7  1   
  7   5   8  1   
  8   5  25  1   
  9   5  26  1   
 10   6  27  1   
 11   6  28  1   
 12   6  29  1   
 13   7  30  1   
 14   7  31  1   
 15   7  32  1   
 16   8   9  1   
 17   8  10  1   
 18   8  33  1   
 19   9  11  1   
 20   9  12  1   
 21   9  34  1   
 22  10  13  1   
 23  10  35  1   
 24  10  36  1   
 25  11  37  1   
 26  12  13  1   
 27  12  38  1   
 28  12  39  1   
 29  13  14  1   
 30  13  40  1   
 31  14  15  1   
 32  14  41  1   
 33  14  42  1   
 34  15  16  ar  
 35  15  17  ar  
 36  16  18  ar  
 37  16  43  1   
 38  17  19  ar  
 39  17  44  1   
 40  18  20  ar  
 41  18  45  1   
 42  19  20  ar  
 43  19  46  1   
 44  20  21  1   
 45  21  22  2   
 46  21  23  am  
 47  23  24  1   
 48  23  47  1   
 49  24  48  1   
 50  24  49  1   
 51  24  50  1   
@<TRIPOS>SUBSTRUCTURE
  1 ****  16 GROUP 4 **** **** 0

# MOE 2024.06 (io_trps.svl 2023.06)
