@<TRIPOS>MOLECULE
NONAME
62 66 1 0 0 
SMALL
USER_CHARGES


@<TRIPOS>ATOM
  1 O       -0.0540     0.3800    -0.9570 O.2   1 <1>  -0.5700 
  2 C       -1.1060     0.9700    -0.9100 C.2   1 <1>   0.5690 
  3 N       -2.3040     0.3150    -0.8390 N.am  1 <1>  -0.6600 
  4 C       -1.0540     2.4840    -0.9040 C.3   1 <1>  -0.0990 
  5 C       -3.6500     0.9310    -0.7120 C.3   1 <1>   0.1400 
  6 C       -2.4020    -1.1630    -0.7880 C.3   1 <1>   0.1400 
  7 C       -0.8910     3.0180     0.5270 C.3   1 <1>  -0.0990 
  8 C       -4.6160    -0.2440    -0.5430 C.3   1 <1>   0.2000 
  9 C       -3.7580    -1.4410    -0.1360 C.3   1 <1>  -0.0800 
 10 C       -0.9300     4.5280     0.5490 C.2   1 <1>   0.5690 
 11 O       -5.5630     0.0120     0.4360 O.3   1 <1>  -0.6800 
 12 C       -4.3820    -2.7860    -0.5430 C.3   1 <1>  -0.0160 
 13 O       -2.0100     5.0590     0.6140 O.2   1 <1>  -0.5700 
 14 N        0.2610     5.1940     0.4670 N.am  1 <1>  -0.5470 
 15 C       -3.4970    -3.9510    -0.1360 C.ar  1 <1>   0.1670 
 16 C        0.5640     6.5650     0.4580 C.ar  1 <1>   0.1170 
 17 N       -2.5770    -4.3220    -0.9730 N.ar  1 <1>  -0.6200 
 18 C       -3.7050    -4.5600     1.1120 C.ar  1 <1>  -0.1500 
 19 C        1.8240     6.9570     0.0120 C.ar  1 <1>  -0.1500 
 20 C       -0.3280     7.5490     0.8860 C.ar  1 <1>  -0.1500 
 21 C       -1.7710    -5.3530    -0.6100 C.ar  1 <1>   0.3100 
 22 C       -2.9140    -5.5980     1.5000 C.ar  1 <1>  -0.1500 
 23 C        2.1660     8.2950    -0.0040 C.ar  1 <1>  -0.1440 
 24 C        0.0200     8.8900     0.8660 C.ar  1 <1>  -0.1500 
 25 C       -1.9030    -6.0260     0.6240 C.ar  1 <1>   0.0000 
 26 C       -0.7620    -5.7690    -1.4940 C.ar  1 <1>  -0.1500 
 27 C        1.2760     9.2500     0.4160 C.ar  1 <1>  -0.1440 
 28 C        3.4660     8.9180    -0.4480 C.3   1 <1>  -0.0170 
 29 C       -1.0240    -7.0860     0.9230 C.ar  1 <1>  -0.1500 
 30 C        0.0830    -6.8010    -1.1840 C.ar  1 <1>  -0.1500 
 31 C        1.8620    10.6350     0.3090 C.3   1 <1>  -0.0170 
 32 C        3.1350    10.4190    -0.5280 C.3   1 <1>  -0.1600 
 33 C       -0.0510    -7.4670     0.0390 C.ar  1 <1>  -0.1500 
 34 H       -0.2180     2.7970    -1.5030 H     1 <1>   0.0800 
 35 H       -1.9400     2.8910    -1.3530 H     1 <1>   0.0800 
 36 H       -3.6730     1.5770     0.1480 H     1 <1>   0.0800 
 37 H       -3.8890     1.4860    -1.6010 H     1 <1>   0.0800 
 38 H       -2.3710    -1.5530    -1.7920 H     1 <1>   0.0800 
 39 H       -1.5930    -1.5910    -0.2190 H     1 <1>   0.0800 
 40 H        0.0350     2.6660     0.9460 H     1 <1>   0.0800 
 41 H       -1.6900     2.6500     1.1440 H     1 <1>   0.0800 
 42 H       -5.1300    -0.4280    -1.4720 H     1 <1>   0.0800 
 43 H       -3.6030    -1.4280     0.9290 H     1 <1>   0.0800 
 44 H       -5.1280     0.1740     1.2960 H     1 <1>   0.4000 
 45 H       -4.5280    -2.8140    -1.6090 H     1 <1>   0.0800 
 46 H       -5.3480    -2.8880    -0.0820 H     1 <1>   0.0800 
 47 H        1.0760     4.5940     0.3570 H     1 <1>   0.3700 
 48 H       -4.4900    -4.1960     1.7510 H     1 <1>   0.1500 
 49 H        2.5330     6.2240    -0.3230 H     1 <1>   0.1500 
 50 H       -1.3030     7.2740     1.2410 H     1 <1>   0.1500 
 51 H       -3.0420    -6.0890     2.4470 H     1 <1>   0.1500 
 52 H       -0.6770     9.6390     1.1970 H     1 <1>   0.1500 
 53 H       -0.6750    -5.2430    -2.4270 H     1 <1>   0.1500 
 54 H        4.2220     8.7360     0.2950 H     1 <1>   0.0800 
 55 H        3.7860     8.5340    -1.4000 H     1 <1>   0.0800 
 56 H       -1.1310    -7.5930     1.8650 H     1 <1>   0.1500 
 57 H        0.8530    -7.1090    -1.8710 H     1 <1>   0.1500 
 58 H        1.1820    11.3160    -0.1730 H     1 <1>   0.0800 
 59 H        2.1080    10.9960     1.2920 H     1 <1>   0.0800 
 60 H        3.9500    11.0280    -0.1800 H     1 <1>   0.0800 
 61 H        2.9210    10.6710    -1.5520 H     1 <1>   0.0800 
 62 H        0.6200    -8.2760     0.2700 H     1 <1>   0.1500 
@<TRIPOS>BOND
  1   1   2  2   
  2   2   3  am  
  3   2   4  1   
  4   3   5  1   
  5   3   6  1   
  6   4   7  1   
  7   4  34  1   
  8   4  35  1   
  9   5   8  1   
 10   5  36  1   
 11   5  37  1   
 12   6   9  1   
 13   6  38  1   
 14   6  39  1   
 15   7  10  1   
 16   7  40  1   
 17   7  41  1   
 18   8   9  1   
 19   8  11  1   
 20   8  42  1   
 21   9  12  1   
 22   9  43  1   
 23  10  13  2   
 24  10  14  am  
 25  11  44  1   
 26  12  15  1   
 27  12  45  1   
 28  12  46  1   
 29  14  16  1   
 30  14  47  1   
 31  15  17  ar  
 32  15  18  ar  
 33  16  19  ar  
 34  16  20  ar  
 35  17  21  ar  
 36  18  22  ar  
 37  18  48  1   
 38  19  23  ar  
 39  19  49  1   
 40  20  24  ar  
 41  20  50  1   
 42  21  25  ar  
 43  21  26  ar  
 44  22  25  ar  
 45  22  51  1   
 46  23  27  ar  
 47  23  28  1   
 48  24  27  ar  
 49  24  52  1   
 50  25  29  ar  
 51  26  30  ar  
 52  26  53  1   
 53  27  31  1   
 54  28  32  1   
 55  28  54  1   
 56  28  55  1   
 57  29  33  ar  
 58  29  56  1   
 59  30  33  ar  
 60  30  57  1   
 61  31  32  1   
 62  31  58  1   
 63  31  59  1   
 64  32  60  1   
 65  32  61  1   
 66  33  62  1   
@<TRIPOS>SUBSTRUCTURE
  1 ****   2 GROUP 4 **** **** 0

# MOE 2024.06 (io_trps.svl 2023.06)
