@<TRIPOS>MOLECULE
NONAME
48 50 1 0 0 
SMALL
USER_CHARGES


@<TRIPOS>ATOM
  1 O        2.5780    -1.7810     1.8490 O.3   1 <1>  -0.6800 
  2 C        1.4150    -1.9190     1.0980 C.3   1 <1>   0.2000 
  3 C        1.6470    -1.7930    -0.4280 C.3   1 <1>   0.0000 
  4 C        0.8200    -3.3090     1.3350 C.3   1 <1>  -0.1600 
  5 C        2.9890    -2.4190    -0.8690 C.3   1 <1>   0.3430 
  6 C        1.5530    -0.3400    -0.9460 C.3   1 <1>  -0.1600 
  7 C        0.4960    -2.6370    -0.9930 C.3   1 <1>  -0.1600 
  8 C        0.3540    -3.8200    -0.0340 C.3   1 <1>  -0.1600 
  9 N        4.1310    -1.5730    -0.4280 N.4   1 <1>  -0.9590 
 10 C        2.7960     0.4870    -0.5740 C.3   1 <1>  -0.1600 
 11 C        4.0960    -0.2000    -0.9980 C.3   1 <1>   0.3430 
 12 C        5.4450    -2.2430    -0.5740 C.3   1 <1>   0.4860 
 13 C        6.4950    -1.4050     0.1260 C.ar  1 <1>  -0.1440 
 14 C        7.4540    -0.7260    -0.6100 C.ar  1 <1>  -0.1500 
 15 C        6.4990    -1.3000     1.5080 C.ar  1 <1>  -0.1500 
 16 C        8.4060     0.0610     0.0180 C.ar  1 <1>  -0.1440 
 17 C        7.4460    -0.5150     2.1390 C.ar  1 <1>  -0.1500 
 18 C        8.4000     0.1690     1.4040 C.ar  1 <1>  -0.1440 
 19 C        9.4410     0.7900    -0.8270 C.3   1 <1>  -0.0970 
 20 C        9.4250     1.0220     2.1410 C.3   1 <1>  -0.0970 
 21 H        2.3530    -1.8420     2.8030 H     1 <1>   0.4000 
 22 H        0.7130    -1.1690     1.4240 H     1 <1>   0.0800 
 23 H        1.5440    -3.9910     1.7490 H     1 <1>   0.0800 
 24 H       -0.0190    -3.2350     2.0050 H     1 <1>   0.0800 
 25 H        3.0040    -2.5180    -1.9410 H     1 <1>   0.0800 
 26 H        3.0730    -3.4020    -0.4330 H     1 <1>   0.0800 
 27 H        1.4600    -0.3530    -2.0190 H     1 <1>   0.0800 
 28 H        0.6720     0.1410    -0.5550 H     1 <1>   0.0800 
 29 H       -0.4180    -2.0670    -0.9670 H     1 <1>   0.0800 
 30 H        0.6650    -2.9590    -2.0060 H     1 <1>   0.0800 
 31 H        0.9850    -4.6320    -0.3530 H     1 <1>   0.0800 
 32 H       -0.6640    -4.1740     0.0010 H     1 <1>   0.0800 
 33 H        3.9650    -1.4570     0.5910 H     1 <1>   0.4500 
 34 H        2.8200     0.6580     0.4880 H     1 <1>   0.0800 
 35 H        2.7390     1.4500    -1.0500 H     1 <1>   0.0800 
 36 H        4.9340     0.3750    -0.6360 H     1 <1>   0.0800 
 37 H        4.1520    -0.2470    -2.0730 H     1 <1>   0.0800 
 38 H        5.4140    -3.2210    -0.1230 H     1 <1>   0.0800 
 39 H        5.6950    -2.3510    -1.6170 H     1 <1>   0.0800 
 40 H        7.4670    -0.8070    -1.6830 H     1 <1>   0.1500 
 41 H        5.7710    -1.8210     2.1070 H     1 <1>   0.1500 
 42 H        7.4370    -0.4420     3.2130 H     1 <1>   0.1500 
 43 H        9.3010     0.5920    -1.8740 H     1 <1>   0.0800 
 44 H       10.4300     0.4680    -0.5550 H     1 <1>   0.0800 
 45 H        9.3650     1.8510    -0.6720 H     1 <1>   0.0800 
 46 H        9.2640     0.9900     3.2030 H     1 <1>   0.0800 
 47 H        9.3530     2.0450     1.8210 H     1 <1>   0.0800 
 48 H       10.4170     0.6600     1.9410 H     1 <1>   0.0800 
@<TRIPOS>BOND
  1   1   2  1   
  2   1  21  1   
  3   2   3  1   
  4   2   4  1   
  5   2  22  1   
  6   3   5  1   
  7   3   6  1   
  8   3   7  1   
  9   4   8  1   
 10   4  23  1   
 11   4  24  1   
 12   5   9  1   
 13   5  25  1   
 14   5  26  1   
 15   6  10  1   
 16   6  27  1   
 17   6  28  1   
 18   7   8  1   
 19   7  29  1   
 20   7  30  1   
 21   8  31  1   
 22   8  32  1   
 23   9  11  1   
 24   9  12  1   
 25   9  33  1   
 26  10  11  1   
 27  10  34  1   
 28  10  35  1   
 29  11  36  1   
 30  11  37  1   
 31  12  13  1   
 32  12  38  1   
 33  12  39  1   
 34  13  14  ar  
 35  13  15  ar  
 36  14  16  ar  
 37  14  40  1   
 38  15  17  ar  
 39  15  41  1   
 40  16  18  ar  
 41  16  19  1   
 42  17  18  ar  
 43  17  42  1   
 44  18  20  1   
 45  19  43  1   
 46  19  44  1   
 47  19  45  1   
 48  20  46  1   
 49  20  47  1   
 50  20  48  1   
@<TRIPOS>SUBSTRUCTURE
  1 ****   9 GROUP 4 **** **** 0

# MOE 2024.06 (io_trps.svl 2023.06)
