@<TRIPOS>MOLECULE
NONAME
39 40 1 0 0 
SMALL
USER_CHARGES


@<TRIPOS>ATOM
  1 N       -0.4070     0.7800    -1.8060 N.1   1 <1>  -0.5570 
  2 C       -1.3930     1.2900    -1.5360 C.1   1 <1>   0.4840 
  3 C       -2.6570     1.8630    -1.1930 C.ar  1 <1>   0.0730 
  4 C       -2.7500     3.1520    -0.6460 C.ar  1 <1>   0.4100 
  5 C       -3.8220     1.1510    -1.4020 C.ar  1 <1>  -0.1500 
  6 N       -3.9050     3.7280    -0.3260 N.ar  1 <1>  -0.6200 
  7 N       -1.6230     3.9160    -0.4010 N.pl3 1 <1>  -0.8380 
  8 C       -5.0150     1.7520    -1.0640 C.ar  1 <1>  -0.1500 
  9 C       -5.0100     3.0320    -0.5340 C.ar  1 <1>   0.1670 
 10 C       -1.7080     5.3830    -0.6460 C.3   1 <1>   0.3900 
 11 C       -0.7180     3.5260     0.7190 C.3   1 <1>   0.1290 
 12 C       -6.3250     3.7170    -0.1540 C.3   1 <1>   0.0640 
 13 C       -0.3230     5.9690    -0.8710 C.2   1 <1>  -0.1810 
 14 C       -7.0690     2.9430     0.9430 C.3   1 <1>  -0.2400 
 15 C       -7.2270     3.9220    -1.3790 C.3   1 <1>  -0.2400 
 16 C        0.3060     7.0080    -0.2740 C.2   1 <1>  -0.3320 
 17 C        0.5900     5.4890    -1.8030 C.2   1 <1>   0.1390 
 18 N        1.5210     7.1040    -0.8570 N.pl3 1 <1>   0.3000 
 19 C       -0.1620     7.9420     0.8300 C.3   1 <1>  -0.0600 
 20 N        1.6990     6.1660    -1.8040 N.2   1 <1>  -0.7070 
 21 H       -3.8020     0.1580    -1.8190 H     1 <1>   0.1500 
 22 H       -5.9410     1.2280    -1.2140 H     1 <1>   0.1500 
 23 H       -2.1820     5.8560     0.1960 H     1 <1>   0.0800 
 24 H       -2.3130     5.5660    -1.5170 H     1 <1>   0.0800 
 25 H       -0.9930     2.5620     1.1090 H     1 <1>   0.0800 
 26 H       -0.7780     4.2490     1.5140 H     1 <1>   0.0800 
 27 H        0.2980     3.4800     0.3630 H     1 <1>   0.0800 
 28 H       -6.0880     4.6910     0.2410 H     1 <1>   0.0800 
 29 H       -7.3780     1.9750     0.5920 H     1 <1>   0.0800 
 30 H       -7.9400     3.4900     1.2570 H     1 <1>   0.0800 
 31 H       -6.4250     2.8110     1.7940 H     1 <1>   0.0800 
 32 H       -7.5390     2.9790    -1.7920 H     1 <1>   0.0800 
 33 H       -6.6930     4.4690    -2.1360 H     1 <1>   0.0800 
 34 H       -8.1020     4.4840    -1.1060 H     1 <1>   0.0800 
 35 H        0.4040     4.6470    -2.4500 H     1 <1>   0.1500 
 36 H        2.2480     7.7930    -0.6340 H     1 <1>   0.2700 
 37 H       -1.1560     7.6870     1.1490 H     1 <1>   0.0800 
 38 H       -0.1690     8.9580     0.4760 H     1 <1>   0.0800 
 39 H        0.4960     7.8710     1.6780 H     1 <1>   0.0800 
@<TRIPOS>BOND
  1   1   2  3   
  2   2   3  1   
  3   3   4  ar  
  4   3   5  ar  
  5   4   6  ar  
  6   4   7  1   
  7   5   8  ar  
  8   5  21  1   
  9   6   9  ar  
 10   7  10  1   
 11   7  11  1   
 12   8   9  ar  
 13   8  22  1   
 14   9  12  1   
 15  10  13  1   
 16  10  23  1   
 17  10  24  1   
 18  11  25  1   
 19  11  26  1   
 20  11  27  1   
 21  12  14  1   
 22  12  15  1   
 23  12  28  1   
 24  13  16  2   
 25  13  17  1   
 26  14  29  1   
 27  14  30  1   
 28  14  31  1   
 29  15  32  1   
 30  15  33  1   
 31  15  34  1   
 32  16  18  1   
 33  16  19  1   
 34  17  20  2   
 35  17  35  1   
 36  18  20  1   
 37  18  36  1   
 38  19  37  1   
 39  19  38  1   
 40  19  39  1   
@<TRIPOS>SUBSTRUCTURE
  1 ****   7 GROUP 4 **** **** 0

# MOE 2024.06 (io_trps.svl 2023.06)
