@<TRIPOS>MOLECULE
NONAME
47 50 1 0 0 
SMALL
USER_CHARGES


@<TRIPOS>ATOM
  1 CL      -0.0050     0.7530    -0.7420 Cl    1 <1>  -0.1770 
  2 C        1.7160     0.6030    -0.4630 C.ar  1 <1>   0.1770 
  3 C        2.4830     1.7110    -0.0740 C.ar  1 <1>  -0.1520 
  4 C        2.3000    -0.6280    -0.6380 C.ar  1 <1>  -0.1500 
  5 N        2.1760     3.0320     0.1750 N.pl3 1 <1>   0.0480 
  6 C        3.8490     1.5380     0.1310 C.ar  1 <1>   0.0000 
  7 C        3.6750    -0.7900    -0.4270 C.ar  1 <1>  -0.1500 
  8 C        3.3390     3.6940     0.5140 C.2   1 <1>  -0.2370 
  9 C        0.8200     3.6240     0.1410 C.3   1 <1>   0.0160 
 10 C        4.4450     0.2820    -0.0450 C.ar  1 <1>  -0.1500 
 11 C        4.3590     2.7880     0.5050 C.2   1 <1>  -0.1500 
 12 C        3.4040     5.0970     0.8290 C.2   1 <1>   0.7150 
 13 O        2.7930     5.5150     1.7940 O.2   1 <1>  -0.5700 
 14 N        4.1300     5.9920     0.0610 N.am  1 <1>  -0.6600 
 15 C        4.4000     7.3720     0.5890 C.3   1 <1>   0.1400 
 16 C        4.7650     5.5920    -1.2340 C.3   1 <1>   0.1400 
 17 C        5.8770     7.6310     0.9860 C.3   1 <1>   0.4230 
 18 C        6.2620     5.9490    -1.3610 C.3   1 <1>  -0.0800 
 19 N        6.7330     8.1250    -0.1550 N.4   1 <1>  -0.9590 
 20 C        6.5700     6.4370     1.6970 C.3   1 <1>   0.1200 
 21 C        7.2040     5.2650    -0.3450 C.3   1 <1>   0.1200 
 22 C        6.4640     7.4610    -1.4650 C.3   1 <1>   0.3430 
 23 C        6.6530     9.6120    -0.2970 C.3   1 <1>   0.2630 
 24 O        6.6850     5.2550     0.9470 O.3   1 <1>  -0.5600 
 25 H        1.7030    -1.4700    -0.9370 H     1 <1>   0.1500 
 26 H        4.1190    -1.7610    -0.5670 H     1 <1>   0.1500 
 27 H        0.8530     4.6700     0.3810 H     1 <1>   0.0800 
 28 H        0.2000     3.1210     0.8610 H     1 <1>   0.0800 
 29 H        0.4030     3.5020    -0.8410 H     1 <1>   0.0800 
 30 H        5.5010     0.1780     0.1250 H     1 <1>   0.1500 
 31 H        5.3910     2.9690     0.7480 H     1 <1>   0.1500 
 32 H        4.0730     8.1000    -0.1310 H     1 <1>   0.0800 
 33 H        3.8090     7.5430     1.4720 H     1 <1>   0.0800 
 34 H        4.6620     4.5330    -1.3910 H     1 <1>   0.0800 
 35 H        4.2190     6.0670    -2.0310 H     1 <1>   0.0800 
 36 H        5.8480     8.4220     1.7160 H     1 <1>   0.0800 
 37 H        6.5540     5.5700    -2.3240 H     1 <1>   0.0800 
 38 H        7.6980     7.8800     0.1060 H     1 <1>   0.4500 
 39 H        5.9970     6.1810     2.5720 H     1 <1>   0.0800 
 40 H        7.5540     6.7180     2.0250 H     1 <1>   0.0800 
 41 H        8.1830     5.7130    -0.3280 H     1 <1>   0.0800 
 42 H        7.3220     4.2310    -0.6240 H     1 <1>   0.0800 
 43 H        5.5880     7.8940    -1.9190 H     1 <1>   0.0800 
 44 H        7.2960     7.6520    -2.1240 H     1 <1>   0.0800 
 45 H        5.6520     9.9120    -0.5650 H     1 <1>   0.0800 
 46 H        7.3300     9.9530    -1.0650 H     1 <1>   0.0800 
 47 H        6.9200    10.0940     0.6300 H     1 <1>   0.0800 
@<TRIPOS>BOND
  1   1   2  1   
  2   2   3  ar  
  3   2   4  ar  
  4   3   5  1   
  5   3   6  ar  
  6   4   7  ar  
  7   4  25  1   
  8   5   8  1   
  9   5   9  1   
 10   6  10  ar  
 11   6  11  1   
 12   7  10  ar  
 13   7  26  1   
 14   8  11  2   
 15   8  12  1   
 16   9  27  1   
 17   9  28  1   
 18   9  29  1   
 19  10  30  1   
 20  11  31  1   
 21  12  13  2   
 22  12  14  am  
 23  14  15  1   
 24  14  16  1   
 25  15  17  1   
 26  15  32  1   
 27  15  33  1   
 28  16  18  1   
 29  16  34  1   
 30  16  35  1   
 31  17  19  1   
 32  17  20  1   
 33  17  36  1   
 34  18  21  1   
 35  18  22  1   
 36  18  37  1   
 37  19  22  1   
 38  19  23  1   
 39  19  38  1   
 40  20  24  1   
 41  20  39  1   
 42  20  40  1   
 43  21  24  1   
 44  21  41  1   
 45  21  42  1   
 46  22  43  1   
 47  22  44  1   
 48  23  45  1   
 49  23  46  1   
 50  23  47  1   
@<TRIPOS>SUBSTRUCTURE
  1 ****   8 GROUP 4 **** **** 0

# MOE 2024.06 (io_trps.svl 2023.06)
