@<TRIPOS>MOLECULE
NONAME
41 44 1 0 0 
SMALL
USER_CHARGES


@<TRIPOS>ATOM
  1 S        0.8220    -0.1960     1.3580 S.3   1 <1>  -0.0800 
  2 C        0.8730    -0.9800    -0.2260 C.2   1 <1>   0.4420 
  3 C        1.1220     1.3490     0.5960 C.ar  1 <1>   0.0400 
  4 N        1.0860    -0.1810    -1.1990 N.2   1 <1>  -0.5650 
  5 N        0.6910    -2.3330    -0.3740 N.am  1 <1>  -0.4940 
  6 C        1.2310     1.1380    -0.7670 C.ar  1 <1>   0.2270 
  7 C        1.2380     2.5890     1.2020 C.ar  1 <1>  -0.1500 
  8 C        0.4430    -3.3290     0.5270 C.2   1 <1>   0.5690 
  9 C        1.4720     2.2710    -1.5420 C.ar  1 <1>   0.1900 
 10 C        1.4780     3.6900     0.3940 C.ar  1 <1>  -0.1500 
 11 O        0.3810    -3.1440     1.7140 O.2   1 <1>  -0.5700 
 12 C        0.2440    -4.7410    -0.0180 C.3   1 <1>  -0.0190 
 13 F        1.5860     2.1510    -2.8400 F     1 <1>  -0.1900 
 14 C        1.5960     3.5320    -0.9840 C.ar  1 <1>  -0.1500 
 15 C       -1.2300    -5.2130     0.0590 C.3   1 <1>   0.2800 
 16 C        0.9930    -5.7730     0.8350 C.3   1 <1>  -0.0990 
 17 O       -1.2890    -5.9330     1.2680 O.3   1 <1>  -0.4300 
 18 C       -1.5630    -6.2110    -1.0700 C.3   1 <1>  -0.1600 
 19 C       -2.2990    -4.0910     0.1010 C.3   1 <1>  -0.1600 
 20 C       -0.1060    -6.3070     1.7070 C.2   1 <1>   0.6590 
 21 C       -2.9410    -6.8850    -0.8990 C.3   1 <1>  -0.1600 
 22 C       -3.7050    -4.5160    -0.3730 C.3   1 <1>  -0.1600 
 23 O        0.0630    -7.0170     2.6590 O.2   1 <1>  -0.5700 
 24 C       -3.9660    -6.0100    -0.1540 C.3   1 <1>  -0.1600 
 25 H        0.7500    -2.6030    -1.3520 H     1 <1>   0.3700 
 26 H        1.1430     2.6850     2.2700 H     1 <1>   0.1500 
 27 H        1.5740     4.6700     0.8320 H     1 <1>   0.1500 
 28 H        0.5980    -4.7700    -1.0320 H     1 <1>   0.0800 
 29 H        1.7820     4.3800    -1.6190 H     1 <1>   0.1500 
 30 H        1.7810    -5.3480     1.4300 H     1 <1>   0.0800 
 31 H        1.3780    -6.5760     0.2340 H     1 <1>   0.0800 
 32 H       -0.8050    -6.9720    -1.1450 H     1 <1>   0.0800 
 33 H       -1.5640    -5.6730    -2.0010 H     1 <1>   0.0800 
 34 H       -2.0000    -3.2750    -0.5310 H     1 <1>   0.0800 
 35 H       -2.3600    -3.7110     1.1070 H     1 <1>   0.0800 
 36 H       -2.8230    -7.8030    -0.3490 H     1 <1>   0.0800 
 37 H       -3.3250    -7.1400    -1.8710 H     1 <1>   0.0800 
 38 H       -3.8060    -4.3050    -1.4240 H     1 <1>   0.0800 
 39 H       -4.4500    -3.9370     0.1460 H     1 <1>   0.0800 
 40 H       -3.9070    -6.2160     0.9020 H     1 <1>   0.0800 
 41 H       -4.9610    -6.2640    -0.4760 H     1 <1>   0.0800 
@<TRIPOS>BOND
  1   1   2  1   
  2   1   3  1   
  3   2   4  2   
  4   2   5  1   
  5   3   6  ar  
  6   3   7  ar  
  7   4   6  1   
  8   5   8  am  
  9   5  25  1   
 10   6   9  ar  
 11   7  10  ar  
 12   7  26  1   
 13   8  11  2   
 14   8  12  1   
 15   9  13  1   
 16   9  14  ar  
 17  10  14  ar  
 18  10  27  1   
 19  12  15  1   
 20  12  16  1   
 21  12  28  1   
 22  14  29  1   
 23  15  17  1   
 24  15  18  1   
 25  15  19  1   
 26  16  20  1   
 27  16  30  1   
 28  16  31  1   
 29  17  20  1   
 30  18  21  1   
 31  18  32  1   
 32  18  33  1   
 33  19  22  1   
 34  19  34  1   
 35  19  35  1   
 36  20  23  2   
 37  21  24  1   
 38  21  36  1   
 39  21  37  1   
 40  22  24  1   
 41  22  38  1   
 42  22  39  1   
 43  24  40  1   
 44  24  41  1   
@<TRIPOS>SUBSTRUCTURE
  1 ****   5 GROUP 4 **** **** 0

# MOE 2024.06 (io_trps.svl 2023.06)
