@<TRIPOS>MOLECULE
NONAME
45 48 1 0 0 
SMALL
USER_CHARGES


@<TRIPOS>ATOM
  1 O       -0.0930     0.0150    -0.3220 O.2   1 <1>  -0.5700 
  2 C        0.9740    -0.5610    -0.3850 C.2   1 <1>   0.5440 
  3 N        2.1570     0.1430    -0.3360 N.am  1 <1>  -0.4940 
  4 C        1.0140    -2.0020    -0.4850 C.ar  1 <1>   0.0860 
  5 C        2.3780     1.5440    -0.3400 C.2   1 <1>  -0.0880 
  6 C        1.9220    -2.6420    -1.3220 C.ar  1 <1>   0.1600 
  7 C        0.1620    -2.8120     0.2500 C.ar  1 <1>  -0.1500 
  8 N        3.5960     2.1460    -0.2160 N.pl3 1 <1>   0.3140 
  9 C        1.4750     2.5460    -0.4610 C.2   1 <1>  -0.1500 
 10 N        2.0700    -3.9480    -1.4510 N.ar  1 <1>  -0.6200 
 11 C        0.2820    -4.1810     0.1280 C.ar  1 <1>  -0.1430 
 12 N        3.4810     3.4980    -0.2540 N.2   1 <1>  -0.7070 
 13 C        4.9010     1.4390    -0.0490 C.3   1 <1>   0.1760 
 14 C        2.2120     3.7190    -0.4000 C.2   1 <1>   0.1390 
 15 C        1.2520    -4.6980    -0.7270 C.ar  1 <1>   0.1670 
 16 C       -0.6460    -5.0750     0.9430 C.3   1 <1>  -0.0170 
 17 C        5.1200     0.9500     1.3850 C.3   1 <1>  -0.1600 
 18 C        6.1430     2.2860    -0.3350 C.3   1 <1>  -0.1600 
 19 C        1.4260    -6.2000    -0.9100 C.3   1 <1>  -0.0170 
 20 C       -0.6970    -6.5110     0.4090 C.3   1 <1>  -0.1600 
 21 C        6.6390     0.8060     1.5460 C.3   1 <1>  -0.1600 
 22 C        7.2790     1.5310     0.3550 C.3   1 <1>  -0.1600 
 23 C        0.7190    -7.0370     0.1650 C.3   1 <1>  -0.1600 
 24 H        2.9870    -0.4360    -0.2200 H     1 <1>   0.3700 
 25 H        2.5680    -2.0330    -1.9310 H     1 <1>   0.1500 
 26 H       -0.5730    -2.3670     0.8990 H     1 <1>   0.1500 
 27 H        0.4090     2.4730    -0.5780 H     1 <1>   0.1500 
 28 H        4.9140     0.5950    -0.7150 H     1 <1>   0.0800 
 29 H        1.7870     4.7060    -0.4660 H     1 <1>   0.1500 
 30 H       -1.6410    -4.6640     0.9440 H     1 <1>   0.0800 
 31 H       -0.2950    -5.0900     1.9610 H     1 <1>   0.0800 
 32 H        4.6120     0.0220     1.5760 H     1 <1>   0.0800 
 33 H        4.7650     1.7000     2.0720 H     1 <1>   0.0800 
 34 H        6.0450     3.2550     0.1250 H     1 <1>   0.0800 
 35 H        6.3170     2.4050    -1.3900 H     1 <1>   0.0800 
 36 H        2.4750    -6.4380    -0.9110 H     1 <1>   0.0800 
 37 H        1.0320    -6.4590    -1.8770 H     1 <1>   0.0800 
 38 H       -1.2520    -6.5300    -0.5140 H     1 <1>   0.0800 
 39 H       -1.2070    -7.1410     1.1180 H     1 <1>   0.0800 
 40 H        6.9270    -0.2310     1.5450 H     1 <1>   0.0800 
 41 H        6.9550     1.2500     2.4750 H     1 <1>   0.0800 
 42 H        8.0610     2.2010     0.6690 H     1 <1>   0.0800 
 43 H        7.6950     0.8060    -0.3240 H     1 <1>   0.0800 
 44 H        1.2820    -6.9880     1.0820 H     1 <1>   0.0800 
 45 H        0.6820    -8.0660    -0.1480 H     1 <1>   0.0800 
@<TRIPOS>BOND
  1   1   2  2   
  2   2   3  am  
  3   2   4  1   
  4   3   5  1   
  5   3  24  1   
  6   4   6  ar  
  7   4   7  ar  
  8   5   8  1   
  9   5   9  2   
 10   6  10  ar  
 11   6  25  1   
 12   7  11  ar  
 13   7  26  1   
 14   8  12  1   
 15   8  13  1   
 16   9  14  1   
 17   9  27  1   
 18  10  15  ar  
 19  11  15  ar  
 20  11  16  1   
 21  12  14  2   
 22  13  17  1   
 23  13  18  1   
 24  13  28  1   
 25  14  29  1   
 26  15  19  1   
 27  16  20  1   
 28  16  30  1   
 29  16  31  1   
 30  17  21  1   
 31  17  32  1   
 32  17  33  1   
 33  18  22  1   
 34  18  34  1   
 35  18  35  1   
 36  19  23  1   
 37  19  36  1   
 38  19  37  1   
 39  20  23  1   
 40  20  38  1   
 41  20  39  1   
 42  21  22  1   
 43  21  40  1   
 44  21  41  1   
 45  22  42  1   
 46  22  43  1   
 47  23  44  1   
 48  23  45  1   
@<TRIPOS>SUBSTRUCTURE
  1 ****   3 GROUP 4 **** **** 0

# MOE 2024.06 (io_trps.svl 2023.06)
