@<TRIPOS>MOLECULE
NONAME
55 59 1 0 0 
SMALL
USER_CHARGES


@<TRIPOS>ATOM
  1 O        0.9440    -0.7770     1.7120 O.2   1 <1>  -0.5700 
  2 C        1.2830    -1.2680     0.6590 C.2   1 <1>   0.5690 
  3 N        1.8050    -0.5330    -0.3960 N.am  1 <1>  -0.4770 
  4 C        1.0660    -2.7850     0.5620 C.3   1 <1>   0.1710 
  5 C        2.0200     0.8740    -0.4150 C.ar  1 <1>   0.1170 
  6 C        2.2780    -1.2020    -1.6430 C.3   1 <1>   0.1400 
  7 N        0.0660    -3.2390    -0.4550 N.3   1 <1>  -0.8100 
  8 C        3.0320     1.4160    -1.2270 C.ar  1 <1>   0.0820 
  9 C        1.2440     1.7670     0.3220 C.ar  1 <1>  -0.1500 
 10 C        3.7190    -0.7680    -1.9280 C.3   1 <1>   0.1200 
 11 C       -1.1860    -2.4560    -0.4390 C.3   1 <1>   0.1100 
 12 C       -0.3840    -4.5990    -0.1390 C.3   1 <1>   0.1100 
 13 O        3.8100     0.6390    -2.0310 O.3   1 <1>  -0.3630 
 14 C        3.2650     2.7790    -1.2630 C.ar  1 <1>  -0.1500 
 15 C        1.4790     3.1300     0.2840 C.ar  1 <1>  -0.1500 
 16 C       -2.0570    -3.0380     0.6750 C.3   1 <1>   0.2000 
 17 C       -1.4990    -4.4470     0.9060 C.3   1 <1>  -0.0800 
 18 C        2.4930     3.6400    -0.5050 C.ar  1 <1>  -0.1500 
 19 O       -1.9160    -2.2860     1.8340 O.3   1 <1>  -0.6800 
 20 C       -2.5790    -5.5380     0.8260 C.3   1 <1>  -0.0160 
 21 C       -1.9740    -6.9190     1.0650 C.ar  1 <1>  -0.1440 
 22 C       -1.6130    -7.8150     0.0280 C.ar  1 <1>   0.0000 
 23 C       -1.7480    -7.3210     2.3490 C.ar  1 <1>  -0.1500 
 24 C       -1.0180    -9.0460     0.4040 C.ar  1 <1>   0.3100 
 25 C       -1.8020    -7.5740    -1.3540 C.ar  1 <1>  -0.1500 
 26 C       -1.1650    -8.5650     2.6110 C.ar  1 <1>   0.1600 
 27 N       -0.8030    -9.4040     1.6940 N.ar  1 <1>  -0.6200 
 28 C       -0.6280    -9.9500    -0.5970 C.ar  1 <1>  -0.1500 
 29 C       -1.4130    -8.4780    -2.3050 C.ar  1 <1>  -0.1500 
 30 C       -0.8150    -9.6810    -1.9250 C.ar  1 <1>  -0.1500 
 31 H        0.7670    -3.1200     1.5390 H     1 <1>   0.0800 
 32 H        2.0110    -3.2540     0.3570 H     1 <1>   0.0800 
 33 H        2.2470    -2.2720    -1.5710 H     1 <1>   0.0800 
 34 H        1.6440    -0.9100    -2.4620 H     1 <1>   0.0800 
 35 H        0.4380     1.4090     0.9330 H     1 <1>   0.1500 
 36 H        4.0660    -1.1880    -2.8550 H     1 <1>   0.0800 
 37 H        4.3690    -1.0840    -1.1320 H     1 <1>   0.0800 
 38 H       -1.0330    -1.3960    -0.3310 H     1 <1>   0.0800 
 39 H       -1.6860    -2.6190    -1.3780 H     1 <1>   0.0800 
 40 H       -0.7780    -5.0350    -1.0400 H     1 <1>   0.0800 
 41 H        0.4220    -5.2210     0.2150 H     1 <1>   0.0800 
 42 H        4.0510     3.1610    -1.8890 H     1 <1>   0.1500 
 43 H        0.8680     3.7940     0.8710 H     1 <1>   0.1500 
 44 H       -3.0990    -3.0350     0.4030 H     1 <1>   0.0800 
 45 H       -1.0480    -4.5000     1.8820 H     1 <1>   0.0800 
 46 H        2.6780     4.7000    -0.5330 H     1 <1>   0.1500 
 47 H       -1.0080    -1.9170     1.8990 H     1 <1>   0.4000 
 48 H       -3.1010    -5.4900    -0.1110 H     1 <1>   0.0800 
 49 H       -3.3110    -5.3460     1.5920 H     1 <1>   0.0800 
 50 H       -2.0020    -6.6950     3.1860 H     1 <1>   0.1500 
 51 H       -2.2630    -6.6630    -1.6790 H     1 <1>   0.1500 
 52 H       -1.0060    -8.8400     3.6400 H     1 <1>   0.1500 
 53 H       -0.1730   -10.8700    -0.2790 H     1 <1>   0.1500 
 54 H       -1.5620    -8.2800    -3.3530 H     1 <1>   0.1500 
 55 H       -0.5110   -10.3850    -2.6810 H     1 <1>   0.1500 
@<TRIPOS>BOND
  1   1   2  2   
  2   2   3  am  
  3   2   4  1   
  4   3   5  1   
  5   3   6  1   
  6   4   7  1   
  7   4  31  1   
  8   4  32  1   
  9   5   8  ar  
 10   5   9  ar  
 11   6  10  1   
 12   6  33  1   
 13   6  34  1   
 14   7  11  1   
 15   7  12  1   
 16   8  13  1   
 17   8  14  ar  
 18   9  15  ar  
 19   9  35  1   
 20  10  13  1   
 21  10  36  1   
 22  10  37  1   
 23  11  16  1   
 24  11  38  1   
 25  11  39  1   
 26  12  17  1   
 27  12  40  1   
 28  12  41  1   
 29  14  18  ar  
 30  14  42  1   
 31  15  18  ar  
 32  15  43  1   
 33  16  17  1   
 34  16  19  1   
 35  16  44  1   
 36  17  20  1   
 37  17  45  1   
 38  18  46  1   
 39  19  47  1   
 40  20  21  1   
 41  20  48  1   
 42  20  49  1   
 43  21  22  ar  
 44  21  23  ar  
 45  22  24  ar  
 46  22  25  ar  
 47  23  26  ar  
 48  23  50  1   
 49  24  27  ar  
 50  24  28  ar  
 51  25  29  ar  
 52  25  51  1   
 53  26  27  ar  
 54  26  52  1   
 55  28  30  ar  
 56  28  53  1   
 57  29  30  ar  
 58  29  54  1   
 59  30  55  1   
@<TRIPOS>SUBSTRUCTURE
  1 ****   7 GROUP 4 **** **** 0

# MOE 2024.06 (io_trps.svl 2023.06)
