@<TRIPOS>MOLECULE
NONAME
46 49 1 0 0 
SMALL
USER_CHARGES


@<TRIPOS>ATOM
  1 O       -0.9270     1.3420    -2.3260 O.2   1 <1>  -0.5700 
  2 C       -1.6130     1.3140    -1.3210 C.2   1 <1>   0.7150 
  3 N       -2.2700     0.1500    -0.9910 N.am  1 <1>  -0.6600 
  4 C       -1.7520     2.4930    -0.5120 C.2   1 <1>  -0.2370 
  5 C       -2.6250    -0.8290    -2.0590 C.3   1 <1>   0.1400 
  6 C       -2.5200    -0.2710     0.4130 C.3   1 <1>   0.1400 
  7 N       -2.9440     2.8710     0.0390 N.pl3 1 <1>   0.0330 
  8 C       -0.8220     3.4380    -0.1630 C.2   1 <1>  -0.1500 
  9 C       -3.3280    -2.0670    -1.4920 C.3   1 <1>  -0.1600 
 10 C       -3.9850    -0.6850     0.5720 C.3   1 <1>  -0.1600 
 11 C       -2.7570     4.0190     0.7330 C.2   1 <1>  -0.3020 
 12 C       -1.4550     4.3950     0.6270 C.2   1 <1>  -0.1500 
 13 C       -4.4520    -1.6970    -0.5050 C.3   1 <1>   0.4240 
 14 O       -5.3820    -1.0120    -1.3140 O.3   1 <1>  -0.5600 
 15 C       -5.0580    -2.9820     0.1230 C.ar  1 <1>  -0.1430 
 16 C       -6.7120    -1.0050    -0.9070 C.3   1 <1>   0.1200 
 17 C       -4.3030    -3.8160     0.9580 C.ar  1 <1>   0.0820 
 18 C       -6.3810    -3.3300    -0.1370 C.ar  1 <1>  -0.1430 
 19 C       -7.2430    -2.4280    -0.9960 C.3   1 <1>  -0.0170 
 20 O       -3.0220    -3.4610     1.2500 O.3   1 <1>  -0.3630 
 21 C       -4.8690    -4.9770     1.4820 C.ar  1 <1>  -0.1500 
 22 C       -6.9330    -4.4860     0.3880 C.ar  1 <1>  -0.1500 
 23 C       -2.1620    -4.2840     2.0090 C.3   1 <1>   0.0400 
 24 C       -6.1760    -5.3110     1.1950 C.ar  1 <1>  -0.1500 
 25 H       -1.7330    -1.1240    -2.5850 H     1 <1>   0.0800 
 26 H       -3.2780    -0.3400    -2.7620 H     1 <1>   0.0800 
 27 H       -2.2770     0.5170     1.1040 H     1 <1>   0.0800 
 28 H       -1.8800    -1.1070     0.6410 H     1 <1>   0.0800 
 29 H       -3.8240     2.3560    -0.0840 H     1 <1>   0.2700 
 30 H        0.2170     3.4480    -0.4490 H     1 <1>   0.1500 
 31 H       -2.5870    -2.6810    -1.0200 H     1 <1>   0.0800 
 32 H       -3.7420    -2.6480    -2.2950 H     1 <1>   0.0800 
 33 H       -4.5940     0.1980     0.5450 H     1 <1>   0.0800 
 34 H       -4.1030    -1.1130     1.5500 H     1 <1>   0.0800 
 35 H       -3.5530     4.5150     1.2620 H     1 <1>   0.1500 
 36 H       -0.9810     5.2610     1.0560 H     1 <1>   0.1500 
 37 H       -7.2570    -0.3540    -1.5670 H     1 <1>   0.0800 
 38 H       -6.7730    -0.6280     0.1000 H     1 <1>   0.0800 
 39 H       -7.2190    -2.7610    -2.0180 H     1 <1>   0.0800 
 40 H       -8.2620    -2.4470    -0.6530 H     1 <1>   0.0800 
 41 H       -4.3120    -5.6360     2.1190 H     1 <1>   0.1500 
 42 H       -7.9540    -4.7490     0.1730 H     1 <1>   0.1500 
 43 H       -1.2010    -3.8050     2.0610 H     1 <1>   0.0800 
 44 H       -2.0690    -5.2370     1.5190 H     1 <1>   0.0800 
 45 H       -2.5690    -4.3950     2.9990 H     1 <1>   0.0800 
 46 H       -6.6070    -6.2100     1.6010 H     1 <1>   0.1500 
@<TRIPOS>BOND
  1   1   2  2   
  2   2   3  am  
  3   2   4  1   
  4   3   5  1   
  5   3   6  1   
  6   4   7  1   
  7   4   8  2   
  8   5   9  1   
  9   5  25  1   
 10   5  26  1   
 11   6  10  1   
 12   6  27  1   
 13   6  28  1   
 14   7  11  1   
 15   7  29  1   
 16   8  12  1   
 17   8  30  1   
 18   9  13  1   
 19   9  31  1   
 20   9  32  1   
 21  10  13  1   
 22  10  33  1   
 23  10  34  1   
 24  11  12  2   
 25  11  35  1   
 26  12  36  1   
 27  13  14  1   
 28  13  15  1   
 29  14  16  1   
 30  15  17  ar  
 31  15  18  ar  
 32  16  19  1   
 33  16  37  1   
 34  16  38  1   
 35  17  20  1   
 36  17  21  ar  
 37  18  19  1   
 38  18  22  ar  
 39  19  39  1   
 40  19  40  1   
 41  20  23  1   
 42  21  24  ar  
 43  21  41  1   
 44  22  24  ar  
 45  22  42  1   
 46  23  43  1   
 47  23  44  1   
 48  23  45  1   
 49  24  46  1   
@<TRIPOS>SUBSTRUCTURE
  1 ****  10 GROUP 4 **** **** 0

# MOE 2024.06 (io_trps.svl 2023.06)
