@<TRIPOS>MOLECULE
NONAME
38 39 1 0 0 
SMALL
USER_CHARGES


@<TRIPOS>ATOM
  1 S       -0.0030     0.5090    -0.9000 S.3   1 <1>  -0.0800 
  2 C       -0.8710     1.2900     0.3950 C.2   1 <1>  -0.1400 
  3 C       -0.9590    -0.9310    -0.6340 C.2   1 <1>   0.2280 
  4 C       -1.7710     0.4220     0.8900 C.2   1 <1>   0.0460 
  5 C       -0.4880     2.7200     0.7270 C.3   1 <1>   0.0200 
  6 N       -1.8140    -0.8300     0.3020 N.2   1 <1>  -0.5650 
  7 C       -2.7520     0.6570     2.0200 C.3   1 <1>  -0.0590 
  8 C       -1.0000     3.6830    -0.3490 C.3   1 <1>  -0.0990 
  9 C       -0.6100     5.1080    -0.0240 C.2   1 <1>   0.5690 
 10 O       -1.1830     5.6620     0.8820 O.2   1 <1>  -0.5700 
 11 N        0.3780     5.6920    -0.7580 N.am  1 <1>  -0.4930 
 12 C        0.9200     6.9950    -0.6290 C.2   1 <1>   0.0630 
 13 C        0.5670     8.0200     0.2510 C.2   1 <1>   0.1390 
 14 C        1.9260     7.5130    -1.3640 C.2   1 <1>  -0.3020 
 15 N        1.2930     9.0860     0.0840 N.2   1 <1>  -0.7070 
 16 N        2.1350     8.7730    -0.9210 N.pl3 1 <1>   0.3140 
 17 C        3.1420     9.7260    -1.4110 C.3   1 <1>   0.1570 
 18 C        4.3370     9.7400    -0.4850 C.2   1 <1>   0.5690 
 19 O        5.4400     9.7240    -0.9760 O.2   1 <1>  -0.5700 
 20 N        4.1440     9.7810     0.8610 N.am  1 <1>  -0.7300 
 21 C        5.2040     9.8000     1.8970 C.3   1 <1>   0.0600 
 22 H       -0.7590    -1.7770    -1.2670 H     1 <1>   0.1500 
 23 H        0.5830     2.7910     0.8110 H     1 <1>   0.0800 
 24 H       -0.9080     2.9970     1.6780 H     1 <1>   0.0800 
 25 H       -2.6720     1.6560     2.4030 H     1 <1>   0.0800 
 26 H       -2.5560    -0.0390     2.8150 H     1 <1>   0.0800 
 27 H       -3.7530     0.5000     1.6630 H     1 <1>   0.0800 
 28 H       -2.0720     3.6250    -0.3960 H     1 <1>   0.0800 
 29 H       -0.6100     3.4050    -1.3110 H     1 <1>   0.0800 
 30 H        0.7970     5.1300    -1.4960 H     1 <1>   0.3700 
 31 H       -0.2160     7.9410     0.9870 H     1 <1>   0.1500 
 32 H        2.4970     7.0680    -2.1570 H     1 <1>   0.1500 
 33 H        2.7050    10.7050    -1.4430 H     1 <1>   0.0800 
 34 H        3.4490     9.4410    -2.3980 H     1 <1>   0.0800 
 35 H        3.1710     9.7070     1.1990 H     1 <1>   0.3700 
 36 H        6.1770     9.8460     1.4360 H     1 <1>   0.0800 
 37 H        5.1440     8.9070     2.4950 H     1 <1>   0.0800 
 38 H        5.0780    10.6610     2.5310 H     1 <1>   0.0800 
@<TRIPOS>BOND
  1   1   2  1   
  2   1   3  1   
  3   2   4  2   
  4   2   5  1   
  5   3   6  2   
  6   3  22  1   
  7   4   6  1   
  8   4   7  1   
  9   5   8  1   
 10   5  23  1   
 11   5  24  1   
 12   7  25  1   
 13   7  26  1   
 14   7  27  1   
 15   8   9  1   
 16   8  28  1   
 17   8  29  1   
 18   9  10  2   
 19   9  11  am  
 20  11  12  1   
 21  11  30  1   
 22  12  13  1   
 23  12  14  2   
 24  13  15  2   
 25  13  31  1   
 26  14  16  1   
 27  14  32  1   
 28  15  16  1   
 29  16  17  1   
 30  17  18  1   
 31  17  33  1   
 32  17  34  1   
 33  18  19  2   
 34  18  20  am  
 35  20  21  1   
 36  20  35  1   
 37  21  36  1   
 38  21  37  1   
 39  21  38  1   
@<TRIPOS>SUBSTRUCTURE
  1 ****  11 GROUP 4 **** **** 0

# MOE 2024.06 (io_trps.svl 2023.06)
