@<TRIPOS>MOLECULE
NONAME
53 55 1 0 0 
SMALL
USER_CHARGES


@<TRIPOS>ATOM
  1 O        2.0380    -0.9870    -2.8630 O.2   1 <1>  -0.5700 
  2 C        1.6160    -1.2020    -1.7520 C.2   1 <1>   0.5690 
  3 N        1.5340    -0.2320    -0.8050 N.am  1 <1>  -0.7300 
  4 C        1.1600    -2.6170    -1.3800 C.3   1 <1>   0.1710 
  5 C        1.9320     1.1790    -0.9600 C.3   1 <1>   0.1400 
  6 N        0.1310    -2.6720    -0.2980 N.3   1 <1>  -0.8100 
  7 C        2.9650     1.5280     0.1130 C.3   1 <1>  -0.1600 
  8 C       -0.0270    -4.0560     0.2020 C.3   1 <1>   0.1100 
  9 C       -1.1800    -2.1840    -0.7960 C.3   1 <1>   0.1100 
 10 C        3.4860     2.9680    -0.0330 C.3   1 <1>  -0.0800 
 11 C       -1.0930    -4.1700     1.3120 C.3   1 <1>   0.2090 
 12 C       -2.2670    -2.2100     0.2950 C.3   1 <1>   0.2090 
 13 C        4.5470     3.3130     1.0190 C.3   1 <1>   0.1200 
 14 C        2.4050     4.0240     0.1860 C.3   1 <1>  -0.1600 
 15 N       -2.3980    -3.5650     0.9050 N.pl3 1 <1>  -0.8380 
 16 O        4.0000     4.3170     1.8110 O.3   1 <1>  -0.5600 
 17 C        3.0910     5.0520     1.0690 C.3   1 <1>   0.1200 
 18 C       -3.4730    -4.3620     0.5100 C.ar  1 <1>   0.1000 
 19 C       -4.7600    -4.0070     0.8930 C.ar  1 <1>  -0.1500 
 20 C       -3.3070    -5.5030    -0.2690 C.ar  1 <1>  -0.1500 
 21 C       -5.8590    -4.7590     0.5150 C.ar  1 <1>  -0.1440 
 22 C       -4.3970    -6.2630    -0.6510 C.ar  1 <1>  -0.1500 
 23 C       -5.6720    -5.8920    -0.2610 C.ar  1 <1>  -0.1500 
 24 C       -7.2600    -4.3590     0.9420 C.3   1 <1>  -0.0970 
 25 H        1.1140    -0.5140     0.0870 H     1 <1>   0.3700 
 26 H        2.0360    -3.1510    -1.0590 H     1 <1>   0.0800 
 27 H        0.7860    -3.1010    -2.2650 H     1 <1>   0.0800 
 28 H        1.0600     1.8030    -0.8660 H     1 <1>   0.0800 
 29 H        2.3550     1.3310    -1.9400 H     1 <1>   0.0800 
 30 H        3.7950     0.8490     0.0210 H     1 <1>   0.0800 
 31 H        2.5290     1.4000     1.0890 H     1 <1>   0.0800 
 32 H        0.9130    -4.4000     0.5970 H     1 <1>   0.0800 
 33 H       -0.3020    -4.7050    -0.6110 H     1 <1>   0.0800 
 34 H       -1.5100    -2.7950    -1.6190 H     1 <1>   0.0800 
 35 H       -1.0800    -1.1740    -1.1530 H     1 <1>   0.0800 
 36 H        3.9290     3.0890    -1.0070 H     1 <1>   0.0800 
 37 H       -0.7380    -3.6610     2.1900 H     1 <1>   0.0800 
 38 H       -1.2400    -5.2030     1.5710 H     1 <1>   0.0800 
 39 H       -3.2070    -1.9150    -0.1360 H     1 <1>   0.0800 
 40 H       -2.0160    -1.5020     1.0640 H     1 <1>   0.0800 
 41 H        5.4380     3.7020     0.5570 H     1 <1>   0.0800 
 42 H        4.7980     2.4800     1.6510 H     1 <1>   0.0800 
 43 H        1.5660     3.6210     0.7260 H     1 <1>   0.0800 
 44 H        2.0600     4.4600    -0.7340 H     1 <1>   0.0800 
 45 H        2.4100     5.5520     1.7360 H     1 <1>   0.0800 
 46 H        3.6400     5.7710     0.4850 H     1 <1>   0.0800 
 47 H       -4.8820    -3.1300     1.5000 H     1 <1>   0.1500 
 48 H       -2.3250    -5.7940    -0.5810 H     1 <1>   0.1500 
 49 H       -4.2570    -7.1440    -1.2520 H     1 <1>   0.1500 
 50 H       -6.5170    -6.4860    -0.5610 H     1 <1>   0.1500 
 51 H       -7.2310    -3.5140     1.6050 H     1 <1>   0.0800 
 52 H       -7.7340    -5.1780     1.4520 H     1 <1>   0.0800 
 53 H       -7.8440    -4.1000     0.0780 H     1 <1>   0.0800 
@<TRIPOS>BOND
  1   1   2  2   
  2   2   3  am  
  3   2   4  1   
  4   3   5  1   
  5   3  25  1   
  6   4   6  1   
  7   4  26  1   
  8   4  27  1   
  9   5   7  1   
 10   5  28  1   
 11   5  29  1   
 12   6   8  1   
 13   6   9  1   
 14   7  10  1   
 15   7  30  1   
 16   7  31  1   
 17   8  11  1   
 18   8  32  1   
 19   8  33  1   
 20   9  12  1   
 21   9  34  1   
 22   9  35  1   
 23  10  13  1   
 24  10  14  1   
 25  10  36  1   
 26  11  15  1   
 27  11  37  1   
 28  11  38  1   
 29  12  15  1   
 30  12  39  1   
 31  12  40  1   
 32  13  16  1   
 33  13  41  1   
 34  13  42  1   
 35  14  17  1   
 36  14  43  1   
 37  14  44  1   
 38  15  18  1   
 39  16  17  1   
 40  17  45  1   
 41  17  46  1   
 42  18  19  ar  
 43  18  20  ar  
 44  19  21  ar  
 45  19  47  1   
 46  20  22  ar  
 47  20  48  1   
 48  21  23  ar  
 49  21  24  1   
 50  22  23  ar  
 51  22  49  1   
 52  23  50  1   
 53  24  51  1   
 54  24  52  1   
 55  24  53  1   
@<TRIPOS>SUBSTRUCTURE
  1 ****   9 GROUP 4 **** **** 0

# MOE 2024.06 (io_trps.svl 2023.06)
