@<TRIPOS>MOLECULE
NONAME
51 53 1 0 0 
SMALL
USER_CHARGES


@<TRIPOS>ATOM
  1 S       -3.2750    -5.0810     2.8220 S.3   1 <1>  -0.0800 
  2 C       -2.8020    -4.0490     1.4840 C.2   1 <1>  -0.1100 
  3 C       -4.7380    -4.1510     3.0800 C.2   1 <1>  -0.1100 
  4 C       -3.7250    -3.0910     1.2690 C.2   1 <1>  -0.1810 
  5 C       -4.8310    -3.1530     2.1830 C.2   1 <1>  -0.1500 
  6 C       -3.6650    -2.0190     0.2000 C.3   1 <1>   0.5240 
  7 N       -4.7060    -2.3650    -0.7940 N.4   1 <1>  -0.9590 
  8 C       -4.2930    -3.4700    -1.7210 C.3   1 <1>   0.3430 
  9 C       -5.2940    -1.1970    -1.4910 C.3   1 <1>   0.3430 
 10 C       -5.5020    -4.0580    -2.4870 C.3   1 <1>   0.1400 
 11 C       -6.8180    -1.3000    -1.3860 C.3   1 <1>  -0.1600 
 12 N       -6.7800    -3.8010    -1.7470 N.am  1 <1>  -0.6600 
 13 C       -7.4530    -2.5100    -2.0910 C.3   1 <1>   0.1400 
 14 C       -7.1490    -4.5160    -0.6420 C.2   1 <1>   0.5690 
 15 O       -7.5530    -3.9500     0.3470 O.2   1 <1>  -0.5700 
 16 C       -6.9980    -6.0340    -0.5920 C.3   1 <1>  -0.0190 
 17 C       -8.2110    -6.6290     0.1460 C.3   1 <1>   0.3430 
 18 C       -5.6530    -6.4450     0.0600 C.3   1 <1>  -0.1600 
 19 N       -8.0290    -6.4690     1.6190 N.4   1 <1>  -0.9590 
 20 C       -5.8270    -7.5780     1.0840 C.3   1 <1>  -0.1600 
 21 C       -6.8710    -7.2510     2.1660 C.3   1 <1>   0.3430 
 22 C       -9.2880    -6.7480     2.3710 C.3   1 <1>   0.2630 
 23 H       -1.8640    -4.2820     1.0070 H     1 <1>   0.1500 
 24 H       -5.3750    -4.4470     3.8950 H     1 <1>   0.1500 
 25 H       -5.6430    -2.4440     2.1470 H     1 <1>   0.1500 
 26 H       -2.6910    -1.9890    -0.2610 H     1 <1>   0.0800 
 27 H       -3.8700    -1.0610     0.6490 H     1 <1>   0.0800 
 28 H       -5.4900    -2.7590    -0.2460 H     1 <1>   0.4500 
 29 H       -3.8460    -4.2630    -1.1440 H     1 <1>   0.0800 
 30 H       -3.5510    -3.1220    -2.4220 H     1 <1>   0.0800 
 31 H       -4.9870    -1.1740    -2.5250 H     1 <1>   0.0800 
 32 H       -4.9720    -0.2810    -1.0200 H     1 <1>   0.0800 
 33 H       -5.3530    -5.1130    -2.6380 H     1 <1>   0.0800 
 34 H       -5.5550    -3.6080    -3.4640 H     1 <1>   0.0800 
 35 H       -7.2430    -0.4110    -1.8170 H     1 <1>   0.0800 
 36 H       -7.1080    -1.3000    -0.3500 H     1 <1>   0.0800 
 37 H       -7.4240    -2.3680    -3.1590 H     1 <1>   0.0800 
 38 H       -8.4930    -2.5700    -1.8090 H     1 <1>   0.0800 
 39 H       -7.0350    -6.4080    -1.5990 H     1 <1>   0.0800 
 40 H       -8.3040    -7.6770    -0.0930 H     1 <1>   0.0800 
 41 H       -9.1080    -6.1250    -0.1760 H     1 <1>   0.0800 
 42 H       -5.2250    -5.6000     0.5710 H     1 <1>   0.0800 
 43 H       -4.9540    -6.7520    -0.6990 H     1 <1>   0.0800 
 44 H       -7.8090    -5.4590     1.7340 H     1 <1>   0.4500 
 45 H       -4.8850    -7.7850     1.5640 H     1 <1>   0.0800 
 46 H       -6.1220    -8.4820     0.5780 H     1 <1>   0.0800 
 47 H       -7.2200    -8.1760     2.5970 H     1 <1>   0.0800 
 48 H       -6.4010    -6.6800     2.9510 H     1 <1>   0.0800 
 49 H       -9.5750    -7.7800     2.2510 H     1 <1>   0.0800 
 50 H      -10.0870    -6.1220     2.0070 H     1 <1>   0.0800 
 51 H       -9.1490    -6.5480     3.4210 H     1 <1>   0.0800 
@<TRIPOS>BOND
  1   1   2  1   
  2   1   3  1   
  3   2   4  2   
  4   2  23  1   
  5   3   5  2   
  6   3  24  1   
  7   4   5  1   
  8   4   6  1   
  9   5  25  1   
 10   6   7  1   
 11   6  26  1   
 12   6  27  1   
 13   7   8  1   
 14   7   9  1   
 15   7  28  1   
 16   8  10  1   
 17   8  29  1   
 18   8  30  1   
 19   9  11  1   
 20   9  31  1   
 21   9  32  1   
 22  10  12  1   
 23  10  33  1   
 24  10  34  1   
 25  11  13  1   
 26  11  35  1   
 27  11  36  1   
 28  12  13  1   
 29  12  14  am  
 30  13  37  1   
 31  13  38  1   
 32  14  15  2   
 33  14  16  1   
 34  16  17  1   
 35  16  18  1   
 36  16  39  1   
 37  17  19  1   
 38  17  40  1   
 39  17  41  1   
 40  18  20  1   
 41  18  42  1   
 42  18  43  1   
 43  19  21  1   
 44  19  22  1   
 45  19  44  1   
 46  20  21  1   
 47  20  45  1   
 48  20  46  1   
 49  21  47  1   
 50  21  48  1   
 51  22  49  1   
 52  22  50  1   
 53  22  51  1   
@<TRIPOS>SUBSTRUCTURE
  1 ****  14 GROUP 4 **** **** 0

# MOE 2024.06 (io_trps.svl 2023.06)
