@<TRIPOS>MOLECULE
NONAME
48 49 1 0 0 
SMALL
USER_CHARGES


@<TRIPOS>ATOM
  1 O       -1.1460     0.5010    -1.6220 O.2   1 <1>  -0.5700 
  2 C       -2.0670     1.2940    -1.5560 C.2   1 <1>   0.5440 
  3 N       -3.3250     0.8800    -1.9480 N.am  1 <1>  -0.6600 
  4 C       -1.8320     2.6070    -1.0080 C.ar  1 <1>   0.0860 
  5 C       -3.4960    -0.4350    -2.6290 C.3   1 <1>   0.3200 
  6 C       -4.5830     1.6650    -1.7200 C.3   1 <1>   0.1400 
  7 C       -1.6970     2.7840     0.3710 C.ar  1 <1>   0.0820 
  8 C       -1.7370     3.7340    -1.8230 C.ar  1 <1>  -0.1500 
  9 C       -3.6380    -1.4910    -1.5560 C.2   1 <1>  -0.3320 
 10 C       -5.4430     1.0550    -0.5930 C.3   1 <1>   0.3430 
 11 O       -1.8130     1.7250     1.1950 O.3   1 <1>  -0.3630 
 12 C       -1.4820     4.0420     0.9140 C.ar  1 <1>  -0.1500 
 13 C       -1.5240     4.9890    -1.2850 C.ar  1 <1>  -0.1500 
 14 N       -2.6140    -1.8060    -0.7430 N.pl3 1 <1>   0.0330 
 15 C       -4.6730    -2.2790    -1.1920 C.2   1 <1>   0.0770 
 16 N       -4.6970     0.9780     0.7000 N.4   1 <1>  -0.9590 
 17 C       -0.6110     1.1640     1.6690 C.3   1 <1>   0.1200 
 18 C       -1.3960     5.1450     0.0860 C.ar  1 <1>  -0.1500 
 19 C       -3.1010    -2.7490     0.0880 C.2   1 <1>   0.0360 
 20 N       -4.3410    -3.0460    -0.1370 N.2   1 <1>  -0.5650 
 21 C       -5.1680    -0.1670     1.5350 C.3   1 <1>   0.2630 
 22 C       -4.7520     2.2580     1.4680 C.3   1 <1>   0.2630 
 23 C       -0.9640    -0.0480     2.5260 C.3   1 <1>  -0.2400 
 24 H       -2.6390    -0.6500    -3.2470 H     1 <1>   0.0800 
 25 H       -4.3660    -0.4200    -3.2640 H     1 <1>   0.0800 
 26 H       -5.1560     1.6770    -2.6310 H     1 <1>   0.0800 
 27 H       -4.3550     2.6870    -1.4790 H     1 <1>   0.0800 
 28 H       -1.8240     3.6190    -2.8910 H     1 <1>   0.1500 
 29 H       -5.7350     0.0640    -0.8970 H     1 <1>   0.0800 
 30 H       -6.3410     1.6350    -0.4640 H     1 <1>   0.0800 
 31 H       -1.3800     4.1580     1.9790 H     1 <1>   0.1500 
 32 H       -1.4490     5.8500    -1.9290 H     1 <1>   0.1500 
 33 H       -1.6700    -1.3900    -0.7810 H     1 <1>   0.2700 
 34 H       -5.6560    -2.3400    -1.6310 H     1 <1>   0.1500 
 35 H       -3.7040     0.7920     0.4560 H     1 <1>   0.4500 
 36 H       -0.0860     1.9060     2.2470 H     1 <1>   0.0800 
 37 H       -0.0100     0.8740     0.8220 H     1 <1>   0.0800 
 38 H       -1.2250     6.1250     0.5020 H     1 <1>   0.1500 
 39 H       -2.4960    -3.2000     0.8570 H     1 <1>   0.1500 
 40 H       -6.1940    -0.0240     1.8300 H     1 <1>   0.0800 
 41 H       -4.5610    -0.2560     2.4220 H     1 <1>   0.0800 
 42 H       -5.0950    -1.0890     0.9840 H     1 <1>   0.0800 
 43 H       -5.7660     2.4830     1.7560 H     1 <1>   0.0800 
 44 H       -4.3700     3.0700     0.8710 H     1 <1>   0.0800 
 45 H       -4.1470     2.1810     2.3570 H     1 <1>   0.0800 
 46 H       -1.5600     0.2520     3.3690 H     1 <1>   0.0800 
 47 H       -0.0610    -0.5000     2.8950 H     1 <1>   0.0800 
 48 H       -1.4950    -0.7770     1.9440 H     1 <1>   0.0800 
@<TRIPOS>BOND
  1   1   2  2   
  2   2   3  am  
  3   2   4  1   
  4   3   5  1   
  5   3   6  1   
  6   4   7  ar  
  7   4   8  ar  
  8   5   9  1   
  9   5  24  1   
 10   5  25  1   
 11   6  10  1   
 12   6  26  1   
 13   6  27  1   
 14   7  11  1   
 15   7  12  ar  
 16   8  13  ar  
 17   8  28  1   
 18   9  14  1   
 19   9  15  2   
 20  10  16  1   
 21  10  29  1   
 22  10  30  1   
 23  11  17  1   
 24  12  18  ar  
 25  12  31  1   
 26  13  18  ar  
 27  13  32  1   
 28  14  19  1   
 29  14  33  1   
 30  15  20  1   
 31  15  34  1   
 32  16  21  1   
 33  16  22  1   
 34  16  35  1   
 35  17  23  1   
 36  17  36  1   
 37  17  37  1   
 38  18  38  1   
 39  19  20  2   
 40  19  39  1   
 41  21  40  1   
 42  21  41  1   
 43  21  42  1   
 44  22  43  1   
 45  22  44  1   
 46  22  45  1   
 47  23  46  1   
 48  23  47  1   
 49  23  48  1   
@<TRIPOS>SUBSTRUCTURE
  1 ****   2 GROUP 4 **** **** 0

# MOE 2024.06 (io_trps.svl 2023.06)
