@<TRIPOS>MOLECULE
NONAME
51 53 1 0 0 
SMALL
USER_CHARGES


@<TRIPOS>ATOM
  1 O       -1.8410    -0.1300     2.2540 O.2   1 <1>  -0.5700 
  2 C       -1.9580     0.5060     1.2260 C.2   1 <1>   0.5440 
  3 N       -2.5240    -0.0830     0.1200 N.am  1 <1>  -0.6600 
  4 C       -1.5100     1.8780     1.1860 C.ar  1 <1>   0.0860 
  5 C       -2.6350    -1.5790     0.0560 C.3   1 <1>   0.3640 
  6 C       -3.1550     0.7430    -0.9550 C.3   1 <1>   0.1400 
  7 C       -0.3530     2.2810     0.5230 C.ar  1 <1>  -0.1440 
  8 C       -2.2610     2.8590     1.8270 C.ar  1 <1>   0.1600 
  9 C       -1.2620    -2.1410    -0.3240 C.ar  1 <1>  -0.1440 
 10 C       -3.7370    -2.1290    -0.8990 C.3   1 <1>   0.2000 
 11 C       -3.8980    -0.0800    -2.0160 C.3   1 <1>   0.1200 
 12 C       -0.0590     3.6290     0.5320 C.ar  1 <1>  -0.1500 
 13 C        0.5640     1.2860    -0.1770 C.3   1 <1>  -0.0960 
 14 N       -1.9970     4.1570     1.8370 N.ar  1 <1>  -0.6200 
 15 C       -0.5970    -2.9720     0.5670 C.ar  1 <1>  -0.1500 
 16 C       -0.6560    -1.8360    -1.5370 C.ar  1 <1>  -0.1500 
 17 O       -4.5800    -1.1320    -1.4140 O.3   1 <1>  -0.5600 
 18 C       -4.6370    -3.1630    -0.2070 C.3   1 <1>   0.1200 
 19 C       -0.9000     4.5110     1.1890 C.ar  1 <1>   0.1600 
 20 C        0.6450    -3.5000     0.2560 C.ar  1 <1>   0.0830 
 21 C        0.5920    -2.3460    -1.8500 C.ar  1 <1>  -0.1500 
 22 O       -3.8920    -4.2560     0.2280 O.3   1 <1>  -0.6800 
 23 O        1.2130    -4.3370     1.1560 O.3   1 <1>  -0.3630 
 24 C        1.2580    -3.1650    -0.9560 C.ar  1 <1>   0.0830 
 25 C        1.2730    -5.6940     0.7810 C.3   1 <1>   0.0400 
 26 O        2.4920    -3.6000    -1.3130 O.3   1 <1>  -0.3630 
 27 C        3.5660    -3.2250    -0.4760 C.3   1 <1>   0.0400 
 28 H       -2.8710    -1.9330     1.0460 H     1 <1>   0.0800 
 29 H       -3.8610     1.4140    -0.4980 H     1 <1>   0.0800 
 30 H       -2.4030     1.3420    -1.4380 H     1 <1>   0.0800 
 31 H       -3.1400     2.5390     2.3610 H     1 <1>   0.1500 
 32 H       -3.2750    -2.6080    -1.7440 H     1 <1>   0.0800 
 33 H       -3.2210    -0.4760    -2.7520 H     1 <1>   0.0800 
 34 H       -4.6210     0.5380    -2.5190 H     1 <1>   0.0800 
 35 H        0.8180     4.0050     0.0380 H     1 <1>   0.1500 
 36 H        1.5290     1.7210    -0.3670 H     1 <1>   0.0800 
 37 H        0.1340     0.9800    -1.1130 H     1 <1>   0.0800 
 38 H        0.7080     0.4120     0.4360 H     1 <1>   0.0800 
 39 H       -1.0410    -3.2200     1.5160 H     1 <1>   0.1500 
 40 H       -1.1470    -1.1930    -2.2420 H     1 <1>   0.1500 
 41 H       -5.3910    -3.5210    -0.8860 H     1 <1>   0.0800 
 42 H       -5.1100    -2.7240     0.6550 H     1 <1>   0.0800 
 43 H       -0.6560     5.5610     1.1850 H     1 <1>   0.1500 
 44 H        1.0610    -2.1060    -2.7870 H     1 <1>   0.1500 
 45 H       -3.5260    -4.7590    -0.5270 H     1 <1>   0.4000 
 46 H        1.7030    -6.2490     1.5950 H     1 <1>   0.0800 
 47 H        1.8870    -5.7930    -0.0970 H     1 <1>   0.0800 
 48 H        0.2750    -6.0420     0.5820 H     1 <1>   0.0800 
 49 H        4.4840    -3.4550    -0.9860 H     1 <1>   0.0800 
 50 H        3.5120    -3.7780     0.4430 H     1 <1>   0.0800 
 51 H        3.5040    -2.1690    -0.2820 H     1 <1>   0.0800 
@<TRIPOS>BOND
  1   1   2  2   
  2   2   3  am  
  3   2   4  1   
  4   3   5  1   
  5   3   6  1   
  6   4   7  ar  
  7   4   8  ar  
  8   5   9  1   
  9   5  10  1   
 10   5  28  1   
 11   6  11  1   
 12   6  29  1   
 13   6  30  1   
 14   7  12  ar  
 15   7  13  1   
 16   8  14  ar  
 17   8  31  1   
 18   9  15  ar  
 19   9  16  ar  
 20  10  17  1   
 21  10  18  1   
 22  10  32  1   
 23  11  17  1   
 24  11  33  1   
 25  11  34  1   
 26  12  19  ar  
 27  12  35  1   
 28  13  36  1   
 29  13  37  1   
 30  13  38  1   
 31  14  19  ar  
 32  15  20  ar  
 33  15  39  1   
 34  16  21  ar  
 35  16  40  1   
 36  18  22  1   
 37  18  41  1   
 38  18  42  1   
 39  19  43  1   
 40  20  23  1   
 41  20  24  ar  
 42  21  24  ar  
 43  21  44  1   
 44  22  45  1   
 45  23  25  1   
 46  24  26  1   
 47  25  46  1   
 48  25  47  1   
 49  25  48  1   
 50  26  27  1   
 51  27  49  1   
 52  27  50  1   
 53  27  51  1   
@<TRIPOS>SUBSTRUCTURE
  1 ****   9 GROUP 4 **** **** 0

# MOE 2024.06 (io_trps.svl 2023.06)
