@<TRIPOS>MOLECULE
NONAME
54 56 1 0 0 
SMALL
USER_CHARGES


@<TRIPOS>ATOM
  1 O        0.4380    -0.7610    -0.4990 O.3   1 <1>  -0.3630 
  2 C        0.1640    -2.0480    -0.7830 C.ar  1 <1>   0.3920 
  3 C        1.5400    -0.4120     0.3130 C.3   1 <1>   0.1200 
  4 N        0.9210    -3.0060    -0.2570 N.ar  1 <1>  -0.6200 
  5 C       -0.9120    -2.2900    -1.6230 C.ar  1 <1>  -0.1500 
  6 C        1.5830     1.1090     0.4280 C.3   1 <1>  -0.2400 
  7 C        0.5910    -4.2400    -0.5810 C.ar  1 <1>   0.1600 
  8 C       -1.2540    -3.5840    -1.9430 C.ar  1 <1>  -0.1500 
  9 C       -0.4810    -4.5890    -1.3890 C.ar  1 <1>  -0.1440 
 10 C       -0.7980    -6.0460    -1.6440 C.3   1 <1>   0.4860 
 11 N       -1.5670    -6.5810    -0.4730 N.4   1 <1>  -0.9590 
 12 C       -1.7220    -8.0810    -0.5260 C.3   1 <1>   0.3430 
 13 C       -2.8780    -5.8600    -0.3110 C.3   1 <1>   0.3430 
 14 C       -2.7450    -8.5370     0.5490 C.3   1 <1>   0.4230 
 15 C       -3.8220    -6.5870     0.6720 C.3   1 <1>  -0.1600 
 16 N       -2.6060    -9.9270     1.1440 N.4   1 <1>  -0.9590 
 17 C       -4.2140    -8.0590     0.1220 C.3   1 <1>   0.0000 
 18 C       -2.6760   -11.0270     0.1640 C.3   1 <1>   0.3430 
 19 C       -1.4410   -10.1040     2.0720 C.3   1 <1>   0.2630 
 20 C       -4.6190    -9.4930    -0.5070 C.3   1 <1>  -0.1600 
 21 C       -5.6950    -7.5350    -0.2140 C.3   1 <1>   0.1200 
 22 C       -3.6090   -10.5850    -0.9410 C.3   1 <1>  -0.1600 
 23 O       -6.3910    -7.5060     0.9900 O.3   1 <1>  -0.6800 
 24 H        1.4100    -0.8680     1.2790 H     1 <1>   0.0800 
 25 H        2.4360    -0.7880    -0.1500 H     1 <1>   0.0800 
 26 H       -1.4620    -1.4520    -2.0120 H     1 <1>   0.1500 
 27 H        0.6780     1.4710     0.8810 H     1 <1>   0.0800 
 28 H        1.7020     1.5500    -0.5450 H     1 <1>   0.0800 
 29 H        2.4150     1.4020     1.0420 H     1 <1>   0.0800 
 30 H        1.2220    -5.0090    -0.1680 H     1 <1>   0.1500 
 31 H       -2.0870    -3.7760    -2.6000 H     1 <1>   0.1500 
 32 H        0.1250    -6.5920    -1.7690 H     1 <1>   0.0800 
 33 H       -1.3740    -6.1420    -2.5510 H     1 <1>   0.0800 
 34 H       -1.0060    -6.3220     0.3530 H     1 <1>   0.4500 
 35 H       -2.0800    -8.3730    -1.4990 H     1 <1>   0.0800 
 36 H       -0.7690    -8.5500    -0.3460 H     1 <1>   0.0800 
 37 H       -2.6980    -4.8540     0.0410 H     1 <1>   0.0800 
 38 H       -3.3700    -5.7840    -1.2680 H     1 <1>   0.0800 
 39 H       -2.4280    -7.9660     1.3990 H     1 <1>   0.0800 
 40 H       -3.4240    -6.5670     1.6740 H     1 <1>   0.0800 
 41 H       -4.6150    -5.8690     0.8190 H     1 <1>   0.0800 
 42 H       -3.4590   -10.0370     1.7200 H     1 <1>   0.4500 
 43 H       -1.7020   -11.2530    -0.2430 H     1 <1>   0.0800 
 44 H       -3.0620   -11.9150     0.6410 H     1 <1>   0.0800 
 45 H       -0.5090   -10.0240     1.5370 H     1 <1>   0.0800 
 46 H       -1.4820   -11.0760     2.5380 H     1 <1>   0.0800 
 47 H       -1.4620    -9.3580     2.8510 H     1 <1>   0.0800 
 48 H       -5.3310    -9.9660     0.1550 H     1 <1>   0.0800 
 49 H       -5.1050    -9.3770    -1.4650 H     1 <1>   0.0800 
 50 H       -6.3440    -8.0950    -0.8660 H     1 <1>   0.0800 
 51 H       -5.7260    -6.5530    -0.6610 H     1 <1>   0.0800 
 52 H       -3.0300   -10.2470    -1.7820 H     1 <1>   0.0800 
 53 H       -4.1490   -11.4520    -1.2870 H     1 <1>   0.0800 
 54 H       -7.3310    -7.2550     0.8590 H     1 <1>   0.4000 
@<TRIPOS>BOND
  1   1   2  1   
  2   1   3  1   
  3   2   4  ar  
  4   2   5  ar  
  5   3   6  1   
  6   3  24  1   
  7   3  25  1   
  8   4   7  ar  
  9   5   8  ar  
 10   5  26  1   
 11   6  27  1   
 12   6  28  1   
 13   6  29  1   
 14   7   9  ar  
 15   7  30  1   
 16   8   9  ar  
 17   8  31  1   
 18   9  10  1   
 19  10  11  1   
 20  10  32  1   
 21  10  33  1   
 22  11  12  1   
 23  11  13  1   
 24  11  34  1   
 25  12  14  1   
 26  12  35  1   
 27  12  36  1   
 28  13  15  1   
 29  13  37  1   
 30  13  38  1   
 31  14  16  1   
 32  14  17  1   
 33  14  39  1   
 34  15  17  1   
 35  15  40  1   
 36  15  41  1   
 37  16  18  1   
 38  16  19  1   
 39  16  42  1   
 40  17  20  1   
 41  17  21  1   
 42  18  22  1   
 43  18  43  1   
 44  18  44  1   
 45  19  45  1   
 46  19  46  1   
 47  19  47  1   
 48  20  22  1   
 49  20  48  1   
 50  20  49  1   
 51  21  23  1   
 52  21  50  1   
 53  21  51  1   
 54  22  52  1   
 55  22  53  1   
 56  23  54  1   
@<TRIPOS>SUBSTRUCTURE
  1 ****  11 GROUP 4 **** **** 0

# MOE 2024.06 (io_trps.svl 2023.06)
