@<TRIPOS>MOLECULE
NONAME
43 45 1 0 0 
SMALL
USER_CHARGES


@<TRIPOS>ATOM
  1 O       -1.4460     0.3050    -3.2870 O.2   1 <1>  -0.5700 
  2 C       -1.4470     0.9980    -2.2990 C.2   1 <1>   0.5690 
  3 N       -2.0620     0.6340    -1.1410 N.am  1 <1>  -0.7300 
  4 C       -0.7100     2.3310    -2.3700 C.3   1 <1>   0.1810 
  5 C       -2.8170    -0.5980    -0.7630 C.3   1 <1>   0.2200 
  6 O       -0.7420     3.0250    -1.1270 O.3   1 <1>  -0.3630 
  7 C       -2.0750    -1.3320     0.3640 C.3   1 <1>   0.2000 
  8 C       -3.0890    -1.5830    -1.9140 C.3   1 <1>   0.1200 
  9 C       -0.1910     4.2580    -1.0040 C.ar  1 <1>   0.0820 
 10 O       -1.9580    -0.4770     1.4690 O.3   1 <1>  -0.5600 
 11 C       -2.8330    -2.6040     0.7630 C.3   1 <1>  -0.1600 
 12 O       -3.7970    -2.6920    -1.4270 O.3   1 <1>  -0.5600 
 13 C       -0.3890     4.9090     0.2020 C.ar  1 <1>  -0.1500 
 14 C        0.5430     4.8800    -2.0100 C.ar  1 <1>  -0.1500 
 15 C       -0.9080    -0.7660     2.3380 C.3   1 <1>   0.0400 
 16 C       -3.1190    -3.4570    -0.4780 C.3   1 <1>   0.1200 
 17 C        0.1350     6.1790     0.4280 C.ar  1 <1>  -0.0230 
 18 C        1.0650     6.1430    -1.7990 C.ar  1 <1>  -0.1500 
 19 N       -0.0640     6.8460     1.6740 N.pl3 1 <1>   0.5930 
 20 C        0.8620     6.7870    -0.5920 C.ar  1 <1>  -0.1500 
 21 N       -0.1480     8.1590     1.8300 N.2   1 <1>  -0.4180 
 22 C       -0.1860     6.3260     2.8870 C.2   1 <1>   0.0360 
 23 N       -0.3170     8.3810     3.0830 N.2   1 <1>   0.0000 
 24 N       -0.3420     7.2410     3.7630 N.2   1 <1>  -0.3380 
 25 H       -1.9290     1.2570    -0.3360 H     1 <1>   0.3700 
 26 H       -1.1760     2.9490    -3.1150 H     1 <1>   0.0800 
 27 H        0.3150     2.1500    -2.6310 H     1 <1>   0.0800 
 28 H       -3.7770    -0.2880    -0.3870 H     1 <1>   0.0800 
 29 H       -1.0900    -1.5870     0.0110 H     1 <1>   0.0800 
 30 H       -2.1720    -1.9330    -2.3550 H     1 <1>   0.0800 
 31 H       -3.6930    -1.1150    -2.6690 H     1 <1>   0.0800 
 32 H       -2.2530    -3.1840     1.4560 H     1 <1>   0.0800 
 33 H       -3.7670    -2.3420     1.2280 H     1 <1>   0.0800 
 34 H       -0.9670     4.4080     0.9570 H     1 <1>   0.1500 
 35 H        0.7200     4.4060    -2.9570 H     1 <1>   0.1500 
 36 H       -0.9090    -0.0280     3.1200 H     1 <1>   0.0800 
 37 H        0.0230    -0.7200     1.7990 H     1 <1>   0.0800 
 38 H       -1.0510    -1.7420     2.7660 H     1 <1>   0.0800 
 39 H       -3.7470    -4.2940    -0.2240 H     1 <1>   0.0800 
 40 H       -2.2090    -3.8240    -0.9220 H     1 <1>   0.0800 
 41 H        1.6310     6.6280    -2.5770 H     1 <1>   0.1500 
 42 H        1.2740     7.7720    -0.4450 H     1 <1>   0.1500 
 43 H       -0.1500     5.2720     3.0820 H     1 <1>   0.1500 
@<TRIPOS>BOND
  1   1   2  2   
  2   2   3  am  
  3   2   4  1   
  4   3   5  1   
  5   3  25  1   
  6   4   6  1   
  7   4  26  1   
  8   4  27  1   
  9   5   7  1   
 10   5   8  1   
 11   5  28  1   
 12   6   9  1   
 13   7  10  1   
 14   7  11  1   
 15   7  29  1   
 16   8  12  1   
 17   8  30  1   
 18   8  31  1   
 19   9  13  ar  
 20   9  14  ar  
 21  10  15  1   
 22  11  16  1   
 23  11  32  1   
 24  11  33  1   
 25  12  16  1   
 26  13  17  ar  
 27  13  34  1   
 28  14  18  ar  
 29  14  35  1   
 30  15  36  1   
 31  15  37  1   
 32  15  38  1   
 33  16  39  1   
 34  16  40  1   
 35  17  19  1   
 36  17  20  ar  
 37  18  20  ar  
 38  18  41  1   
 39  19  21  1   
 40  19  22  1   
 41  20  42  1   
 42  21  23  2   
 43  22  24  2   
 44  22  43  1   
 45  23  24  1   
@<TRIPOS>SUBSTRUCTURE
  1 ****   6 GROUP 4 **** **** 0

# MOE 2024.06 (io_trps.svl 2023.06)
