@<TRIPOS>MOLECULE
NONAME
46 48 1 0 0 
SMALL
USER_CHARGES


@<TRIPOS>ATOM
  1 F        2.9210     1.3430     3.1660 F     1 <1>  -0.1900 
  2 C        3.3300     0.3180     2.4660 C.ar  1 <1>   0.1900 
  3 C        4.0840     0.5480     1.3300 C.ar  1 <1>  -0.1500 
  4 C        2.9980    -0.9530     2.8930 C.ar  1 <1>  -0.1500 
  5 C        4.5280    -0.5380     0.5840 C.ar  1 <1>  -0.1440 
  6 C        3.4350    -2.0320     2.1470 C.ar  1 <1>  -0.1500 
  7 C        4.1910    -1.8310     0.9960 C.ar  1 <1>   0.1170 
  8 C        5.4040    -0.3770    -0.6690 C.3   1 <1>   0.1250 
  9 N        4.6140    -2.9200     0.2320 N.am  1 <1>  -0.5470 
 10 C        5.3350     1.0140    -1.3000 C.2   1 <1>   0.5690 
 11 C        5.0840    -1.4760    -1.6990 C.3   1 <1>  -0.0990 
 12 C        5.0890    -2.8320    -1.0330 C.2   1 <1>   0.5690 
 13 O        4.4170     1.2770    -2.0410 O.2   1 <1>  -0.5700 
 14 N        6.3260     1.9100    -0.9880 N.am  1 <1>  -0.4940 
 15 O        5.5090    -3.7970    -1.6150 O.2   1 <1>  -0.5700 
 16 C        6.5090     3.2390    -1.4530 C.2   1 <1>  -0.0880 
 17 N        7.5010     4.0860    -1.0540 N.pl3 1 <1>   0.3140 
 18 C        5.7780     3.9210    -2.3670 C.2   1 <1>  -0.1500 
 19 N        7.4220     5.2740    -1.7050 N.2   1 <1>  -0.7070 
 20 C        8.5830     3.7940    -0.0660 C.3   1 <1>   0.1760 
 21 C        6.3880     5.1610    -2.4780 C.2   1 <1>   0.1390 
 22 C        8.7580     4.9810     0.9090 C.3   1 <1>  -0.1600 
 23 C        9.8830     3.4120    -0.8120 C.3   1 <1>  -0.1600 
 24 C        9.7060     4.6940     2.0810 C.3   1 <1>  -0.2400 
 25 C       10.5940     2.1990    -0.1920 C.3   1 <1>  -0.2400 
 26 H        4.3000     1.5660     1.0570 H     1 <1>   0.1500 
 27 H        2.4100    -1.0870     3.7830 H     1 <1>   0.1500 
 28 H        3.1840    -3.0310     2.4550 H     1 <1>   0.1500 
 29 H        6.4200    -0.5380    -0.3550 H     1 <1>   0.0800 
 30 H        4.5590    -3.8650     0.6140 H     1 <1>   0.3700 
 31 H        5.8030    -1.4630    -2.4980 H     1 <1>   0.0800 
 32 H        4.1070    -1.3160    -2.1200 H     1 <1>   0.0800 
 33 H        7.0310     1.5690    -0.3360 H     1 <1>   0.3700 
 34 H        4.9090     3.5940    -2.9090 H     1 <1>   0.1500 
 35 H        8.2550     2.9510     0.5110 H     1 <1>   0.0800 
 36 H        6.0490     5.9480    -3.1320 H     1 <1>   0.1500 
 37 H        7.7920     5.2360     1.3110 H     1 <1>   0.0800 
 38 H        9.1210     5.8390     0.3680 H     1 <1>   0.0800 
 39 H       10.5530     4.2540    -0.8300 H     1 <1>   0.0800 
 40 H        9.6530     3.1700    -1.8370 H     1 <1>   0.0800 
 41 H        9.3960     3.8130     2.6160 H     1 <1>   0.0800 
 42 H        9.6990     5.5260     2.7640 H     1 <1>   0.0800 
 43 H       10.7150     4.5610     1.7330 H     1 <1>   0.0800 
 44 H       10.8610     2.3850     0.8330 H     1 <1>   0.0800 
 45 H       11.4950     1.9880    -0.7410 H     1 <1>   0.0800 
 46 H        9.9640     1.3280    -0.2330 H     1 <1>   0.0800 
@<TRIPOS>BOND
  1   1   2  1   
  2   2   3  ar  
  3   2   4  ar  
  4   3   5  ar  
  5   3  26  1   
  6   4   6  ar  
  7   4  27  1   
  8   5   7  ar  
  9   5   8  1   
 10   6   7  ar  
 11   6  28  1   
 12   7   9  1   
 13   8  10  1   
 14   8  11  1   
 15   8  29  1   
 16   9  12  am  
 17   9  30  1   
 18  10  13  2   
 19  10  14  am  
 20  11  12  1   
 21  11  31  1   
 22  11  32  1   
 23  12  15  2   
 24  14  16  1   
 25  14  33  1   
 26  16  17  1   
 27  16  18  2   
 28  17  19  1   
 29  17  20  1   
 30  18  21  1   
 31  18  34  1   
 32  19  21  2   
 33  20  22  1   
 34  20  23  1   
 35  20  35  1   
 36  21  36  1   
 37  22  24  1   
 38  22  37  1   
 39  22  38  1   
 40  23  25  1   
 41  23  39  1   
 42  23  40  1   
 43  24  41  1   
 44  24  42  1   
 45  24  43  1   
 46  25  44  1   
 47  25  45  1   
 48  25  46  1   
@<TRIPOS>SUBSTRUCTURE
  1 ****  14 GROUP 4 **** **** 0

# MOE 2024.06 (io_trps.svl 2023.06)
