@<TRIPOS>MOLECULE
NONAME
54 56 1 0 0 
SMALL
USER_CHARGES


@<TRIPOS>ATOM
  1 CL       5.8690     2.5000     0.8680 Cl    1 <1>  -0.1770 
  2 C        4.6630     3.7220     0.5370 C.ar  1 <1>   0.1770 
  3 C        4.7120     4.9430     1.1840 C.ar  1 <1>   0.1600 
  4 C        3.6610     3.4630    -0.3720 C.ar  1 <1>  -0.1500 
  5 N        3.8420     5.9260     0.9940 N.ar  1 <1>  -0.6200 
  6 C        2.7510     4.4770    -0.5760 C.ar  1 <1>  -0.1500 
  7 C        2.8740     5.6830     0.1170 C.ar  1 <1>   0.4270 
  8 N        2.0050     6.7390    -0.0330 N.am  1 <1>  -0.5470 
  9 C        1.0280     7.0370    -0.9330 C.2   1 <1>   0.5690 
 10 O        0.6970     6.3090    -1.8370 O.2   1 <1>  -0.5700 
 11 C        0.3300     8.3890    -0.7660 C.3   1 <1>   0.1710 
 12 N        1.1080     9.3700     0.0490 N.3   1 <1>  -0.8100 
 13 C        0.2440    10.4450     0.5540 C.3   1 <1>   0.1100 
 14 C        2.2520     9.9110    -0.7040 C.3   1 <1>   0.1100 
 15 C        1.0360    11.3310     1.5190 C.3   1 <1>  -0.1600 
 16 C        3.1160    10.7690     0.2230 C.3   1 <1>  -0.1600 
 17 C        2.2970    11.9130     0.8500 C.3   1 <1>  -0.0190 
 18 C        3.1530    12.7510     1.8020 C.2   1 <1>   0.5690 
 19 O        3.0010    12.6780     2.9980 O.2   1 <1>  -0.5700 
 20 N        4.0830    13.5770     1.2670 N.am  1 <1>  -0.7300 
 21 C        5.0100    14.3970     2.0580 C.3   1 <1>   0.2840 
 22 C        6.1000    14.8950     1.1260 C.ar  1 <1>  -0.1430 
 23 C        7.2530    14.1490     0.9350 C.ar  1 <1>  -0.1500 
 24 C        5.9470    16.0960     0.4490 C.ar  1 <1>  -0.1500 
 25 C        8.2470    14.5970     0.0820 C.ar  1 <1>  -0.1500 
 26 C        6.9380    16.5450    -0.4050 C.ar  1 <1>  -0.1500 
 27 C        8.0930    15.8030    -0.5950 C.ar  1 <1>   0.0830 
 28 O        9.0140    16.3150    -1.4490 O.3   1 <1>  -0.3630 
 29 C       10.2350    15.6530    -1.6940 C.3   1 <1>   0.0400 
 30 H        5.5060     5.1150     1.8890 H     1 <1>   0.1500 
 31 H        3.6010     2.5200    -0.8870 H     1 <1>   0.1500 
 32 H        1.9440     4.3320    -1.2690 H     1 <1>   0.1500 
 33 H        2.1910     7.5100     0.6140 H     1 <1>   0.3700 
 34 H       -0.6110     8.1940    -0.2840 H     1 <1>   0.0800 
 35 H        0.1230     8.8000    -1.7380 H     1 <1>   0.0800 
 36 H       -0.5930    10.0200     1.0820 H     1 <1>   0.0800 
 37 H       -0.1330    11.0340    -0.2670 H     1 <1>   0.0800 
 38 H        1.9000    10.5010    -1.5340 H     1 <1>   0.0800 
 39 H        2.8540     9.1070    -1.0940 H     1 <1>   0.0800 
 40 H        1.3170    10.7400     2.3740 H     1 <1>   0.0800 
 41 H        0.4100    12.1320     1.8690 H     1 <1>   0.0800 
 42 H        3.9410    11.1710    -0.3360 H     1 <1>   0.0800 
 43 H        3.5200    10.1440     1.0010 H     1 <1>   0.0800 
 44 H        1.9720    12.5650     0.0600 H     1 <1>   0.0800 
 45 H        4.2380    13.6210     0.2590 H     1 <1>   0.3700 
 46 H        5.4300    13.8060     2.8540 H     1 <1>   0.0800 
 47 H        4.4760    15.2250     2.4930 H     1 <1>   0.0800 
 48 H        7.3800    13.2130     1.4530 H     1 <1>   0.1500 
 49 H        5.0570    16.6850     0.5840 H     1 <1>   0.1500 
 50 H        9.1280    13.9970    -0.0430 H     1 <1>   0.1500 
 51 H        6.8250    17.4760    -0.9300 H     1 <1>   0.1500 
 52 H       10.8020    16.2450    -2.3890 H     1 <1>   0.0800 
 53 H       10.0290    14.6870    -2.1190 H     1 <1>   0.0800 
 54 H       10.7740    15.5620    -0.7670 H     1 <1>   0.0800 
@<TRIPOS>BOND
  1   1   2  1   
  2   2   3  ar  
  3   2   4  ar  
  4   3   5  ar  
  5   3  30  1   
  6   4   6  ar  
  7   4  31  1   
  8   5   7  ar  
  9   6   7  ar  
 10   6  32  1   
 11   7   8  1   
 12   8   9  am  
 13   8  33  1   
 14   9  10  2   
 15   9  11  1   
 16  11  12  1   
 17  11  34  1   
 18  11  35  1   
 19  12  13  1   
 20  12  14  1   
 21  13  15  1   
 22  13  36  1   
 23  13  37  1   
 24  14  16  1   
 25  14  38  1   
 26  14  39  1   
 27  15  17  1   
 28  15  40  1   
 29  15  41  1   
 30  16  17  1   
 31  16  42  1   
 32  16  43  1   
 33  17  18  1   
 34  17  44  1   
 35  18  19  2   
 36  18  20  am  
 37  20  21  1   
 38  20  45  1   
 39  21  22  1   
 40  21  46  1   
 41  21  47  1   
 42  22  23  ar  
 43  22  24  ar  
 44  23  25  ar  
 45  23  48  1   
 46  24  26  ar  
 47  24  49  1   
 48  25  27  ar  
 49  25  50  1   
 50  26  27  ar  
 51  26  51  1   
 52  27  28  1   
 53  28  29  1   
 54  29  52  1   
 55  29  53  1   
 56  29  54  1   
@<TRIPOS>SUBSTRUCTURE
  1 ****  16 GROUP 4 **** **** 0

# MOE 2024.06 (io_trps.svl 2023.06)
