@<TRIPOS>MOLECULE
NONAME
63 65 1 0 0 
SMALL
USER_CHARGES


@<TRIPOS>ATOM
  1 O       -0.7240     0.1320    -1.4650 O.2   1 <1>  -0.5700 
  2 C       -0.4660    -0.9620    -1.0030 C.2   1 <1>   0.7800 
  3 O        0.4960    -1.0910    -0.0890 O.3   1 <1>  -0.4300 
  4 N       -1.1450    -2.0960    -1.3780 N.am  1 <1>  -0.6600 
  5 C        1.2690     0.0010     0.3520 C.3   1 <1>   0.2000 
  6 C       -0.8570    -3.4390    -0.8130 C.3   1 <1>   0.1400 
  7 C       -2.2220    -2.0480    -2.3980 C.3   1 <1>   0.1400 
  8 C        2.4280     0.2010    -0.6240 C.3   1 <1>  -0.2400 
  9 C        1.7710    -0.3390     1.7520 C.3   1 <1>  -0.2400 
 10 C       -2.1320    -3.9840    -0.1710 C.3   1 <1>  -0.1600 
 11 C       -3.5130    -2.5760    -1.7730 C.3   1 <1>  -0.1600 
 12 C       -3.2880    -3.9730    -1.1860 C.3   1 <1>   0.4230 
 13 N       -4.5630    -4.4930    -0.6140 N.4   1 <1>  -0.9590 
 14 C       -4.4530    -5.9670    -0.3820 C.3   1 <1>   0.3430 
 15 C       -5.0150    -3.8030     0.6350 C.3   1 <1>   0.3430 
 16 C       -5.7970    -6.6200     0.0140 C.3   1 <1>   0.0000 
 17 C       -6.3720    -4.3480     1.0760 C.3   1 <1>  -0.1600 
 18 C       -6.3290    -5.8710     1.2650 C.3   1 <1>   0.2000 
 19 C       -6.8200    -6.4780    -1.1440 C.3   1 <1>   0.1200 
 20 C       -5.5920    -8.1430     0.3000 C.3   1 <1>  -0.0160 
 21 O       -5.4790    -6.0860     2.3360 O.3   1 <1>  -0.6800 
 22 O       -6.2060    -6.7760    -2.3510 O.3   1 <1>  -0.6800 
 23 C       -4.1290    -8.5760     0.3290 C.ar  1 <1>  -0.1440 
 24 C       -3.5180    -9.0040    -0.8410 C.ar  1 <1>  -0.1500 
 25 C       -3.3900    -8.5310     1.5020 C.ar  1 <1>  -0.1500 
 26 C       -2.1840    -9.3700    -0.8420 C.ar  1 <1>  -0.1500 
 27 C       -2.0550    -8.8970     1.5020 C.ar  1 <1>  -0.1500 
 28 C       -1.4500    -9.3140     0.3300 C.ar  1 <1>  -0.1500 
 29 H        0.6460     0.8810     0.3940 H     1 <1>   0.0800 
 30 H       -0.5250    -4.0890    -1.6050 H     1 <1>   0.0800 
 31 H       -0.0720    -3.3910    -0.0760 H     1 <1>   0.0800 
 32 H       -2.3730    -1.0390    -2.7480 H     1 <1>   0.0800 
 33 H       -1.9340    -2.6500    -3.2430 H     1 <1>   0.0800 
 34 H        3.0240    -0.6910    -0.6900 H     1 <1>   0.0800 
 35 H        3.0530     1.0090    -0.2890 H     1 <1>   0.0800 
 36 H        2.0520     0.4540    -1.5990 H     1 <1>   0.0800 
 37 H        2.3760    -1.2280     1.7290 H     1 <1>   0.0800 
 38 H        0.9380    -0.4890     2.4150 H     1 <1>   0.0800 
 39 H        2.3660     0.4710     2.1340 H     1 <1>   0.0800 
 40 H       -2.3560    -3.3680     0.6810 H     1 <1>   0.0800 
 41 H       -1.9350    -4.9840     0.1690 H     1 <1>   0.0800 
 42 H       -4.2710    -2.6120    -2.5340 H     1 <1>   0.0800 
 43 H       -3.8190    -1.8810    -1.0120 H     1 <1>   0.0800 
 44 H       -3.0020    -4.6160    -2.0040 H     1 <1>   0.0800 
 45 H       -5.2800    -4.3770    -1.3400 H     1 <1>   0.4500 
 46 H       -4.0830    -6.4490    -1.2720 H     1 <1>   0.0800 
 47 H       -3.7420    -6.1460     0.4090 H     1 <1>   0.0800 
 48 H       -4.3000    -3.9800     1.4230 H     1 <1>   0.0800 
 49 H       -5.0860    -2.7400     0.4730 H     1 <1>   0.0800 
 50 H       -7.1250    -4.0630     0.3670 H     1 <1>   0.0800 
 51 H       -6.6460    -3.8880     2.0100 H     1 <1>   0.0800 
 52 H       -7.3060    -6.2340     1.5440 H     1 <1>   0.0800 
 53 H       -7.2120    -5.4820    -1.2310 H     1 <1>   0.0800 
 54 H       -7.6480    -7.1540    -1.0060 H     1 <1>   0.0800 
 55 H       -6.0610    -8.4270     1.2250 H     1 <1>   0.0800 
 56 H       -6.0770    -8.7340    -0.4590 H     1 <1>   0.0800 
 57 H       -5.6970    -6.9220     2.7970 H     1 <1>   0.4000 
 58 H       -6.8710    -6.9560    -3.0530 H     1 <1>   0.4000 
 59 H       -4.0770    -9.0560    -1.7600 H     1 <1>   0.1500 
 60 H       -3.8400    -8.2150     2.4260 H     1 <1>   0.1500 
 61 H       -1.7160    -9.7050    -1.7520 H     1 <1>   0.1500 
 62 H       -1.4860    -8.8630     2.4150 H     1 <1>   0.1500 
 63 H       -0.4130    -9.6030     0.3310 H     1 <1>   0.1500 
@<TRIPOS>BOND
  1   1   2  2   
  2   2   3  1   
  3   2   4  am  
  4   3   5  1   
  5   4   6  1   
  6   4   7  1   
  7   5   8  1   
  8   5   9  1   
  9   5  29  1   
 10   6  10  1   
 11   6  30  1   
 12   6  31  1   
 13   7  11  1   
 14   7  32  1   
 15   7  33  1   
 16   8  34  1   
 17   8  35  1   
 18   8  36  1   
 19   9  37  1   
 20   9  38  1   
 21   9  39  1   
 22  10  12  1   
 23  10  40  1   
 24  10  41  1   
 25  11  12  1   
 26  11  42  1   
 27  11  43  1   
 28  12  13  1   
 29  12  44  1   
 30  13  14  1   
 31  13  15  1   
 32  13  45  1   
 33  14  16  1   
 34  14  46  1   
 35  14  47  1   
 36  15  17  1   
 37  15  48  1   
 38  15  49  1   
 39  16  18  1   
 40  16  19  1   
 41  16  20  1   
 42  17  18  1   
 43  17  50  1   
 44  17  51  1   
 45  18  21  1   
 46  18  52  1   
 47  19  22  1   
 48  19  53  1   
 49  19  54  1   
 50  20  23  1   
 51  20  55  1   
 52  20  56  1   
 53  21  57  1   
 54  22  58  1   
 55  23  24  ar  
 56  23  25  ar  
 57  24  26  ar  
 58  24  59  1   
 59  25  27  ar  
 60  25  60  1   
 61  26  28  ar  
 62  26  61  1   
 63  27  28  ar  
 64  27  62  1   
 65  28  63  1   
@<TRIPOS>SUBSTRUCTURE
  1 ****  10 GROUP 4 **** **** 0

# MOE 2024.06 (io_trps.svl 2023.06)
