@<TRIPOS>MOLECULE
NONAME
54 56 1 0 0 
SMALL
USER_CHARGES


@<TRIPOS>ATOM
  1 O        0.3720     0.2810    -1.6450 O.3   1 <1>  -0.5600 
  2 C        1.5940    -0.4110    -1.7460 C.3   1 <1>   0.2000 
  3 C        0.4670     1.6740    -1.6270 C.3   1 <1>   0.1200 
  4 C        2.5710     0.0050    -0.6120 C.3   1 <1>   0.5660 
  5 C        1.3080    -1.9200    -1.6810 C.3   1 <1>   0.1200 
  6 C        1.3030     2.1300    -0.4190 C.3   1 <1>   0.3430 
  7 N        2.6580     1.4870    -0.4160 N.4   1 <1>  -0.9590 
  8 C        3.9790    -0.5100    -0.8750 C.ar  1 <1>  -0.1430 
  9 O        1.0140    -2.2990    -0.3730 O.3   1 <1>  -0.6800 
 10 C        3.4360     1.8290     0.8030 C.3   1 <1>   0.4870 
 11 C        4.5280    -1.4360     0.0000 C.ar  1 <1>  -0.1500 
 12 C        4.7310    -0.0750    -1.9620 C.ar  1 <1>  -0.1500 
 13 C        3.7560     3.3070     0.7380 C.ar  1 <1>  -0.1430 
 14 C        5.8110    -1.9180    -0.1890 C.ar  1 <1>   0.0820 
 15 C        6.0200    -0.5440    -2.1500 C.ar  1 <1>  -0.1500 
 16 C        4.7650     3.7590    -0.1020 C.ar  1 <1>  -0.1500 
 17 C        3.0430     4.2170     1.5040 C.ar  1 <1>  -0.1500 
 18 O        6.2590    -2.8380     0.6980 O.3   1 <1>  -0.3620 
 19 C        6.5760    -1.4480    -1.2630 C.ar  1 <1>   0.0820 
 20 C        5.0510     5.1110    -0.1910 C.ar  1 <1>  -0.1430 
 21 C        3.3260     5.5680     1.4160 C.ar  1 <1>  -0.1500 
 22 C        6.5460    -4.1250     0.1910 C.3   1 <1>   0.0400 
 23 O        7.8540    -1.8350    -1.4900 O.3   1 <1>  -0.3630 
 24 C        4.3240     6.0130     0.5680 C.ar  1 <1>  -0.1500 
 25 C        6.1520     5.6140    -1.1080 C.3   1 <1>  -0.0970 
 26 C        8.8120    -1.4770    -0.5170 C.3   1 <1>   0.0400 
 27 H        2.0150    -0.1810    -2.7080 H     1 <1>   0.0800 
 28 H        0.9000     2.0090    -2.5540 H     1 <1>   0.0800 
 29 H       -0.5320     2.0680    -1.5530 H     1 <1>   0.0800 
 30 H        2.2080    -0.4420     0.3000 H     1 <1>   0.0800 
 31 H        2.1680    -2.4840    -2.0010 H     1 <1>   0.0800 
 32 H        0.4700    -2.1660    -2.3120 H     1 <1>   0.0800 
 33 H        0.7700     1.8670     0.4800 H     1 <1>   0.0800 
 34 H        1.4060     3.2040    -0.4420 H     1 <1>   0.0800 
 35 H        3.1930     1.8650    -1.2020 H     1 <1>   0.4500 
 36 H        0.6020    -3.1900    -0.3560 H     1 <1>   0.4000 
 37 H        2.8690     1.6040     1.6910 H     1 <1>   0.0800 
 38 H        4.3580     1.2710     0.8320 H     1 <1>   0.0800 
 39 H        3.9670    -1.8100     0.8410 H     1 <1>   0.1500 
 40 H        4.3360     0.6260    -2.6770 H     1 <1>   0.1500 
 41 H        6.6090    -0.2110    -2.9870 H     1 <1>   0.1500 
 42 H        5.3410     3.0640    -0.6890 H     1 <1>   0.1500 
 43 H        2.2670     3.8930     2.1770 H     1 <1>   0.1500 
 44 H        2.7740     6.2790     2.0080 H     1 <1>   0.1500 
 45 H        6.7780    -4.7690     1.0200 H     1 <1>   0.0800 
 46 H        7.3890    -4.0700    -0.4740 H     1 <1>   0.0800 
 47 H        5.6820    -4.4950    -0.3320 H     1 <1>   0.0800 
 48 H        4.5370     7.0670     0.5060 H     1 <1>   0.1500 
 49 H        6.6920     6.4150    -0.6350 H     1 <1>   0.0800 
 50 H        5.7280     5.9790    -2.0260 H     1 <1>   0.0800 
 51 H        6.8510     4.8280    -1.3360 H     1 <1>   0.0800 
 52 H        9.7820    -1.7660    -0.8800 H     1 <1>   0.0800 
 53 H        8.6000    -1.9910     0.4020 H     1 <1>   0.0800 
 54 H        8.7770    -0.4130    -0.3680 H     1 <1>   0.0800 
@<TRIPOS>BOND
  1   1   2  1   
  2   1   3  1   
  3   2   4  1   
  4   2   5  1   
  5   2  27  1   
  6   3   6  1   
  7   3  28  1   
  8   3  29  1   
  9   4   7  1   
 10   4   8  1   
 11   4  30  1   
 12   5   9  1   
 13   5  31  1   
 14   5  32  1   
 15   6   7  1   
 16   6  33  1   
 17   6  34  1   
 18   7  10  1   
 19   7  35  1   
 20   8  11  ar  
 21   8  12  ar  
 22   9  36  1   
 23  10  13  1   
 24  10  37  1   
 25  10  38  1   
 26  11  14  ar  
 27  11  39  1   
 28  12  15  ar  
 29  12  40  1   
 30  13  16  ar  
 31  13  17  ar  
 32  14  18  1   
 33  14  19  ar  
 34  15  19  ar  
 35  15  41  1   
 36  16  20  ar  
 37  16  42  1   
 38  17  21  ar  
 39  17  43  1   
 40  18  22  1   
 41  19  23  1   
 42  20  24  ar  
 43  20  25  1   
 44  21  24  ar  
 45  21  44  1   
 46  22  45  1   
 47  22  46  1   
 48  22  47  1   
 49  23  26  1   
 50  24  48  1   
 51  25  49  1   
 52  25  50  1   
 53  25  51  1   
 54  26  52  1   
 55  26  53  1   
 56  26  54  1   
@<TRIPOS>SUBSTRUCTURE
  1 ****   8 GROUP 4 **** **** 0

# MOE 2024.06 (io_trps.svl 2023.06)
