@<TRIPOS>MOLECULE
NONAME
27 28 1 0 0 
SMALL
USER_CHARGES


@<TRIPOS>ATOM
  1 N        0.0160     3.3090    -0.6140 N.2   1 <1>  -0.5650 
  2 C       -1.3460     3.3340    -0.5460 C.ar  1 <1>   0.2270 
  3 C        0.3540     2.2660     0.0710 C.2   1 <1>   0.0060 
  4 C       -1.8080     2.2690     0.2030 C.ar  1 <1>  -0.1520 
  5 C       -2.2480     4.2390    -1.1020 C.ar  1 <1>  -0.1500 
  6 N       -0.7040     1.5870     0.5930 N.pl3 1 <1>   0.0330 
  7 C        1.8020     1.8310     0.2700 C.3   1 <1>   0.5230 
  8 C       -3.1740     2.0740     0.4210 C.ar  1 <1>  -0.1500 
  9 C       -3.5970     4.0560    -0.8920 C.ar  1 <1>  -0.1500 
 10 N        2.6720     2.9670    -0.1470 N.4   1 <1>  -0.9590 
 11 C       -4.0590     2.9740    -0.1320 C.ar  1 <1>  -0.1500 
 12 C        3.9720     2.5400    -0.7390 C.3   1 <1>   0.2630 
 13 C        2.8310     3.9760     0.9430 C.3   1 <1>   0.2630 
 14 H       -1.8730     5.0610    -1.6830 H     1 <1>   0.1500 
 15 H       -0.7160     0.7330     1.1600 H     1 <1>   0.2700 
 16 H        1.9930     0.9720    -0.3510 H     1 <1>   0.0800 
 17 H        1.9860     1.5720     1.2990 H     1 <1>   0.0800 
 18 H       -3.5250     1.2420     1.0050 H     1 <1>   0.1500 
 19 H       -4.3110     4.7440    -1.3130 H     1 <1>   0.1500 
 20 H        2.0800     3.4240    -0.8720 H     1 <1>   0.4500 
 21 H       -5.1180     2.8540     0.0160 H     1 <1>   0.1500 
 22 H        4.5760     2.0370    -0.0010 H     1 <1>   0.0800 
 23 H        4.5140     3.3980    -1.1020 H     1 <1>   0.0800 
 24 H        3.8040     1.8700    -1.5670 H     1 <1>   0.0800 
 25 H        3.3710     3.5540     1.7750 H     1 <1>   0.0800 
 26 H        1.8620     4.3040     1.2860 H     1 <1>   0.0800 
 27 H        3.3700     4.8350     0.5790 H     1 <1>   0.0800 
@<TRIPOS>BOND
  1   1   2  1   
  2   1   3  2   
  3   2   4  ar  
  4   2   5  ar  
  5   3   6  1   
  6   3   7  1   
  7   4   6  1   
  8   4   8  ar  
  9   5   9  ar  
 10   5  14  1   
 11   6  15  1   
 12   7  10  1   
 13   7  16  1   
 14   7  17  1   
 15   8  11  ar  
 16   8  18  1   
 17   9  11  ar  
 18   9  19  1   
 19  10  12  1   
 20  10  13  1   
 21  10  20  1   
 22  11  21  1   
 23  12  22  1   
 24  12  23  1   
 25  12  24  1   
 26  13  25  1   
 27  13  26  1   
 28  13  27  1   
@<TRIPOS>SUBSTRUCTURE
  1 ****   1 GROUP 4 **** **** 0

# MOE 2024.06 (io_trps.svl 2023.06)
