@<TRIPOS>MOLECULE
NONAME
53 56 1 0 0 
SMALL
USER_CHARGES


@<TRIPOS>ATOM
  1 O       -1.8220     0.6810    -1.7790 O.2   1 <1>  -0.5700 
  2 C       -1.5000     1.5220    -0.9690 C.2   1 <1>   0.6900 
  3 N       -2.3700     2.2700    -0.2340 N.am  1 <1>  -0.4200 
  4 N       -0.2210     1.8150    -0.6680 N.am  1 <1>  -0.7300 
  5 C       -1.6730     3.0580     0.6300 C.2   1 <1>   0.5690 
  6 C       -3.8250     2.0020    -0.1340 C.3   1 <1>   0.2010 
  7 C       -0.1680     2.7840     0.4340 C.3   1 <1>   0.3610 
  8 O       -2.1500     3.8480     1.4110 O.2   1 <1>  -0.5700 
  9 C       -4.1040     0.6520     0.5270 C.2   1 <1>   0.5690 
 10 C        0.6180     4.0120    -0.0270 C.3   1 <1>  -0.2400 
 11 C        0.4780     2.1130     1.6480 C.3   1 <1>  -0.2400 
 12 O       -3.8360     0.5330     1.7000 O.2   1 <1>  -0.5700 
 13 N       -4.6390    -0.3960    -0.1760 N.am  1 <1>  -0.6600 
 14 C       -4.9000    -0.4540    -1.6400 C.3   1 <1>   0.1400 
 15 C       -4.7760    -1.7510     0.4170 C.3   1 <1>   0.1400 
 16 C       -5.6060    -1.7910    -1.8490 C.3   1 <1>   0.2000 
 17 C       -4.9890    -2.6940    -0.7750 C.3   1 <1>  -0.0800 
 18 O       -6.9570    -1.6080    -1.5870 O.3   1 <1>  -0.6800 
 19 C       -5.8130    -3.9560    -0.4440 C.3   1 <1>  -0.0160 
 20 C       -5.1740    -4.9630     0.5210 C.ar  1 <1>  -0.1440 
 21 C       -5.9490    -6.0350     1.0310 C.ar  1 <1>   0.0000 
 22 C       -3.8680    -4.9010     0.9230 C.ar  1 <1>  -0.1500 
 23 C       -5.3290    -6.9360     1.9320 C.ar  1 <1>   0.3100 
 24 C       -7.3030    -6.2710     0.6940 C.ar  1 <1>  -0.1500 
 25 C       -3.3520    -5.8480     1.8150 C.ar  1 <1>   0.1600 
 26 N       -4.0330    -6.8290     2.3140 N.ar  1 <1>  -0.6200 
 27 C       -6.0790    -8.0000     2.4590 C.ar  1 <1>  -0.1500 
 28 C       -8.0060    -7.3200     1.2240 C.ar  1 <1>  -0.1500 
 29 C       -7.3900    -8.1960     2.1190 C.ar  1 <1>  -0.1500 
 30 H        0.5610     1.2170    -0.9310 H     1 <1>   0.3700 
 31 H       -4.2850     2.7690     0.4620 H     1 <1>   0.0800 
 32 H       -4.2530     2.0420    -1.1160 H     1 <1>   0.0800 
 33 H        0.6120     4.7570     0.7490 H     1 <1>   0.0800 
 34 H        0.1660     4.4370    -0.9050 H     1 <1>   0.0800 
 35 H        1.6380     3.7500    -0.2440 H     1 <1>   0.0800 
 36 H        0.4670     2.7920     2.4820 H     1 <1>   0.0800 
 37 H        1.4970     1.8450     1.4390 H     1 <1>   0.0800 
 38 H       -0.0750     1.2330     1.9280 H     1 <1>   0.0800 
 39 H       -5.5050     0.3690    -1.9800 H     1 <1>   0.0800 
 40 H       -3.9630    -0.4600    -2.1690 H     1 <1>   0.0800 
 41 H       -3.8950    -2.0070     0.9800 H     1 <1>   0.0800 
 42 H       -5.6280    -1.7610     1.0750 H     1 <1>   0.0800 
 43 H       -5.4980    -2.1750    -2.8490 H     1 <1>   0.0800 
 44 H       -4.0240    -2.9940    -1.1420 H     1 <1>   0.0800 
 45 H       -7.0490    -1.1350    -0.7350 H     1 <1>   0.4000 
 46 H       -6.0330    -4.4690    -1.3640 H     1 <1>   0.0800 
 47 H       -6.7500    -3.6380    -0.0210 H     1 <1>   0.0800 
 48 H       -3.1880    -4.1440     0.5830 H     1 <1>   0.1500 
 49 H       -7.8010    -5.6180     0.0030 H     1 <1>   0.1500 
 50 H       -2.3190    -5.7530     2.1050 H     1 <1>   0.1500 
 51 H       -5.5820    -8.6620     3.1430 H     1 <1>   0.1500 
 52 H       -9.0370    -7.4830     0.9580 H     1 <1>   0.1500 
 53 H       -7.9530    -9.0160     2.5310 H     1 <1>   0.1500 
@<TRIPOS>BOND
  1   1   2  2   
  2   2   3  am  
  3   2   4  am  
  4   3   5  am  
  5   3   6  1   
  6   4   7  1   
  7   4  30  1   
  8   5   7  1   
  9   5   8  2   
 10   6   9  1   
 11   6  31  1   
 12   6  32  1   
 13   7  10  1   
 14   7  11  1   
 15   9  12  2   
 16   9  13  am  
 17  10  33  1   
 18  10  34  1   
 19  10  35  1   
 20  11  36  1   
 21  11  37  1   
 22  11  38  1   
 23  13  14  1   
 24  13  15  1   
 25  14  16  1   
 26  14  39  1   
 27  14  40  1   
 28  15  17  1   
 29  15  41  1   
 30  15  42  1   
 31  16  17  1   
 32  16  18  1   
 33  16  43  1   
 34  17  19  1   
 35  17  44  1   
 36  18  45  1   
 37  19  20  1   
 38  19  46  1   
 39  19  47  1   
 40  20  21  ar  
 41  20  22  ar  
 42  21  23  ar  
 43  21  24  ar  
 44  22  25  ar  
 45  22  48  1   
 46  23  26  ar  
 47  23  27  ar  
 48  24  28  ar  
 49  24  49  1   
 50  25  26  ar  
 51  25  50  1   
 52  27  29  ar  
 53  27  51  1   
 54  28  29  ar  
 55  28  52  1   
 56  29  53  1   
@<TRIPOS>SUBSTRUCTURE
  1 ****  15 GROUP 4 **** **** 0

# MOE 2024.06 (io_trps.svl 2023.06)
