@<TRIPOS>MOLECULE
NONAME
48 50 1 0 0 
SMALL
USER_CHARGES


@<TRIPOS>ATOM
  1 O       -1.7620    -0.2500     0.9690 O.2   1 <1>  -0.5700 
  2 C       -2.0010     0.8680     0.5360 C.2   1 <1>   0.5440 
  3 N       -2.8890     1.6580     1.2480 N.am  1 <1>  -0.6600 
  4 C       -1.3510     1.3190    -0.6960 C.ar  1 <1>   0.3960 
  5 C       -3.6260     1.1150     2.4250 C.3   1 <1>   0.1400 
  6 C       -3.2880     3.0310     0.8370 C.3   1 <1>   0.1400 
  7 N       -2.1160     1.5050    -1.7860 N.ar  1 <1>  -0.6200 
  8 C        0.0350     1.5470    -0.7190 C.ar  1 <1>  -0.1440 
  9 C       -4.8640     0.3050     2.0030 C.3   1 <1>   0.1400 
 10 C       -4.6570     3.0540     0.1440 C.3   1 <1>  -0.1600 
 11 C       -1.5110     1.9040    -2.8870 C.ar  1 <1>   0.1600 
 12 C        0.6440     1.9670    -1.8840 C.ar  1 <1>  -0.1500 
 13 C        0.8960     1.3390     0.5230 C.3   1 <1>  -0.0960 
 14 N       -5.6910     0.9480     0.9260 N.am  1 <1>  -0.6600 
 15 C       -5.8050     2.4320     0.9510 C.3   1 <1>   0.1400 
 16 C       -0.1550     2.1460    -2.9900 C.ar  1 <1>  -0.1500 
 17 C       -6.3090     0.2220    -0.0730 C.2   1 <1>   0.5440 
 18 O       -7.2730     0.6980    -0.6420 O.2   1 <1>  -0.5700 
 19 C       -5.8440    -1.0930    -0.4640 C.ar  1 <1>   0.0860 
 20 C       -6.6720    -2.2010    -0.4850 C.ar  1 <1>  -0.1500 
 21 C       -4.5350    -1.3330    -0.8550 C.ar  1 <1>  -0.1500 
 22 C       -6.1780    -3.4400    -0.8520 C.ar  1 <1>   0.3930 
 23 C       -4.1300    -2.6050    -1.2010 C.ar  1 <1>   0.1600 
 24 O       -7.0480    -4.4720    -0.8390 O.3   1 <1>  -0.3630 
 25 N       -4.9170    -3.6690    -1.2070 N.ar  1 <1>  -0.6200 
 26 C       -6.6340    -5.7740    -1.2060 C.3   1 <1>   0.0400 
 27 H       -3.9260     1.9210     3.0700 H     1 <1>   0.0800 
 28 H       -2.9730     0.4790     2.9980 H     1 <1>   0.0800 
 29 H       -2.5510     3.4460     0.1720 H     1 <1>   0.0800 
 30 H       -3.3180     3.6610     1.7100 H     1 <1>   0.0800 
 31 H       -5.4860     0.1530     2.8670 H     1 <1>   0.0800 
 32 H       -4.5260    -0.6640     1.6860 H     1 <1>   0.0800 
 33 H       -4.5880     2.5650    -0.8120 H     1 <1>   0.0800 
 34 H       -4.9060     4.0810    -0.0500 H     1 <1>   0.0800 
 35 H       -2.1280     2.0460    -3.7590 H     1 <1>   0.1500 
 36 H        1.7040     2.1480    -1.9380 H     1 <1>   0.1500 
 37 H        0.4960     1.8940     1.3530 H     1 <1>   0.0800 
 38 H        1.9070     1.6640     0.3560 H     1 <1>   0.0800 
 39 H        0.9150     0.2950     0.7850 H     1 <1>   0.0800 
 40 H       -6.7420     2.7270     0.5090 H     1 <1>   0.0800 
 41 H       -5.8030     2.7900     1.9650 H     1 <1>   0.0800 
 42 H        0.2670     2.4690    -3.9250 H     1 <1>   0.1500 
 43 H       -7.7070    -2.1020    -0.2180 H     1 <1>   0.1500 
 44 H       -3.8360    -0.5180    -0.8870 H     1 <1>   0.1500 
 45 H       -3.1020    -2.7550    -1.4880 H     1 <1>   0.1500 
 46 H       -7.4780    -6.4330    -1.1230 H     1 <1>   0.0800 
 47 H       -5.8490    -6.0890    -0.5410 H     1 <1>   0.0800 
 48 H       -6.2790    -5.7510    -2.2220 H     1 <1>   0.0800 
@<TRIPOS>BOND
  1   1   2  2   
  2   2   3  am  
  3   2   4  1   
  4   3   5  1   
  5   3   6  1   
  6   4   7  ar  
  7   4   8  ar  
  8   5   9  1   
  9   5  27  1   
 10   5  28  1   
 11   6  10  1   
 12   6  29  1   
 13   6  30  1   
 14   7  11  ar  
 15   8  12  ar  
 16   8  13  1   
 17   9  14  1   
 18   9  31  1   
 19   9  32  1   
 20  10  15  1   
 21  10  33  1   
 22  10  34  1   
 23  11  16  ar  
 24  11  35  1   
 25  12  16  ar  
 26  12  36  1   
 27  13  37  1   
 28  13  38  1   
 29  13  39  1   
 30  14  15  1   
 31  14  17  am  
 32  15  40  1   
 33  15  41  1   
 34  16  42  1   
 35  17  18  2   
 36  17  19  1   
 37  19  20  ar  
 38  19  21  ar  
 39  20  22  ar  
 40  20  43  1   
 41  21  23  ar  
 42  21  44  1   
 43  22  24  1   
 44  22  25  ar  
 45  23  25  ar  
 46  23  45  1   
 47  24  26  1   
 48  26  46  1   
 49  26  47  1   
 50  26  48  1   
@<TRIPOS>SUBSTRUCTURE
  1 ****  21 GROUP 4 **** **** 0

# MOE 2024.06 (io_trps.svl 2023.06)
