@<TRIPOS>MOLECULE
NONAME
55 57 1 0 0 
SMALL
USER_CHARGES


@<TRIPOS>ATOM
  1 CL      -1.7970    -0.0100     2.5380 Cl    1 <1>  -0.1770 
  2 C       -2.6050    -1.4100     1.8570 C.ar  1 <1>   0.1770 
  3 C       -3.9900    -1.3980     1.7340 C.ar  1 <1>  -0.1440 
  4 C       -1.8440    -2.5020     1.4570 C.ar  1 <1>  -0.1440 
  5 C       -4.6180    -2.5070     1.1900 C.ar  1 <1>  -0.1500 
  6 C       -4.8120    -0.2000     2.1860 C.3   1 <1>  -0.0960 
  7 C       -2.4920    -3.6010     0.9160 C.ar  1 <1>  -0.1500 
  8 C       -0.3300    -2.5070     1.6090 C.3   1 <1>  -0.0960 
  9 C       -3.8700    -3.5960     0.7660 C.ar  1 <1>   0.0820 
 10 O       -4.4920    -4.6810     0.2500 O.3   1 <1>  -0.3630 
 11 C       -4.7560    -4.8110    -1.1550 C.3   1 <1>   0.3410 
 12 C       -5.4160    -6.1970    -1.3920 C.2   1 <1>   0.5690 
 13 C       -5.7090    -3.6840    -1.5920 C.3   1 <1>  -0.2400 
 14 C       -3.4310    -4.7210    -1.9340 C.3   1 <1>  -0.2400 
 15 O       -5.7890    -6.5070    -2.5020 O.2   1 <1>  -0.5700 
 16 N       -5.5730    -7.0550    -0.3470 N.am  1 <1>  -0.7300 
 17 C       -6.1770    -8.4030    -0.4140 C.3   1 <1>   0.2200 
 18 C       -7.5220    -8.3820     0.2920 C.3   1 <1>  -0.0800 
 19 C       -5.3760    -9.3730     0.4520 C.3   1 <1>   0.1200 
 20 C       -7.1060    -8.5730     1.7530 C.3   1 <1>   0.1200 
 21 C       -8.4390    -9.5150    -0.2070 C.3   1 <1>  -0.0170 
 22 O       -5.9180    -9.3080     1.7400 O.3   1 <1>  -0.5600 
 23 C       -9.7920    -9.4830     0.4870 C.ar  1 <1>  -0.1430 
 24 C      -10.7590    -8.5570     0.1510 C.ar  1 <1>  -0.1500 
 25 C      -10.1250   -10.3760     1.4860 C.ar  1 <1>  -0.1500 
 26 C      -11.9750    -8.5650     0.8140 C.ar  1 <1>   0.1600 
 27 C      -11.3710   -10.2980     2.0860 C.ar  1 <1>   0.1600 
 28 N      -12.3040    -9.4120     1.7750 N.ar  1 <1>  -0.6200 
 29 H       -5.6870    -2.5370     1.0930 H     1 <1>   0.1500 
 30 H       -5.8610    -0.3670     2.0230 H     1 <1>   0.0800 
 31 H       -4.5160     0.6760     1.6380 H     1 <1>   0.0800 
 32 H       -4.6540    -0.0220     3.2350 H     1 <1>   0.0800 
 33 H       -1.9360    -4.4680     0.6090 H     1 <1>   0.1500 
 34 H        0.0920    -3.4310     1.2570 H     1 <1>   0.0800 
 35 H       -0.0640    -2.3850     2.6440 H     1 <1>   0.0800 
 36 H        0.0990    -1.6990     1.0440 H     1 <1>   0.0800 
 37 H       -5.9750    -3.8170    -2.6260 H     1 <1>   0.0800 
 38 H       -5.2430    -2.7210    -1.4940 H     1 <1>   0.0800 
 39 H       -6.6110    -3.7160    -1.0080 H     1 <1>   0.0800 
 40 H       -3.6150    -4.8910    -2.9790 H     1 <1>   0.0800 
 41 H       -2.7470    -5.4750    -1.5880 H     1 <1>   0.0800 
 42 H       -2.9840    -3.7480    -1.8320 H     1 <1>   0.0800 
 43 H       -5.2520    -6.7540     0.5780 H     1 <1>   0.3700 
 44 H       -6.2410    -8.7320    -1.4380 H     1 <1>   0.0800 
 45 H       -8.0230    -7.4410     0.1510 H     1 <1>   0.0800 
 46 H       -4.3300    -9.1270     0.4870 H     1 <1>   0.0800 
 47 H       -5.5000   -10.3830     0.1010 H     1 <1>   0.0800 
 48 H       -7.8390    -9.0950     2.3420 H     1 <1>   0.0800 
 49 H       -6.8930    -7.6230     2.2120 H     1 <1>   0.0800 
 50 H       -7.9740   -10.4710    -0.0440 H     1 <1>   0.0800 
 51 H       -8.5940    -9.4060    -1.2660 H     1 <1>   0.0800 
 52 H      -10.5780    -7.8300    -0.6190 H     1 <1>   0.1500 
 53 H       -9.4290   -11.1300     1.8050 H     1 <1>   0.1500 
 54 H      -12.7170    -7.8350     0.5380 H     1 <1>   0.1500 
 55 H      -11.6130   -11.0020     2.8640 H     1 <1>   0.1500 
@<TRIPOS>BOND
  1   1   2  1   
  2   2   3  ar  
  3   2   4  ar  
  4   3   5  ar  
  5   3   6  1   
  6   4   7  ar  
  7   4   8  1   
  8   5   9  ar  
  9   5  29  1   
 10   6  30  1   
 11   6  31  1   
 12   6  32  1   
 13   7   9  ar  
 14   7  33  1   
 15   8  34  1   
 16   8  35  1   
 17   8  36  1   
 18   9  10  1   
 19  10  11  1   
 20  11  12  1   
 21  11  13  1   
 22  11  14  1   
 23  12  15  2   
 24  12  16  am  
 25  13  37  1   
 26  13  38  1   
 27  13  39  1   
 28  14  40  1   
 29  14  41  1   
 30  14  42  1   
 31  16  17  1   
 32  16  43  1   
 33  17  18  1   
 34  17  19  1   
 35  17  44  1   
 36  18  20  1   
 37  18  21  1   
 38  18  45  1   
 39  19  22  1   
 40  19  46  1   
 41  19  47  1   
 42  20  22  1   
 43  20  48  1   
 44  20  49  1   
 45  21  23  1   
 46  21  50  1   
 47  21  51  1   
 48  23  24  ar  
 49  23  25  ar  
 50  24  26  ar  
 51  24  52  1   
 52  25  27  ar  
 53  25  53  1   
 54  26  28  ar  
 55  26  54  1   
 56  27  28  ar  
 57  27  55  1   
@<TRIPOS>SUBSTRUCTURE
  1 ****  16 GROUP 4 **** **** 0

# MOE 2024.06 (io_trps.svl 2023.06)
