@<TRIPOS>MOLECULE
NONAME
58 60 1 0 0 
SMALL
USER_CHARGES


@<TRIPOS>ATOM
  1 O        1.4580     0.1720    -1.5750 O.2   1 <1>  -0.5700 
  2 C        1.7180     0.2400    -0.3980 C.2   1 <1>   0.5690 
  3 N        1.7390     1.4120     0.3020 N.am  1 <1>  -0.4940 
  4 C        2.0390    -1.0510     0.3350 C.3   1 <1>  -0.0990 
  5 C        1.6470     2.7360    -0.1830 C.2   1 <1>  -0.0880 
  6 C        0.9400    -2.1190     0.1310 C.3   1 <1>  -0.1600 
  7 N        2.2960     3.2520    -1.2690 N.pl3 1 <1>   0.3140 
  8 C        0.9390     3.7540     0.3610 C.2   1 <1>  -0.1810 
  9 C        1.3500    -3.5420     0.5610 C.3   1 <1>   0.4230 
 10 N        2.0140     4.5710    -1.4190 N.2   1 <1>  -0.7070 
 11 C        3.2620     2.5910    -2.1810 C.3   1 <1>   0.2390 
 12 C        1.2040     4.8520    -0.4480 C.2   1 <1>   0.1390 
 13 C        0.0340     3.7580     1.5790 C.3   1 <1>  -0.0590 
 14 N        0.2640    -4.5200     0.2270 N.4   1 <1>  -0.9590 
 15 C        1.6330    -3.5890     2.0680 C.3   1 <1>  -0.2400 
 16 C        4.3650     1.8370    -1.4380 C.ar  1 <1>  -0.1440 
 17 C        0.5860    -5.9300     0.6670 C.3   1 <1>   0.3430 
 18 C       -0.0840    -4.5380    -1.2460 C.3   1 <1>   0.3430 
 19 C        5.0460     2.4310    -0.3840 C.ar  1 <1>  -0.1500 
 20 C        4.6970     0.5440    -1.8150 C.ar  1 <1>  -0.1500 
 21 C       -0.4980    -6.9390     0.2420 C.3   1 <1>   0.1200 
 22 C       -1.1340    -5.6110    -1.5880 C.3   1 <1>   0.1200 
 23 C        6.0370     1.7420     0.2960 C.ar  1 <1>  -0.1440 
 24 C        5.6900    -0.1460    -1.1440 C.ar  1 <1>  -0.1500 
 25 O       -0.7130    -6.8620    -1.1350 O.3   1 <1>  -0.5600 
 26 C        6.3570     0.4510    -0.0890 C.ar  1 <1>  -0.1500 
 27 C        6.7740     2.4030     1.4460 C.3   1 <1>  -0.0970 
 28 H        1.9010     1.3450     1.3050 H     1 <1>   0.3700 
 29 H        2.1730    -0.8380     1.3800 H     1 <1>   0.0800 
 30 H        2.9750    -1.4090    -0.0540 H     1 <1>   0.0800 
 31 H        0.7180    -2.1210    -0.9190 H     1 <1>   0.0800 
 32 H        0.0540    -1.8110     0.6580 H     1 <1>   0.0800 
 33 H        2.2480    -3.8170     0.0290 H     1 <1>   0.0800 
 34 H        3.7100     3.3490    -2.7960 H     1 <1>   0.0800 
 35 H        2.7130     1.9290    -2.8230 H     1 <1>   0.0800 
 36 H        0.7890     5.8340    -0.2950 H     1 <1>   0.1500 
 37 H       -0.0670     2.7670     1.9810 H     1 <1>   0.0800 
 38 H       -0.9420     4.1170     1.3040 H     1 <1>   0.0800 
 39 H        0.4420     4.4020     2.3360 H     1 <1>   0.0800 
 40 H       -0.5780    -4.2260     0.7360 H     1 <1>   0.4500 
 41 H        0.7480    -3.3600     2.6360 H     1 <1>   0.0800 
 42 H        2.3900    -2.8730     2.3300 H     1 <1>   0.0800 
 43 H        2.0200    -4.5440     2.3730 H     1 <1>   0.0800 
 44 H        0.6860    -5.9720     1.7380 H     1 <1>   0.0800 
 45 H        1.5240    -6.2400     0.2350 H     1 <1>   0.0800 
 46 H        0.8030    -4.7350    -1.8260 H     1 <1>   0.0800 
 47 H       -0.4710    -3.5800    -1.5500 H     1 <1>   0.0800 
 48 H        4.8000     3.4380    -0.0920 H     1 <1>   0.1500 
 49 H        4.1810     0.0720    -2.6340 H     1 <1>   0.1500 
 50 H       -1.4270    -6.7540     0.7520 H     1 <1>   0.0800 
 51 H       -0.1780    -7.9420     0.4650 H     1 <1>   0.0800 
 52 H       -1.2620    -5.6770    -2.6550 H     1 <1>   0.0800 
 53 H       -2.0880    -5.3810    -1.1450 H     1 <1>   0.0800 
 54 H        5.9490    -1.1460    -1.4450 H     1 <1>   0.1500 
 55 H        7.1320    -0.0890     0.4260 H     1 <1>   0.1500 
 56 H        6.1530     3.1440     1.9170 H     1 <1>   0.0800 
 57 H        7.6640     2.8810     1.0780 H     1 <1>   0.0800 
 58 H        7.0520     1.6730     2.1850 H     1 <1>   0.0800 
@<TRIPOS>BOND
  1   1   2  2   
  2   2   3  am  
  3   2   4  1   
  4   3   5  1   
  5   3  28  1   
  6   4   6  1   
  7   4  29  1   
  8   4  30  1   
  9   5   7  1   
 10   5   8  2   
 11   6   9  1   
 12   6  31  1   
 13   6  32  1   
 14   7  10  1   
 15   7  11  1   
 16   8  12  1   
 17   8  13  1   
 18   9  14  1   
 19   9  15  1   
 20   9  33  1   
 21  10  12  2   
 22  11  16  1   
 23  11  34  1   
 24  11  35  1   
 25  12  36  1   
 26  13  37  1   
 27  13  38  1   
 28  13  39  1   
 29  14  17  1   
 30  14  18  1   
 31  14  40  1   
 32  15  41  1   
 33  15  42  1   
 34  15  43  1   
 35  16  19  ar  
 36  16  20  ar  
 37  17  21  1   
 38  17  44  1   
 39  17  45  1   
 40  18  22  1   
 41  18  46  1   
 42  18  47  1   
 43  19  23  ar  
 44  19  48  1   
 45  20  24  ar  
 46  20  49  1   
 47  21  25  1   
 48  21  50  1   
 49  21  51  1   
 50  22  25  1   
 51  22  52  1   
 52  22  53  1   
 53  23  26  ar  
 54  23  27  1   
 55  24  26  ar  
 56  24  54  1   
 57  26  55  1   
 58  27  56  1   
 59  27  57  1   
 60  27  58  1   
@<TRIPOS>SUBSTRUCTURE
  1 ****   2 GROUP 4 **** **** 0

# MOE 2024.06 (io_trps.svl 2023.06)
