@<TRIPOS>MOLECULE
NONAME
40 41 1 0 0 
SMALL
USER_CHARGES


@<TRIPOS>ATOM
  1 F        0.6700     3.0850    -0.7220 F     1 <1>  -0.3400 
  2 C        0.4720     2.9830     0.5910 C.3   1 <1>   0.9600 
  3 F        0.1880     4.2240     0.9750 F     1 <1>  -0.3400 
  4 O        1.7200     2.6680     1.2090 O.3   1 <1>  -0.3630 
  5 C       -0.7330     2.0460     0.9060 C.3   1 <1>   0.6000 
  6 C        2.4570     1.6310     0.7520 C.ar  1 <1>   0.0830 
  7 F       -0.8560     1.8110     2.2140 F     1 <1>  -0.3400 
  8 F       -0.6060     0.8340     0.3630 F     1 <1>  -0.3400 
  9 C        3.4490     1.8130    -0.2270 C.ar  1 <1>   0.0860 
 10 C        2.2210     0.3820     1.3080 C.ar  1 <1>  -0.1500 
 11 C        3.7980     3.1050    -0.7950 C.2   1 <1>   0.5440 
 12 C        4.1330     0.6720    -0.6520 C.ar  1 <1>  -0.1500 
 13 C        2.9260    -0.7230     0.8730 C.ar  1 <1>  -0.1500 
 14 O        4.2270     3.1850    -1.9300 O.2   1 <1>  -0.5700 
 15 N        3.6820     4.2550    -0.0640 N.am  1 <1>  -0.7300 
 16 C        3.8810    -0.5770    -0.1170 C.ar  1 <1>  -0.1500 
 17 C        3.9740     5.6210    -0.5400 C.3   1 <1>   0.1400 
 18 C        4.8690     6.3200     0.4840 C.3   1 <1>  -0.1600 
 19 C        5.2620     7.7390     0.0380 C.3   1 <1>  -0.0800 
 20 C        6.2010     8.4130     1.0430 C.3   1 <1>   0.1200 
 21 C        4.0690     8.6930    -0.0330 C.3   1 <1>  -0.1600 
 22 O        5.4460     9.3930     1.6730 O.3   1 <1>  -0.5600 
 23 C        4.5180     9.8990     0.7770 C.3   1 <1>   0.1200 
 24 H       -1.6600     2.4600     0.5570 H     1 <1>   0.0800 
 25 H        1.4830     0.2660     2.0830 H     1 <1>   0.1500 
 26 H        4.8840     0.7740    -1.4190 H     1 <1>   0.1500 
 27 H        2.7340    -1.6930     1.3000 H     1 <1>   0.1500 
 28 H        3.2850     4.1870     0.8760 H     1 <1>   0.3700 
 29 H        4.4290    -1.4350    -0.4670 H     1 <1>   0.1500 
 30 H        3.0470     6.1540    -0.6620 H     1 <1>   0.0800 
 31 H        4.4710     5.5800    -1.4950 H     1 <1>   0.0800 
 32 H        5.7650     5.7350     0.6060 H     1 <1>   0.0800 
 33 H        4.3640     6.3710     1.4330 H     1 <1>   0.0800 
 34 H        5.7620     7.6870    -0.9150 H     1 <1>   0.0800 
 35 H        7.0200     8.8990     0.5400 H     1 <1>   0.0800 
 36 H        6.5800     7.7360     1.7880 H     1 <1>   0.0800 
 37 H        3.1970     8.2740     0.4360 H     1 <1>   0.0800 
 38 H        3.8260     8.9710    -1.0430 H     1 <1>   0.0800 
 39 H        3.7130    10.3590     1.3230 H     1 <1>   0.0800 
 40 H        5.0150    10.6270     0.1580 H     1 <1>   0.0800 
@<TRIPOS>BOND
  1   1   2  1   
  2   2   3  1   
  3   2   4  1   
  4   2   5  1   
  5   4   6  1   
  6   5   7  1   
  7   5   8  1   
  8   5  24  1   
  9   6   9  ar  
 10   6  10  ar  
 11   9  11  1   
 12   9  12  ar  
 13  10  13  ar  
 14  10  25  1   
 15  11  14  2   
 16  11  15  am  
 17  12  16  ar  
 18  12  26  1   
 19  13  16  ar  
 20  13  27  1   
 21  15  17  1   
 22  15  28  1   
 23  16  29  1   
 24  17  18  1   
 25  17  30  1   
 26  17  31  1   
 27  18  19  1   
 28  18  32  1   
 29  18  33  1   
 30  19  20  1   
 31  19  21  1   
 32  19  34  1   
 33  20  22  1   
 34  20  35  1   
 35  20  36  1   
 36  21  23  1   
 37  21  37  1   
 38  21  38  1   
 39  22  23  1   
 40  23  39  1   
 41  23  40  1   
@<TRIPOS>SUBSTRUCTURE
  1 ****  15 GROUP 4 **** **** 0

# MOE 2024.06 (io_trps.svl 2023.06)
