@<TRIPOS>MOLECULE
NONAME
51 52 1 0 0 
SMALL
USER_CHARGES


@<TRIPOS>ATOM
  1 F       -1.0880     3.0490     1.7060 F     1 <1>  -0.1900 
  2 C       -0.4130     3.2030     0.5980 C.ar  1 <1>   0.1900 
  3 C        0.7940     3.8720     0.6400 C.ar  1 <1>  -0.1500 
  4 C       -0.9340     2.6890    -0.5730 C.ar  1 <1>  -0.1500 
  5 C        1.5270     4.0370    -0.5300 C.ar  1 <1>  -0.1440 
  6 C       -0.2120     2.8550    -1.7410 C.ar  1 <1>  -0.1500 
  7 C        1.0050     3.5220    -1.7150 C.ar  1 <1>  -0.1500 
  8 C        2.8900     4.7600    -0.5610 C.3   1 <1>   0.3940 
  9 N        3.9980     3.8660    -0.0710 N.3   1 <1>  -0.8100 
 10 C        2.9050     6.1970     0.0530 C.2   1 <1>   0.5690 
 11 C        4.1040     2.6110    -0.8250 C.3   1 <1>   0.0300 
 12 C        3.9480     3.6030     1.3740 C.3   1 <1>   0.0300 
 13 O        2.0130     6.5300     0.8050 O.2   1 <1>  -0.5700 
 14 N        3.9130     7.0970    -0.2500 N.am  1 <1>  -0.6600 
 15 C        3.8620     8.5040     0.2620 C.3   1 <1>   0.1400 
 16 C        5.1710     6.7260    -0.9630 C.3   1 <1>   0.1400 
 17 C        4.9830     8.8020     1.2670 C.3   1 <1>   0.1400 
 18 C        6.2700     6.4100     0.0580 C.3   1 <1>  -0.1600 
 19 N        6.3100     8.8920     0.5830 N.am  1 <1>  -0.6600 
 20 C        7.0950     7.6230     0.5130 C.3   1 <1>   0.1400 
 21 C        6.8350    10.0680     0.0890 C.2   1 <1>   0.5690 
 22 O        7.9260    10.0960    -0.4360 O.2   1 <1>  -0.5700 
 23 C        6.0550    11.3900     0.1100 C.3   1 <1>   0.1810 
 24 O        5.7800    11.8500     1.4110 O.3   1 <1>  -0.5600 
 25 C        5.2110    13.1190     1.4550 C.3   1 <1>   0.0400 
 26 H        1.1450     4.2600     1.5790 H     1 <1>   0.1500 
 27 H       -1.8780     2.1760    -0.5650 H     1 <1>   0.1500 
 28 H       -0.5940     2.4660    -2.6690 H     1 <1>   0.1500 
 29 H        1.5480     3.6350    -2.6370 H     1 <1>   0.1500 
 30 H        3.0900     4.9310    -1.6020 H     1 <1>   0.0800 
 31 H        4.1750     2.8170    -1.8790 H     1 <1>   0.0800 
 32 H        3.2450     1.9850    -0.6450 H     1 <1>   0.0800 
 33 H        4.9890     2.0780    -0.5220 H     1 <1>   0.0800 
 34 H        3.8480     4.5250     1.9220 H     1 <1>   0.0800 
 35 H        4.8590     3.1230     1.6860 H     1 <1>   0.0800 
 36 H        3.1210     2.9580     1.6150 H     1 <1>   0.0800 
 37 H        2.9200     8.6870     0.7480 H     1 <1>   0.0800 
 38 H        3.9280     9.1850    -0.5670 H     1 <1>   0.0800 
 39 H        5.4790     7.5280    -1.6130 H     1 <1>   0.0800 
 40 H        5.0110     5.8600    -1.5780 H     1 <1>   0.0800 
 41 H        5.0040     8.0330     2.0200 H     1 <1>   0.0800 
 42 H        4.7650     9.7240     1.7710 H     1 <1>   0.0800 
 43 H        6.9520     5.7060    -0.3840 H     1 <1>   0.0800 
 44 H        5.8410     5.9190     0.9120 H     1 <1>   0.0800 
 45 H        7.9100     7.7470    -0.1790 H     1 <1>   0.0800 
 46 H        7.5250     7.4250     1.4790 H     1 <1>   0.0800 
 47 H        5.1240    11.2640    -0.4110 H     1 <1>   0.0800 
 48 H        6.6410    12.1370    -0.3940 H     1 <1>   0.0800 
 49 H        5.0300    13.3680     2.4860 H     1 <1>   0.0800 
 50 H        4.2820    13.1140     0.9130 H     1 <1>   0.0800 
 51 H        5.8970    13.8300     1.0280 H     1 <1>   0.0800 
@<TRIPOS>BOND
  1   1   2  1   
  2   2   3  ar  
  3   2   4  ar  
  4   3   5  ar  
  5   3  26  1   
  6   4   6  ar  
  7   4  27  1   
  8   5   7  ar  
  9   5   8  1   
 10   6   7  ar  
 11   6  28  1   
 12   7  29  1   
 13   8   9  1   
 14   8  10  1   
 15   8  30  1   
 16   9  11  1   
 17   9  12  1   
 18  10  13  2   
 19  10  14  am  
 20  11  31  1   
 21  11  32  1   
 22  11  33  1   
 23  12  34  1   
 24  12  35  1   
 25  12  36  1   
 26  14  15  1   
 27  14  16  1   
 28  15  17  1   
 29  15  37  1   
 30  15  38  1   
 31  16  18  1   
 32  16  39  1   
 33  16  40  1   
 34  17  19  1   
 35  17  41  1   
 36  17  42  1   
 37  18  20  1   
 38  18  43  1   
 39  18  44  1   
 40  19  20  1   
 41  19  21  am  
 42  20  45  1   
 43  20  46  1   
 44  21  22  2   
 45  21  23  1   
 46  23  24  1   
 47  23  47  1   
 48  23  48  1   
 49  24  25  1   
 50  25  49  1   
 51  25  50  1   
 52  25  51  1   
@<TRIPOS>SUBSTRUCTURE
  1 ****  10 GROUP 4 **** **** 0

# MOE 2024.06 (io_trps.svl 2023.06)
