@<TRIPOS>MOLECULE
NONAME
46 48 1 0 0 
SMALL
USER_CHARGES


@<TRIPOS>ATOM
  1 O        1.2390     3.4310     0.6610 O.2   1 <1>  -0.5700 
  2 C        0.2000     2.8300     0.5060 C.2   1 <1>   0.5690 
  3 N       -0.9150     3.1320     1.2410 N.am  1 <1>  -0.6600 
  4 C        0.1590     1.7580    -0.5710 C.3   1 <1>  -0.0990 
  5 C       -2.2510     2.5090     1.0270 C.3   1 <1>   0.1400 
  6 C       -0.8590     4.1350     2.3620 C.3   1 <1>   0.2010 
  7 C       -1.0960     0.8760    -0.5140 C.3   1 <1>  -0.1600 
  8 C       -2.3290     1.7580    -0.3060 C.3   1 <1>  -0.1600 
  9 C       -0.8810     5.5850     1.8800 C.2   1 <1>   0.5690 
 10 O       -1.7760     6.3100     2.2500 O.2   1 <1>  -0.5700 
 11 N        0.1330     5.9810     1.0550 N.am  1 <1>  -0.4940 
 12 C        0.4070     7.2360     0.4630 C.2   1 <1>  -0.0880 
 13 N        1.4130     7.4750    -0.4230 N.pl3 1 <1>   0.3140 
 14 C       -0.2320     8.4150     0.6420 C.2   1 <1>  -0.1500 
 15 N        1.4250     8.7820    -0.8060 N.2   1 <1>  -0.7070 
 16 C        2.3820     6.4540    -0.9360 C.3   1 <1>   0.2710 
 17 C        0.4420     9.3240    -0.1630 C.2   1 <1>   0.1080 
 18 C        3.5240     6.2630     0.0910 C.3   1 <1>  -0.1950 
 19 C        2.8590     6.7950    -2.3610 C.3   1 <1>  -0.2400 
 20 C        0.0960    10.7870    -0.3000 C.3   1 <1>  -0.0590 
 21 C        4.6530     7.2330     0.2480 C.3   1 <1>  -0.2000 
 22 C        4.9200     5.8450    -0.2630 C.3   1 <1>  -0.2000 
 23 H        1.0370     1.1440    -0.4840 H     1 <1>   0.0800 
 24 H        0.2000     2.2560    -1.5220 H     1 <1>   0.0800 
 25 H       -3.0110     3.2720     1.0490 H     1 <1>   0.0800 
 26 H       -2.4400     1.8220     1.8350 H     1 <1>   0.0800 
 27 H        0.0440     3.9820     2.9250 H     1 <1>   0.0800 
 28 H       -1.6870     3.9820     3.0300 H     1 <1>   0.0800 
 29 H       -1.0100     0.1800     0.3030 H     1 <1>   0.0800 
 30 H       -1.1880     0.3130    -1.4280 H     1 <1>   0.0800 
 31 H       -2.4120     2.4700    -1.1090 H     1 <1>   0.0800 
 32 H       -3.2180     1.1520    -0.3160 H     1 <1>   0.0800 
 33 H        0.7730     5.2070     0.8210 H     1 <1>   0.3700 
 34 H       -1.0790     8.6180     1.2700 H     1 <1>   0.1500 
 35 H        1.8500     5.5230    -1.0040 H     1 <1>   0.0800 
 36 H        3.1370     5.8370     1.0010 H     1 <1>   0.1000 
 37 H        3.4410     7.6980    -2.3620 H     1 <1>   0.0800 
 38 H        2.0090     6.9330    -3.0040 H     1 <1>   0.0800 
 39 H        3.4550     5.9950    -2.7570 H     1 <1>   0.0800 
 40 H       -0.7510    11.0320     0.3130 H     1 <1>   0.0800 
 41 H       -0.1340    11.0060    -1.3260 H     1 <1>   0.0800 
 42 H        0.9370    11.3820     0.0050 H     1 <1>   0.0800 
 43 H        4.9620     7.4950     1.2450 H     1 <1>   0.1000 
 44 H        4.7200     8.0680    -0.4280 H     1 <1>   0.1000 
 45 H        5.2320     5.7440    -1.2870 H     1 <1>   0.1000 
 46 H        5.4240     5.1470     0.3840 H     1 <1>   0.1000 
@<TRIPOS>BOND
  1   1   2  2   
  2   2   3  am  
  3   2   4  1   
  4   3   5  1   
  5   3   6  1   
  6   4   7  1   
  7   4  23  1   
  8   4  24  1   
  9   5   8  1   
 10   5  25  1   
 11   5  26  1   
 12   6   9  1   
 13   6  27  1   
 14   6  28  1   
 15   7   8  1   
 16   7  29  1   
 17   7  30  1   
 18   8  31  1   
 19   8  32  1   
 20   9  10  2   
 21   9  11  am  
 22  11  12  1   
 23  11  33  1   
 24  12  13  1   
 25  12  14  2   
 26  13  15  1   
 27  13  16  1   
 28  14  17  1   
 29  14  34  1   
 30  15  17  2   
 31  16  18  1   
 32  16  19  1   
 33  16  35  1   
 34  17  20  1   
 35  18  21  1   
 36  18  22  1   
 37  18  36  1   
 38  19  37  1   
 39  19  38  1   
 40  19  39  1   
 41  20  40  1   
 42  20  41  1   
 43  20  42  1   
 44  21  22  1   
 45  21  43  1   
 46  21  44  1   
 47  22  45  1   
 48  22  46  1   
@<TRIPOS>SUBSTRUCTURE
  1 ****  11 GROUP 4 **** **** 0

# MOE 2024.06 (io_trps.svl 2023.06)
