@<TRIPOS>MOLECULE
NONAME
49 52 1 0 0 
SMALL
USER_CHARGES


@<TRIPOS>ATOM
  1 O        1.2990    -0.4760     1.6080 O.3   1 <1>  -0.6800 
  2 C        1.5190    -1.8450     1.6080 C.3   1 <1>   0.1200 
  3 C        0.4880    -2.4960     0.6890 C.3   1 <1>   0.0960 
  4 N        0.7760    -3.9350     0.5360 N.pl3 1 <1>   0.3140 
  5 N        0.9090    -4.7570     1.5910 N.2   1 <1>  -0.7070 
  6 C        0.9390    -4.6120    -0.6190 C.2   1 <1>  -0.3020 
  7 C        1.1720    -5.9210     1.0990 C.2   1 <1>   0.1080 
  8 C        1.1900    -5.9000    -0.2920 C.2   1 <1>  -0.1810 
  9 C        1.4110    -7.1120     2.0050 C.3   1 <1>  -0.0590 
 10 C        1.4130    -7.0800    -1.2090 C.3   1 <1>   0.5240 
 11 N        0.2050    -7.9320    -1.1380 N.4   1 <1>  -0.8520 
 12 C        0.4160    -9.2530    -1.7450 C.3   1 <1>   0.2960 
 13 C       -1.0020    -7.2460    -1.6640 C.3   1 <1>   0.4860 
 14 C       -0.2500   -10.4320    -1.1210 C.3   1 <1>  -0.2000 
 15 C        1.2310   -10.2440    -0.9860 C.3   1 <1>  -0.2000 
 16 C       -2.1610    -7.6570    -0.7860 C.ar  1 <1>  -0.1440 
 17 C       -3.0640    -8.6090    -1.2090 C.ar  1 <1>  -0.1500 
 18 C       -2.3030    -7.0640     0.4800 C.ar  1 <1>  -0.1500 
 19 C       -4.1060    -8.9960    -0.3640 C.ar  1 <1>   0.0000 
 20 C       -3.3270    -7.4370     1.3190 C.ar  1 <1>  -0.1500 
 21 C       -4.2290    -8.4130     0.8920 C.ar  1 <1>  -0.1520 
 22 C       -5.1640    -9.9220    -0.4800 C.2   1 <1>  -0.1500 
 23 N       -5.3200    -8.9610     1.5170 N.pl3 1 <1>   0.0330 
 24 C       -5.8770    -9.8780     0.6710 C.2   1 <1>  -0.3020 
 25 H        1.9110    -0.0260     2.2260 H     1 <1>   0.4000 
 26 H        1.4120    -2.2090     2.6160 H     1 <1>   0.0800 
 27 H        2.5190    -2.0250     1.2530 H     1 <1>   0.0800 
 28 H        0.5190    -2.0310    -0.2790 H     1 <1>   0.0800 
 29 H       -0.4930    -2.3890     1.1100 H     1 <1>   0.0800 
 30 H        0.8670    -4.1330    -1.5790 H     1 <1>   0.1500 
 31 H        1.8900    -6.7780     2.9080 H     1 <1>   0.0800 
 32 H        2.0470    -7.8380     1.5350 H     1 <1>   0.0800 
 33 H        0.4730    -7.5650     2.2690 H     1 <1>   0.0800 
 34 H        2.2800    -7.6300    -0.8800 H     1 <1>   0.0800 
 35 H        1.5780    -6.7430    -2.2190 H     1 <1>   0.0800 
 36 H       -0.0020    -8.0730    -0.1430 H     1 <1>   0.4500 
 37 H        0.5150    -9.2310    -2.8200 H     1 <1>   0.1000 
 38 H       -1.1830    -7.5240    -2.6890 H     1 <1>   0.0800 
 39 H       -0.8900    -6.1760    -1.6080 H     1 <1>   0.0800 
 40 H       -0.5990   -11.2310    -1.7530 H     1 <1>   0.1000 
 41 H       -0.8670   -10.3050    -0.2480 H     1 <1>   0.1000 
 42 H        1.6160   -10.0130    -0.0080 H     1 <1>   0.1000 
 43 H        1.8670   -10.9270    -1.5240 H     1 <1>   0.1000 
 44 H       -2.9970    -9.0790    -2.1740 H     1 <1>   0.1500 
 45 H       -1.6130    -6.3020     0.8070 H     1 <1>   0.1500 
 46 H       -3.4430    -6.9870     2.2900 H     1 <1>   0.1500 
 47 H       -5.3420   -10.5360    -1.3450 H     1 <1>   0.1500 
 48 H       -5.6570    -8.7130     2.4530 H     1 <1>   0.2700 
 49 H       -6.7520   -10.4440     0.9390 H     1 <1>   0.1500 
@<TRIPOS>BOND
  1   1   2  1   
  2   1  25  1   
  3   2   3  1   
  4   2  26  1   
  5   2  27  1   
  6   3   4  1   
  7   3  28  1   
  8   3  29  1   
  9   4   5  1   
 10   4   6  1   
 11   5   7  2   
 12   6   8  2   
 13   6  30  1   
 14   7   8  1   
 15   7   9  1   
 16   8  10  1   
 17   9  31  1   
 18   9  32  1   
 19   9  33  1   
 20  10  11  1   
 21  10  34  1   
 22  10  35  1   
 23  11  12  1   
 24  11  13  1   
 25  11  36  1   
 26  12  14  1   
 27  12  15  1   
 28  12  37  1   
 29  13  16  1   
 30  13  38  1   
 31  13  39  1   
 32  14  15  1   
 33  14  40  1   
 34  14  41  1   
 35  15  42  1   
 36  15  43  1   
 37  16  17  ar  
 38  16  18  ar  
 39  17  19  ar  
 40  17  44  1   
 41  18  20  ar  
 42  18  45  1   
 43  19  21  ar  
 44  19  22  1   
 45  20  21  ar  
 46  20  46  1   
 47  21  23  1   
 48  22  24  2   
 49  22  47  1   
 50  23  24  1   
 51  23  48  1   
 52  24  49  1   
@<TRIPOS>SUBSTRUCTURE
  1 ****  18 GROUP 4 **** **** 0

# MOE 2024.06 (io_trps.svl 2023.06)
