@<TRIPOS>MOLECULE
NONAME
44 46 1 0 0 
SMALL
USER_CHARGES


@<TRIPOS>ATOM
  1 CL      -0.8400     2.6450    -0.6950 Cl    1 <1>  -0.1770 
  2 C        0.8600     2.3100    -0.4920 C.ar  1 <1>   0.1770 
  3 C        1.7770     3.3290    -0.6690 C.ar  1 <1>  -0.1500 
  4 C        1.2620     1.0310    -0.1580 C.ar  1 <1>  -0.1500 
  5 C        3.1300     3.0670    -0.5140 C.ar  1 <1>  -0.1440 
  6 C        2.6120     0.7700     0.0020 C.ar  1 <1>  -0.1500 
  7 C        3.5390     1.7840    -0.1750 C.ar  1 <1>  -0.1500 
  8 C        4.1600     4.1740    -0.7070 C.3   1 <1>   0.0890 
  9 S        4.9240     4.7320     0.8260 S.o2  1 <1>   1.3330 
 10 O        5.7500     3.6970     1.4050 O.2   1 <1>  -0.6500 
 11 O        3.9330     5.4010     1.6370 O.2   1 <1>  -0.6500 
 12 N        6.0220     5.9480     0.3580 N.am  1 <1>  -0.8490 
 13 C        6.2890     6.8290     1.5260 C.3   1 <1>   0.1960 
 14 C        7.2580     5.3920    -0.2150 C.3   1 <1>   0.1960 
 15 C        7.3810     7.9230     1.3800 C.3   1 <1>   0.4230 
 16 C        8.0780     6.4450    -0.9930 C.3   1 <1>  -0.0800 
 17 N        7.3770     8.6620     0.0590 N.4   1 <1>  -0.9590 
 18 C        8.8040     7.3800     1.6690 C.3   1 <1>   0.1200 
 19 C        9.5220     6.5870    -0.4610 C.3   1 <1>   0.1200 
 20 C        7.3370     7.7880    -1.1600 C.3   1 <1>   0.3430 
 21 C        6.3410     9.7320    -0.0020 C.3   1 <1>   0.2630 
 22 O        9.6380     7.5420     0.5530 O.3   1 <1>  -0.5600 
 23 H        1.4170     4.3100    -0.9230 H     1 <1>   0.1500 
 24 H        0.5290     0.2560    -0.0240 H     1 <1>   0.1500 
 25 H        2.9410    -0.2210     0.2670 H     1 <1>   0.1500 
 26 H        4.5850     1.5610    -0.0390 H     1 <1>   0.1500 
 27 H        3.6860     5.0100    -1.1830 H     1 <1>   0.0800 
 28 H        4.9160     3.8100    -1.3730 H     1 <1>   0.0800 
 29 H        5.3750     7.3410     1.7740 H     1 <1>   0.0800 
 30 H        6.5320     6.2190     2.3810 H     1 <1>   0.0800 
 31 H        7.8480     4.9280     0.5600 H     1 <1>   0.0800 
 32 H        6.9990     4.6060    -0.9060 H     1 <1>   0.0800 
 33 H        7.1860     8.6370     2.1630 H     1 <1>   0.0800 
 34 H        8.1800     6.0360    -1.9820 H     1 <1>   0.0800 
 35 H        8.3260     9.0760     0.0390 H     1 <1>   0.4500 
 36 H        8.8030     6.3480     1.9740 H     1 <1>   0.0800 
 37 H        9.2380     7.9520     2.4710 H     1 <1>   0.0800 
 38 H       10.1700     6.9110    -1.2580 H     1 <1>   0.0800 
 39 H        9.9030     5.6480    -0.0920 H     1 <1>   0.0800 
 40 H        6.3100     7.5780    -1.4150 H     1 <1>   0.0800 
 41 H        7.7730     8.3260    -1.9860 H     1 <1>   0.0800 
 42 H        5.3540     9.2970     0.0280 H     1 <1>   0.0800 
 43 H        6.4400    10.2970    -0.9150 H     1 <1>   0.0800 
 44 H        6.4480    10.4070     0.8310 H     1 <1>   0.0800 
@<TRIPOS>BOND
  1   1   2  1   
  2   2   3  ar  
  3   2   4  ar  
  4   3   5  ar  
  5   3  23  1   
  6   4   6  ar  
  7   4  24  1   
  8   5   7  ar  
  9   5   8  1   
 10   6   7  ar  
 11   6  25  1   
 12   7  26  1   
 13   8   9  1   
 14   8  27  1   
 15   8  28  1   
 16   9  10  2   
 17   9  11  2   
 18   9  12  am  
 19  12  13  1   
 20  12  14  1   
 21  13  15  1   
 22  13  29  1   
 23  13  30  1   
 24  14  16  1   
 25  14  31  1   
 26  14  32  1   
 27  15  17  1   
 28  15  18  1   
 29  15  33  1   
 30  16  19  1   
 31  16  20  1   
 32  16  34  1   
 33  17  20  1   
 34  17  21  1   
 35  17  35  1   
 36  18  22  1   
 37  18  36  1   
 38  18  37  1   
 39  19  22  1   
 40  19  38  1   
 41  19  39  1   
 42  20  40  1   
 43  20  41  1   
 44  21  42  1   
 45  21  43  1   
 46  21  44  1   
@<TRIPOS>SUBSTRUCTURE
  1 ****   9 GROUP 4 **** **** 0

# MOE 2024.06 (io_trps.svl 2023.06)
