@<TRIPOS>MOLECULE
NONAME
45 46 1 0 0 
SMALL
USER_CHARGES


@<TRIPOS>ATOM
  1 O        0.4120    -0.2970     1.3060 O.2   1 <1>  -0.5700 
  2 C        1.0990    -0.8930     0.5010 C.2   1 <1>   0.5440 
  3 N        2.2550    -0.3100     0.0590 N.am  1 <1>  -0.7300 
  4 C        0.6920    -2.2050     0.0330 C.ar  1 <1>   0.0860 
  5 C        2.7580     1.0120     0.4810 C.3   1 <1>   0.1400 
  6 C       -0.1710    -3.0020     0.7630 C.ar  1 <1>  -0.1500 
  7 C        1.1180    -2.7630    -1.1680 C.ar  1 <1>  -0.1500 
  8 C        4.2540     0.9000     0.7480 C.3   1 <1>  -0.2400 
  9 C       -0.5530    -4.2550     0.3080 C.ar  1 <1>   0.4100 
 10 C        0.6810    -4.0170    -1.5460 C.ar  1 <1>   0.1600 
 11 N       -0.1460    -4.7730    -0.8410 N.ar  1 <1>  -0.6200 
 12 N       -1.4100    -5.0200     1.0680 N.pl3 1 <1>  -0.8690 
 13 C       -1.3650    -6.5200     0.9780 C.3   1 <1>   0.2090 
 14 C       -1.9320    -7.1260    -0.3420 C.3   1 <1>   0.6030 
 15 N       -3.2920    -6.6320    -0.7650 N.4   1 <1>  -0.9590 
 16 C       -2.0350    -8.6440    -0.2570 C.2   1 <1>  -0.0400 
 17 C       -3.1980    -5.3050    -1.4450 C.3   1 <1>   0.2630 
 18 C       -4.2900    -6.6110     0.3430 C.3   1 <1>   0.2630 
 19 O       -2.6200    -9.2720    -1.2630 O.3   1 <1>  -0.2800 
 20 C       -1.6400    -9.5370     0.6820 C.2   1 <1>  -0.1500 
 21 C       -2.6080   -10.5620    -0.9960 C.2   1 <1>  -0.0100 
 22 C       -2.0170   -10.7940     0.1940 C.2   1 <1>  -0.1500 
 23 H        2.8820    -0.8310    -0.5530 H     1 <1>   0.3700 
 24 H        2.2480     1.3370     1.3730 H     1 <1>   0.0800 
 25 H        2.5700     1.7310    -0.2990 H     1 <1>   0.0800 
 26 H       -0.5520    -2.6390     1.6990 H     1 <1>   0.1500 
 27 H        1.7820    -2.2180    -1.8120 H     1 <1>   0.1500 
 28 H        4.4380     0.1850     1.5300 H     1 <1>   0.0800 
 29 H        4.6330     1.8540     1.0670 H     1 <1>   0.0800 
 30 H        4.7770     0.6070    -0.1440 H     1 <1>   0.0800 
 31 H        1.0320    -4.4200    -2.4820 H     1 <1>   0.1500 
 32 H       -1.4870    -4.6800     2.0340 H     1 <1>   0.4000 
 33 H       -1.9060    -6.9300     1.8110 H     1 <1>   0.0800 
 34 H       -0.3410    -6.8380     1.0770 H     1 <1>   0.0800 
 35 H       -1.2310    -6.9040    -1.1300 H     1 <1>   0.0800 
 36 H       -3.5880    -7.3430    -1.4530 H     1 <1>   0.4500 
 37 H       -2.9280    -4.5390    -0.7370 H     1 <1>   0.0800 
 38 H       -4.1430    -5.0430    -1.8900 H     1 <1>   0.0800 
 39 H       -2.4460    -5.3320    -2.2160 H     1 <1>   0.0800 
 40 H       -4.0030    -5.8860     1.0880 H     1 <1>   0.0800 
 41 H       -4.3570    -7.5830     0.8050 H     1 <1>   0.0800 
 42 H       -5.2630    -6.3450    -0.0380 H     1 <1>   0.0800 
 43 H       -1.1360    -9.3850     1.6210 H     1 <1>   0.1500 
 44 H       -3.0390   -11.2500    -1.7050 H     1 <1>   0.1500 
 45 H       -1.8520   -11.7370     0.6900 H     1 <1>   0.1500 
@<TRIPOS>BOND
  1   1   2  2   
  2   2   3  am  
  3   2   4  1   
  4   3   5  1   
  5   3  23  1   
  6   4   6  ar  
  7   4   7  ar  
  8   5   8  1   
  9   5  24  1   
 10   5  25  1   
 11   6   9  ar  
 12   6  26  1   
 13   7  10  ar  
 14   7  27  1   
 15   8  28  1   
 16   8  29  1   
 17   8  30  1   
 18   9  11  ar  
 19   9  12  1   
 20  10  11  ar  
 21  10  31  1   
 22  12  13  1   
 23  12  32  1   
 24  13  14  1   
 25  13  33  1   
 26  13  34  1   
 27  14  15  1   
 28  14  16  1   
 29  14  35  1   
 30  15  17  1   
 31  15  18  1   
 32  15  36  1   
 33  16  19  1   
 34  16  20  2   
 35  17  37  1   
 36  17  38  1   
 37  17  39  1   
 38  18  40  1   
 39  18  41  1   
 40  18  42  1   
 41  19  21  1   
 42  20  22  1   
 43  20  43  1   
 44  21  22  2   
 45  21  44  1   
 46  22  45  1   
@<TRIPOS>SUBSTRUCTURE
  1 ****   9 GROUP 4 **** **** 0

# MOE 2024.06 (io_trps.svl 2023.06)
