@<TRIPOS>MOLECULE
NONAME
41 42 1 0 0 
SMALL
USER_CHARGES


@<TRIPOS>ATOM
  1 CL      -1.0120    -1.4490     0.0210 Cl    1 <1>  -0.1770 
  2 C       -1.9400     0.0270    -0.1160 C.ar  1 <1>   0.1770 
  3 C       -3.2990     0.0110    -0.4640 C.ar  1 <1>   0.0860 
  4 C       -1.2530     1.2020     0.1270 C.ar  1 <1>  -0.1500 
  5 C       -4.0600    -1.1980    -0.7150 C.2   1 <1>   0.5440 
  6 C       -3.9380     1.2530    -0.5730 C.ar  1 <1>  -0.1500 
  7 C       -1.9360     2.3940     0.0140 C.ar  1 <1>   0.1900 
  8 O       -4.9510    -1.1970    -1.5420 O.2   1 <1>  -0.5700 
  9 N       -3.8550    -2.3460    -0.0080 N.am  1 <1>  -0.7300 
 10 C       -3.2710     2.4420    -0.3350 C.ar  1 <1>  -0.1500 
 11 F       -1.3010     3.5090     0.2420 F     1 <1>  -0.1900 
 12 C       -4.5750    -3.6200    -0.2350 C.3   1 <1>   0.2200 
 13 C       -5.8650    -3.6210     0.5890 C.3   1 <1>  -0.0800 
 14 C       -3.7890    -4.7950     0.3440 C.3   1 <1>   0.1200 
 15 C       -5.6630    -4.7690     1.5850 C.3   1 <1>   0.1200 
 16 C       -7.1430    -3.6560    -0.2780 C.3   1 <1>  -0.0550 
 17 O       -4.2890    -4.9670     1.6300 O.3   1 <1>  -0.5600 
 18 S       -7.4810    -5.1620    -1.2050 S.o2  1 <1>   1.3330 
 19 O       -8.5110    -4.8920    -2.1820 O.2   1 <1>  -0.6500 
 20 O       -6.2310    -5.7520    -1.6320 O.2   1 <1>  -0.6500 
 21 N       -8.1700    -6.1920    -0.0410 N.am  1 <1>  -0.8490 
 22 C       -9.6060    -5.9660     0.1630 C.3   1 <1>   0.1160 
 23 C       -7.9310    -7.6070    -0.3400 C.3   1 <1>   0.1160 
 24 H       -0.2130     1.1910     0.3950 H     1 <1>   0.1500 
 25 H       -4.9790     1.2790    -0.8510 H     1 <1>   0.1500 
 26 H       -3.1420    -2.3830     0.7250 H     1 <1>   0.3700 
 27 H       -3.7720     3.3910    -0.4200 H     1 <1>   0.1500 
 28 H       -4.7390    -3.7570    -1.2900 H     1 <1>   0.0800 
 29 H       -5.9090    -2.7160     1.1680 H     1 <1>   0.0800 
 30 H       -2.7290    -4.6160     0.3840 H     1 <1>   0.0800 
 31 H       -3.9900    -5.6940    -0.2130 H     1 <1>   0.0800 
 32 H       -6.1030    -5.6930     1.2590 H     1 <1>   0.0800 
 33 H       -6.0160    -4.5260     2.5730 H     1 <1>   0.0800 
 34 H       -7.0700    -2.8460    -0.9790 H     1 <1>   0.0800 
 35 H       -7.9860    -3.4430     0.3480 H     1 <1>   0.0800 
 36 H       -9.9640    -6.5750     0.9750 H     1 <1>   0.0800 
 37 H      -10.1570    -6.2150    -0.7300 H     1 <1>   0.0800 
 38 H       -9.7910    -4.9340     0.4050 H     1 <1>   0.0800 
 39 H       -8.3720    -8.2310     0.4180 H     1 <1>   0.0800 
 40 H       -6.8720    -7.8070    -0.3620 H     1 <1>   0.0800 
 41 H       -8.3500    -7.8620    -1.3000 H     1 <1>   0.0800 
@<TRIPOS>BOND
  1   1   2  1   
  2   2   3  ar  
  3   2   4  ar  
  4   3   5  1   
  5   3   6  ar  
  6   4   7  ar  
  7   4  24  1   
  8   5   8  2   
  9   5   9  am  
 10   6  10  ar  
 11   6  25  1   
 12   7  10  ar  
 13   7  11  1   
 14   9  12  1   
 15   9  26  1   
 16  10  27  1   
 17  12  13  1   
 18  12  14  1   
 19  12  28  1   
 20  13  15  1   
 21  13  16  1   
 22  13  29  1   
 23  14  17  1   
 24  14  30  1   
 25  14  31  1   
 26  15  17  1   
 27  15  32  1   
 28  15  33  1   
 29  16  18  1   
 30  16  34  1   
 31  16  35  1   
 32  18  19  2   
 33  18  20  2   
 34  18  21  am  
 35  21  22  1   
 36  21  23  1   
 37  22  36  1   
 38  22  37  1   
 39  22  38  1   
 40  23  39  1   
 41  23  40  1   
 42  23  41  1   
@<TRIPOS>SUBSTRUCTURE
  1 ****   9 GROUP 4 **** **** 0

# MOE 2024.06 (io_trps.svl 2023.06)
