@<TRIPOS>MOLECULE
NONAME
48 50 1 0 0 
SMALL
USER_CHARGES


@<TRIPOS>ATOM
  1 O        1.7470    -0.4200     0.6700 O.co2 1 <1>  -0.9000 
  2 C        2.3310    -1.3570     0.0960 C.2   1 <1>   0.9790 
  3 O        3.4180    -1.1460    -0.4660 O.co2 1 <1>  -0.9000 
  4 C        1.7180    -2.6770     0.0680 C.ar  1 <1>  -0.1790 
  5 C        0.5750    -2.9420     0.8180 C.ar  1 <1>  -0.1500 
  6 C        2.2250    -3.7180    -0.7110 C.ar  1 <1>  -0.1500 
  7 C       -0.0590    -4.1680     0.7670 C.ar  1 <1>  -0.1430 
  8 C        1.6070    -4.9530    -0.7650 C.ar  1 <1>  -0.1500 
  9 C        0.4460    -5.1850    -0.0320 C.ar  1 <1>   0.0830 
 10 C       -1.3270    -4.3740     1.5530 C.3   1 <1>   0.4870 
 11 O       -0.2450    -6.3550    -0.0680 O.3   1 <1>  -0.3620 
 12 N       -2.4360    -4.4230     0.5720 N.4   1 <1>  -0.9590 
 13 C        0.2820    -7.4860    -0.7310 C.3   1 <1>   0.0400 
 14 C       -3.7000    -4.9340     1.1700 C.3   1 <1>   0.3430 
 15 C       -2.6150    -3.1130    -0.1190 C.3   1 <1>   0.3430 
 16 C       -4.7590    -5.1670     0.0810 C.3   1 <1>   0.0000 
 17 C       -3.6530    -3.2590    -1.2340 C.3   1 <1>  -0.1600 
 18 C       -6.0400    -5.7060     0.7360 C.3   1 <1>   0.2000 
 19 C       -4.9770    -3.8540    -0.7220 C.3   1 <1>  -0.1600 
 20 C       -4.4060    -6.3310    -0.8640 C.3   1 <1>  -0.1600 
 21 O       -6.7850    -4.7100     1.3310 O.3   1 <1>  -0.6800 
 22 C       -6.8180    -6.4040    -0.3740 C.3   1 <1>  -0.1600 
 23 C       -5.7510    -6.8680    -1.3770 C.3   1 <1>  -0.1600 
 24 H        0.1910    -2.1460     1.4370 H     1 <1>   0.1500 
 25 H        3.1210    -3.5320    -1.2830 H     1 <1>   0.1500 
 26 H        2.0440    -5.7100    -1.3870 H     1 <1>   0.1500 
 27 H       -1.4720    -3.5680     2.2540 H     1 <1>   0.0800 
 28 H       -1.2600    -5.3050     2.0920 H     1 <1>   0.0800 
 29 H       -2.1030    -5.0970    -0.1340 H     1 <1>   0.4500 
 30 H       -0.3890    -8.3120    -0.5790 H     1 <1>   0.0800 
 31 H        1.2460    -7.7190    -0.3130 H     1 <1>   0.0800 
 32 H        0.3650    -7.2710    -1.7820 H     1 <1>   0.0800 
 33 H       -3.5140    -5.8610     1.6880 H     1 <1>   0.0800 
 34 H       -4.0830    -4.2200     1.8810 H     1 <1>   0.0800 
 35 H       -2.9450    -2.3700     0.5880 H     1 <1>   0.0800 
 36 H       -1.6790    -2.7820    -0.5440 H     1 <1>   0.0800 
 37 H       -3.8410    -2.2870    -1.6560 H     1 <1>   0.0800 
 38 H       -3.2420    -3.8650    -2.0210 H     1 <1>   0.0800 
 39 H       -5.7900    -6.4270     1.4980 H     1 <1>   0.0800 
 40 H       -5.6410    -4.0200    -1.5530 H     1 <1>   0.0800 
 41 H       -5.4380    -3.1160    -0.0880 H     1 <1>   0.0800 
 42 H       -3.7610    -6.0500    -1.6780 H     1 <1>   0.0800 
 43 H       -3.9200    -7.1160    -0.3070 H     1 <1>   0.0800 
 44 H       -7.4180    -4.3330     0.6880 H     1 <1>   0.4000 
 45 H       -7.3720    -7.2400     0.0170 H     1 <1>   0.0800 
 46 H       -7.4930    -5.7220    -0.8620 H     1 <1>   0.0800 
 47 H       -5.7280    -7.9430    -1.4540 H     1 <1>   0.0800 
 48 H       -5.9670    -6.4610    -2.3510 H     1 <1>   0.0800 
@<TRIPOS>BOND
  1   1   2  ar  
  2   2   3  ar  
  3   2   4  1   
  4   4   5  ar  
  5   4   6  ar  
  6   5   7  ar  
  7   5  24  1   
  8   6   8  ar  
  9   6  25  1   
 10   7   9  ar  
 11   7  10  1   
 12   8   9  ar  
 13   8  26  1   
 14   9  11  1   
 15  10  12  1   
 16  10  27  1   
 17  10  28  1   
 18  11  13  1   
 19  12  14  1   
 20  12  15  1   
 21  12  29  1   
 22  13  30  1   
 23  13  31  1   
 24  13  32  1   
 25  14  16  1   
 26  14  33  1   
 27  14  34  1   
 28  15  17  1   
 29  15  35  1   
 30  15  36  1   
 31  16  18  1   
 32  16  19  1   
 33  16  20  1   
 34  17  19  1   
 35  17  37  1   
 36  17  38  1   
 37  18  21  1   
 38  18  22  1   
 39  18  39  1   
 40  19  40  1   
 41  19  41  1   
 42  20  23  1   
 43  20  42  1   
 44  20  43  1   
 45  21  44  1   
 46  22  23  1   
 47  22  45  1   
 48  22  46  1   
 49  23  47  1   
 50  23  48  1   
@<TRIPOS>SUBSTRUCTURE
  1 ****  12 GROUP 4 **** **** 0

# MOE 2024.06 (io_trps.svl 2023.06)
