@<TRIPOS>MOLECULE
NONAME
53 55 1 0 0 
SMALL
USER_CHARGES


@<TRIPOS>ATOM
  1 O        0.4270     1.4600    -1.5040 O.2   1 <1>  -0.5700 
  2 C        0.2510     2.5590    -1.0460 C.2   1 <1>   0.5690 
  3 N       -0.8080     2.8130    -0.2470 N.am  1 <1>  -0.7300 
  4 C        1.2110     3.7000    -1.3950 C.3   1 <1>   0.1810 
  5 C       -1.1100     4.1480     0.3270 C.3   1 <1>   0.3640 
  6 O        1.1250     4.7840    -0.4960 O.3   1 <1>  -0.5600 
  7 C       -2.5800     4.4620     0.0540 C.ar  1 <1>  -0.1440 
  8 C       -0.1910     5.2590    -0.2540 C.3   1 <1>   0.2610 
  9 C       -3.3760     4.9750     1.0690 C.ar  1 <1>  -0.1500 
 10 C       -3.1440     4.2520    -1.1990 C.ar  1 <1>  -0.1500 
 11 C       -0.1310     6.4970     0.6510 C.2   1 <1>   0.5690 
 12 C       -4.7090     5.2700     0.8380 C.ar  1 <1>  -0.1500 
 13 C       -4.4760     4.5470    -1.4310 C.ar  1 <1>  -0.1500 
 14 O       -0.6920     6.5140     1.7230 O.2   1 <1>  -0.5700 
 15 N        0.5850     7.5690     0.2280 N.am  1 <1>  -0.7300 
 16 C       -5.2600     5.0570    -0.4120 C.ar  1 <1>  -0.1500 
 17 C        0.8870     8.7510     1.0460 C.3   1 <1>   0.3210 
 18 C        2.2570     9.2540     0.6340 C.2   1 <1>  -0.1810 
 19 C        3.4570     8.5880     0.8640 C.2   1 <1>   0.1080 
 20 C        2.6090    10.3880    -0.0160 C.2   1 <1>  -0.3320 
 21 N        4.4730     9.2400     0.4020 N.2   1 <1>  -0.7070 
 22 C        3.6120     7.2520     1.5570 C.3   1 <1>  -0.0590 
 23 N        3.9600    10.3630    -0.1430 N.pl3 1 <1>   0.3140 
 24 C        1.7210    11.5110    -0.5330 C.3   1 <1>  -0.0600 
 25 C        4.8310    11.3950    -0.7860 C.3   1 <1>   0.1760 
 26 C        5.5600    10.8080    -2.0020 C.3   1 <1>  -0.2400 
 27 C        5.8330    11.9680     0.2270 C.3   1 <1>  -0.2400 
 28 H       -1.4640     2.0590    -0.0390 H     1 <1>   0.3700 
 29 H        0.9950     4.0600    -2.3840 H     1 <1>   0.0800 
 30 H        2.2210     3.3340    -1.3710 H     1 <1>   0.0800 
 31 H       -0.9520     4.0860     1.3900 H     1 <1>   0.0800 
 32 H       -0.5930     5.5740    -1.2000 H     1 <1>   0.0800 
 33 H       -2.9630     5.1540     2.0480 H     1 <1>   0.1500 
 34 H       -2.5520     3.8520    -2.0050 H     1 <1>   0.1500 
 35 H       -5.3150     5.6690     1.6330 H     1 <1>   0.1500 
 36 H       -4.9040     4.3780    -2.4040 H     1 <1>   0.1500 
 37 H        1.2000     7.4790    -0.5840 H     1 <1>   0.3700 
 38 H       -6.2960     5.2860    -0.5910 H     1 <1>   0.1500 
 39 H        0.1370     9.5020     0.8780 H     1 <1>   0.0800 
 40 H        0.8860     8.4930     2.0920 H     1 <1>   0.0800 
 41 H        2.9870     7.2090     2.4290 H     1 <1>   0.0800 
 42 H        4.6350     7.1160     1.8570 H     1 <1>   0.0800 
 43 H        3.3380     6.4610     0.8850 H     1 <1>   0.0800 
 44 H        0.6850    11.3020    -0.3430 H     1 <1>   0.0800 
 45 H        1.8510    11.6260    -1.5940 H     1 <1>   0.0800 
 46 H        1.9740    12.4360    -0.0450 H     1 <1>   0.0800 
 47 H        4.2020    12.1970    -1.1250 H     1 <1>   0.0800 
 48 H        6.2100    10.0060    -1.6950 H     1 <1>   0.0800 
 49 H        6.1520    11.5640    -2.4840 H     1 <1>   0.0800 
 50 H        4.8470    10.4270    -2.7110 H     1 <1>   0.0800 
 51 H        6.4920    11.1920     0.5760 H     1 <1>   0.0800 
 52 H        5.3080    12.3850     1.0680 H     1 <1>   0.0800 
 53 H        6.4230    12.7420    -0.2290 H     1 <1>   0.0800 
@<TRIPOS>BOND
  1   1   2  2   
  2   2   3  am  
  3   2   4  1   
  4   3   5  1   
  5   3  28  1   
  6   4   6  1   
  7   4  29  1   
  8   4  30  1   
  9   5   7  1   
 10   5   8  1   
 11   5  31  1   
 12   6   8  1   
 13   7   9  ar  
 14   7  10  ar  
 15   8  11  1   
 16   8  32  1   
 17   9  12  ar  
 18   9  33  1   
 19  10  13  ar  
 20  10  34  1   
 21  11  14  2   
 22  11  15  am  
 23  12  16  ar  
 24  12  35  1   
 25  13  16  ar  
 26  13  36  1   
 27  15  17  1   
 28  15  37  1   
 29  16  38  1   
 30  17  18  1   
 31  17  39  1   
 32  17  40  1   
 33  18  19  1   
 34  18  20  2   
 35  19  21  2   
 36  19  22  1   
 37  20  23  1   
 38  20  24  1   
 39  21  23  1   
 40  22  41  1   
 41  22  42  1   
 42  22  43  1   
 43  23  25  1   
 44  24  44  1   
 45  24  45  1   
 46  24  46  1   
 47  25  26  1   
 48  25  27  1   
 49  25  47  1   
 50  26  48  1   
 51  26  49  1   
 52  26  50  1   
 53  27  51  1   
 54  27  52  1   
 55  27  53  1   
@<TRIPOS>SUBSTRUCTURE
  1 ****  15 GROUP 4 **** **** 0

# MOE 2024.06 (io_trps.svl 2023.06)
