@<TRIPOS>MOLECULE
NONAME
41 43 1 0 0 
SMALL
USER_CHARGES


@<TRIPOS>ATOM
  1 CL       0.3400     0.1310    -0.4930 Cl    1 <1>  -0.1770 
  2 C        0.2610     1.8680    -0.3580 C.ar  1 <1>   0.1770 
  3 C        1.3810     2.6390    -0.6100 C.ar  1 <1>   0.1600 
  4 C       -0.9200     2.4730     0.0000 C.ar  1 <1>  -0.1500 
  5 N        1.4100     3.9600    -0.5280 N.ar  1 <1>  -0.6200 
  6 C       -0.8990     3.8500     0.0840 C.ar  1 <1>  -0.1500 
  7 C        0.2640     4.5840    -0.1790 C.ar  1 <1>   0.3960 
  8 C        0.1980     6.0500    -0.0800 C.2   1 <1>   0.5440 
  9 O       -0.8340     6.6010    -0.4290 O.2   1 <1>  -0.5700 
 10 N        1.2160     6.8580     0.4180 N.am  1 <1>  -0.6600 
 11 C        2.4070     6.3100     1.1410 C.3   1 <1>   0.1400 
 12 C        1.0680     8.3470     0.4030 C.3   1 <1>   0.1400 
 13 C        3.6300     6.1940     0.2180 C.3   1 <1>   0.1400 
 14 C        2.3790     9.1200     0.2090 C.3   1 <1>  -0.1600 
 15 N        4.2400     7.5270    -0.0810 N.am  1 <1>  -0.6600 
 16 C        3.3440     8.4790    -0.7920 C.3   1 <1>   0.1400 
 17 C        5.5550     7.8190     0.2500 C.2   1 <1>   0.7160 
 18 O        6.2680     6.8980     0.6160 O.2   1 <1>  -0.5700 
 19 C        6.1320     9.1590     0.1750 C.2   1 <1>   0.1410 
 20 N        5.4660    10.3260     0.4610 N.2   1 <1>  -0.5650 
 21 C        7.4030     9.5020    -0.1540 C.2   1 <1>  -0.0400 
 22 C        6.3500    11.2360     0.2900 C.2   1 <1>   0.3280 
 23 O        7.5240    10.7930    -0.0810 O.3   1 <1>  -0.2800 
 24 C        8.6180     8.6900    -0.5630 C.3   1 <1>  -0.0600 
 25 H        2.2900     2.1370    -0.8910 H     1 <1>   0.1500 
 26 H       -1.8070     1.8960     0.1990 H     1 <1>   0.1500 
 27 H       -1.7960     4.3800     0.3530 H     1 <1>   0.1500 
 28 H        2.1740     5.3350     1.5300 H     1 <1>   0.0800 
 29 H        2.6490     6.9340     1.9830 H     1 <1>   0.0800 
 30 H        0.5990     8.6600     1.3200 H     1 <1>   0.0800 
 31 H        0.4090     8.6220    -0.4030 H     1 <1>   0.0800 
 32 H        3.3500     5.7160    -0.7040 H     1 <1>   0.0800 
 33 H        4.3490     5.5570     0.7020 H     1 <1>   0.0800 
 34 H        2.8710     9.2610     1.1550 H     1 <1>   0.0800 
 35 H        2.1230    10.1000    -0.1510 H     1 <1>   0.0800 
 36 H        3.9300     9.2420    -1.2730 H     1 <1>   0.0800 
 37 H        2.7980     7.9620    -1.5640 H     1 <1>   0.0800 
 38 H        6.2170    12.2960     0.4210 H     1 <1>   0.1500 
 39 H        8.3790     7.6450    -0.6330 H     1 <1>   0.0800 
 40 H        9.3990     8.8180     0.1650 H     1 <1>   0.0800 
 41 H        8.9740     9.0270    -1.5190 H     1 <1>   0.0800 
@<TRIPOS>BOND
  1   1   2  1   
  2   2   3  ar  
  3   2   4  ar  
  4   3   5  ar  
  5   3  25  1   
  6   4   6  ar  
  7   4  26  1   
  8   5   7  ar  
  9   6   7  ar  
 10   6  27  1   
 11   7   8  1   
 12   8   9  2   
 13   8  10  am  
 14  10  11  1   
 15  10  12  1   
 16  11  13  1   
 17  11  28  1   
 18  11  29  1   
 19  12  14  1   
 20  12  30  1   
 21  12  31  1   
 22  13  15  1   
 23  13  32  1   
 24  13  33  1   
 25  14  16  1   
 26  14  34  1   
 27  14  35  1   
 28  15  16  1   
 29  15  17  am  
 30  16  36  1   
 31  16  37  1   
 32  17  18  2   
 33  17  19  1   
 34  19  20  1   
 35  19  21  2   
 36  20  22  2   
 37  21  23  1   
 38  21  24  1   
 39  22  23  1   
 40  22  38  1   
 41  24  39  1   
 42  24  40  1   
 43  24  41  1   
@<TRIPOS>SUBSTRUCTURE
  1 ****  13 GROUP 4 **** **** 0

# MOE 2024.06 (io_trps.svl 2023.06)
