@<TRIPOS>MOLECULE
NONAME
44 46 1 0 0 
SMALL
USER_CHARGES


@<TRIPOS>ATOM
  1 S       -0.2700    -0.2440    -0.5840 S.3   1 <1>  -0.0800 
  2 C       -1.5970    -0.9390     0.2850 C.2   1 <1>   0.4420 
  3 C       -0.4070     1.1380     0.4530 C.2   1 <1>   0.1980 
  4 N       -2.0220    -0.1690     1.2180 N.2   1 <1>  -0.3380 
  5 N       -2.0070    -2.1930    -0.1190 N.am  1 <1>  -0.4940 
  6 N       -1.3410     1.0130     1.3080 N.2   1 <1>  -0.3380 
  7 C        0.5450     2.3150     0.2500 C.3   1 <1>   0.3800 
  8 C       -3.0480    -2.9470     0.3430 C.2   1 <1>   0.5690 
  9 O        0.4870     2.7840    -1.0660 O.3   1 <1>  -0.5600 
 10 C        2.0000     1.9390     0.5250 C.3   1 <1>  -0.2400 
 11 O       -3.8240    -2.5750     1.1810 O.2   1 <1>  -0.5700 
 12 C       -3.2420    -4.3340    -0.2430 C.3   1 <1>  -0.0990 
 13 C       -0.6950     3.4460    -1.4020 C.3   1 <1>   0.0400 
 14 C       -3.3800    -5.4010     0.8560 C.3   1 <1>  -0.0220 
 15 C       -3.5970    -6.7920     0.2490 C.2   1 <1>  -0.1240 
 16 C       -2.4690    -7.6560     0.0130 C.2   1 <1>   0.3750 
 17 C       -4.8510    -7.2370    -0.0780 C.2   1 <1>  -0.1690 
 18 N       -2.5710    -8.8380    -0.4940 N.2   1 <1>  -0.5760 
 19 C       -1.0570    -7.2130     0.3570 C.3   1 <1>  -0.1790 
 20 N       -4.9450    -8.5160    -0.6100 N.pl3 1 <1>   0.6010 
 21 C       -6.1720    -6.4770     0.0720 C.3   1 <1>  -0.1020 
 22 C       -3.8300    -9.2710    -0.8070 C.2   1 <1>   0.3120 
 23 N       -6.0060    -9.2100    -1.0170 N.2   1 <1>  -0.7070 
 24 N       -4.1360   -10.4190    -1.3220 N.2   1 <1>  -0.5650 
 25 C       -5.4600   -10.3150    -1.4200 C.2   1 <1>   0.3660 
 26 H       -1.4600    -2.5890    -0.8770 H     1 <1>   0.3700 
 27 H        0.2600     3.1190     0.9080 H     1 <1>   0.0800 
 28 H        2.3280     1.1800    -0.1600 H     1 <1>   0.0800 
 29 H        2.0950     1.5660     1.5290 H     1 <1>   0.0800 
 30 H        2.6250     2.8070     0.4210 H     1 <1>   0.0800 
 31 H       -2.4200    -4.5820    -0.8870 H     1 <1>   0.0800 
 32 H       -4.1360    -4.3180    -0.8390 H     1 <1>   0.0800 
 33 H       -0.6110     3.7800    -2.4220 H     1 <1>   0.0800 
 34 H       -0.8260     4.2960    -0.7550 H     1 <1>   0.0800 
 35 H       -1.5290     2.7710    -1.3130 H     1 <1>   0.0800 
 36 H       -4.2050    -5.1510     1.4990 H     1 <1>   0.0800 
 37 H       -2.5140    -5.3800     1.4930 H     1 <1>   0.0800 
 38 H       -0.8260    -6.2800    -0.1180 H     1 <1>   0.0800 
 39 H       -0.3450    -7.9450     0.0170 H     1 <1>   0.0800 
 40 H       -0.9510    -7.1170     1.4220 H     1 <1>   0.0800 
 41 H       -6.6970    -6.4720    -0.8670 H     1 <1>   0.0800 
 42 H       -6.0430    -5.4570     0.3770 H     1 <1>   0.0800 
 43 H       -6.7940    -6.9720     0.7980 H     1 <1>   0.0800 
 44 H       -6.0400   -11.1310    -1.8240 H     1 <1>   0.1500 
@<TRIPOS>BOND
  1   1   2  1   
  2   1   3  1   
  3   2   4  2   
  4   2   5  1   
  5   3   6  2   
  6   3   7  1   
  7   4   6  1   
  8   5   8  am  
  9   5  26  1   
 10   7   9  1   
 11   7  10  1   
 12   7  27  1   
 13   8  11  2   
 14   8  12  1   
 15   9  13  1   
 16  10  28  1   
 17  10  29  1   
 18  10  30  1   
 19  12  14  1   
 20  12  31  1   
 21  12  32  1   
 22  13  33  1   
 23  13  34  1   
 24  13  35  1   
 25  14  15  1   
 26  14  36  1   
 27  14  37  1   
 28  15  16  1   
 29  15  17  2   
 30  16  18  2   
 31  16  19  1   
 32  17  20  1   
 33  17  21  1   
 34  18  22  1   
 35  19  38  1   
 36  19  39  1   
 37  19  40  1   
 38  20  22  1   
 39  20  23  1   
 40  21  41  1   
 41  21  42  1   
 42  21  43  1   
 43  22  24  2   
 44  23  25  2   
 45  24  25  1   
 46  25  44  1   
@<TRIPOS>SUBSTRUCTURE
  1 ****  12 GROUP 4 **** **** 0

# MOE 2024.06 (io_trps.svl 2023.06)
