@<TRIPOS>MOLECULE
NONAME
50 53 1 0 0 
SMALL
USER_CHARGES


@<TRIPOS>ATOM
  1 O       -1.1030     0.6290    -1.8440 O.2   1 <1>  -0.5700 
  2 C       -1.8410     0.9510    -0.9320 C.2   1 <1>   0.5440 
  3 N       -1.6160     2.1530    -0.2940 N.am  1 <1>  -0.6600 
  4 C       -2.9080     0.0590    -0.5490 C.ar  1 <1>   0.0860 
  5 C       -0.6600     3.1630    -0.8410 C.3   1 <1>   0.1400 
  6 C       -2.0990     2.4960     1.0770 C.3   1 <1>   0.1400 
  7 C       -2.6470    -1.2870    -0.3120 C.ar  1 <1>   0.1600 
  8 C       -4.2290     0.4750    -0.4130 C.ar  1 <1>  -0.1500 
  9 C       -1.2220     4.5850    -0.6760 C.3   1 <1>   0.1200 
 10 C       -2.5890     3.9530     1.1280 C.3   1 <1>   0.1200 
 11 N       -3.5320    -2.1980     0.0570 N.ar  1 <1>  -0.6200 
 12 C       -5.1630    -0.4580    -0.0350 C.ar  1 <1>  -0.1500 
 13 O       -1.6010     4.8220     0.6520 O.3   1 <1>  -0.5600 
 14 C       -4.7850    -1.7780     0.1930 C.ar  1 <1>   0.4100 
 15 N       -5.7280    -2.6910     0.5760 N.pl3 1 <1>  -0.8690 
 16 C       -5.5370    -4.1440     0.4820 C.3   1 <1>   0.4330 
 17 C       -6.8550    -4.7600     0.0250 C.ar  1 <1>  -0.1430 
 18 C       -5.1060    -4.6680     1.8480 C.3   1 <1>  -0.2400 
 19 C       -8.0150    -4.6220     0.7810 C.ar  1 <1>  -0.1500 
 20 C       -6.9090    -5.4670    -1.1700 C.ar  1 <1>  -0.1500 
 21 C       -9.2040    -5.1850     0.3520 C.ar  1 <1>   0.0830 
 22 C       -8.0980    -6.0280    -1.6080 C.ar  1 <1>  -0.1500 
 23 O      -10.3120    -5.0440     1.1240 O.3   1 <1>  -0.3620 
 24 C       -9.2480    -5.8850    -0.8540 C.ar  1 <1>   0.0830 
 25 C      -11.4060    -5.8920     0.8290 C.3   1 <1>   0.1200 
 26 O      -10.4060    -6.4290    -1.3100 O.3   1 <1>  -0.3630 
 27 C      -11.6030    -5.9980    -0.6890 C.3   1 <1>   0.1200 
 28 H       -0.4740     2.9770    -1.8850 H     1 <1>   0.0800 
 29 H        0.2760     3.0850    -0.3170 H     1 <1>   0.0800 
 30 H       -1.2850     2.3800     1.7720 H     1 <1>   0.0800 
 31 H       -2.8890     1.8380     1.3880 H     1 <1>   0.0800 
 32 H       -1.6310    -1.6230    -0.4380 H     1 <1>   0.1500 
 33 H       -4.4980     1.4990    -0.6040 H     1 <1>   0.1500 
 34 H       -2.0790     4.7270    -1.3100 H     1 <1>   0.0800 
 35 H       -0.4730     5.3110    -0.9390 H     1 <1>   0.0800 
 36 H       -2.8120     4.2340     2.1410 H     1 <1>   0.0800 
 37 H       -3.4750     4.0770     0.5300 H     1 <1>   0.0800 
 38 H       -6.1940    -0.1840     0.0870 H     1 <1>   0.1500 
 39 H       -6.7050    -2.4440     0.4180 H     1 <1>   0.4000 
 40 H       -4.7690    -4.3670    -0.2400 H     1 <1>   0.0800 
 41 H       -5.8210    -4.4050     2.6030 H     1 <1>   0.0800 
 42 H       -4.1500    -4.2500     2.1060 H     1 <1>   0.0800 
 43 H       -5.0140    -5.7370     1.8110 H     1 <1>   0.0800 
 44 H       -8.0060    -4.0820     1.7110 H     1 <1>   0.1500 
 45 H       -6.0230    -5.5820    -1.7710 H     1 <1>   0.1500 
 46 H       -8.1390    -6.5730    -2.5330 H     1 <1>   0.1500 
 47 H      -12.2800    -5.4810     1.3000 H     1 <1>   0.0800 
 48 H      -11.2010    -6.8610     1.2480 H     1 <1>   0.0800 
 49 H      -11.8660    -5.0400    -1.1000 H     1 <1>   0.0800 
 50 H      -12.3730    -6.7090    -0.9270 H     1 <1>   0.0800 
@<TRIPOS>BOND
  1   1   2  2   
  2   2   3  am  
  3   2   4  1   
  4   3   5  1   
  5   3   6  1   
  6   4   7  ar  
  7   4   8  ar  
  8   5   9  1   
  9   5  28  1   
 10   5  29  1   
 11   6  10  1   
 12   6  30  1   
 13   6  31  1   
 14   7  11  ar  
 15   7  32  1   
 16   8  12  ar  
 17   8  33  1   
 18   9  13  1   
 19   9  34  1   
 20   9  35  1   
 21  10  13  1   
 22  10  36  1   
 23  10  37  1   
 24  11  14  ar  
 25  12  14  ar  
 26  12  38  1   
 27  14  15  1   
 28  15  16  1   
 29  15  39  1   
 30  16  17  1   
 31  16  18  1   
 32  16  40  1   
 33  17  19  ar  
 34  17  20  ar  
 35  18  41  1   
 36  18  42  1   
 37  18  43  1   
 38  19  21  ar  
 39  19  44  1   
 40  20  22  ar  
 41  20  45  1   
 42  21  23  1   
 43  21  24  ar  
 44  22  24  ar  
 45  22  46  1   
 46  23  25  1   
 47  24  26  1   
 48  25  27  1   
 49  25  47  1   
 50  25  48  1   
 51  26  27  1   
 52  27  49  1   
 53  27  50  1   
@<TRIPOS>SUBSTRUCTURE
  1 ****  14 GROUP 4 **** **** 0

# MOE 2024.06 (io_trps.svl 2023.06)
