@<TRIPOS>MOLECULE
NONAME
32 32 1 0 0 
SMALL
USER_CHARGES


@<TRIPOS>ATOM
  1 S       -0.4130    -0.3260     0.8000 S.3   1 <1>  -0.4100 
  2 C       -0.2110    -1.9790     0.0750 C.3   1 <1>   0.1500 
  3 C        1.0670    -2.6450     0.5810 C.3   1 <1>   0.1400 
  4 C       -1.3480    -2.8840     0.5290 C.3   1 <1>  -0.1600 
  5 N        0.7050    -4.0660     0.7870 N.am  1 <1>  -0.6600 
  6 C       -0.7430    -4.2870     0.4260 C.3   1 <1>   0.1140 
  7 C        1.6270    -5.0690     0.7030 C.2   1 <1>   0.7800 
  8 C       -0.9910    -4.8930    -0.9800 C.2   1 <1>   0.9060 
  9 O        2.8240    -4.8490     0.6540 O.2   1 <1>  -0.5700 
 10 O        1.1520    -6.3130     0.6810 O.3   1 <1>  -0.4300 
 11 O       -0.5330    -4.3210    -1.9820 O.co2 1 <1>  -0.9000 
 12 O       -1.7030    -5.9010    -1.0800 O.co2 1 <1>  -0.9000 
 13 C        1.8050    -7.4660     0.2110 C.3   1 <1>   0.2800 
 14 C        2.9440    -7.8560     1.1600 C.3   1 <1>  -0.2400 
 15 C        0.7330    -8.5550     0.2190 C.3   1 <1>  -0.2400 
 16 C        2.2850    -7.2400    -1.2270 C.3   1 <1>  -0.2400 
 17 H       -1.5850     0.0810     0.2320 H     1 <1>   0.1800 
 18 H       -0.1870    -1.8820    -0.9970 H     1 <1>   0.0800 
 19 H        1.3780    -2.2230     1.5200 H     1 <1>   0.0800 
 20 H        1.8570    -2.5560    -0.1450 H     1 <1>   0.0800 
 21 H       -1.6030    -2.6900     1.5550 H     1 <1>   0.0800 
 22 H       -2.2210    -2.7820    -0.0910 H     1 <1>   0.0800 
 23 H       -1.1980    -4.9450     1.1430 H     1 <1>   0.0800 
 24 H        3.3490    -8.8090     0.8730 H     1 <1>   0.0800 
 25 H        2.5770    -7.9260     2.1680 H     1 <1>   0.0800 
 26 H        3.7390    -7.1360     1.1220 H     1 <1>   0.0800 
 27 H        1.1330    -9.4820    -0.1480 H     1 <1>   0.0800 
 28 H       -0.0880    -8.2610    -0.4140 H     1 <1>   0.0800 
 29 H        0.3630    -8.7070     1.2160 H     1 <1>   0.0800 
 30 H        2.6500    -8.1590    -1.6450 H     1 <1>   0.0800 
 31 H        3.0820    -6.5210    -1.2610 H     1 <1>   0.0800 
 32 H        1.4680    -6.8870    -1.8340 H     1 <1>   0.0800 
@<TRIPOS>BOND
  1   1   2  1   
  2   1  17  1   
  3   2   3  1   
  4   2   4  1   
  5   2  18  1   
  6   3   5  1   
  7   3  19  1   
  8   3  20  1   
  9   4   6  1   
 10   4  21  1   
 11   4  22  1   
 12   5   6  1   
 13   5   7  am  
 14   6   8  1   
 15   6  23  1   
 16   7   9  2   
 17   7  10  1   
 18   8  11  ar  
 19   8  12  ar  
 20  10  13  1   
 21  13  14  1   
 22  13  15  1   
 23  13  16  1   
 24  14  24  1   
 25  14  25  1   
 26  14  26  1   
 27  15  27  1   
 28  15  28  1   
 29  15  29  1   
 30  16  30  1   
 31  16  31  1   
 32  16  32  1   
@<TRIPOS>SUBSTRUCTURE
  1 ****   5 GROUP 4 **** **** 0

# MOE 2024.06 (io_trps.svl 2023.06)
