@<TRIPOS>MOLECULE
NONAME
43 45 1 0 0 
SMALL
USER_CHARGES


@<TRIPOS>ATOM
  1 F       -0.3670    -1.1300    -1.5620 F     1 <1>  -0.3400 
  2 C       -1.3410    -1.6730    -0.8470 C.3   1 <1>   1.1640 
  3 F       -1.8060    -2.6970    -1.5570 F     1 <1>  -0.3400 
  4 F       -0.7720    -2.2090     0.2250 F     1 <1>  -0.3400 
  5 C       -2.4800    -0.7090    -0.4670 C.ar  1 <1>  -0.1440 
  6 C       -3.5340    -1.1000     0.3710 C.ar  1 <1>  -0.1440 
  7 C       -2.4750     0.5920    -0.9670 C.ar  1 <1>  -0.1500 
  8 C       -4.5310    -0.1890     0.6950 C.ar  1 <1>  -0.1500 
  9 C       -3.6550    -2.4980     0.9730 C.3   1 <1>   0.4870 
 10 C       -3.4780     1.4860    -0.6430 C.ar  1 <1>  -0.1500 
 11 C       -4.5060     1.0970     0.1900 C.ar  1 <1>  -0.1500 
 12 N       -4.1210    -3.4730    -0.0560 N.4   1 <1>  -0.9590 
 13 C       -5.4720    -3.1070    -0.5870 C.3   1 <1>   0.3430 
 14 C       -4.2550    -4.8360     0.5510 C.3   1 <1>   0.3430 
 15 C       -6.4690    -3.9510     0.2100 C.3   1 <1>   0.2000 
 16 C       -5.7250    -5.2700     0.4010 C.3   1 <1>  -0.0800 
 17 O       -6.6450    -3.3660     1.4600 O.3   1 <1>  -0.6800 
 18 C       -5.9420    -6.2210    -0.7980 C.3   1 <1>  -0.0170 
 19 C       -5.2990    -7.5840    -0.5780 C.ar  1 <1>   0.1670 
 20 N       -3.9790    -7.6270    -0.6560 N.ar  1 <1>  -0.6200 
 21 C       -6.0920    -8.7020    -0.3170 C.ar  1 <1>   0.1600 
 22 C       -3.5090    -8.8520    -0.4690 C.ar  1 <1>   0.1600 
 23 N       -5.6230    -9.9200    -0.1180 N.ar  1 <1>  -0.6200 
 24 C       -4.3050    -9.9610    -0.2070 C.ar  1 <1>   0.1600 
 25 H       -1.6850     0.9340    -1.6180 H     1 <1>   0.1500 
 26 H       -5.3420    -0.4680     1.3490 H     1 <1>   0.1500 
 27 H       -4.3620    -2.4710     1.7880 H     1 <1>   0.0800 
 28 H       -2.7040    -2.8090     1.3750 H     1 <1>   0.0800 
 29 H       -3.4560     2.4890    -1.0380 H     1 <1>   0.1500 
 30 H       -5.2830     1.7970     0.4470 H     1 <1>   0.1500 
 31 H       -3.4380    -3.4980    -0.8280 H     1 <1>   0.4500 
 32 H       -5.6880    -2.0560    -0.4930 H     1 <1>   0.0800 
 33 H       -5.5320    -3.3820    -1.6270 H     1 <1>   0.0800 
 34 H       -3.5830    -5.5280     0.0740 H     1 <1>   0.0800 
 35 H       -4.0090    -4.7960     1.6000 H     1 <1>   0.0800 
 36 H       -7.4270    -4.0380    -0.2750 H     1 <1>   0.0800 
 37 H       -6.0560    -5.7760     1.2920 H     1 <1>   0.0800 
 38 H       -7.4010    -3.7700     1.9390 H     1 <1>   0.4000 
 39 H       -5.5350    -5.7970    -1.6990 H     1 <1>   0.0800 
 40 H       -6.9970    -6.3580    -0.9570 H     1 <1>   0.0800 
 41 H       -7.1610    -8.5900    -0.2710 H     1 <1>   0.1500 
 42 H       -2.4430    -8.9890    -0.5240 H     1 <1>   0.1500 
 43 H       -3.8320   -10.9170    -0.0670 H     1 <1>   0.1500 
@<TRIPOS>BOND
  1   1   2  1   
  2   2   3  1   
  3   2   4  1   
  4   2   5  1   
  5   5   6  ar  
  6   5   7  ar  
  7   6   8  ar  
  8   6   9  1   
  9   7  10  ar  
 10   7  25  1   
 11   8  11  ar  
 12   8  26  1   
 13   9  12  1   
 14   9  27  1   
 15   9  28  1   
 16  10  11  ar  
 17  10  29  1   
 18  11  30  1   
 19  12  13  1   
 20  12  14  1   
 21  12  31  1   
 22  13  15  1   
 23  13  32  1   
 24  13  33  1   
 25  14  16  1   
 26  14  34  1   
 27  14  35  1   
 28  15  16  1   
 29  15  17  1   
 30  15  36  1   
 31  16  18  1   
 32  16  37  1   
 33  17  38  1   
 34  18  19  1   
 35  18  39  1   
 36  18  40  1   
 37  19  20  ar  
 38  19  21  ar  
 39  20  22  ar  
 40  21  23  ar  
 41  21  41  1   
 42  22  24  ar  
 43  22  42  1   
 44  23  24  ar  
 45  24  43  1   
@<TRIPOS>SUBSTRUCTURE
  1 ****  12 GROUP 4 **** **** 0

# MOE 2024.06 (io_trps.svl 2023.06)
