@<TRIPOS>MOLECULE
NONAME
54 57 1 0 0 
SMALL
USER_CHARGES


@<TRIPOS>ATOM
  1 S       -1.0150     0.8300    -0.3560 S.o2  1 <1>   1.5010 
  2 O       -1.7850     1.3700    -1.4560 O.2   1 <1>  -0.6500 
  3 O       -1.2150     1.3850     0.9650 O.2   1 <1>  -0.6500 
  4 N       -1.3190    -0.8410    -0.3650 N.am  1 <1>  -0.8490 
  5 C        0.7310     0.9540    -0.7610 C.2   1 <1>  -0.0630 
  6 C       -0.6270    -1.7380     0.5450 C.3   1 <1>   0.2760 
  7 C       -2.6580    -1.2710    -0.0610 C.3   1 <1>   0.2760 
  8 C        1.2260     1.3540    -1.9950 C.2   1 <1>   0.1390 
  9 C        1.8480     0.7080    -0.0320 C.2   1 <1>  -0.3020 
 10 C       -1.0580    -3.1030    -0.0650 C.3   1 <1>   0.0610 
 11 C       -1.3280    -1.4590     1.8960 C.3   1 <1>  -0.1600 
 12 C       -2.5480    -2.7670    -0.3890 C.3   1 <1>  -0.1600 
 13 C       -2.7610    -1.1390     1.4630 C.3   1 <1>  -0.1600 
 14 N        2.5250     1.3590    -2.0390 N.2   1 <1>  -0.7070 
 15 N        2.9080     0.9590    -0.8170 N.pl3 1 <1>   0.3140 
 16 C       -0.8530    -4.2860     0.9080 C.2   1 <1>   0.5690 
 17 C       -0.2860    -3.3840    -1.3900 C.3   1 <1>  -0.0160 
 18 C        4.3210     0.8240    -0.4440 C.3   1 <1>   0.0160 
 19 O        0.0040    -4.1660     1.7550 O.2   1 <1>  -0.5700 
 20 N       -1.5750    -5.4650     0.8350 N.am  1 <1>  -0.6600 
 21 C        1.2350    -3.2770    -1.3270 C.ar  1 <1>  -0.1440 
 22 C       -2.4540    -5.9190    -0.2810 C.3   1 <1>   0.0600 
 23 C       -1.4290    -6.5000     1.9000 C.3   1 <1>   0.0600 
 24 C        2.0030    -4.2190    -0.6590 C.ar  1 <1>  -0.1500 
 25 C        1.8750    -2.2380    -1.9850 C.ar  1 <1>  -0.1500 
 26 C        3.3830    -4.1180    -0.6400 C.ar  1 <1>  -0.1500 
 27 C        3.2550    -2.1410    -1.9790 C.ar  1 <1>  -0.1500 
 28 C        4.0120    -3.0800    -1.3030 C.ar  1 <1>  -0.1500 
 29 H        0.4410    -1.6040     0.5750 H     1 <1>   0.0800 
 30 H       -3.4240    -0.7510    -0.6140 H     1 <1>   0.0800 
 31 H        0.6010     1.6320    -2.8290 H     1 <1>   0.1500 
 32 H        1.9350     0.3750     0.9860 H     1 <1>   0.1500 
 33 H       -1.3000    -2.2840     2.5810 H     1 <1>   0.0800 
 34 H       -0.8720    -0.6210     2.3890 H     1 <1>   0.0800 
 35 H       -3.2410    -3.3330     0.2060 H     1 <1>   0.0800 
 36 H       -2.7850    -2.9230    -1.4260 H     1 <1>   0.0800 
 37 H       -3.0460    -0.1410     1.7460 H     1 <1>   0.0800 
 38 H       -3.4750    -1.8250     1.8820 H     1 <1>   0.0800 
 39 H       -0.5230    -4.3680    -1.7470 H     1 <1>   0.0800 
 40 H       -0.6280    -2.7010    -2.1490 H     1 <1>   0.0800 
 41 H        4.4800    -0.1450    -0.0100 H     1 <1>   0.0800 
 42 H        4.5720     1.5910     0.2640 H     1 <1>   0.0800 
 43 H        4.9280     0.9300    -1.3240 H     1 <1>   0.0800 
 44 H       -3.4750    -5.9560     0.0570 H     1 <1>   0.0800 
 45 H       -2.1570    -6.9050    -0.5940 H     1 <1>   0.0800 
 46 H       -2.3950    -5.2700    -1.1310 H     1 <1>   0.0800 
 47 H       -2.3920    -6.9060     2.1550 H     1 <1>   0.0800 
 48 H       -0.9960    -6.0790     2.7910 H     1 <1>   0.0800 
 49 H       -0.7910    -7.2930     1.5490 H     1 <1>   0.0800 
 50 H        1.5360    -5.0430    -0.1480 H     1 <1>   0.1500 
 51 H        1.3060    -1.4950    -2.5160 H     1 <1>   0.1500 
 52 H        3.9650    -4.8520    -0.1110 H     1 <1>   0.1500 
 53 H        3.7310    -1.3330    -2.5080 H     1 <1>   0.1500 
 54 H        5.0850    -3.0060    -1.2950 H     1 <1>   0.1500 
@<TRIPOS>BOND
  1   1   2  2   
  2   1   3  2   
  3   1   4  am  
  4   1   5  1   
  5   4   6  1   
  6   4   7  1   
  7   5   8  1   
  8   5   9  2   
  9   6  10  1   
 10   6  11  1   
 11   6  29  1   
 12   7  12  1   
 13   7  13  1   
 14   7  30  1   
 15   8  14  2   
 16   8  31  1   
 17   9  15  1   
 18   9  32  1   
 19  10  12  1   
 20  10  16  1   
 21  10  17  1   
 22  11  13  1   
 23  11  33  1   
 24  11  34  1   
 25  12  35  1   
 26  12  36  1   
 27  13  37  1   
 28  13  38  1   
 29  14  15  1   
 30  15  18  1   
 31  16  19  2   
 32  16  20  am  
 33  17  21  1   
 34  17  39  1   
 35  17  40  1   
 36  18  41  1   
 37  18  42  1   
 38  18  43  1   
 39  20  22  1   
 40  20  23  1   
 41  21  24  ar  
 42  21  25  ar  
 43  22  44  1   
 44  22  45  1   
 45  22  46  1   
 46  23  47  1   
 47  23  48  1   
 48  23  49  1   
 49  24  26  ar  
 50  24  50  1   
 51  25  27  ar  
 52  25  51  1   
 53  26  28  ar  
 54  26  52  1   
 55  27  28  ar  
 56  27  53  1   
 57  28  54  1   
@<TRIPOS>SUBSTRUCTURE
  1 ****   6 GROUP 4 **** **** 0

# MOE 2024.06 (io_trps.svl 2023.06)
