@<TRIPOS>MOLECULE
NONAME
42 44 1 0 0 
SMALL
USER_CHARGES


@<TRIPOS>ATOM
  1 O       -1.9140     0.8940    -1.6970 O.2   1 <1>  -0.5700 
  2 C       -1.8160     0.9360    -0.4860 C.2   1 <1>   0.7160 
  3 N       -2.0260    -0.2150     0.2140 N.am  1 <1>  -0.7300 
  4 C       -1.4910     2.1570     0.2130 C.2   1 <1>  -0.0860 
  5 C       -2.3480    -1.5330    -0.3770 C.3   1 <1>   0.2200 
  6 C       -0.8890     3.3180    -0.1880 C.2   1 <1>  -0.3320 
  7 C       -1.7650     2.4000     1.5620 C.2   1 <1>   0.1390 
  8 C       -3.8160    -1.8420    -0.1350 C.3   1 <1>  -0.0800 
  9 C       -1.6640    -2.6330     0.4260 C.3   1 <1>   0.1200 
 10 N       -0.8390     4.1380     0.8780 N.pl3 1 <1>   0.3140 
 11 C       -0.3490     3.6900    -1.5630 C.3   1 <1>  -0.0600 
 12 N       -1.3790     3.5670     1.9630 N.2   1 <1>  -0.7070 
 13 C       -3.7950    -2.4290     1.2810 C.3   1 <1>   0.1200 
 14 C       -4.3610    -2.8390    -1.1750 C.3   1 <1>  -0.0170 
 15 O       -2.4920    -2.8770     1.5240 O.3   1 <1>  -0.5600 
 16 C       -0.2870     5.4980     0.9380 C.3   1 <1>   0.0160 
 17 C       -5.8370    -3.1310    -0.9490 C.ar  1 <1>  -0.1430 
 18 C       -6.8160    -2.2170    -1.2840 C.ar  1 <1>  -0.1500 
 19 C       -6.2760    -4.3190    -0.4000 C.ar  1 <1>  -0.1500 
 20 C       -8.1470    -2.5240    -1.0560 C.ar  1 <1>   0.1600 
 21 C       -7.6320    -4.5270    -0.2120 C.ar  1 <1>   0.1600 
 22 N       -8.5780    -3.6560    -0.5250 N.ar  1 <1>  -0.6200 
 23 H       -1.8910    -0.2250     1.2250 H     1 <1>   0.3700 
 24 H       -2.0730    -1.5590    -1.4190 H     1 <1>   0.0800 
 25 H       -2.2540     1.6980     2.2160 H     1 <1>   0.1500 
 26 H       -4.4120    -0.9470    -0.1720 H     1 <1>   0.0800 
 27 H       -0.6830    -2.3520     0.7660 H     1 <1>   0.0800 
 28 H       -1.6040    -3.5420    -0.1460 H     1 <1>   0.0800 
 29 H       -0.4300     2.8640    -2.2460 H     1 <1>   0.0800 
 30 H        0.6890     3.9640    -1.4930 H     1 <1>   0.0800 
 31 H       -0.9040     4.5160    -1.9670 H     1 <1>   0.0800 
 32 H       -4.4760    -3.2520     1.4080 H     1 <1>   0.0800 
 33 H       -4.0170    -1.6700     2.0100 H     1 <1>   0.0800 
 34 H       -3.8040    -3.7590    -1.1410 H     1 <1>   0.0800 
 35 H       -4.2420    -2.4250    -2.1620 H     1 <1>   0.0800 
 36 H       -0.7770     6.1110     0.2070 H     1 <1>   0.0800 
 37 H        0.7670     5.4580     0.7410 H     1 <1>   0.0800 
 38 H       -0.4550     5.9030     1.9190 H     1 <1>   0.0800 
 39 H       -6.5560    -1.2700    -1.7210 H     1 <1>   0.1500 
 40 H       -5.5790    -5.0860    -0.1150 H     1 <1>   0.1500 
 41 H       -8.8970    -1.7990    -1.3240 H     1 <1>   0.1500 
 42 H       -7.9560    -5.4590     0.2190 H     1 <1>   0.1500 
@<TRIPOS>BOND
  1   1   2  2   
  2   2   3  am  
  3   2   4  1   
  4   3   5  1   
  5   3  23  1   
  6   4   6  2   
  7   4   7  1   
  8   5   8  1   
  9   5   9  1   
 10   5  24  1   
 11   6  10  1   
 12   6  11  1   
 13   7  12  2   
 14   7  25  1   
 15   8  13  1   
 16   8  14  1   
 17   8  26  1   
 18   9  15  1   
 19   9  27  1   
 20   9  28  1   
 21  10  12  1   
 22  10  16  1   
 23  11  29  1   
 24  11  30  1   
 25  11  31  1   
 26  13  15  1   
 27  13  32  1   
 28  13  33  1   
 29  14  17  1   
 30  14  34  1   
 31  14  35  1   
 32  16  36  1   
 33  16  37  1   
 34  16  38  1   
 35  17  18  ar  
 36  17  19  ar  
 37  18  20  ar  
 38  18  39  1   
 39  19  21  ar  
 40  19  40  1   
 41  20  22  ar  
 42  20  41  1   
 43  21  22  ar  
 44  21  42  1   
@<TRIPOS>SUBSTRUCTURE
  1 ****   3 GROUP 4 **** **** 0

# MOE 2024.06 (io_trps.svl 2023.06)
