@<TRIPOS>MOLECULE
NONAME
49 51 1 0 0 
SMALL
USER_CHARGES


@<TRIPOS>ATOM
  1 O        2.0890     0.7780     0.4410 O.2   1 <1>  -0.5700 
  2 C        2.7650    -0.2250     0.4810 C.2   1 <1>   0.5690 
  3 N        3.6080    -0.4640     1.5430 N.am  1 <1>  -0.6600 
  4 C        2.6520    -1.2130    -0.6830 C.3   1 <1>  -0.0190 
  5 C        4.5750    -1.6130     1.6210 C.3   1 <1>   0.1400 
  6 C        3.7070     0.5350     2.6460 C.3   1 <1>   0.1400 
  7 C        1.7930    -0.7200    -1.8410 C.3   1 <1>   0.1200 
  8 C        1.9660    -2.5300    -0.3260 C.3   1 <1>  -0.1600 
  9 C        6.0270    -1.1830     1.9040 C.3   1 <1>   0.1400 
 10 C        4.6560     1.6810     2.2610 C.3   1 <1>  -0.1600 
 11 O        1.3830    -1.8760    -2.4950 O.3   1 <1>  -0.5600 
 12 C        1.1520    -2.8870    -1.5690 C.3   1 <1>   0.1200 
 13 N        6.3420     0.1290     1.2720 N.am  1 <1>  -0.6600 
 14 C        6.1380     1.2930     2.1750 C.3   1 <1>   0.1400 
 15 C        6.5530     0.1960    -0.0860 C.2   1 <1>   0.5690 
 16 O        6.5290    -0.8090    -0.7630 O.2   1 <1>  -0.5700 
 17 C        6.7120     1.5130    -0.8220 C.3   1 <1>   0.1570 
 18 N        7.9540     2.2080    -0.4530 N.pl3 1 <1>   0.3140 
 19 N        9.1800     1.6530    -0.6210 N.2   1 <1>  -0.7070 
 20 C        8.0510     3.4690     0.0610 C.2   1 <1>  -0.0680 
 21 C       10.0100     2.5450    -0.1890 C.2   1 <1>   0.1080 
 22 N        6.9900     4.3460     0.3390 N.pl3 1 <1>  -0.8840 
 23 C        9.3700     3.6970     0.2520 C.2   1 <1>  -0.1500 
 24 C       11.5030     2.3180    -0.1850 C.3   1 <1>  -0.0590 
 25 H        3.6310    -1.3990    -1.0840 H     1 <1>   0.0800 
 26 H        4.5870    -2.1600     0.6980 H     1 <1>   0.0800 
 27 H        4.2530    -2.2950     2.3880 H     1 <1>   0.0800 
 28 H        4.0400     0.0570     3.5510 H     1 <1>   0.0800 
 29 H        2.7270     0.9420     2.8370 H     1 <1>   0.0800 
 30 H        2.3390    -0.0950    -2.5240 H     1 <1>   0.0800 
 31 H        0.9100    -0.2090    -1.4950 H     1 <1>   0.0800 
 32 H        1.2990    -2.4030     0.5090 H     1 <1>   0.0800 
 33 H        2.6760    -3.3030    -0.0940 H     1 <1>   0.0800 
 34 H        6.6990    -1.9350     1.5250 H     1 <1>   0.0800 
 35 H        6.1830    -1.1250     2.9660 H     1 <1>   0.0800 
 36 H        4.5630     2.4550     3.0000 H     1 <1>   0.0800 
 37 H        4.3390     2.1080     1.3270 H     1 <1>   0.0800 
 38 H        0.0970    -2.9110    -1.3540 H     1 <1>   0.0800 
 39 H        1.4620    -3.8220    -2.0040 H     1 <1>   0.0800 
 40 H        6.5020     1.0450     3.1570 H     1 <1>   0.0800 
 41 H        6.7110     2.1370     1.8420 H     1 <1>   0.0800 
 42 H        5.8710     2.1390    -0.6060 H     1 <1>   0.0800 
 43 H        6.7400     1.3220    -1.8770 H     1 <1>   0.0800 
 44 H        7.3040     5.2600     0.6870 H     1 <1>   0.4000 
 45 H        6.3480     4.5000    -0.4460 H     1 <1>   0.4000 
 46 H        9.8450     4.5730     0.6520 H     1 <1>   0.1500 
 47 H       11.7310     1.4550     0.4130 H     1 <1>   0.0800 
 48 H       12.0140     3.1720     0.2180 H     1 <1>   0.0800 
 49 H       11.8400     2.1440    -1.1900 H     1 <1>   0.0800 
@<TRIPOS>BOND
  1   1   2  2   
  2   2   3  am  
  3   2   4  1   
  4   3   5  1   
  5   3   6  1   
  6   4   7  1   
  7   4   8  1   
  8   4  25  1   
  9   5   9  1   
 10   5  26  1   
 11   5  27  1   
 12   6  10  1   
 13   6  28  1   
 14   6  29  1   
 15   7  11  1   
 16   7  30  1   
 17   7  31  1   
 18   8  12  1   
 19   8  32  1   
 20   8  33  1   
 21   9  13  1   
 22   9  34  1   
 23   9  35  1   
 24  10  14  1   
 25  10  36  1   
 26  10  37  1   
 27  11  12  1   
 28  12  38  1   
 29  12  39  1   
 30  13  14  1   
 31  13  15  am  
 32  14  40  1   
 33  14  41  1   
 34  15  16  2   
 35  15  17  1   
 36  17  18  1   
 37  17  42  1   
 38  17  43  1   
 39  18  19  1   
 40  18  20  1   
 41  19  21  2   
 42  20  22  1   
 43  20  23  2   
 44  21  23  1   
 45  21  24  1   
 46  22  44  1   
 47  22  45  1   
 48  23  46  1   
 49  24  47  1   
 50  24  48  1   
 51  24  49  1   
@<TRIPOS>SUBSTRUCTURE
  1 ****  15 GROUP 4 **** **** 0

# MOE 2024.06 (io_trps.svl 2023.06)
