@<TRIPOS>MOLECULE
NONAME
52 54 1 0 0 
SMALL
USER_CHARGES


@<TRIPOS>ATOM
  1 O       -0.3460     0.1870     0.1140 O.2   1 <1>  -0.5700 
  2 C        0.5530    -0.6020    -0.0980 C.2   1 <1>   0.5440 
  3 N        1.7140    -0.1190    -0.6260 N.am  1 <1>  -0.7300 
  4 C        0.3990    -2.0110     0.2160 C.ar  1 <1>   0.0860 
  5 C        1.9630     1.3000    -0.9170 C.3   1 <1>   0.2840 
  6 C        1.1650    -3.0010    -0.4060 C.ar  1 <1>  -0.1500 
  7 C       -0.5360    -2.4310     1.1640 C.ar  1 <1>  -0.1500 
  8 C        3.4490     1.4660    -1.1660 C.ar  1 <1>  -0.1440 
  9 C        1.0080    -4.3370    -0.0900 C.ar  1 <1>  -0.1500 
 10 C       -0.7010    -3.7650     1.4860 C.ar  1 <1>  -0.1500 
 11 C        4.3470     1.5940    -0.1260 C.ar  1 <1>  -0.1500 
 12 C        3.9800     1.4870    -2.4400 C.ar  1 <1>  -0.1500 
 13 C        0.0750    -4.7310     0.8540 C.ar  1 <1>   0.0830 
 14 C        5.7010     1.7330    -0.3960 C.ar  1 <1>   0.1670 
 15 C        5.3470     1.6310    -2.6040 C.ar  1 <1>   0.1600 
 16 O       -0.0270    -6.0540     1.0950 O.3   1 <1>  -0.3630 
 17 N        6.2150     1.7520    -1.6130 N.ar  1 <1>  -0.6200 
 18 C        6.6920     1.8750     0.7390 C.3   1 <1>  -0.0970 
 19 C       -1.0510    -6.5830     1.9260 C.3   1 <1>   0.1810 
 20 C       -1.0610    -8.1080     1.8900 C.2   1 <1>   0.5690 
 21 O       -0.8890    -8.6780     2.9440 O.2   1 <1>  -0.5700 
 22 N       -1.2860    -8.8020     0.7220 N.am  1 <1>  -0.6600 
 23 C       -1.1650   -10.2850     0.6680 C.3   1 <1>   0.1400 
 24 C       -1.5340    -8.1770    -0.6090 C.3   1 <1>   0.1400 
 25 C       -0.0120   -10.6670    -0.2680 C.3   1 <1>  -0.1600 
 26 C       -0.3760    -8.5210    -1.5510 C.3   1 <1>  -0.1600 
 27 C       -0.1750   -10.0400    -1.6610 C.3   1 <1>  -0.1600 
 28 H        2.5400    -0.7130    -0.7040 H     1 <1>   0.3700 
 29 H        1.6500     1.9030    -0.0800 H     1 <1>   0.0800 
 30 H        1.3940     1.5940    -1.7820 H     1 <1>   0.0800 
 31 H        1.8890    -2.7270    -1.1520 H     1 <1>   0.1500 
 32 H       -1.1420    -1.6890     1.6560 H     1 <1>   0.1500 
 33 H        1.6060    -5.0880    -0.5750 H     1 <1>   0.1500 
 34 H       -1.4300    -4.0290     2.2290 H     1 <1>   0.1500 
 35 H        3.9980     1.5830     0.8900 H     1 <1>   0.1500 
 36 H        3.3470     1.3920    -3.3030 H     1 <1>   0.1500 
 37 H        5.7490     1.6470    -3.6020 H     1 <1>   0.1500 
 38 H        6.2000     1.8500     1.6930 H     1 <1>   0.0800 
 39 H        7.2160     2.8080     0.6410 H     1 <1>   0.0800 
 40 H        7.4050     1.0720     0.6930 H     1 <1>   0.0800 
 41 H       -1.9990    -6.2140     1.5840 H     1 <1>   0.0800 
 42 H       -0.8690    -6.2500     2.9310 H     1 <1>   0.0800 
 43 H       -2.0890   -10.7000     0.3040 H     1 <1>   0.0800 
 44 H       -0.9820   -10.6900     1.6490 H     1 <1>   0.0800 
 45 H       -1.6330    -7.1100    -0.5330 H     1 <1>   0.0800 
 46 H       -2.4540    -8.5660    -1.0090 H     1 <1>   0.0800 
 47 H        0.0350   -11.7370    -0.3550 H     1 <1>   0.0800 
 48 H        0.9110   -10.3330     0.1740 H     1 <1>   0.0800 
 49 H        0.5220    -8.0590    -1.1780 H     1 <1>   0.0800 
 50 H       -0.5760    -8.1110    -2.5250 H     1 <1>   0.0800 
 51 H       -1.0280   -10.4780    -2.1500 H     1 <1>   0.0800 
 52 H        0.6960   -10.2500    -2.2580 H     1 <1>   0.0800 
@<TRIPOS>BOND
  1   1   2  2   
  2   2   3  am  
  3   2   4  1   
  4   3   5  1   
  5   3  28  1   
  6   4   6  ar  
  7   4   7  ar  
  8   5   8  1   
  9   5  29  1   
 10   5  30  1   
 11   6   9  ar  
 12   6  31  1   
 13   7  10  ar  
 14   7  32  1   
 15   8  11  ar  
 16   8  12  ar  
 17   9  13  ar  
 18   9  33  1   
 19  10  13  ar  
 20  10  34  1   
 21  11  14  ar  
 22  11  35  1   
 23  12  15  ar  
 24  12  36  1   
 25  13  16  1   
 26  14  17  ar  
 27  14  18  1   
 28  15  17  ar  
 29  15  37  1   
 30  16  19  1   
 31  18  38  1   
 32  18  39  1   
 33  18  40  1   
 34  19  20  1   
 35  19  41  1   
 36  19  42  1   
 37  20  21  2   
 38  20  22  am  
 39  22  23  1   
 40  22  24  1   
 41  23  25  1   
 42  23  43  1   
 43  23  44  1   
 44  24  26  1   
 45  24  45  1   
 46  24  46  1   
 47  25  27  1   
 48  25  47  1   
 49  25  48  1   
 50  26  27  1   
 51  26  49  1   
 52  26  50  1   
 53  27  51  1   
 54  27  52  1   
@<TRIPOS>SUBSTRUCTURE
  1 ****   6 GROUP 4 **** **** 0

# MOE 2024.06 (io_trps.svl 2023.06)
