@<TRIPOS>MOLECULE
NONAME
44 46 1 0 0 
SMALL
USER_CHARGES


@<TRIPOS>ATOM
  1 O       -0.9490    -0.8480     1.4070 O.3   1 <1>  -0.6800 
  2 C       -1.9190    -1.3300     0.5390 C.3   1 <1>   0.1200 
  3 C       -3.1760    -0.4220     0.5970 C.3   1 <1>   0.4230 
  4 N       -4.3020    -0.9150    -0.2820 N.4   1 <1>  -0.9590 
  5 C       -2.8190     1.0190     0.1830 C.3   1 <1>  -0.1600 
  6 C       -5.5090    -0.0400    -0.1410 C.3   1 <1>   0.3430 
  7 C       -4.6580    -2.3570    -0.0190 C.3   1 <1>   0.3430 
  8 C       -4.0250     1.9650     0.2250 C.3   1 <1>  -0.1600 
  9 C       -5.1830     1.3840    -0.5870 C.3   1 <1>  -0.1600 
 10 C       -5.6710    -2.9450    -1.0190 C.3   1 <1>   0.2090 
 11 N       -5.7410    -4.4190    -0.8620 N.pl3 1 <1>  -0.8690 
 12 C       -6.5940    -5.1300    -0.0880 C.ar  1 <1>   0.4100 
 13 N       -7.3670    -4.4740     0.7680 N.ar  1 <1>  -0.6200 
 14 C       -6.6420    -6.5430    -0.2120 C.ar  1 <1>   0.2270 
 15 C       -8.2220    -5.1910     1.4890 C.ar  1 <1>   0.7710 
 16 N       -5.9330    -7.4060    -0.9970 N.2   1 <1>  -0.5650 
 17 C       -7.5290    -7.2370     0.5540 C.ar  1 <1>   0.1560 
 18 N       -8.3340    -6.5380     1.4160 N.ar  1 <1>  -0.1260 
 19 N       -9.0020    -4.5070     2.3230 N.pl3 1 <1>  -0.9000 
 20 C       -6.3990    -8.5690    -0.6940 C.2   1 <1>   0.0360 
 21 N       -7.3800    -8.5410     0.2500 N.pl3 1 <1>   0.0330 
 22 H       -0.1300    -1.3880     1.3790 H     1 <1>   0.4000 
 23 H       -2.1440    -2.3330     0.8550 H     1 <1>   0.0800 
 24 H       -1.5000    -1.3410    -0.4520 H     1 <1>   0.0800 
 25 H       -3.5200    -0.4090     1.6190 H     1 <1>   0.0800 
 26 H       -3.9690    -0.8180    -1.2500 H     1 <1>   0.4500 
 27 H       -2.3910     1.0170    -0.8040 H     1 <1>   0.0800 
 28 H       -2.0680     1.4050     0.8510 H     1 <1>   0.0800 
 29 H       -5.8320    -0.0270     0.8880 H     1 <1>   0.0800 
 30 H       -6.3190    -0.4150    -0.7450 H     1 <1>   0.0800 
 31 H       -5.0570    -2.4580     0.9770 H     1 <1>   0.0800 
 32 H       -3.7690    -2.9610    -0.0830 H     1 <1>   0.0800 
 33 H       -3.7470     2.9290    -0.1680 H     1 <1>   0.0800 
 34 H       -4.3340     2.1060     1.2480 H     1 <1>   0.0800 
 35 H       -6.0540     2.0030    -0.4540 H     1 <1>   0.0800 
 36 H       -4.9420     1.3890    -1.6360 H     1 <1>   0.0800 
 37 H       -5.3680    -2.7230    -2.0280 H     1 <1>   0.0800 
 38 H       -6.6480    -2.5250    -0.8500 H     1 <1>   0.0800 
 39 H       -5.1870    -4.9690    -1.5390 H     1 <1>   0.4000 
 40 H       -9.0250    -6.9860     2.0120 H     1 <1>   0.4570 
 41 H       -9.7270    -4.8540     2.9560 H     1 <1>   0.4000 
 42 H       -8.9030    -3.4870     2.3510 H     1 <1>   0.4000 
 43 H       -6.0580    -9.4950    -1.1360 H     1 <1>   0.1500 
 44 H       -7.8700    -9.3640     0.6180 H     1 <1>   0.2700 
@<TRIPOS>BOND
  1   1   2  1   
  2   1  22  1   
  3   2   3  1   
  4   2  23  1   
  5   2  24  1   
  6   3   4  1   
  7   3   5  1   
  8   3  25  1   
  9   4   6  1   
 10   4   7  1   
 11   4  26  1   
 12   5   8  1   
 13   5  27  1   
 14   5  28  1   
 15   6   9  1   
 16   6  29  1   
 17   6  30  1   
 18   7  10  1   
 19   7  31  1   
 20   7  32  1   
 21   8   9  1   
 22   8  33  1   
 23   8  34  1   
 24   9  35  1   
 25   9  36  1   
 26  10  11  1   
 27  10  37  1   
 28  10  38  1   
 29  11  12  1   
 30  11  39  1   
 31  12  13  ar  
 32  12  14  ar  
 33  13  15  ar  
 34  14  16  1   
 35  14  17  ar  
 36  15  18  ar  
 37  15  19  1   
 38  16  20  2   
 39  17  18  ar  
 40  17  21  1   
 41  18  40  1   
 42  19  41  1   
 43  19  42  1   
 44  20  21  1   
 45  20  43  1   
 46  21  44  1   
@<TRIPOS>SUBSTRUCTURE
  1 ****  10 GROUP 4 **** **** 0

# MOE 2024.06 (io_trps.svl 2023.06)
