@<TRIPOS>MOLECULE
NONAME
50 53 1 0 0 
SMALL
USER_CHARGES


@<TRIPOS>ATOM
  1 O       -0.4640    -1.0620     0.2960 O.3   1 <1>  -0.5600 
  2 C        0.6280    -1.8150     0.7440 C.3   1 <1>   0.2000 
  3 C       -1.3820    -0.7090     1.2810 C.3   1 <1>   0.0400 
  4 C        1.8350    -1.6380    -0.2060 C.3   1 <1>   0.0000 
  5 C        0.2560    -3.2970     0.6180 C.3   1 <1>  -0.1600 
  6 C        3.0890    -2.2140     0.5080 C.3   1 <1>   0.2090 
  7 C        2.0860    -0.1750    -0.6780 C.3   1 <1>  -0.1600 
  8 C        1.4550    -2.5450    -1.3900 C.3   1 <1>  -0.1600 
  9 C        0.6560    -3.7170    -0.8030 C.3   1 <1>  -0.1600 
 10 N        4.3610    -1.7500    -0.1220 N.pl3 1 <1>  -0.8380 
 11 C        3.2420     0.4890     0.0820 C.3   1 <1>  -0.1600 
 12 C        5.4950    -2.5150     0.0660 C.ar  1 <1>   0.4100 
 13 C        4.5560    -0.2730    -0.1490 C.3   1 <1>   0.2090 
 14 N        5.6160    -3.1610     1.2200 N.ar  1 <1>  -0.6200 
 15 C        6.4580    -2.5660    -0.9370 C.ar  1 <1>  -0.1500 
 16 C        6.7220    -3.8680     1.3740 C.ar  1 <1>   0.1600 
 17 C        7.6030    -3.3060    -0.7630 C.ar  1 <1>  -0.1500 
 18 C        7.7360    -3.9800     0.4360 C.ar  1 <1>  -0.1440 
 19 C        8.9660    -4.8280     0.7200 C.3   1 <1>   0.2390 
 20 N       10.1830    -3.9940     0.7730 N.pl3 1 <1>   0.0480 
 21 C       11.3370    -4.1800     0.0920 C.2   1 <1>   0.0360 
 22 C       10.4030    -2.8940     1.5180 C.2   1 <1>  -0.3020 
 23 N       12.2480    -3.2980     0.3470 N.2   1 <1>  -0.5650 
 24 C       11.6610    -2.4850     1.2450 C.2   1 <1>   0.0770 
 25 H        0.8690    -1.5250     1.7530 H     1 <1>   0.0800 
 26 H       -2.1830    -0.1670     0.8110 H     1 <1>   0.0800 
 27 H       -0.8970    -0.0810     2.0070 H     1 <1>   0.0800 
 28 H       -1.7710    -1.5980     1.7470 H     1 <1>   0.0800 
 29 H        0.8310    -3.8650     1.3270 H     1 <1>   0.0800 
 30 H       -0.7880    -3.4740     0.8070 H     1 <1>   0.0800 
 31 H        3.0630    -3.2900     0.5010 H     1 <1>   0.0800 
 32 H        3.0990    -1.9000     1.5380 H     1 <1>   0.0800 
 33 H        2.3520    -0.1870    -1.7210 H     1 <1>   0.0800 
 34 H        1.2020     0.4300    -0.5900 H     1 <1>   0.0800 
 35 H        0.8140    -2.0000    -2.0620 H     1 <1>   0.0800 
 36 H        2.3220    -2.8770    -1.9350 H     1 <1>   0.0800 
 37 H        1.2570    -4.6090    -0.7730 H     1 <1>   0.0800 
 38 H       -0.2170    -3.9030    -1.4040 H     1 <1>   0.0800 
 39 H        3.0220     0.5170     1.1340 H     1 <1>   0.0800 
 40 H        3.3640     1.5040    -0.2500 H     1 <1>   0.0800 
 41 H        5.2780     0.0100     0.5980 H     1 <1>   0.0800 
 42 H        4.9480    -0.0060    -1.1140 H     1 <1>   0.0800 
 43 H        6.2840    -2.0210    -1.8440 H     1 <1>   0.1500 
 44 H        6.8180    -4.3880     2.3120 H     1 <1>   0.1500 
 45 H        8.3590    -3.3500    -1.5290 H     1 <1>   0.1500 
 46 H        9.0810    -5.5640    -0.0550 H     1 <1>   0.0800 
 47 H        8.8640    -5.3390     1.6600 H     1 <1>   0.0800 
 48 H       11.4710    -4.9950    -0.5970 H     1 <1>   0.1500 
 49 H        9.6710    -2.4690     2.1810 H     1 <1>   0.1500 
 50 H       12.1820    -1.6350     1.6530 H     1 <1>   0.1500 
@<TRIPOS>BOND
  1   1   2  1   
  2   1   3  1   
  3   2   4  1   
  4   2   5  1   
  5   2  25  1   
  6   3  26  1   
  7   3  27  1   
  8   3  28  1   
  9   4   6  1   
 10   4   7  1   
 11   4   8  1   
 12   5   9  1   
 13   5  29  1   
 14   5  30  1   
 15   6  10  1   
 16   6  31  1   
 17   6  32  1   
 18   7  11  1   
 19   7  33  1   
 20   7  34  1   
 21   8   9  1   
 22   8  35  1   
 23   8  36  1   
 24   9  37  1   
 25   9  38  1   
 26  10  12  1   
 27  10  13  1   
 28  11  13  1   
 29  11  39  1   
 30  11  40  1   
 31  12  14  ar  
 32  12  15  ar  
 33  13  41  1   
 34  13  42  1   
 35  14  16  ar  
 36  15  17  ar  
 37  15  43  1   
 38  16  18  ar  
 39  16  44  1   
 40  17  18  ar  
 41  17  45  1   
 42  18  19  1   
 43  19  20  1   
 44  19  46  1   
 45  19  47  1   
 46  20  21  1   
 47  20  22  1   
 48  21  23  2   
 49  21  48  1   
 50  22  24  2   
 51  22  49  1   
 52  23  24  1   
 53  24  50  1   
@<TRIPOS>SUBSTRUCTURE
  1 ****  12 GROUP 4 **** **** 0

# MOE 2024.06 (io_trps.svl 2023.06)
