@<TRIPOS>MOLECULE
NONAME
44 46 1 0 0 
SMALL
USER_CHARGES


@<TRIPOS>ATOM
  1 S        0.1940    -0.7140     0.6030 S.o2  1 <1>   1.5010 
  2 O        0.5790    -1.9430     1.2540 O.2   1 <1>  -0.6500 
  3 O       -0.9300     0.0510     1.0910 O.2   1 <1>  -0.6500 
  4 N       -0.2410    -1.0490    -0.9840 N.am  1 <1>  -0.9140 
  5 C        1.6410     0.3490     0.3950 C.2   1 <1>  -0.0630 
  6 C       -0.8590    -2.3420    -1.3060 C.3   1 <1>   0.2760 
  7 C        2.9020    -0.0750     0.1700 C.2   1 <1>  -0.1100 
  8 C        1.5530     1.7780     0.4200 C.2   1 <1>  -0.1500 
  9 C       -2.0020    -2.7940    -0.3860 C.3   1 <1>  -0.0800 
 10 C        0.1100    -3.5290    -1.3210 C.3   1 <1>   0.1200 
 11 S        4.0070     1.2690    -0.0100 S.3   1 <1>  -0.0800 
 12 C        2.7160     2.4490     0.2200 C.2   1 <1>  -0.0450 
 13 C       -1.5310    -4.1750     0.0830 C.3   1 <1>   0.1200 
 14 C       -3.3390    -2.8660    -1.1460 C.3   1 <1>  -0.0160 
 15 O       -0.6490    -4.6140    -0.8960 O.3   1 <1>  -0.5600 
 16 C        3.0120     3.8580     0.1710 C.2   1 <1>   0.7150 
 17 C       -4.4780    -3.3040    -0.2370 C.ar  1 <1>  -0.1440 
 18 O        2.1200     4.6750     0.2970 O.2   1 <1>  -0.5700 
 19 N        4.2920     4.2960    -0.0200 N.am  1 <1>  -0.7300 
 20 C       -5.0650    -4.5480    -0.3480 C.ar  1 <1>  -0.1500 
 21 C       -4.9830    -2.4770     0.7460 C.ar  1 <1>  -0.1500 
 22 C        4.7320     5.7130    -0.0950 C.3   1 <1>   0.0600 
 23 C       -6.0990    -4.8960     0.5070 C.ar  1 <1>   0.1600 
 24 C       -6.0200    -2.9220     1.5490 C.ar  1 <1>   0.1600 
 25 N       -6.5900    -4.1120     1.4530 N.ar  1 <1>  -0.6200 
 26 H       -0.9350    -0.3290    -1.1750 H     1 <1>   0.4200 
 27 H       -1.2360    -2.2630    -2.3120 H     1 <1>   0.0800 
 28 H        3.3070    -1.0690     0.0880 H     1 <1>   0.1500 
 29 H        0.6080     2.2690     0.5910 H     1 <1>   0.1500 
 30 H       -2.1340    -2.1660     0.4730 H     1 <1>   0.0800 
 31 H        0.9290    -3.4080    -0.6360 H     1 <1>   0.0800 
 32 H        0.4810    -3.7350    -2.3100 H     1 <1>   0.0800 
 33 H       -2.3260    -4.8910     0.1910 H     1 <1>   0.0800 
 34 H       -0.9860    -4.1000     1.0090 H     1 <1>   0.0800 
 35 H       -3.2510    -3.5510    -1.9730 H     1 <1>   0.0800 
 36 H       -3.5770    -1.8970    -1.5480 H     1 <1>   0.0800 
 37 H        5.0220     3.5880    -0.1200 H     1 <1>   0.3700 
 38 H       -4.7300    -5.2520    -1.0870 H     1 <1>   0.1500 
 39 H       -4.5810    -1.4910     0.8970 H     1 <1>   0.1500 
 40 H        3.8900     6.3770     0.0180 H     1 <1>   0.0800 
 41 H        5.1930     5.9010    -1.0490 H     1 <1>   0.0800 
 42 H        5.4410     5.9170     0.6880 H     1 <1>   0.0800 
 43 H       -6.5440    -5.8710     0.4060 H     1 <1>   0.1500 
 44 H       -6.4000    -2.2640     2.3110 H     1 <1>   0.1500 
@<TRIPOS>BOND
  1   1   2  2   
  2   1   3  2   
  3   1   4  am  
  4   1   5  1   
  5   4   6  1   
  6   4  26  1   
  7   5   7  2   
  8   5   8  1   
  9   6   9  1   
 10   6  10  1   
 11   6  27  1   
 12   7  11  1   
 13   7  28  1   
 14   8  12  2   
 15   8  29  1   
 16   9  13  1   
 17   9  14  1   
 18   9  30  1   
 19  10  15  1   
 20  10  31  1   
 21  10  32  1   
 22  11  12  1   
 23  12  16  1   
 24  13  15  1   
 25  13  33  1   
 26  13  34  1   
 27  14  17  1   
 28  14  35  1   
 29  14  36  1   
 30  16  18  2   
 31  16  19  am  
 32  17  20  ar  
 33  17  21  ar  
 34  19  22  1   
 35  19  37  1   
 36  20  23  ar  
 37  20  38  1   
 38  21  24  ar  
 39  21  39  1   
 40  22  40  1   
 41  22  41  1   
 42  22  42  1   
 43  23  25  ar  
 44  23  43  1   
 45  24  25  ar  
 46  24  44  1   
@<TRIPOS>SUBSTRUCTURE
  1 ****   1 GROUP 4 **** **** 0

# MOE 2024.06 (io_trps.svl 2023.06)
