@<TRIPOS>MOLECULE
NONAME
48 50 1 0 0 
SMALL
USER_CHARGES


@<TRIPOS>ATOM
  1 CL      -0.7620     0.8890    -2.2690 Cl    1 <1>  -0.1770 
  2 C       -2.2510     1.2860    -1.4510 C.ar  1 <1>   0.1770 
  3 C       -2.9190     0.3030    -0.7450 C.ar  1 <1>  -0.1500 
  4 C       -2.7390     2.5750    -1.5240 C.ar  1 <1>  -0.1500 
  5 C       -4.1070     0.5880    -0.0790 C.ar  1 <1>  -0.0090 
  6 C       -3.9220     2.8770    -0.8770 C.ar  1 <1>  -0.1500 
  7 S       -4.9670    -0.7290     0.8280 S.o2  1 <1>   1.4470 
  8 C       -4.5950     1.8930    -0.1620 C.ar  1 <1>   0.0830 
  9 O       -3.9820    -1.7350     1.1680 O.2   1 <1>  -0.6500 
 10 O       -5.7830    -0.2130     1.9070 O.2   1 <1>  -0.6500 
 11 N       -5.9750    -1.4460    -0.3370 N.am  1 <1>  -0.8490 
 12 O       -5.7600     2.2330     0.4250 O.3   1 <1>  -0.3630 
 13 C       -7.0780    -0.6100    -0.8080 C.3   1 <1>   0.1960 
 14 C       -6.6240    -2.6620     0.1520 C.3   1 <1>   0.1960 
 15 C       -5.6750     2.9410     1.6420 C.3   1 <1>   0.0400 
 16 C       -8.2410    -0.8480     0.1550 C.3   1 <1>  -0.0800 
 17 C       -7.9780    -2.2460     0.7400 C.3   1 <1>  -0.0800 
 18 C       -9.6540    -0.6090    -0.4320 C.3   1 <1>   0.2800 
 19 C       -9.0900    -3.2700     0.4520 C.3   1 <1>  -0.1600 
 20 O       -9.7680    -1.2610    -1.6450 O.3   1 <1>  -0.6800 
 21 C      -10.6930    -1.2290     0.5210 C.3   1 <1>  -0.1600 
 22 C       -9.9440     0.8760    -0.7490 C.3   1 <1>  -0.1600 
 23 C      -10.4910    -2.7360     0.8050 C.3   1 <1>  -0.1600 
 24 C       -9.8660     1.8580     0.4340 C.3   1 <1>  -0.2400 
 25 H       -2.5090    -0.6920    -0.7160 H     1 <1>   0.1500 
 26 H       -2.2020     3.3220    -2.0820 H     1 <1>   0.1500 
 27 H       -4.3310     3.8700    -0.9280 H     1 <1>   0.1500 
 28 H       -6.8150     0.4290    -0.8690 H     1 <1>   0.0800 
 29 H       -7.3450    -0.9440    -1.7960 H     1 <1>   0.0800 
 30 H       -6.7800    -3.3140    -0.6910 H     1 <1>   0.0800 
 31 H       -6.0180    -3.1840     0.8740 H     1 <1>   0.0800 
 32 H       -6.6730     3.0970     2.0100 H     1 <1>   0.0800 
 33 H       -5.1910     3.8860     1.4700 H     1 <1>   0.0800 
 34 H       -5.1150     2.3530     2.3490 H     1 <1>   0.0800 
 35 H       -8.1210    -0.1640     0.9710 H     1 <1>   0.0800 
 36 H       -7.8720    -2.1540     1.8070 H     1 <1>   0.0800 
 37 H       -9.0750    -3.5160    -0.5960 H     1 <1>   0.0800 
 38 H       -8.9010    -4.1800     0.9940 H     1 <1>   0.0800 
 39 H      -10.7040    -1.2750    -1.9140 H     1 <1>   0.4000 
 40 H      -10.6170    -0.7170     1.4630 H     1 <1>   0.0800 
 41 H      -11.6880    -1.0540     0.1550 H     1 <1>   0.0800 
 42 H       -9.2480     1.2100    -1.5000 H     1 <1>   0.0800 
 43 H      -10.9310     0.9500    -1.1710 H     1 <1>   0.0800 
 44 H      -10.6830    -2.9160     1.8490 H     1 <1>   0.0800 
 45 H      -11.2170    -3.3030     0.2470 H     1 <1>   0.0800 
 46 H       -8.8660     1.9190     0.8240 H     1 <1>   0.0800 
 47 H      -10.5360     1.5720     1.2240 H     1 <1>   0.0800 
 48 H      -10.1460     2.8420     0.1010 H     1 <1>   0.0800 
@<TRIPOS>BOND
  1   1   2  1   
  2   2   3  ar  
  3   2   4  ar  
  4   3   5  ar  
  5   3  25  1   
  6   4   6  ar  
  7   4  26  1   
  8   5   7  1   
  9   5   8  ar  
 10   6   8  ar  
 11   6  27  1   
 12   7   9  2   
 13   7  10  2   
 14   7  11  am  
 15   8  12  1   
 16  11  13  1   
 17  11  14  1   
 18  12  15  1   
 19  13  16  1   
 20  13  28  1   
 21  13  29  1   
 22  14  17  1   
 23  14  30  1   
 24  14  31  1   
 25  15  32  1   
 26  15  33  1   
 27  15  34  1   
 28  16  17  1   
 29  16  18  1   
 30  16  35  1   
 31  17  19  1   
 32  17  36  1   
 33  18  20  1   
 34  18  21  1   
 35  18  22  1   
 36  19  23  1   
 37  19  37  1   
 38  19  38  1   
 39  20  39  1   
 40  21  23  1   
 41  21  40  1   
 42  21  41  1   
 43  22  24  1   
 44  22  42  1   
 45  22  43  1   
 46  23  44  1   
 47  23  45  1   
 48  24  46  1   
 49  24  47  1   
 50  24  48  1   
@<TRIPOS>SUBSTRUCTURE
  1 ****  13 GROUP 4 **** **** 0

# MOE 2024.06 (io_trps.svl 2023.06)
