@<TRIPOS>MOLECULE
NONAME
57 61 1 0 0 
SMALL
USER_CHARGES


@<TRIPOS>ATOM
  1 O       -0.6750     3.0210     2.2700 O.2   1 <1>  -0.5700 
  2 C       -0.4290     3.2580     1.1030 C.2   1 <1>   0.5440 
  3 N       -1.4610     3.3120     0.1890 N.am  1 <1>  -0.6600 
  4 C        0.9420     3.5050     0.7190 C.ar  1 <1>   0.0860 
  5 C       -2.8820     3.0670     0.5810 C.3   1 <1>   0.1400 
  6 C       -1.3020     3.7080    -1.2380 C.3   1 <1>   0.1400 
  7 C        1.6880     2.5740    -0.0390 C.ar  1 <1>   0.0000 
  8 C        1.5740     4.6660     1.0690 C.ar  1 <1>  -0.1500 
  9 C       -3.5040     1.9420    -0.2680 C.3   1 <1>   0.0000 
 10 C       -1.8770     2.6180    -2.1480 C.3   1 <1>  -0.1600 
 11 C        2.9940     2.9420    -0.4270 C.ar  1 <1>   0.3100 
 12 C        1.2040     1.3050    -0.4220 C.ar  1 <1>  -0.1500 
 13 C        2.8830     4.9540     0.6540 C.ar  1 <1>   0.3100 
 14 C       -4.9750     1.7360     0.1350 C.3   1 <1>   0.2000 
 15 C       -3.3310     2.2720    -1.7770 C.3   1 <1>  -0.1600 
 16 C       -2.9080     0.5600     0.0600 C.3   1 <1>  -0.1600 
 17 N        3.5660     4.1160    -0.0820 N.ar  1 <1>  -0.6200 
 18 C        3.7410     2.0440    -1.2080 C.ar  1 <1>  -0.1500 
 19 C        1.9580     0.4510    -1.1790 C.ar  1 <1>  -0.1500 
 20 C        3.5010     6.2050     1.0410 C.ar  1 <1>   0.0000 
 21 O       -5.8140     2.6790    -0.4630 O.3   1 <1>  -0.5600 
 22 C       -5.3240     0.3120    -0.3010 C.3   1 <1>  -0.1600 
 23 C       -4.0000    -0.4620    -0.2800 C.3   1 <1>  -0.1600 
 24 C        3.2420     0.8250    -1.5820 C.ar  1 <1>  -0.1500 
 25 C        4.8410     6.2460     1.4290 C.ar  1 <1>   0.1600 
 26 C        2.8090     7.4100     1.0440 C.ar  1 <1>  -0.1500 
 27 C       -7.0970     2.7490     0.0710 C.3   1 <1>   0.0400 
 28 N        5.5070     7.3240     1.8160 N.ar  1 <1>  -0.6200 
 29 C        3.4830     8.5440     1.4400 C.ar  1 <1>  -0.1500 
 30 C        4.8120     8.4490     1.8130 C.ar  1 <1>   0.1600 
 31 H       -2.9500     2.8130     1.6250 H     1 <1>   0.0800 
 32 H       -3.4430     3.9730     0.4300 H     1 <1>   0.0800 
 33 H       -1.8350     4.6290    -1.4020 H     1 <1>   0.0800 
 34 H       -0.2690     3.8750    -1.4870 H     1 <1>   0.0800 
 35 H        1.0560     5.3800     1.6820 H     1 <1>   0.1500 
 36 H       -1.8450     2.9600    -3.1670 H     1 <1>   0.0800 
 37 H       -1.2560     1.7430    -2.0880 H     1 <1>   0.0800 
 38 H        0.2200     1.0060    -0.1050 H     1 <1>   0.1500 
 39 H       -5.0640     1.8190     1.2060 H     1 <1>   0.0800 
 40 H       -3.6750     1.4540    -2.3850 H     1 <1>   0.0800 
 41 H       -3.9400     3.1260    -2.0210 H     1 <1>   0.0800 
 42 H       -1.9990     0.3540    -0.4720 H     1 <1>   0.0800 
 43 H       -2.6970     0.5050     1.1150 H     1 <1>   0.0800 
 44 H        4.7290     2.3480    -1.5030 H     1 <1>   0.1500 
 45 H        1.5770    -0.5140    -1.4690 H     1 <1>   0.1500 
 46 H       -6.0410    -0.1290     0.3680 H     1 <1>   0.0800 
 47 H       -5.7190     0.3220    -1.3020 H     1 <1>   0.0800 
 48 H       -4.0190    -1.2530     0.4510 H     1 <1>   0.0800 
 49 H       -3.8160    -0.8910    -1.2500 H     1 <1>   0.0800 
 50 H        3.8270     0.1480    -2.1800 H     1 <1>   0.1500 
 51 H        5.3920     5.3210     1.4170 H     1 <1>   0.1500 
 52 H        1.7790     7.4630     0.7420 H     1 <1>   0.1500 
 53 H       -7.6330     3.5230    -0.4500 H     1 <1>   0.0800 
 54 H       -7.0350     2.9940     1.1170 H     1 <1>   0.0800 
 55 H       -7.5980     1.8070    -0.0700 H     1 <1>   0.0800 
 56 H        2.9880     9.4980     1.4600 H     1 <1>   0.1500 
 57 H        5.3310     9.3410     2.1220 H     1 <1>   0.1500 
@<TRIPOS>BOND
  1   1   2  2   
  2   2   3  am  
  3   2   4  1   
  4   3   5  1   
  5   3   6  1   
  6   4   7  ar  
  7   4   8  ar  
  8   5   9  1   
  9   5  31  1   
 10   5  32  1   
 11   6  10  1   
 12   6  33  1   
 13   6  34  1   
 14   7  11  ar  
 15   7  12  ar  
 16   8  13  ar  
 17   8  35  1   
 18   9  14  1   
 19   9  15  1   
 20   9  16  1   
 21  10  15  1   
 22  10  36  1   
 23  10  37  1   
 24  11  17  ar  
 25  11  18  ar  
 26  12  19  ar  
 27  12  38  1   
 28  13  17  ar  
 29  13  20  1   
 30  14  21  1   
 31  14  22  1   
 32  14  39  1   
 33  15  40  1   
 34  15  41  1   
 35  16  23  1   
 36  16  42  1   
 37  16  43  1   
 38  18  24  ar  
 39  18  44  1   
 40  19  24  ar  
 41  19  45  1   
 42  20  25  ar  
 43  20  26  ar  
 44  21  27  1   
 45  22  23  1   
 46  22  46  1   
 47  22  47  1   
 48  23  48  1   
 49  23  49  1   
 50  24  50  1   
 51  25  28  ar  
 52  25  51  1   
 53  26  29  ar  
 54  26  52  1   
 55  27  53  1   
 56  27  54  1   
 57  27  55  1   
 58  28  30  ar  
 59  29  30  ar  
 60  29  56  1   
 61  30  57  1   
@<TRIPOS>SUBSTRUCTURE
  1 ****   4 GROUP 4 **** **** 0

# MOE 2024.06 (io_trps.svl 2023.06)
