@<TRIPOS>MOLECULE
NONAME
50 53 1 0 0 
SMALL
USER_CHARGES


@<TRIPOS>ATOM
  1 O        1.9760    -3.0190     2.4200 O.2   1 <1>  -0.5700 
  2 C        1.6280    -2.2800     1.5110 C.2   1 <1>   0.5440 
  3 N        0.2880    -1.9470     1.3430 N.am  1 <1>  -0.2980 
  4 C        2.5820    -1.7230     0.5910 C.ar  1 <1>   0.0860 
  5 N       -0.1750    -1.0940     0.3650 N.2   1 <1>  -0.5120 
  6 C       -0.7290    -2.4780     2.3060 C.3   1 <1>   0.2010 
  7 C        2.1000    -0.8590    -0.4010 C.ar  1 <1>   0.0860 
  8 C        3.9520    -1.9980     0.6400 C.ar  1 <1>  -0.1500 
  9 C        0.6960    -0.5930    -0.4380 C.2   1 <1>   0.3040 
 10 C       -0.9590    -3.9900     2.2420 C.2   1 <1>   0.5690 
 11 C        3.0000    -0.2950    -1.3120 C.ar  1 <1>  -0.1500 
 12 C        4.8260    -1.4350    -0.2650 C.ar  1 <1>  -0.1500 
 13 O       -0.9530    -4.6010     3.2870 O.2   1 <1>  -0.5700 
 14 N       -1.2200    -4.6370     1.0610 N.am  1 <1>  -0.6600 
 15 C        4.3460    -0.5780    -1.2460 C.ar  1 <1>  -0.1500 
 16 C       -1.3660    -4.0250    -0.2830 C.3   1 <1>   0.1400 
 17 C       -1.4870    -6.0880     0.9890 C.3   1 <1>   0.1400 
 18 C       -1.8940    -5.1440    -1.1920 C.3   1 <1>   0.2000 
 19 C       -1.4140    -6.4260    -0.5020 C.3   1 <1>  -0.0800 
 20 O       -3.2940    -5.1360    -1.2060 O.3   1 <1>  -0.5600 
 21 C       -2.1990    -7.6930    -0.8850 C.3   1 <1>   0.0200 
 22 C       -3.8760    -4.2500    -2.1100 C.3   1 <1>   0.0400 
 23 C       -1.5870    -8.9670    -0.3260 C.2   1 <1>  -0.0400 
 24 O       -2.2030   -10.1010    -0.5290 O.3   1 <1>  -0.0190 
 25 C       -0.4740    -9.2300     0.3780 C.2   1 <1>  -0.1500 
 26 N       -1.5670   -11.1050     0.0020 N.2   1 <1>  -0.4100 
 27 C       -0.5200   -10.6090     0.5570 C.2   1 <1>   0.1080 
 28 C        0.5140   -11.4210     1.3030 C.3   1 <1>  -0.0590 
 29 H       -0.4140    -2.2280     3.3020 H     1 <1>   0.0800 
 30 H       -1.6690    -1.9900     2.1290 H     1 <1>   0.0800 
 31 H        4.3210    -2.6620     1.4040 H     1 <1>   0.1500 
 32 H        0.3570     0.0790    -1.2050 H     1 <1>   0.0600 
 33 H        2.6340     0.3710    -2.0740 H     1 <1>   0.1500 
 34 H        5.8790    -1.6560    -0.2140 H     1 <1>   0.1500 
 35 H        5.0340    -0.1400    -1.9510 H     1 <1>   0.1500 
 36 H       -2.0280    -3.1790    -0.2540 H     1 <1>   0.0800 
 37 H       -0.3960    -3.7150    -0.6260 H     1 <1>   0.0800 
 38 H       -0.7660    -6.6370     1.5690 H     1 <1>   0.0800 
 39 H       -2.4750    -6.2760     1.3740 H     1 <1>   0.0800 
 40 H       -1.5280    -5.0680    -2.2010 H     1 <1>   0.0800 
 41 H       -0.3790    -6.5660    -0.7580 H     1 <1>   0.0800 
 42 H       -2.2360    -7.7780    -1.9570 H     1 <1>   0.0800 
 43 H       -3.2130    -7.6160    -0.5310 H     1 <1>   0.0800 
 44 H       -4.9440    -4.3370    -2.0200 H     1 <1>   0.0800 
 45 H       -3.5760    -4.5140    -3.1100 H     1 <1>   0.0800 
 46 H       -3.5760    -3.2440    -1.8770 H     1 <1>   0.0800 
 47 H        0.2960    -8.5730     0.7380 H     1 <1>   0.1500 
 48 H        1.4820   -11.2760     0.8590 H     1 <1>   0.0800 
 49 H        0.2630   -12.4650     1.2580 H     1 <1>   0.0800 
 50 H        0.5440   -11.1130     2.3320 H     1 <1>   0.0800 
@<TRIPOS>BOND
  1   1   2  2   
  2   2   3  am  
  3   2   4  1   
  4   3   5  1   
  5   3   6  1   
  6   4   7  ar  
  7   4   8  ar  
  8   5   9  2   
  9   6  10  1   
 10   6  29  1   
 11   6  30  1   
 12   7   9  1   
 13   7  11  ar  
 14   8  12  ar  
 15   8  31  1   
 16   9  32  1   
 17  10  13  2   
 18  10  14  am  
 19  11  15  ar  
 20  11  33  1   
 21  12  15  ar  
 22  12  34  1   
 23  14  16  1   
 24  14  17  1   
 25  15  35  1   
 26  16  18  1   
 27  16  36  1   
 28  16  37  1   
 29  17  19  1   
 30  17  38  1   
 31  17  39  1   
 32  18  19  1   
 33  18  20  1   
 34  18  40  1   
 35  19  21  1   
 36  19  41  1   
 37  20  22  1   
 38  21  23  1   
 39  21  42  1   
 40  21  43  1   
 41  22  44  1   
 42  22  45  1   
 43  22  46  1   
 44  23  24  1   
 45  23  25  2   
 46  24  26  1   
 47  25  27  1   
 48  25  47  1   
 49  26  27  2   
 50  27  28  1   
 51  28  48  1   
 52  28  49  1   
 53  28  50  1   
@<TRIPOS>SUBSTRUCTURE
  1 ****  14 GROUP 4 **** **** 0

# MOE 2024.06 (io_trps.svl 2023.06)
