@<TRIPOS>MOLECULE
NONAME
44 45 1 0 0 
SMALL
USER_CHARGES


@<TRIPOS>ATOM
  1 S        0.2830     0.2970    -1.0410 S.o2  1 <1>   1.3330 
  2 O       -0.6750     1.1640    -1.6880 O.2   1 <1>  -0.6500 
  3 O        0.4670    -1.0530    -1.5250 O.2   1 <1>  -0.6500 
  4 N       -0.1580     0.2020     0.5980 N.am  1 <1>  -0.8490 
  5 C        1.8870     1.1000    -1.0130 C.3   1 <1>  -0.0550 
  6 C       -0.6720     1.4680     1.1350 C.3   1 <1>   0.1160 
  7 C       -1.1270    -0.8690     0.8440 C.3   1 <1>   0.1160 
  8 C        3.0200     0.2410    -0.4080 C.3   1 <1>  -0.0800 
  9 C        4.4090     0.8550    -0.5100 C.3   1 <1>   0.2200 
 10 C        2.8900    -0.0490     1.0920 C.3   1 <1>   0.1200 
 11 N        4.3660     2.2970    -0.1720 N.am  1 <1>  -0.7300 
 12 C        5.1260     0.1100     0.6060 C.3   1 <1>   0.1200 
 13 O        4.1830    -0.0100     1.6270 O.3   1 <1>  -0.5600 
 14 C        4.3700     3.3270    -1.0660 C.2   1 <1>   0.5440 
 15 O        4.4740     3.0560    -2.2450 O.2   1 <1>  -0.5700 
 16 C        4.2560     4.7070    -0.6390 C.ar  1 <1>   0.0860 
 17 C        3.4730     5.1130     0.4420 C.ar  1 <1>   0.1900 
 18 C        4.9400     5.7190    -1.3200 C.ar  1 <1>  -0.1500 
 19 F        2.7810     4.2270     1.1140 F     1 <1>  -0.1900 
 20 C        3.3950     6.4420     0.8230 C.ar  1 <1>   0.1900 
 21 C        4.8620     7.0500    -0.9400 C.ar  1 <1>  -0.1500 
 22 F        2.6490     6.7740     1.8470 F     1 <1>  -0.1900 
 23 C        4.0860     7.4340     0.1440 C.ar  1 <1>  -0.1440 
 24 C        3.9990     8.8950     0.5630 C.3   1 <1>  -0.0970 
 25 H        2.1600     1.3400    -2.0230 H     1 <1>   0.0800 
 26 H        1.8060     2.0250    -0.4790 H     1 <1>   0.0800 
 27 H       -0.8600     1.3720     2.1910 H     1 <1>   0.0800 
 28 H       -1.5900     1.7430     0.6400 H     1 <1>   0.0800 
 29 H        0.0470     2.2550     0.9900 H     1 <1>   0.0800 
 30 H       -1.3760    -0.9160     1.8900 H     1 <1>   0.0800 
 31 H       -0.7080    -1.8190     0.5560 H     1 <1>   0.0800 
 32 H       -2.0250    -0.7010     0.2710 H     1 <1>   0.0800 
 33 H        3.0400    -0.7050    -0.9210 H     1 <1>   0.0800 
 34 H        4.8690     0.6980    -1.4720 H     1 <1>   0.0800 
 35 H        2.4610    -1.0190     1.2770 H     1 <1>   0.0800 
 36 H        2.3120     0.7060     1.5970 H     1 <1>   0.0800 
 37 H        4.2170     2.4810     0.8250 H     1 <1>   0.3700 
 38 H        5.9930     0.6330     0.9690 H     1 <1>   0.0800 
 39 H        5.3990    -0.8820     0.2900 H     1 <1>   0.0800 
 40 H        5.5460     5.4480    -2.1690 H     1 <1>   0.1500 
 41 H        5.4110     7.7900    -1.4990 H     1 <1>   0.1500 
 42 H        4.6120     9.5160    -0.0650 H     1 <1>   0.0800 
 43 H        4.3310     9.0060     1.5810 H     1 <1>   0.0800 
 44 H        2.9820     9.2380     0.4940 H     1 <1>   0.0800 
@<TRIPOS>BOND
  1   1   2  2   
  2   1   3  2   
  3   1   4  am  
  4   1   5  1   
  5   4   6  1   
  6   4   7  1   
  7   5   8  1   
  8   5  25  1   
  9   5  26  1   
 10   6  27  1   
 11   6  28  1   
 12   6  29  1   
 13   7  30  1   
 14   7  31  1   
 15   7  32  1   
 16   8   9  1   
 17   8  10  1   
 18   8  33  1   
 19   9  11  1   
 20   9  12  1   
 21   9  34  1   
 22  10  13  1   
 23  10  35  1   
 24  10  36  1   
 25  11  14  am  
 26  11  37  1   
 27  12  13  1   
 28  12  38  1   
 29  12  39  1   
 30  14  15  2   
 31  14  16  1   
 32  16  17  ar  
 33  16  18  ar  
 34  17  19  1   
 35  17  20  ar  
 36  18  21  ar  
 37  18  40  1   
 38  20  22  1   
 39  20  23  ar  
 40  21  23  ar  
 41  21  41  1   
 42  23  24  1   
 43  24  42  1   
 44  24  43  1   
 45  24  44  1   
@<TRIPOS>SUBSTRUCTURE
  1 ****  11 GROUP 4 **** **** 0

# MOE 2024.06 (io_trps.svl 2023.06)
