@<TRIPOS>MOLECULE
NONAME
32 32 1 0 0 
SMALL
USER_CHARGES


@<TRIPOS>ATOM
  1 O        0.7470     0.5050    -0.6130 O.3   1 <1>  -0.4800 
  2 N        1.8410    -0.1870    -0.4230 N.pl3 1 <1>  -0.8240 
  3 C        2.6900     0.0270     0.5410 C.cat 1 <1>   0.6040 
  4 N        2.3880     1.0140     1.3690 N.pl3 1 <1>  -0.7540 
  5 C        3.9530    -0.7860     0.7070 C.3   1 <1>  -0.0550 
  6 C        5.0530    -0.2160    -0.1920 C.3   1 <1>   0.1100 
  7 N        6.3460    -0.8870     0.0480 N.3   1 <1>  -0.8100 
  8 C        6.3960    -2.2550    -0.5370 C.3   1 <1>   0.1100 
  9 C        7.4630    -0.0690    -0.4890 C.3   1 <1>   0.1100 
 10 C        7.7840    -2.9290    -0.3830 C.3   1 <1>   0.3430 
 11 C        8.8520    -0.7140    -0.2480 C.3   1 <1>   0.3430 
 12 N        8.7250    -2.0620     0.3980 N.4   1 <1>  -0.9590 
 13 C       10.0400    -2.7100     0.6740 C.3   1 <1>   0.2630 
 14 H        1.9690    -0.9340    -1.1150 H     1 <1>   0.4500 
 15 H        2.8600     1.3310     2.2080 H     1 <1>   0.4500 
 16 H        1.4930     1.4430     1.0990 H     1 <1>   0.4500 
 17 H        3.7350    -1.8030     0.4420 H     1 <1>   0.0800 
 18 H        4.2640    -0.7540     1.7350 H     1 <1>   0.0800 
 19 H        5.1520     0.8340     0.0340 H     1 <1>   0.0800 
 20 H        4.7690    -0.3020    -1.2280 H     1 <1>   0.0800 
 21 H        6.1430    -2.2160    -1.5830 H     1 <1>   0.0800 
 22 H        5.6650    -2.8800    -0.0540 H     1 <1>   0.0800 
 23 H        7.4530     0.9020    -0.0230 H     1 <1>   0.0800 
 24 H        7.3270     0.0830    -1.5470 H     1 <1>   0.0800 
 25 H        8.1910    -3.1250    -1.3610 H     1 <1>   0.0800 
 26 H        7.6580    -3.8770     0.1140 H     1 <1>   0.0800 
 27 H        9.4330    -0.0610     0.3820 H     1 <1>   0.0800 
 28 H        9.3670    -0.8010    -1.1900 H     1 <1>   0.0800 
 29 H        8.2190    -1.8700     1.2780 H     1 <1>   0.4500 
 30 H       10.5640    -2.9060    -0.2470 H     1 <1>   0.0800 
 31 H        9.8950    -3.6430     1.1950 H     1 <1>   0.0800 
 32 H       10.6510    -2.0680     1.2890 H     1 <1>   0.0800 
@<TRIPOS>BOND
  1   1   2  1   
  2   2   3  ar  
  3   2  14  1   
  4   3   4  ar  
  5   3   5  1   
  6   4  15  1   
  7   4  16  1   
  8   5   6  1   
  9   5  17  1   
 10   5  18  1   
 11   6   7  1   
 12   6  19  1   
 13   6  20  1   
 14   7   8  1   
 15   7   9  1   
 16   8  10  1   
 17   8  21  1   
 18   8  22  1   
 19   9  11  1   
 20   9  23  1   
 21   9  24  1   
 22  10  12  1   
 23  10  25  1   
 24  10  26  1   
 25  11  12  1   
 26  11  27  1   
 27  11  28  1   
 28  12  13  1   
 29  12  29  1   
 30  13  30  1   
 31  13  31  1   
 32  13  32  1   
@<TRIPOS>SUBSTRUCTURE
  1 ****   7 GROUP 4 **** **** 0

# MOE 2024.06 (io_trps.svl 2023.06)
