@<TRIPOS>MOLECULE
NONAME
44 45 1 0 0 
SMALL
USER_CHARGES


@<TRIPOS>ATOM
  1 O       -2.4230     0.7080    -1.4570 O.2   1 <1>  -0.5700 
  2 C       -2.1170     0.8970    -0.3050 C.2   1 <1>   0.5690 
  3 N       -1.9720    -0.1320     0.5710 N.am  1 <1>  -0.7300 
  4 C       -1.8820     2.3200     0.2040 C.3   1 <1>  -0.0190 
  5 C       -2.1320    -1.5620     0.2160 C.3   1 <1>   0.1400 
  6 C       -2.6740     3.3820    -0.5870 C.3   1 <1>  -0.1600 
  7 C       -0.3730     2.6610     0.2120 C.3   1 <1>  -0.1600 
  8 C       -3.5610    -2.0170     0.5080 C.3   1 <1>  -0.0170 
  9 C       -2.5440     4.7900     0.0320 C.3   1 <1>   0.2000 
 10 C       -0.0760     4.1740     0.2440 C.3   1 <1>  -0.1600 
 11 C       -3.7130    -3.4970     0.2000 C.ar  1 <1>  -0.1440 
 12 O       -2.5700     5.7390    -1.0070 O.3   1 <1>  -0.5600 
 13 C       -1.2370     4.9680     0.8480 C.3   1 <1>   0.2000 
 14 C       -3.9330    -3.9130    -1.1050 C.ar  1 <1>  -0.1500 
 15 C       -3.6290    -4.4410     1.2140 C.ar  1 <1>  -0.1500 
 16 C       -3.8300     6.0020    -1.5420 C.3   1 <1>   0.0400 
 17 O       -0.8850     6.3010     0.8580 O.3   1 <1>  -0.6800 
 18 C       -4.0660    -5.2590    -1.3960 C.ar  1 <1>  -0.1500 
 19 C       -3.7620    -5.7890     0.9280 C.ar  1 <1>  -0.1500 
 20 C       -3.9800    -6.1930    -0.3790 C.ar  1 <1>   0.0820 
 21 O       -4.1110    -7.4950    -0.6710 O.3   1 <1>  -0.5330 
 22 H       -1.7100     0.0600     1.5380 H     1 <1>   0.3700 
 23 H       -2.2390     2.3500     1.2180 H     1 <1>   0.0800 
 24 H       -1.9180    -1.7020    -0.8310 H     1 <1>   0.0800 
 25 H       -1.4330    -2.1530     0.7820 H     1 <1>   0.0800 
 26 H       -3.7120     3.1020    -0.6220 H     1 <1>   0.0800 
 27 H       -2.2980     3.3970    -1.5970 H     1 <1>   0.0800 
 28 H        0.0830     2.1880     1.0650 H     1 <1>   0.0800 
 29 H        0.0920     2.2460    -0.6680 H     1 <1>   0.0800 
 30 H       -3.7990    -1.8340     1.5400 H     1 <1>   0.0800 
 31 H       -4.2450    -1.4530    -0.1030 H     1 <1>   0.0800 
 32 H       -3.3720     4.9820     0.6930 H     1 <1>   0.0800 
 33 H        0.0790     4.5180    -0.7650 H     1 <1>   0.0800 
 34 H        0.8250     4.3560     0.8040 H     1 <1>   0.0800 
 35 H       -1.3870     4.6600     1.8680 H     1 <1>   0.0800 
 36 H       -4.0000    -3.1900    -1.9010 H     1 <1>   0.1500 
 37 H       -3.4590    -4.1310     2.2300 H     1 <1>   0.1500 
 38 H       -3.7200     6.7580    -2.2990 H     1 <1>   0.0800 
 39 H       -4.4810     6.3620    -0.7640 H     1 <1>   0.0800 
 40 H       -4.2280     5.1060    -1.9870 H     1 <1>   0.0800 
 41 H       -1.2040     6.6660     0.0010 H     1 <1>   0.4000 
 42 H       -4.2360    -5.5900    -2.4050 H     1 <1>   0.1500 
 43 H       -3.6960    -6.5130     1.7190 H     1 <1>   0.1500 
 44 H       -4.0400    -8.0690     0.1110 H     1 <1>   0.4500 
@<TRIPOS>BOND
  1   1   2  2   
  2   2   3  am  
  3   2   4  1   
  4   3   5  1   
  5   3  22  1   
  6   4   6  1   
  7   4   7  1   
  8   4  23  1   
  9   5   8  1   
 10   5  24  1   
 11   5  25  1   
 12   6   9  1   
 13   6  26  1   
 14   6  27  1   
 15   7  10  1   
 16   7  28  1   
 17   7  29  1   
 18   8  11  1   
 19   8  30  1   
 20   8  31  1   
 21   9  12  1   
 22   9  13  1   
 23   9  32  1   
 24  10  13  1   
 25  10  33  1   
 26  10  34  1   
 27  11  14  ar  
 28  11  15  ar  
 29  12  16  1   
 30  13  17  1   
 31  13  35  1   
 32  14  18  ar  
 33  14  36  1   
 34  15  19  ar  
 35  15  37  1   
 36  16  38  1   
 37  16  39  1   
 38  16  40  1   
 39  17  41  1   
 40  18  20  ar  
 41  18  42  1   
 42  19  20  ar  
 43  19  43  1   
 44  20  21  1   
 45  21  44  1   
@<TRIPOS>SUBSTRUCTURE
  1 ****   3 GROUP 4 **** **** 0

# MOE 2024.06 (io_trps.svl 2023.06)
