@<TRIPOS>MOLECULE
NONAME
50 52 1 0 0 
SMALL
USER_CHARGES


@<TRIPOS>ATOM
  1 O        2.3940     0.9500     1.3990 O.2   1 <1>  -0.5700 
  2 C        2.4000     0.0840     0.5610 C.2   1 <1>   0.5690 
  3 N        2.6090     0.4040    -0.7580 N.am  1 <1>  -0.6600 
  4 C        2.2320    -1.3510     1.0410 C.3   1 <1>  -0.0990 
  5 C        3.1970    -0.5100    -1.7860 C.3   1 <1>   0.1400 
  6 C        2.3920     1.8050    -1.2250 C.3   1 <1>   0.1400 
  7 C        0.7550    -1.7880     1.0880 C.3   1 <1>  -0.0800 
  8 C        4.7410    -0.4940    -1.7210 C.3   1 <1>   0.3430 
  9 C        3.6810     2.6330    -1.1400 C.3   1 <1>  -0.1600 
 10 C        0.6230    -3.1590     1.7770 C.3   1 <1>   0.1200 
 11 C        0.1120    -1.8350    -0.3100 C.3   1 <1>  -0.1600 
 12 N        5.2650     0.7570    -1.0820 N.4   1 <1>  -0.9590 
 13 C        4.8990     2.0000    -1.8160 C.3   1 <1>   0.3430 
 14 O       -0.7150    -3.5490     1.8060 O.3   1 <1>  -0.5600 
 15 C       -1.3040    -2.4140    -0.2120 C.3   1 <1>  -0.1600 
 16 C        6.7290     0.6920    -0.7400 C.3   1 <1>   0.5240 
 17 C       -1.3030    -3.7400     0.5560 C.3   1 <1>   0.1200 
 18 C        7.1170     1.7080     0.3340 C.2   1 <1>   0.3350 
 19 N        7.3690     1.4030     1.5420 N.2   1 <1>  -0.4100 
 20 N        7.1990     3.0100     0.0850 N.2   1 <1>  -0.5650 
 21 O        7.6420     2.5100     2.1650 O.3   1 <1>  -0.0190 
 22 C        7.5240     3.4320     1.2430 C.2   1 <1>   0.2980 
 23 C        7.7740     4.8740     1.6210 C.3   1 <1>  -0.0600 
 24 H        2.6290    -1.3990     2.0390 H     1 <1>   0.0800 
 25 H        2.8040    -2.0330     0.4450 H     1 <1>   0.0800 
 26 H        2.8820    -0.1940    -2.7660 H     1 <1>   0.0800 
 27 H        2.8350    -1.5150    -1.6600 H     1 <1>   0.0800 
 28 H        1.6340     2.2710    -0.6130 H     1 <1>   0.0800 
 29 H        2.0200     1.7960    -2.2350 H     1 <1>   0.0800 
 30 H        0.2170    -1.0750     1.6920 H     1 <1>   0.0800 
 31 H        5.1460    -0.6110    -2.7130 H     1 <1>   0.0800 
 32 H        5.0560    -1.3440    -1.1390 H     1 <1>   0.0800 
 33 H        3.9060     2.8410    -0.1080 H     1 <1>   0.0800 
 34 H        3.4930     3.5830    -1.6070 H     1 <1>   0.0800 
 35 H        0.9620    -3.1030     2.7970 H     1 <1>   0.0800 
 36 H        1.1860    -3.9170     1.2610 H     1 <1>   0.0800 
 37 H        0.6980    -2.4610    -0.9590 H     1 <1>   0.0800 
 38 H        0.0620    -0.8480    -0.7360 H     1 <1>   0.0800 
 39 H        4.7540     0.8450    -0.1840 H     1 <1>   0.4500 
 40 H        5.7140     2.7060    -1.7840 H     1 <1>   0.0800 
 41 H        4.6830     1.7830    -2.8490 H     1 <1>   0.0800 
 42 H       -1.7070    -2.5700    -1.1970 H     1 <1>   0.0800 
 43 H       -1.9480    -1.7210     0.3010 H     1 <1>   0.0800 
 44 H        7.3250     0.8680    -1.6200 H     1 <1>   0.0800 
 45 H        6.9670    -0.2870    -0.3600 H     1 <1>   0.0800 
 46 H       -2.3100    -4.0850     0.7170 H     1 <1>   0.0800 
 47 H       -0.7510    -4.5000     0.0290 H     1 <1>   0.0800 
 48 H        7.6430     5.5100     0.7650 H     1 <1>   0.0800 
 49 H        8.7780     4.9840     1.9870 H     1 <1>   0.0800 
 50 H        7.0850     5.1730     2.3890 H     1 <1>   0.0800 
@<TRIPOS>BOND
  1   1   2  2   
  2   2   3  am  
  3   2   4  1   
  4   3   5  1   
  5   3   6  1   
  6   4   7  1   
  7   4  24  1   
  8   4  25  1   
  9   5   8  1   
 10   5  26  1   
 11   5  27  1   
 12   6   9  1   
 13   6  28  1   
 14   6  29  1   
 15   7  10  1   
 16   7  11  1   
 17   7  30  1   
 18   8  12  1   
 19   8  31  1   
 20   8  32  1   
 21   9  13  1   
 22   9  33  1   
 23   9  34  1   
 24  10  14  1   
 25  10  35  1   
 26  10  36  1   
 27  11  15  1   
 28  11  37  1   
 29  11  38  1   
 30  12  13  1   
 31  12  16  1   
 32  12  39  1   
 33  13  40  1   
 34  13  41  1   
 35  14  17  1   
 36  15  17  1   
 37  15  42  1   
 38  15  43  1   
 39  16  18  1   
 40  16  44  1   
 41  16  45  1   
 42  17  46  1   
 43  17  47  1   
 44  18  19  2   
 45  18  20  1   
 46  19  21  1   
 47  20  22  2   
 48  21  22  1   
 49  22  23  1   
 50  23  48  1   
 51  23  49  1   
 52  23  50  1   
@<TRIPOS>SUBSTRUCTURE
  1 ****   2 GROUP 4 **** **** 0

# MOE 2024.06 (io_trps.svl 2023.06)
