@<TRIPOS>MOLECULE
NONAME
39 41 1 0 0 
SMALL
USER_CHARGES


@<TRIPOS>ATOM
  1 CL      -0.8720     0.8550    -1.6880 Cl    1 <1>  -0.1770 
  2 C       -0.5270     2.3860    -0.9290 C.ar  1 <1>   0.1770 
  3 C        0.5910     3.1110    -1.2990 C.ar  1 <1>   0.1600 
  4 C       -1.3700     2.8750     0.0410 C.ar  1 <1>  -0.1500 
  5 N        0.9310     4.2790    -0.7740 N.ar  1 <1>  -0.6200 
  6 C       -1.0260     4.0920     0.5910 C.ar  1 <1>  -0.1500 
  7 C        0.1210     4.7830     0.1820 C.ar  1 <1>   0.3960 
  8 C        0.4090     6.0800     0.8070 C.2   1 <1>   0.5440 
  9 O       -0.5240     6.8290     1.0490 O.2   1 <1>  -0.5700 
 10 N        1.6800     6.5120     1.1590 N.am  1 <1>  -0.6600 
 11 C        2.9190     5.6770     1.0820 C.3   1 <1>   0.1400 
 12 C        1.9290     7.9060     1.6130 C.3   1 <1>   0.1400 
 13 C        3.7630     6.0080    -0.1580 C.3   1 <1>   0.1400 
 14 C        2.0960     8.8460     0.4130 C.3   1 <1>  -0.1600 
 15 N        4.1050     7.4680    -0.2470 N.am  1 <1>  -0.6600 
 16 C        2.9790     8.3200    -0.7300 C.3   1 <1>   0.1400 
 17 C        5.4090     7.9090    -0.1580 C.2   1 <1>   0.7160 
 18 O        6.3030     7.0970    -0.0140 O.2   1 <1>  -0.5700 
 19 C        5.7480     9.3080    -0.2460 C.2   1 <1>  -0.0860 
 20 C        6.5810     9.9160    -1.1320 C.2   1 <1>  -0.0100 
 21 C        5.3060    10.3590     0.5850 C.2   1 <1>  -0.1500 
 22 O        6.6510    11.2080    -0.9160 O.3   1 <1>  -0.2800 
 23 C        5.8880    11.4830     0.1200 C.2   1 <1>  -0.0100 
 24 H        1.2290     2.7030    -2.0640 H     1 <1>   0.1500 
 25 H       -2.2480     2.3320     0.3450 H     1 <1>   0.1500 
 26 H       -1.6510     4.5310     1.3500 H     1 <1>   0.1500 
 27 H        2.6640     4.6330     1.0700 H     1 <1>   0.0800 
 28 H        3.5160     5.8400     1.9620 H     1 <1>   0.0800 
 29 H        2.8190     7.9340     2.2170 H     1 <1>   0.0800 
 30 H        1.1110     8.2430     2.2270 H     1 <1>   0.0800 
 31 H        3.2240     5.7130    -1.0410 H     1 <1>   0.0800 
 32 H        4.6580     5.4120    -0.1270 H     1 <1>   0.0800 
 33 H        2.4870     9.7810     0.7640 H     1 <1>   0.0800 
 34 H        1.1210     9.0580     0.0120 H     1 <1>   0.0800 
 35 H        3.3550     9.1480    -1.3060 H     1 <1>   0.0800 
 36 H        2.3630     7.7320    -1.3900 H     1 <1>   0.0800 
 37 H        7.1520     9.4850    -1.9360 H     1 <1>   0.1500 
 38 H        4.6450    10.2450     1.4240 H     1 <1>   0.1500 
 39 H        5.8240    12.5030     0.4600 H     1 <1>   0.1500 
@<TRIPOS>BOND
  1   1   2  1   
  2   2   3  ar  
  3   2   4  ar  
  4   3   5  ar  
  5   3  24  1   
  6   4   6  ar  
  7   4  25  1   
  8   5   7  ar  
  9   6   7  ar  
 10   6  26  1   
 11   7   8  1   
 12   8   9  2   
 13   8  10  am  
 14  10  11  1   
 15  10  12  1   
 16  11  13  1   
 17  11  27  1   
 18  11  28  1   
 19  12  14  1   
 20  12  29  1   
 21  12  30  1   
 22  13  15  1   
 23  13  31  1   
 24  13  32  1   
 25  14  16  1   
 26  14  33  1   
 27  14  34  1   
 28  15  16  1   
 29  15  17  am  
 30  16  35  1   
 31  16  36  1   
 32  17  18  2   
 33  17  19  1   
 34  19  20  2   
 35  19  21  1   
 36  20  22  1   
 37  20  37  1   
 38  21  23  2   
 39  21  38  1   
 40  22  23  1   
 41  23  39  1   
@<TRIPOS>SUBSTRUCTURE
  1 ****  13 GROUP 4 **** **** 0

# MOE 2024.06 (io_trps.svl 2023.06)
