@<TRIPOS>MOLECULE
NONAME
44 45 1 0 0 
SMALL
USER_CHARGES


@<TRIPOS>ATOM
  1 O       -0.3720     2.6010     2.1070 O.co2 1 <1>  -0.9000 
  2 C       -0.9890     2.9700     1.1080 C.2   1 <1>   0.9060 
  3 O       -2.0190     3.6480     1.1900 O.co2 1 <1>  -0.9000 
  4 C       -0.2920     2.8110    -0.2200 C.3   1 <1>  -0.1860 
  5 C       -1.0210     3.3070    -1.4890 C.3   1 <1>   0.2000 
  6 C        1.0170     3.5700    -0.0480 C.3   1 <1>   0.3430 
  7 O       -2.3790     3.2110    -1.3150 O.3   1 <1>  -0.6800 
  8 C       -0.6950     4.7620    -1.8540 C.3   1 <1>  -0.1600 
  9 N        0.7920     5.0520     0.1150 N.4   1 <1>  -0.9590 
 10 C       -0.4240     5.5760    -0.5940 C.3   1 <1>   0.3430 
 11 C        0.7060     5.3860     1.5800 C.3   1 <1>   0.3430 
 12 C        0.8870     6.8880     1.8150 C.3   1 <1>   0.1200 
 13 O        1.9160     7.3610     0.9630 O.3   1 <1>  -0.3630 
 14 C        2.1040     8.6890     0.7380 C.ar  1 <1>   0.0830 
 15 C        2.9490     9.0670    -0.3080 C.ar  1 <1>  -0.1430 
 16 C        1.4720     9.6600     1.5090 C.ar  1 <1>  -0.1500 
 17 C        3.1230    10.4200    -0.5920 C.ar  1 <1>  -0.1430 
 18 C        3.6730     8.0050    -1.1370 C.3   1 <1>  -0.0970 
 19 C        1.6600    10.9990     1.2280 C.ar  1 <1>  -0.1500 
 20 C        2.4780    11.3730     0.1800 C.ar  1 <1>  -0.1500 
 21 C        4.0080    10.9040    -1.7340 C.3   1 <1>  -0.0970 
 22 H       -0.0750     1.7670    -0.3340 H     1 <1>   0.0800 
 23 H       -0.7740     2.6770    -2.3270 H     1 <1>   0.0800 
 24 H        1.6280     3.3970    -0.9180 H     1 <1>   0.0800 
 25 H        1.5430     3.1810     0.8110 H     1 <1>   0.0800 
 26 H       -2.5710     3.4070    -0.3480 H     1 <1>   0.4000 
 27 H        0.1730     4.7970    -2.4860 H     1 <1>   0.0800 
 28 H       -1.5130     5.1940    -2.4040 H     1 <1>   0.0800 
 29 H        1.6150     5.5690    -0.2240 H     1 <1>   0.4500 
 30 H       -1.2850     5.4940     0.0520 H     1 <1>   0.0800 
 31 H       -0.2850     6.6160    -0.8410 H     1 <1>   0.0800 
 32 H       -0.2420     5.0700     1.9880 H     1 <1>   0.0800 
 33 H        1.4740     4.8560     2.1170 H     1 <1>   0.0800 
 34 H        1.1600     7.0840     2.8370 H     1 <1>   0.0800 
 35 H       -0.0260     7.4050     1.5770 H     1 <1>   0.0800 
 36 H        0.8350     9.4040     2.3340 H     1 <1>   0.1500 
 37 H        4.6560     8.3390    -1.4130 H     1 <1>   0.0800 
 38 H        3.1130     7.7990    -2.0310 H     1 <1>   0.0800 
 39 H        3.8000     7.0930    -0.5860 H     1 <1>   0.0800 
 40 H        1.1720    11.7520     1.8230 H     1 <1>   0.1500 
 41 H        2.6110    12.4210    -0.0280 H     1 <1>   0.1500 
 42 H        3.8710    11.9560    -1.9090 H     1 <1>   0.0800 
 43 H        3.7660    10.3830    -2.6420 H     1 <1>   0.0800 
 44 H        5.0420    10.7340    -1.4930 H     1 <1>   0.0800 
@<TRIPOS>BOND
  1   1   2  ar  
  2   2   3  ar  
  3   2   4  1   
  4   4   5  1   
  5   4   6  1   
  6   4  22  1   
  7   5   7  1   
  8   5   8  1   
  9   5  23  1   
 10   6   9  1   
 11   6  24  1   
 12   6  25  1   
 13   7  26  1   
 14   8  10  1   
 15   8  27  1   
 16   8  28  1   
 17   9  10  1   
 18   9  11  1   
 19   9  29  1   
 20  10  30  1   
 21  10  31  1   
 22  11  12  1   
 23  11  32  1   
 24  11  33  1   
 25  12  13  1   
 26  12  34  1   
 27  12  35  1   
 28  13  14  1   
 29  14  15  ar  
 30  14  16  ar  
 31  15  17  ar  
 32  15  18  1   
 33  16  19  ar  
 34  16  36  1   
 35  17  20  ar  
 36  17  21  1   
 37  18  37  1   
 38  18  38  1   
 39  18  39  1   
 40  19  20  ar  
 41  19  40  1   
 42  20  41  1   
 43  21  42  1   
 44  21  43  1   
 45  21  44  1   
@<TRIPOS>SUBSTRUCTURE
  1 ****   9 GROUP 4 **** **** 0

# MOE 2024.06 (io_trps.svl 2023.06)
