@<TRIPOS>MOLECULE
NONAME
55 58 1 0 0 
SMALL
USER_CHARGES


@<TRIPOS>ATOM
  1 O       -0.9010    -0.3900     0.1360 O.2   1 <1>  -0.5700 
  2 C       -1.8490     0.3650     0.2460 C.2   1 <1>   0.5440 
  3 N       -1.6110     1.6820     0.5790 N.am  1 <1>  -0.6600 
  4 C       -3.1810    -0.1430     0.0130 C.ar  1 <1>   0.0860 
  5 C       -2.4910     2.8160     0.1630 C.3   1 <1>   0.1400 
  6 C       -0.2890     2.1350     1.1120 C.3   1 <1>   0.1400 
  7 C       -3.4250    -1.0260    -1.0360 C.ar  1 <1>   0.1600 
  8 C       -4.2720     0.1980     0.8090 C.ar  1 <1>  -0.1500 
  9 C       -1.7160     3.8120    -0.7190 C.3   1 <1>   0.1200 
 10 C        0.3550     3.1590     0.1650 C.3   1 <1>   0.1200 
 11 N       -4.5960    -1.5470    -1.3590 N.ar  1 <1>  -0.6200 
 12 C       -5.4960    -0.3380     0.4920 C.ar  1 <1>  -0.1500 
 13 O       -0.5300     4.2130    -0.0940 O.3   1 <1>  -0.5600 
 14 C       -5.6230    -1.2020    -0.5930 C.ar  1 <1>   0.4100 
 15 N       -6.8470    -1.7260    -0.9000 N.pl3 1 <1>  -0.8690 
 16 C       -7.0340    -2.8930    -1.7820 C.3   1 <1>   0.3530 
 17 C       -8.1350    -3.7460    -1.1790 C.ar  1 <1>  -0.1430 
 18 C       -9.4360    -3.6650    -1.6490 C.ar  1 <1>  -0.1500 
 19 C       -7.8480    -4.6080    -0.1320 C.ar  1 <1>  -0.1500 
 20 C      -10.4310    -4.4420    -1.0830 C.ar  1 <1>  -0.1500 
 21 C       -8.8470    -5.3810     0.4290 C.ar  1 <1>  -0.1500 
 22 C      -10.1590    -5.3250    -0.0400 C.ar  1 <1>   0.0860 
 23 C      -11.2120    -6.1430     0.5340 C.2   1 <1>   0.5440 
 24 O      -12.2620    -5.6260     0.8690 O.2   1 <1>  -0.5700 
 25 N      -11.0610    -7.5000     0.7010 N.am  1 <1>  -0.6600 
 26 C      -12.1270    -8.3440     1.2830 C.3   1 <1>   0.1400 
 27 C      -10.0410    -8.3310     0.0220 C.3   1 <1>   0.1400 
 28 C      -11.6300    -9.7760     1.1200 C.3   1 <1>  -0.1600 
 29 C      -10.6670    -9.7180    -0.0630 C.3   1 <1>  -0.1600 
 30 H       -2.8500     3.3270     1.0390 H     1 <1>   0.0800 
 31 H       -3.3410     2.4570    -0.3890 H     1 <1>   0.0800 
 32 H        0.3780     1.3010     1.2420 H     1 <1>   0.0800 
 33 H       -0.4350     2.5900     2.0760 H     1 <1>   0.0800 
 34 H       -2.5840    -1.3130    -1.6450 H     1 <1>   0.1500 
 35 H       -4.1480     0.8590     1.6480 H     1 <1>   0.1500 
 36 H       -2.3080     4.6920    -0.8950 H     1 <1>   0.0800 
 37 H       -1.4700     3.3660    -1.6670 H     1 <1>   0.0800 
 38 H        0.6240     2.6920    -0.7670 H     1 <1>   0.0800 
 39 H        1.2400     3.5740     0.6130 H     1 <1>   0.0800 
 40 H       -6.3660    -0.1020     1.0740 H     1 <1>   0.1500 
 41 H       -7.5890    -1.6520    -0.2030 H     1 <1>   0.4000 
 42 H       -6.1270    -3.4690    -1.8560 H     1 <1>   0.0800 
 43 H       -7.3060    -2.5560    -2.7670 H     1 <1>   0.0800 
 44 H       -9.6820    -2.9920    -2.4530 H     1 <1>   0.1500 
 45 H       -6.8430    -4.6690     0.2510 H     1 <1>   0.1500 
 46 H      -11.4410    -4.3700    -1.4470 H     1 <1>   0.1500 
 47 H       -8.6160    -6.0380     1.2490 H     1 <1>   0.1500 
 48 H      -13.0380    -8.1920     0.7290 H     1 <1>   0.0800 
 49 H      -12.2900    -8.0910     2.3170 H     1 <1>   0.0800 
 50 H       -9.1520    -8.3620     0.6270 H     1 <1>   0.0800 
 51 H       -9.8060    -7.9430    -0.9550 H     1 <1>   0.0800 
 52 H      -12.4410   -10.4630     0.9560 H     1 <1>   0.0800 
 53 H      -11.1000   -10.0650     2.0100 H     1 <1>   0.0800 
 54 H       -9.9260   -10.4960    -0.0300 H     1 <1>   0.0800 
 55 H      -11.2180    -9.7960    -0.9850 H     1 <1>   0.0800 
@<TRIPOS>BOND
  1   1   2  2   
  2   2   3  am  
  3   2   4  1   
  4   3   5  1   
  5   3   6  1   
  6   4   7  ar  
  7   4   8  ar  
  8   5   9  1   
  9   5  30  1   
 10   5  31  1   
 11   6  10  1   
 12   6  32  1   
 13   6  33  1   
 14   7  11  ar  
 15   7  34  1   
 16   8  12  ar  
 17   8  35  1   
 18   9  13  1   
 19   9  36  1   
 20   9  37  1   
 21  10  13  1   
 22  10  38  1   
 23  10  39  1   
 24  11  14  ar  
 25  12  14  ar  
 26  12  40  1   
 27  14  15  1   
 28  15  16  1   
 29  15  41  1   
 30  16  17  1   
 31  16  42  1   
 32  16  43  1   
 33  17  18  ar  
 34  17  19  ar  
 35  18  20  ar  
 36  18  44  1   
 37  19  21  ar  
 38  19  45  1   
 39  20  22  ar  
 40  20  46  1   
 41  21  22  ar  
 42  21  47  1   
 43  22  23  1   
 44  23  24  2   
 45  23  25  am  
 46  25  26  1   
 47  25  27  1   
 48  26  28  1   
 49  26  48  1   
 50  26  49  1   
 51  27  29  1   
 52  27  50  1   
 53  27  51  1   
 54  28  29  1   
 55  28  52  1   
 56  28  53  1   
 57  29  54  1   
 58  29  55  1   
@<TRIPOS>SUBSTRUCTURE
  1 ****  15 GROUP 4 **** **** 0

# MOE 2024.06 (io_trps.svl 2023.06)
