@<TRIPOS>MOLECULE
NONAME
59 61 1 0 0 
SMALL
USER_CHARGES


@<TRIPOS>ATOM
  1 O       -2.4360    -0.1060    -0.4180 O.2   1 <1>  -0.5700 
  2 C       -1.9160     0.4520     0.5200 C.2   1 <1>   0.5690 
  3 N       -1.4430    -0.2440     1.5940 N.am  1 <1>  -0.7300 
  4 C       -1.7700     1.9750     0.5230 C.3   1 <1>  -0.0190 
  5 C       -1.4670    -1.7090     1.7890 C.3   1 <1>   0.2200 
  6 C       -2.7590     2.6790    -0.4310 C.3   1 <1>  -0.1600 
  7 C       -0.3150     2.3920     0.2020 C.3   1 <1>  -0.1600 
  8 C       -0.6300    -2.3950     0.6990 C.3   1 <1>  -0.1600 
  9 C       -2.9190    -2.2070     1.8360 C.3   1 <1>  -0.1600 
 10 C       -2.7000     4.2170    -0.3120 C.3   1 <1>   0.2000 
 11 C       -0.1750     3.8470    -0.2910 C.3   1 <1>  -0.1600 
 12 C       -0.8150    -3.9070     0.7060 C.3   1 <1>   0.3430 
 13 C       -3.0030    -3.7280     1.7910 C.3   1 <1>   0.3430 
 14 O       -2.9520     4.7710    -1.5790 O.3   1 <1>  -0.5600 
 15 C       -1.3270     4.7270     0.2010 C.3   1 <1>   0.2000 
 16 N       -2.2650    -4.2190     0.5930 N.4   1 <1>  -0.9590 
 17 C       -4.2900     4.7780    -1.9710 C.3   1 <1>   0.0400 
 18 O       -1.1160     6.0080    -0.2650 O.3   1 <1>  -0.6800 
 19 C       -2.4710    -5.6780     0.3410 C.3   1 <1>   0.3430 
 20 C       -3.8930    -5.9860    -0.1340 C.3   1 <1>  -0.0170 
 21 C       -3.9790    -7.4640    -0.4580 C.ar  1 <1>  -0.1440 
 22 C       -3.6970    -7.9180    -1.7370 C.ar  1 <1>  -0.1500 
 23 C       -4.3300    -8.3760     0.5270 C.ar  1 <1>  -0.1500 
 24 C       -3.7580    -9.2690    -2.0280 C.ar  1 <1>  -0.1500 
 25 C       -4.3900    -9.7280     0.2360 C.ar  1 <1>  -0.1500 
 26 C       -4.1030   -10.1750    -1.0410 C.ar  1 <1>  -0.1500 
 27 H       -0.9940     0.2860     2.3440 H     1 <1>   0.3700 
 28 H       -2.0030     2.3080     1.5190 H     1 <1>   0.0800 
 29 H       -1.0110    -1.9250     2.7420 H     1 <1>   0.0800 
 30 H       -3.7600     2.3460    -0.2200 H     1 <1>   0.0800 
 31 H       -2.5160     2.3900    -1.4400 H     1 <1>   0.0800 
 32 H        0.2870     2.2580     1.0840 H     1 <1>   0.0800 
 33 H        0.0850     1.7430    -0.5600 H     1 <1>   0.0800 
 34 H       -0.8970    -2.0360    -0.2770 H     1 <1>   0.0800 
 35 H        0.4090    -2.1680     0.8550 H     1 <1>   0.0800 
 36 H       -3.3840    -1.8570     2.7400 H     1 <1>   0.0800 
 37 H       -3.4870    -1.8230     1.0090 H     1 <1>   0.0800 
 38 H       -3.4550     4.5660     0.3730 H     1 <1>   0.0800 
 39 H       -0.1850     3.8500    -1.3680 H     1 <1>   0.0800 
 40 H        0.7640     4.2540     0.0380 H     1 <1>   0.0800 
 41 H       -0.4170    -4.3240     1.6170 H     1 <1>   0.0800 
 42 H       -0.2780    -4.3340    -0.1270 H     1 <1>   0.0800 
 43 H       -4.0390    -4.0210     1.7410 H     1 <1>   0.0800 
 44 H       -2.5730    -4.1480     2.6870 H     1 <1>   0.0800 
 45 H       -1.3170     4.7620     1.2760 H     1 <1>   0.0800 
 46 H       -2.6180    -3.6930    -0.2220 H     1 <1>   0.4500 
 47 H       -4.3530     5.2490    -2.9360 H     1 <1>   0.0800 
 48 H       -4.8680     5.3380    -1.2570 H     1 <1>   0.0800 
 49 H       -4.6510     3.7660    -2.0430 H     1 <1>   0.0800 
 50 H       -1.5770     6.0530    -1.1340 H     1 <1>   0.4000 
 51 H       -1.7870    -6.0110    -0.4230 H     1 <1>   0.0800 
 52 H       -2.2630    -6.2430     1.2350 H     1 <1>   0.0800 
 53 H       -4.6140    -5.7500     0.6270 H     1 <1>   0.0800 
 54 H       -4.1220    -5.4140    -1.0160 H     1 <1>   0.0800 
 55 H       -3.4310    -7.2300    -2.5210 H     1 <1>   0.1500 
 56 H       -4.5620    -8.0500     1.5260 H     1 <1>   0.1500 
 57 H       -3.5390    -9.6190    -3.0220 H     1 <1>   0.1500 
 58 H       -4.6630   -10.4340     1.0010 H     1 <1>   0.1500 
 59 H       -4.1510   -11.2270    -1.2680 H     1 <1>   0.1500 
@<TRIPOS>BOND
  1   1   2  2   
  2   2   3  am  
  3   2   4  1   
  4   3   5  1   
  5   3  27  1   
  6   4   6  1   
  7   4   7  1   
  8   4  28  1   
  9   5   8  1   
 10   5   9  1   
 11   5  29  1   
 12   6  10  1   
 13   6  30  1   
 14   6  31  1   
 15   7  11  1   
 16   7  32  1   
 17   7  33  1   
 18   8  12  1   
 19   8  34  1   
 20   8  35  1   
 21   9  13  1   
 22   9  36  1   
 23   9  37  1   
 24  10  14  1   
 25  10  15  1   
 26  10  38  1   
 27  11  15  1   
 28  11  39  1   
 29  11  40  1   
 30  12  16  1   
 31  12  41  1   
 32  12  42  1   
 33  13  16  1   
 34  13  43  1   
 35  13  44  1   
 36  14  17  1   
 37  15  18  1   
 38  15  45  1   
 39  16  19  1   
 40  16  46  1   
 41  17  47  1   
 42  17  48  1   
 43  17  49  1   
 44  18  50  1   
 45  19  20  1   
 46  19  51  1   
 47  19  52  1   
 48  20  21  1   
 49  20  53  1   
 50  20  54  1   
 51  21  22  ar  
 52  21  23  ar  
 53  22  24  ar  
 54  22  55  1   
 55  23  25  ar  
 56  23  56  1   
 57  24  26  ar  
 58  24  57  1   
 59  25  26  ar  
 60  25  58  1   
 61  26  59  1   
@<TRIPOS>SUBSTRUCTURE
  1 ****   1 GROUP 4 **** **** 0

# MOE 2024.06 (io_trps.svl 2023.06)
