@<TRIPOS>MOLECULE
NONAME
54 57 1 0 0 
SMALL
USER_CHARGES


@<TRIPOS>ATOM
  1 O       -1.9550     1.9600     3.1400 O.3   1 <1>  -0.5600 
  2 C       -0.6110     1.7150     2.8540 C.3   1 <1>   0.1200 
  3 C       -2.6950     2.1130     1.9620 C.3   1 <1>   0.1200 
  4 C       -0.3760     2.2670     1.4530 C.3   1 <1>   0.2890 
  5 C       -1.7140     1.9920     0.7890 C.3   1 <1>  -0.0800 
  6 N       -0.1740     3.7360     1.5320 N.pl3 1 <1>  -0.8690 
  7 C       -1.7480     0.5950     0.1400 C.3   1 <1>  -0.0170 
  8 C        0.5890     4.5020     0.7270 C.ar  1 <1>   0.4100 
  9 C       -3.0770     0.3370    -0.5530 C.ar  1 <1>  -0.1430 
 10 N        1.2170     3.8990    -0.2600 N.ar  1 <1>  -0.6200 
 11 C        0.6940     5.8940     0.9530 C.ar  1 <1>  -0.1430 
 12 C       -3.4020     0.9490    -1.7470 C.ar  1 <1>  -0.1500 
 13 C       -4.0240    -0.5190    -0.0300 C.ar  1 <1>  -0.1500 
 14 C        1.9820     4.6310    -1.0550 C.ar  1 <1>   0.7710 
 15 C        1.5060     6.6140     0.1340 C.ar  1 <1>   0.2180 
 16 C       -0.0770     6.5550     2.1000 C.3   1 <1>  -0.0160 
 17 C       -4.6260     0.6870    -2.3400 C.ar  1 <1>   0.1600 
 18 C       -5.2190    -0.7130    -0.7040 C.ar  1 <1>   0.1600 
 19 N        2.1340     5.9510    -0.8640 N.ar  1 <1>  -0.1790 
 20 N        2.6380     4.0370    -2.0920 N.pl3 1 <1>  -0.8380 
 21 C        1.7400     8.1160     0.2720 C.3   1 <1>  -0.0170 
 22 C       -0.1140     8.0850     1.9830 C.3   1 <1>  -0.1600 
 23 N       -5.5430    -0.1290    -1.8460 N.ar  1 <1>  -0.6200 
 24 C        2.6410     2.5440    -2.2570 C.3   1 <1>   0.1290 
 25 C        3.3700     4.7220    -3.2060 C.3   1 <1>   0.1290 
 26 C        1.2670     8.6480     1.6310 C.3   1 <1>  -0.1600 
 27 H        0.0100     2.1850     3.5950 H     1 <1>   0.0800 
 28 H       -0.4610     0.6500     2.8750 H     1 <1>   0.0800 
 29 H       -3.4720     1.3700     1.9410 H     1 <1>   0.0800 
 30 H       -3.1410     3.0920     1.9860 H     1 <1>   0.0800 
 31 H        0.4550     1.7900     0.9620 H     1 <1>   0.0800 
 32 H       -1.9270     2.7280     0.0340 H     1 <1>   0.0800 
 33 H       -0.7220     4.1500     2.2920 H     1 <1>   0.4000 
 34 H       -1.5750    -0.1660     0.8810 H     1 <1>   0.0800 
 35 H       -0.9620     0.5220    -0.5910 H     1 <1>   0.0800 
 36 H       -2.7180     1.6280    -2.2220 H     1 <1>   0.1500 
 37 H       -3.8480    -1.0380     0.8950 H     1 <1>   0.1500 
 38 H       -1.0910     6.1940     2.1220 H     1 <1>   0.0800 
 39 H        0.3900     6.2810     3.0310 H     1 <1>   0.0800 
 40 H       -4.8630     1.1740    -3.2700 H     1 <1>   0.1500 
 41 H       -5.9460    -1.3840    -0.2800 H     1 <1>   0.1500 
 42 H        2.7680     6.4090    -1.5040 H     1 <1>   0.4570 
 43 H        2.7860     8.3430     0.1610 H     1 <1>   0.0800 
 44 H        1.2010     8.6230    -0.5090 H     1 <1>   0.0800 
 45 H       -0.8220     8.3700     1.2220 H     1 <1>   0.0800 
 46 H       -0.4530     8.5050     2.9150 H     1 <1>   0.0800 
 47 H        3.6010     2.2120    -2.6140 H     1 <1>   0.0800 
 48 H        1.8850     2.2540    -2.9660 H     1 <1>   0.0800 
 49 H        2.4480     2.0430    -1.3230 H     1 <1>   0.0800 
 50 H        3.1560     4.2280    -4.1400 H     1 <1>   0.0800 
 51 H        4.4320     4.6710    -3.0320 H     1 <1>   0.0800 
 52 H        3.0740     5.7500    -3.3090 H     1 <1>   0.0800 
 53 H        1.9700     8.3640     2.3970 H     1 <1>   0.0800 
 54 H        1.2270     9.7240     1.6060 H     1 <1>   0.0800 
@<TRIPOS>BOND
  1   1   2  1   
  2   1   3  1   
  3   2   4  1   
  4   2  27  1   
  5   2  28  1   
  6   3   5  1   
  7   3  29  1   
  8   3  30  1   
  9   4   5  1   
 10   4   6  1   
 11   4  31  1   
 12   5   7  1   
 13   5  32  1   
 14   6   8  1   
 15   6  33  1   
 16   7   9  1   
 17   7  34  1   
 18   7  35  1   
 19   8  10  ar  
 20   8  11  ar  
 21   9  12  ar  
 22   9  13  ar  
 23  10  14  ar  
 24  11  15  ar  
 25  11  16  1   
 26  12  17  ar  
 27  12  36  1   
 28  13  18  ar  
 29  13  37  1   
 30  14  19  ar  
 31  14  20  1   
 32  15  19  ar  
 33  15  21  1   
 34  16  22  1   
 35  16  38  1   
 36  16  39  1   
 37  17  23  ar  
 38  17  40  1   
 39  18  23  ar  
 40  18  41  1   
 41  19  42  1   
 42  20  24  1   
 43  20  25  1   
 44  21  26  1   
 45  21  43  1   
 46  21  44  1   
 47  22  26  1   
 48  22  45  1   
 49  22  46  1   
 50  24  47  1   
 51  24  48  1   
 52  24  49  1   
 53  25  50  1   
 54  25  51  1   
 55  25  52  1   
 56  26  53  1   
 57  26  54  1   
@<TRIPOS>SUBSTRUCTURE
  1 ****   6 GROUP 4 **** **** 0

# MOE 2024.06 (io_trps.svl 2023.06)
