@<TRIPOS>MOLECULE
NONAME
39 41 1 0 0 
SMALL
USER_CHARGES


@<TRIPOS>ATOM
  1 S       -0.7130    -0.3110    -1.4510 S.3   1 <1>  -0.4600 
  2 C       -1.9770     0.6160    -0.5210 C.3   1 <1>   0.2510 
  3 C       -1.3770    -1.9890    -1.2340 C.3   1 <1>   0.2510 
  4 C       -2.9370    -0.4630    -0.0800 C.2   1 <1>   0.1080 
  5 C       -2.6400    -1.7610    -0.4380 C.2   1 <1>  -0.1810 
  6 N       -4.0340    -0.3610     0.6020 N.2   1 <1>  -0.7070 
  7 C       -3.6400    -2.5150     0.0740 C.2   1 <1>  -0.0880 
  8 N       -4.4780    -1.6390     0.7070 N.pl3 1 <1>   0.3140 
  9 N       -3.8020    -3.9140    -0.0460 N.am  1 <1>  -0.4940 
 10 C       -5.7620    -1.9210     1.3630 C.3   1 <1>   0.0160 
 11 C       -4.2190    -4.8170     0.8910 C.2   1 <1>   0.5690 
 12 O       -4.4580    -4.5300     2.0380 O.2   1 <1>  -0.5700 
 13 C       -4.3860    -6.2610     0.4870 C.3   1 <1>  -0.0990 
 14 C       -5.8500    -6.6710     0.6580 C.3   1 <1>   0.2810 
 15 N       -6.0300    -8.1050     0.3070 N.am  1 <1>  -0.6600 
 16 C       -6.7850    -6.0080    -0.3550 C.2   1 <1>   0.5690 
 17 C       -6.9450    -8.2060    -0.6980 C.2   1 <1>   0.6900 
 18 C       -5.5750    -9.2110     1.1870 C.3   1 <1>   0.0600 
 19 O       -6.9490    -4.8180    -0.4760 O.2   1 <1>  -0.5700 
 20 N       -7.3770    -6.9760    -1.1080 N.am  1 <1>  -0.4200 
 21 O       -7.3400    -9.2530    -1.1650 O.2   1 <1>  -0.5700 
 22 C       -8.3770    -6.7590    -2.1780 C.3   1 <1>   0.0600 
 23 H       -2.4400     1.3240    -1.1820 H     1 <1>   0.0800 
 24 H       -1.5030     1.0990     0.3140 H     1 <1>   0.0800 
 25 H       -0.6520    -2.5680    -0.6910 H     1 <1>   0.0800 
 26 H       -1.5710    -2.4000    -2.2070 H     1 <1>   0.0800 
 27 H       -3.5800    -4.2900    -0.9660 H     1 <1>   0.3700 
 28 H       -6.3650    -1.0320     1.3550 H     1 <1>   0.0800 
 29 H       -5.5780    -2.2230     2.3760 H     1 <1>   0.0800 
 30 H       -6.2700    -2.7040     0.8340 H     1 <1>   0.0800 
 31 H       -3.7670    -6.8570     1.1300 H     1 <1>   0.0800 
 32 H       -4.0780    -6.4070    -0.5320 H     1 <1>   0.0800 
 33 H       -6.2000    -6.4860     1.6590 H     1 <1>   0.0800 
 34 H       -4.5010    -9.2680     1.1820 H     1 <1>   0.0800 
 35 H       -5.9720   -10.1480     0.8340 H     1 <1>   0.0800 
 36 H       -5.9200    -9.0470     2.1930 H     1 <1>   0.0800 
 37 H       -8.5290    -5.7050    -2.3370 H     1 <1>   0.0800 
 38 H       -9.3090    -7.2140    -1.8940 H     1 <1>   0.0800 
 39 H       -8.0300    -7.2100    -3.0910 H     1 <1>   0.0800 
@<TRIPOS>BOND
  1   1   2  1   
  2   1   3  1   
  3   2   4  1   
  4   2  23  1   
  5   2  24  1   
  6   3   5  1   
  7   3  25  1   
  8   3  26  1   
  9   4   5  1   
 10   4   6  2   
 11   5   7  2   
 12   6   8  1   
 13   7   8  1   
 14   7   9  1   
 15   8  10  1   
 16   9  11  am  
 17   9  27  1   
 18  10  28  1   
 19  10  29  1   
 20  10  30  1   
 21  11  12  2   
 22  11  13  1   
 23  13  14  1   
 24  13  31  1   
 25  13  32  1   
 26  14  15  1   
 27  14  16  1   
 28  14  33  1   
 29  15  17  am  
 30  15  18  1   
 31  16  19  2   
 32  16  20  am  
 33  17  20  am  
 34  17  21  2   
 35  18  34  1   
 36  18  35  1   
 37  18  36  1   
 38  20  22  1   
 39  22  37  1   
 40  22  38  1   
 41  22  39  1   
@<TRIPOS>SUBSTRUCTURE
  1 ****   9 GROUP 4 **** **** 0

# MOE 2024.06 (io_trps.svl 2023.06)
