@<TRIPOS>MOLECULE
NONAME
47 48 1 0 0 
SMALL
USER_CHARGES


@<TRIPOS>ATOM
  1 O        0.5170     1.0200     0.4130 O.3   1 <1>  -0.3630 
  2 C        1.8120     1.4200     0.4350 C.ar  1 <1>   0.0820 
  3 C       -0.2330     1.0190    -0.7800 C.3   1 <1>   0.1200 
  4 C        2.5070     1.8680    -0.6840 C.ar  1 <1>  -0.1500 
  5 C        2.4580     1.3690     1.6580 C.ar  1 <1>  -0.1500 
  6 C       -1.6340     0.5090    -0.4560 C.3   1 <1>  -0.2400 
  7 C        3.8300     2.2570    -0.5680 C.ar  1 <1>  -0.1500 
  8 C        3.7810     1.7600     1.7720 C.ar  1 <1>  -0.1500 
  9 C        4.4810     2.2070     0.6600 C.ar  1 <1>  -0.1430 
 10 C        5.9340     2.6370     0.8020 C.3   1 <1>   0.4330 
 11 N        6.0300     4.0360     0.3700 N.pl3 1 <1>  -0.8690 
 12 C        6.8580     1.7820    -0.0610 C.3   1 <1>  -0.2400 
 13 C        6.9120     5.0140     0.5740 C.ar  1 <1>   0.7710 
 14 N        6.5870     6.1920     0.0900 N.ar  1 <1>  -0.6200 
 15 N        8.0600     4.7850     1.2340 N.ar  1 <1>  -0.1790 
 16 C        7.4260     7.1990     0.2690 C.ar  1 <1>   0.4100 
 17 C        8.9560     5.7820     1.4320 C.ar  1 <1>   0.2110 
 18 N        7.0680     8.4180    -0.2240 N.pl3 1 <1>  -0.8380 
 19 C        8.6480     7.0080     0.9480 C.ar  1 <1>  -0.1500 
 20 C        7.6420     9.7140     0.2290 C.3   1 <1>   0.2090 
 21 C        5.9230     8.5790    -1.1760 C.3   1 <1>   0.1290 
 22 C        8.7310    10.1530    -0.7460 C.3   1 <1>  -0.2400 
 23 H        0.2540     0.3710    -1.4880 H     1 <1>   0.0800 
 24 H       -0.2720     2.0260    -1.1580 H     1 <1>   0.0800 
 25 H        2.0360     1.9200    -1.6470 H     1 <1>   0.1500 
 26 H        1.9140     1.0210     2.5180 H     1 <1>   0.1500 
 27 H       -1.5810    -0.4900    -0.0630 H     1 <1>   0.0800 
 28 H       -2.2330     0.4960    -1.3480 H     1 <1>   0.0800 
 29 H       -2.1030     1.1540     0.2650 H     1 <1>   0.0800 
 30 H        4.3470     2.5970    -1.4490 H     1 <1>   0.1500 
 31 H        4.2500     1.7080     2.7390 H     1 <1>   0.1500 
 32 H        6.2270     2.5550     1.8360 H     1 <1>   0.0800 
 33 H        5.1740     4.3360    -0.1090 H     1 <1>   0.4000 
 34 H        6.6180     1.8960    -1.1030 H     1 <1>   0.0800 
 35 H        6.7260     0.7460     0.1980 H     1 <1>   0.0800 
 36 H        7.8880     2.0380     0.0930 H     1 <1>   0.0800 
 37 H        8.2160     3.8360     1.5540 H     1 <1>   0.4570 
 38 H        9.8740     5.5740     1.9580 H     1 <1>   0.1500 
 39 H        9.3230     7.8330     1.0640 H     1 <1>   0.1500 
 40 H        8.0450     9.6210     1.2220 H     1 <1>   0.0800 
 41 H        6.8650    10.4600     0.2670 H     1 <1>   0.0800 
 42 H        5.7910     7.6920    -1.7700 H     1 <1>   0.0800 
 43 H        6.1030     9.4030    -1.8440 H     1 <1>   0.0800 
 44 H        5.0180     8.7670    -0.6240 H     1 <1>   0.0800 
 45 H        9.5080     9.4130    -0.8050 H     1 <1>   0.0800 
 46 H        9.1640    11.0780    -0.4120 H     1 <1>   0.0800 
 47 H        8.3170    10.3070    -1.7260 H     1 <1>   0.0800 
@<TRIPOS>BOND
  1   1   2  1   
  2   1   3  1   
  3   2   4  ar  
  4   2   5  ar  
  5   3   6  1   
  6   3  23  1   
  7   3  24  1   
  8   4   7  ar  
  9   4  25  1   
 10   5   8  ar  
 11   5  26  1   
 12   6  27  1   
 13   6  28  1   
 14   6  29  1   
 15   7   9  ar  
 16   7  30  1   
 17   8   9  ar  
 18   8  31  1   
 19   9  10  1   
 20  10  11  1   
 21  10  12  1   
 22  10  32  1   
 23  11  13  1   
 24  11  33  1   
 25  12  34  1   
 26  12  35  1   
 27  12  36  1   
 28  13  14  ar  
 29  13  15  ar  
 30  14  16  ar  
 31  15  17  ar  
 32  15  37  1   
 33  16  18  1   
 34  16  19  ar  
 35  17  19  ar  
 36  17  38  1   
 37  18  20  1   
 38  18  21  1   
 39  19  39  1   
 40  20  22  1   
 41  20  40  1   
 42  20  41  1   
 43  21  42  1   
 44  21  43  1   
 45  21  44  1   
 46  22  45  1   
 47  22  46  1   
 48  22  47  1   
@<TRIPOS>SUBSTRUCTURE
  1 ****  11 GROUP 4 **** **** 0

# MOE 2024.06 (io_trps.svl 2023.06)
