@<TRIPOS>MOLECULE
NONAME
49 52 1 0 0 
SMALL
USER_CHARGES


@<TRIPOS>ATOM
  1 O        3.3870    -0.6370     0.7950 O.2   1 <1>  -0.5700 
  2 C        2.5360    -1.0820     0.0510 C.2   1 <1>   0.5440 
  3 N        2.1850    -0.4210    -1.1030 N.am  1 <1>  -0.4940 
  4 C        1.8760    -2.3190     0.3730 C.ar  1 <1>   0.0860 
  5 C        2.3950     0.9110    -1.5450 C.2   1 <1>  -0.0880 
  6 C        0.5370    -2.3550     0.7740 C.ar  1 <1>   0.0000 
  7 C        2.4970    -3.5530     0.3050 C.ar  1 <1>  -0.1500 
  8 N        3.4870     1.7210    -1.3950 N.pl3 1 <1>   0.3140 
  9 C        1.4870     1.6370    -2.2400 C.2   1 <1>  -0.1500 
 10 C       -0.0450    -3.5730     1.0180 C.ar  1 <1>   0.3970 
 11 C       -0.5110    -1.4550     1.0430 C.2   1 <1>   0.1080 
 12 C        1.8010    -4.7290     0.5900 C.ar  1 <1>   0.1660 
 13 N        3.2730     2.9370    -1.9560 N.2   1 <1>  -0.7070 
 14 C        4.8000     1.4190    -0.7680 C.3   1 <1>   0.1760 
 15 C        2.0810     2.8710    -2.4580 C.2   1 <1>   0.1390 
 16 O       -1.3030    -3.3570     1.3590 O.3   1 <1>  -0.0190 
 17 N        0.5350    -4.7710     0.9370 N.ar  1 <1>  -0.5670 
 18 N       -1.5810    -2.0730     1.3740 N.2   1 <1>  -0.4100 
 19 C       -0.4170     0.0560     0.9760 C.3   1 <1>  -0.0590 
 20 C        2.5110    -6.0650     0.5040 C.3   1 <1>  -0.0970 
 21 C        4.8840     2.0990     0.6060 C.3   1 <1>  -0.1600 
 22 C        5.9780     1.8670    -1.6480 C.3   1 <1>  -0.1600 
 23 C        6.2140     1.7800     1.2710 C.3   1 <1>   0.3430 
 24 C        7.3050     1.5800    -0.9510 C.3   1 <1>   0.3430 
 25 N        7.3280     2.2390     0.3890 N.4   1 <1>  -0.9590 
 26 C        8.6490     2.0420     1.0580 C.3   1 <1>   0.2630 
 27 H        1.4920    -0.9240    -1.6630 H     1 <1>   0.3700 
 28 H        3.5350    -3.6050     0.0270 H     1 <1>   0.1500 
 29 H        0.5030     1.3550    -2.5670 H     1 <1>   0.1500 
 30 H        4.8780     0.3550    -0.6610 H     1 <1>   0.0800 
 31 H        1.6140     3.6890    -2.9830 H     1 <1>   0.1500 
 32 H        0.4670     0.3980     1.4830 H     1 <1>   0.0800 
 33 H       -1.2740     0.4970     1.4520 H     1 <1>   0.0800 
 34 H       -0.3900     0.3820    -0.0470 H     1 <1>   0.0800 
 35 H        3.5390    -5.9480     0.2160 H     1 <1>   0.0800 
 36 H        2.0170    -6.6900    -0.2180 H     1 <1>   0.0800 
 37 H        2.4740    -6.5540     1.4620 H     1 <1>   0.0800 
 38 H        4.0870     1.7500     1.2380 H     1 <1>   0.0800 
 39 H        4.7760     3.1650     0.5020 H     1 <1>   0.0800 
 40 H        5.9140     2.9200    -1.8620 H     1 <1>   0.0800 
 41 H        5.9480     1.3360    -2.5830 H     1 <1>   0.0800 
 42 H        6.2870     0.7160     1.4380 H     1 <1>   0.0800 
 43 H        6.2670     2.2780     2.2260 H     1 <1>   0.0800 
 44 H        8.1160     1.9500    -1.5590 H     1 <1>   0.0800 
 45 H        7.4280     0.5150    -0.8350 H     1 <1>   0.0800 
 46 H        7.1900     3.2490     0.2310 H     1 <1>   0.4500 
 47 H        8.8250     0.9940     1.2410 H     1 <1>   0.0800 
 48 H        8.6720     2.5640     2.0010 H     1 <1>   0.0800 
 49 H        9.4440     2.4230     0.4380 H     1 <1>   0.0800 
@<TRIPOS>BOND
  1   1   2  2   
  2   2   3  am  
  3   2   4  1   
  4   3   5  1   
  5   3  27  1   
  6   4   6  ar  
  7   4   7  ar  
  8   5   8  1   
  9   5   9  2   
 10   6  10  ar  
 11   6  11  1   
 12   7  12  ar  
 13   7  28  1   
 14   8  13  1   
 15   8  14  1   
 16   9  15  1   
 17   9  29  1   
 18  10  16  1   
 19  10  17  ar  
 20  11  18  2   
 21  11  19  1   
 22  12  17  ar  
 23  12  20  1   
 24  13  15  2   
 25  14  21  1   
 26  14  22  1   
 27  14  30  1   
 28  15  31  1   
 29  16  18  1   
 30  19  32  1   
 31  19  33  1   
 32  19  34  1   
 33  20  35  1   
 34  20  36  1   
 35  20  37  1   
 36  21  23  1   
 37  21  38  1   
 38  21  39  1   
 39  22  24  1   
 40  22  40  1   
 41  22  41  1   
 42  23  25  1   
 43  23  42  1   
 44  23  43  1   
 45  24  25  1   
 46  24  44  1   
 47  24  45  1   
 48  25  26  1   
 49  25  46  1   
 50  26  47  1   
 51  26  48  1   
 52  26  49  1   
@<TRIPOS>SUBSTRUCTURE
  1 ****   2 GROUP 4 **** **** 0

# MOE 2024.06 (io_trps.svl 2023.06)
