@<TRIPOS>MOLECULE
NONAME
57 60 1 0 0 
SMALL
USER_CHARGES


@<TRIPOS>ATOM
  1 O        2.9030     0.9170     2.6490 O.co2 1 <1>  -0.9000 
  2 C        3.4880     0.3550     1.7140 C.2   1 <1>   0.9060 
  3 O        4.7090     0.1830     1.8050 O.co2 1 <1>  -0.9000 
  4 C        2.7740     0.1390     0.3650 C.3   1 <1>  -0.1060 
  5 C        3.7580     0.3860    -0.8080 C.3   1 <1>   0.4230 
  6 C        1.6320     1.1780     0.2050 C.3   1 <1>  -0.1600 
  7 C        2.2200    -1.2980     0.2630 C.3   1 <1>  -0.1600 
  8 N        4.9000    -0.5930    -0.7150 N.4   1 <1>  -0.9590 
  9 C        4.1460     1.8990    -0.9510 C.3   1 <1>   0.2090 
 10 C        2.1250     2.6310     0.3890 C.3   1 <1>   0.2090 
 11 C        3.3700    -2.3200     0.2390 C.3   1 <1>  -0.1600 
 12 C        4.4280    -2.0040    -0.8240 C.3   1 <1>   0.3430 
 13 C        6.0680    -0.3470    -1.6060 C.3   1 <1>   0.2630 
 14 N        3.6040     2.7560     0.1530 N.pl3 1 <1>  -0.8380 
 15 C        4.4710     3.3350     1.0260 C.ar  1 <1>   0.7710 
 16 N        5.4600     4.0630     0.5260 N.ar  1 <1>  -0.6200 
 17 N        4.3320     3.1270     2.3480 N.ar  1 <1>  -0.1790 
 18 C        6.3070     4.6270     1.3700 C.ar  1 <1>   0.4100 
 19 C        5.1880     3.6550     3.2420 C.ar  1 <1>   0.2110 
 20 N        7.2960     5.4080     0.8500 N.pl3 1 <1>  -0.8380 
 21 C        6.1870     4.4330     2.7630 C.ar  1 <1>  -0.1500 
 22 C        8.6190     5.6400     1.5060 C.3   1 <1>   0.2090 
 23 C        7.1100     6.1680    -0.4280 C.3   1 <1>   0.2090 
 24 C        9.7530     5.3170     0.5320 C.3   1 <1>  -0.1600 
 25 C        8.2310     5.8270    -1.4090 C.3   1 <1>  -0.1600 
 26 C        9.5860     6.1050    -0.7640 C.3   1 <1>   0.2000 
 27 O       10.5790     5.7280    -1.6400 O.3   1 <1>  -0.6800 
 28 H        3.2240     0.1460    -1.7120 H     1 <1>   0.0800 
 29 H        0.8610     0.9880     0.9330 H     1 <1>   0.0800 
 30 H        1.1750     1.0830    -0.7640 H     1 <1>   0.0800 
 31 H        1.5790    -1.5000     1.1060 H     1 <1>   0.0800 
 32 H        1.6300    -1.4040    -0.6310 H     1 <1>   0.0800 
 33 H        5.2060    -0.4660     0.2880 H     1 <1>   0.4500 
 34 H        3.7450     2.2670    -1.8790 H     1 <1>   0.0800 
 35 H        5.2130     2.0130    -0.9950 H     1 <1>   0.0800 
 36 H        1.8810     2.9600     1.3860 H     1 <1>   0.0800 
 37 H        1.5990     3.2770    -0.2940 H     1 <1>   0.0800 
 38 H        2.9700    -3.3020     0.0550 H     1 <1>   0.0800 
 39 H        3.8480    -2.3530     1.2040 H     1 <1>   0.0800 
 40 H        4.0070    -2.1660    -1.8030 H     1 <1>   0.0800 
 41 H        5.2600    -2.6770    -0.6990 H     1 <1>   0.0800 
 42 H        5.7630    -0.3610    -2.6400 H     1 <1>   0.0800 
 43 H        6.8140    -1.1110    -1.4540 H     1 <1>   0.0800 
 44 H        6.5200     0.6050    -1.3840 H     1 <1>   0.0800 
 45 H        3.6750     2.3680     2.6170 H     1 <1>   0.4570 
 46 H        5.0470     3.4320     4.2870 H     1 <1>   0.1500 
 47 H        6.8820     4.9040     3.4290 H     1 <1>   0.1500 
 48 H        8.6850     6.6700     1.8160 H     1 <1>   0.0800 
 49 H        8.7340     5.0160     2.3740 H     1 <1>   0.0800 
 50 H        6.1580     5.9490    -0.8790 H     1 <1>   0.0800 
 51 H        7.1290     7.2230    -0.2100 H     1 <1>   0.0800 
 52 H        9.7400     4.2610     0.3310 H     1 <1>   0.0800 
 53 H       10.6930     5.5710     0.9880 H     1 <1>   0.0800 
 54 H        8.1210     6.4300    -2.2920 H     1 <1>   0.0800 
 55 H        8.1440     4.7910    -1.6800 H     1 <1>   0.0800 
 56 H        9.7010     7.1600    -0.5770 H     1 <1>   0.0800 
 57 H       10.5090     4.7760    -1.8390 H     1 <1>   0.4000 
@<TRIPOS>BOND
  1   1   2  ar  
  2   2   3  ar  
  3   2   4  1   
  4   4   5  1   
  5   4   6  1   
  6   4   7  1   
  7   5   8  1   
  8   5   9  1   
  9   5  28  1   
 10   6  10  1   
 11   6  29  1   
 12   6  30  1   
 13   7  11  1   
 14   7  31  1   
 15   7  32  1   
 16   8  12  1   
 17   8  13  1   
 18   8  33  1   
 19   9  14  1   
 20   9  34  1   
 21   9  35  1   
 22  10  14  1   
 23  10  36  1   
 24  10  37  1   
 25  11  12  1   
 26  11  38  1   
 27  11  39  1   
 28  12  40  1   
 29  12  41  1   
 30  13  42  1   
 31  13  43  1   
 32  13  44  1   
 33  14  15  1   
 34  15  16  ar  
 35  15  17  ar  
 36  16  18  ar  
 37  17  19  ar  
 38  17  45  1   
 39  18  20  1   
 40  18  21  ar  
 41  19  21  ar  
 42  19  46  1   
 43  20  22  1   
 44  20  23  1   
 45  21  47  1   
 46  22  24  1   
 47  22  48  1   
 48  22  49  1   
 49  23  25  1   
 50  23  50  1   
 51  23  51  1   
 52  24  26  1   
 53  24  52  1   
 54  24  53  1   
 55  25  26  1   
 56  25  54  1   
 57  25  55  1   
 58  26  27  1   
 59  26  56  1   
 60  27  57  1   
@<TRIPOS>SUBSTRUCTURE
  1 ****  15 GROUP 4 **** **** 0

# MOE 2024.06 (io_trps.svl 2023.06)
