@<TRIPOS>MOLECULE
NONAME
52 54 1 0 0 
SMALL
USER_CHARGES


@<TRIPOS>ATOM
  1 O       -1.4500     1.1630     2.4040 O.2   1 <1>  -0.5700 
  2 C       -2.3910     1.5150     1.7240 C.2   1 <1>   0.5690 
  3 N       -3.5130     0.7400     1.5940 N.am  1 <1>  -0.6600 
  4 C       -2.2410     2.8750     0.9900 C.3   1 <1>   0.4840 
  5 C       -3.6600    -0.5240     2.3900 C.3   1 <1>   0.3210 
  6 C       -4.6700     1.0500     0.6940 C.3   1 <1>   0.1400 
  7 N       -0.8630     3.0650     0.4060 N.4   1 <1>  -0.9590 
  8 C       -2.5420     4.0230     1.9610 C.3   1 <1>  -0.2400 
  9 C       -3.6540    -1.7610     1.4970 C.2   1 <1>   0.0460 
 10 C       -4.4280     0.6380    -0.7700 C.3   1 <1>   0.1200 
 11 C       -0.6700     4.3460    -0.3250 C.3   1 <1>   0.4860 
 12 C       -0.4950     1.9180    -0.4780 C.3   1 <1>   0.3430 
 13 N       -4.7880    -2.1910     0.9020 N.2   1 <1>  -0.5650 
 14 C       -2.6140    -2.5750     1.1970 C.2   1 <1>  -0.3320 
 15 O       -3.4210     1.4000    -1.3640 O.3   1 <1>  -0.6800 
 16 C        0.7430     4.4440    -0.8790 C.ar  1 <1>  -0.1440 
 17 C        1.0100     1.9250    -0.7430 C.3   1 <1>  -0.0170 
 18 C       -4.4200    -3.2550     0.2660 C.2   1 <1>   0.0360 
 19 N       -3.1090    -3.5430     0.4040 N.pl3 1 <1>   0.0330 
 20 C       -1.1550    -2.5180     1.6170 C.3   1 <1>  -0.0600 
 21 C        1.5280     3.3130    -1.0880 C.ar  1 <1>  -0.1440 
 22 C        1.2530     5.6950    -1.1920 C.ar  1 <1>  -0.1500 
 23 C        2.8060     3.4480    -1.6050 C.ar  1 <1>  -0.1500 
 24 C        2.5300     5.8230    -1.7090 C.ar  1 <1>  -0.1500 
 25 C        3.3060     4.6990    -1.9160 C.ar  1 <1>  -0.1500 
 26 H       -2.9650     2.9090     0.1980 H     1 <1>   0.0800 
 27 H       -4.5850    -0.4970     2.9380 H     1 <1>   0.0800 
 28 H       -2.8680    -0.6130     3.1110 H     1 <1>   0.0800 
 29 H       -4.9110     2.0970     0.7380 H     1 <1>   0.0800 
 30 H       -5.5370     0.5170     1.0480 H     1 <1>   0.0800 
 31 H       -0.2070     3.0390     1.1980 H     1 <1>   0.4500 
 32 H       -1.7870     4.0810     2.7250 H     1 <1>   0.0800 
 33 H       -3.4850     3.8360     2.4460 H     1 <1>   0.0800 
 34 H       -2.6270     4.9640     1.4520 H     1 <1>   0.0800 
 35 H       -5.3310     0.7850    -1.3370 H     1 <1>   0.0800 
 36 H       -4.1510    -0.3990    -0.8350 H     1 <1>   0.0800 
 37 H       -0.8400     5.1770     0.3380 H     1 <1>   0.0800 
 38 H       -1.3720     4.4100    -1.1400 H     1 <1>   0.0800 
 39 H       -1.0250     2.0000    -1.4120 H     1 <1>   0.0800 
 40 H       -0.7650     0.9790    -0.0200 H     1 <1>   0.0800 
 41 H       -3.3740     1.1650    -2.3150 H     1 <1>   0.4000 
 42 H        1.2240     1.2450    -1.5500 H     1 <1>   0.0800 
 43 H        1.5230     1.5640     0.1300 H     1 <1>   0.0800 
 44 H       -5.0810    -3.8690    -0.3210 H     1 <1>   0.1500 
 45 H       -2.6090    -4.3390    -0.0010 H     1 <1>   0.2700 
 46 H       -0.9630    -1.6430     2.2110 H     1 <1>   0.0800 
 47 H       -0.5190    -2.4860     0.7500 H     1 <1>   0.0800 
 48 H       -0.9040    -3.3870     2.2000 H     1 <1>   0.0800 
 49 H        0.6670     6.5860    -1.0420 H     1 <1>   0.1500 
 50 H        3.4240     2.5810    -1.7690 H     1 <1>   0.1500 
 51 H        2.9220     6.7970    -1.9510 H     1 <1>   0.1500 
 52 H        4.3010     4.7980    -2.3170 H     1 <1>   0.1500 
@<TRIPOS>BOND
  1   1   2  2   
  2   2   3  am  
  3   2   4  1   
  4   3   5  1   
  5   3   6  1   
  6   4   7  1   
  7   4   8  1   
  8   4  26  1   
  9   5   9  1   
 10   5  27  1   
 11   5  28  1   
 12   6  10  1   
 13   6  29  1   
 14   6  30  1   
 15   7  11  1   
 16   7  12  1   
 17   7  31  1   
 18   8  32  1   
 19   8  33  1   
 20   8  34  1   
 21   9  13  1   
 22   9  14  2   
 23  10  15  1   
 24  10  35  1   
 25  10  36  1   
 26  11  16  1   
 27  11  37  1   
 28  11  38  1   
 29  12  17  1   
 30  12  39  1   
 31  12  40  1   
 32  13  18  2   
 33  14  19  1   
 34  14  20  1   
 35  15  41  1   
 36  16  21  ar  
 37  16  22  ar  
 38  17  21  1   
 39  17  42  1   
 40  17  43  1   
 41  18  19  1   
 42  18  44  1   
 43  19  45  1   
 44  20  46  1   
 45  20  47  1   
 46  20  48  1   
 47  21  23  ar  
 48  22  24  ar  
 49  22  49  1   
 50  23  25  ar  
 51  23  50  1   
 52  24  25  ar  
 53  24  51  1   
 54  25  52  1   
@<TRIPOS>SUBSTRUCTURE
  1 ****  12 GROUP 4 **** **** 0

# MOE 2024.06 (io_trps.svl 2023.06)
