@<TRIPOS>MOLECULE
NONAME
44 46 1 0 0 
SMALL
USER_CHARGES


@<TRIPOS>ATOM
  1 O       -1.3260    -0.2180    -0.1960 O.2   1 <1>  -0.5700 
  2 C       -1.4540     0.9740    -0.2170 C.2   1 <1>   0.6590 
  3 O       -2.4590     1.6150     0.3450 O.3   1 <1>  -0.4300 
  4 C       -0.4820     1.9290    -0.8440 C.3   1 <1>  -0.0990 
  5 C       -2.3920     3.0100     0.1670 C.3   1 <1>   0.2800 
  6 C       -0.9120     3.2510    -0.1980 C.3   1 <1>  -0.0190 
  7 C       -3.3960     3.3740    -0.9510 C.3   1 <1>  -0.1600 
  8 C       -2.7970     3.6850     1.4920 C.3   1 <1>  -0.1600 
  9 C       -0.6660     4.4980    -1.0350 C.2   1 <1>   0.5690 
 10 C       -4.8500     3.0680    -0.5570 C.3   1 <1>  -0.1600 
 11 C       -4.2550     3.3900     1.8830 C.3   1 <1>  -0.1600 
 12 O       -0.6870     4.4070    -2.2360 O.2   1 <1>  -0.5700 
 13 N       -0.4420     5.6720    -0.3720 N.am  1 <1>  -0.4940 
 14 C       -5.2230     3.7690     0.7550 C.3   1 <1>  -0.1600 
 15 C       -0.2220     6.9540    -0.8920 C.2   1 <1>   0.2040 
 16 O       -0.1660     7.1910    -2.1810 O.3   1 <1>  -0.0190 
 17 C       -0.0300     8.1250    -0.2530 C.2   1 <1>  -0.1810 
 18 N        0.0570     8.4550    -2.4340 N.2   1 <1>  -0.4100 
 19 C        0.1440     9.0370    -1.2930 C.2   1 <1>   0.1080 
 20 C       -0.0020     8.4180     1.2380 C.3   1 <1>   0.0210 
 21 C        0.3990    10.5220    -1.1410 C.3   1 <1>  -0.0590 
 22 C        1.4300     8.3590     1.7710 C.3   1 <1>  -0.2400 
 23 H       -0.6360     1.9190    -1.9070 H     1 <1>   0.0800 
 24 H        0.5330     1.6670    -0.6100 H     1 <1>   0.0800 
 25 H       -0.3530     3.3510     0.7140 H     1 <1>   0.0800 
 26 H       -3.1490     2.8490    -1.8570 H     1 <1>   0.0800 
 27 H       -3.3290     4.4260    -1.1660 H     1 <1>   0.0800 
 28 H       -2.6840     4.7500     1.3910 H     1 <1>   0.0800 
 29 H       -2.1460     3.3570     2.2840 H     1 <1>   0.0800 
 30 H       -4.9760     2.0040    -0.4430 H     1 <1>   0.0800 
 31 H       -5.5120     3.3930    -1.3410 H     1 <1>   0.0800 
 32 H       -4.5100     3.9350     2.7750 H     1 <1>   0.0800 
 33 H       -4.3600     2.3400     2.1000 H     1 <1>   0.0800 
 34 H       -0.4200     5.6260     0.6420 H     1 <1>   0.3700 
 35 H       -6.2250     3.4930     1.0350 H     1 <1>   0.0800 
 36 H       -5.2060     4.8360     0.6080 H     1 <1>   0.0800 
 37 H       -0.6090     7.6990     1.7590 H     1 <1>   0.0800 
 38 H       -0.4210     9.3920     1.4240 H     1 <1>   0.0800 
 39 H        1.2920    10.6840    -0.5670 H     1 <1>   0.0800 
 40 H       -0.4330    10.9880    -0.6470 H     1 <1>   0.0800 
 41 H        0.5240    10.9730    -2.1090 H     1 <1>   0.0800 
 42 H        1.8530     7.3850     1.6000 H     1 <1>   0.0800 
 43 H        1.4430     8.5620     2.8270 H     1 <1>   0.0800 
 44 H        2.0440     9.0890     1.2740 H     1 <1>   0.0800 
@<TRIPOS>BOND
  1   1   2  2   
  2   2   3  1   
  3   2   4  1   
  4   3   5  1   
  5   4   6  1   
  6   4  23  1   
  7   4  24  1   
  8   5   6  1   
  9   5   7  1   
 10   5   8  1   
 11   6   9  1   
 12   6  25  1   
 13   7  10  1   
 14   7  26  1   
 15   7  27  1   
 16   8  11  1   
 17   8  28  1   
 18   8  29  1   
 19   9  12  2   
 20   9  13  am  
 21  10  14  1   
 22  10  30  1   
 23  10  31  1   
 24  11  14  1   
 25  11  32  1   
 26  11  33  1   
 27  13  15  1   
 28  13  34  1   
 29  14  35  1   
 30  14  36  1   
 31  15  16  1   
 32  15  17  2   
 33  16  18  1   
 34  17  19  1   
 35  17  20  1   
 36  18  19  2   
 37  19  21  1   
 38  20  22  1   
 39  20  37  1   
 40  20  38  1   
 41  21  39  1   
 42  21  40  1   
 43  21  41  1   
 44  22  42  1   
 45  22  43  1   
 46  22  44  1   
@<TRIPOS>SUBSTRUCTURE
  1 ****   9 GROUP 4 **** **** 0

# MOE 2024.06 (io_trps.svl 2023.06)
