@<TRIPOS>MOLECULE
NONAME
44 45 1 0 0 
SMALL
USER_CHARGES


@<TRIPOS>ATOM
  1 S        1.3640    -0.2520     0.7710 S.o2  1 <1>   1.3330 
  2 O        1.0890     0.5700     1.9280 O.2   1 <1>  -0.6500 
  3 O        2.3060    -1.3430     0.8820 O.2   1 <1>  -0.6500 
  4 N       -0.1060    -0.8950     0.2150 N.am  1 <1>  -0.8490 
  5 C        1.8420     0.8400    -0.5690 C.3   1 <1>  -0.0550 
  6 C       -1.0090    -1.2480     1.3150 C.3   1 <1>   0.1160 
  7 C        0.0640    -2.0450    -0.6800 C.3   1 <1>   0.1160 
  8 C        3.1330     1.6350    -0.2890 C.3   1 <1>  -0.0800 
  9 C        3.3520     2.7080    -1.3410 C.3   1 <1>   0.2200 
 10 C        4.3860     0.7740    -0.4670 C.3   1 <1>   0.1200 
 11 N        4.2290     3.7600    -0.7840 N.am  1 <1>  -0.7300 
 12 C        4.0910     1.9430    -2.4370 C.3   1 <1>   0.1200 
 13 O        4.7310     0.8650    -1.8170 O.3   1 <1>  -0.5600 
 14 C        3.8770     5.0550    -0.5810 C.2   1 <1>   0.5690 
 15 O        2.7830     5.4670    -0.8780 O.2   1 <1>  -0.5700 
 16 C        4.8790     6.0190     0.0350 C.3   1 <1>   0.0440 
 17 C        6.1860     5.3460     0.4530 C.ar  1 <1>  -0.1440 
 18 C        7.2700     5.3270    -0.4170 C.ar  1 <1>  -0.1500 
 19 C        6.2850     4.7400     1.7000 C.ar  1 <1>  -0.1500 
 20 C        8.4510     4.7060    -0.0460 C.ar  1 <1>  -0.1500 
 21 C        7.4610     4.1160     2.0810 C.ar  1 <1>  -0.1500 
 22 C        8.5230     4.1110     1.1980 C.ar  1 <1>   0.1900 
 23 F        9.6350     3.5240     1.5520 F     1 <1>  -0.1900 
 24 H        1.9580     0.2710    -1.4710 H     1 <1>   0.0800 
 25 H        1.0410     1.5370    -0.7230 H     1 <1>   0.0800 
 26 H       -1.9350    -1.6380     0.9280 H     1 <1>   0.0800 
 27 H       -1.2330    -0.3740     1.9040 H     1 <1>   0.0800 
 28 H       -0.5510    -1.9870     1.9530 H     1 <1>   0.0800 
 29 H       -0.8900    -2.3510    -1.0730 H     1 <1>   0.0800 
 30 H        0.5060    -2.8730    -0.1490 H     1 <1>   0.0800 
 31 H        0.7030    -1.7830    -1.5050 H     1 <1>   0.0800 
 32 H        3.0790     2.0610     0.6990 H     1 <1>   0.0800 
 33 H        2.4350     3.1430    -1.7030 H     1 <1>   0.0800 
 34 H        4.2460    -0.2610    -0.2100 H     1 <1>   0.0800 
 35 H        5.2060     1.1740     0.1050 H     1 <1>   0.0800 
 36 H        5.1760     3.4610    -0.5310 H     1 <1>   0.3700 
 37 H        4.8190     2.5500    -2.9450 H     1 <1>   0.0800 
 38 H        3.3950     1.5370    -3.1500 H     1 <1>   0.0800 
 39 H        5.0780     6.7970    -0.6780 H     1 <1>   0.0800 
 40 H        4.4190     6.4770     0.8910 H     1 <1>   0.0800 
 41 H        7.2010     5.7940    -1.3850 H     1 <1>   0.1500 
 42 H        5.4480     4.7490     2.3780 H     1 <1>   0.1500 
 43 H        9.3000     4.6810    -0.7060 H     1 <1>   0.1500 
 44 H        7.5570     3.6420     3.0420 H     1 <1>   0.1500 
@<TRIPOS>BOND
  1   1   2  2   
  2   1   3  2   
  3   1   4  am  
  4   1   5  1   
  5   4   6  1   
  6   4   7  1   
  7   5   8  1   
  8   5  24  1   
  9   5  25  1   
 10   6  26  1   
 11   6  27  1   
 12   6  28  1   
 13   7  29  1   
 14   7  30  1   
 15   7  31  1   
 16   8   9  1   
 17   8  10  1   
 18   8  32  1   
 19   9  11  1   
 20   9  12  1   
 21   9  33  1   
 22  10  13  1   
 23  10  34  1   
 24  10  35  1   
 25  11  14  am  
 26  11  36  1   
 27  12  13  1   
 28  12  37  1   
 29  12  38  1   
 30  14  15  2   
 31  14  16  1   
 32  16  17  1   
 33  16  39  1   
 34  16  40  1   
 35  17  18  ar  
 36  17  19  ar  
 37  18  20  ar  
 38  18  41  1   
 39  19  21  ar  
 40  19  42  1   
 41  20  22  ar  
 42  20  43  1   
 43  21  22  ar  
 44  21  44  1   
 45  22  23  1   
@<TRIPOS>SUBSTRUCTURE
  1 ****   8 GROUP 4 **** **** 0

# MOE 2024.06 (io_trps.svl 2023.06)
