@<TRIPOS>MOLECULE
NONAME
50 52 1 0 0 
SMALL
USER_CHARGES


@<TRIPOS>ATOM
  1 F       -1.3100     2.7840     2.1830 F     1 <1>  -0.1900 
  2 C       -2.0450     2.4160     1.1660 C.ar  1 <1>   0.1900 
  3 C       -1.5110     2.5030    -0.1100 C.ar  1 <1>  -0.1440 
  4 C       -3.3290     1.9690     1.4100 C.ar  1 <1>  -0.1500 
  5 C       -2.3100     2.1190    -1.1790 C.ar  1 <1>  -0.1500 
  6 C       -0.0960     3.0010    -0.3210 C.3   1 <1>   0.4870 
  7 C       -4.1120     1.5930     0.3330 C.ar  1 <1>  -0.1500 
  8 C       -3.6020     1.6690    -0.9550 C.ar  1 <1>  -0.1500 
  9 N       -0.0050     4.4240     0.1090 N.4   1 <1>  -0.9590 
 10 C       -0.8990     5.3100    -0.6980 C.3   1 <1>   0.3430 
 11 C        1.4100     4.8940     0.1330 C.3   1 <1>   0.3430 
 12 C       -0.8580     6.7310    -0.1420 C.3   1 <1>  -0.1600 
 13 C        1.4700     6.3070     0.6970 C.3   1 <1>  -0.1600 
 14 C        0.5780     7.2400    -0.1140 C.3   1 <1>   0.2890 
 15 N        0.6090     8.5680     0.5060 N.pl3 1 <1>  -0.8690 
 16 C        1.5020     9.5540     0.1600 C.ar  1 <1>   0.4100 
 17 N        2.4940     9.2160    -0.6380 N.ar  1 <1>  -0.6200 
 18 C        1.3630    10.8530     0.6320 C.ar  1 <1>  -0.1430 
 19 C        3.3310    10.1830    -0.9600 C.ar  1 <1>   0.4770 
 20 C        2.3010    11.7640     0.2190 C.ar  1 <1>   0.1600 
 21 C        0.2370    11.2810     1.5680 C.3   1 <1>  -0.0170 
 22 N        3.2970    11.4450    -0.5810 N.ar  1 <1>  -0.6200 
 23 C        4.4720     9.8100    -1.8750 C.3   1 <1>  -0.0970 
 24 C       -1.0490    11.5640     0.7870 C.3   1 <1>  -0.2400 
 25 H       -3.7070     1.9140     2.4160 H     1 <1>   0.1500 
 26 H       -1.9430     2.1590    -2.1910 H     1 <1>   0.1500 
 27 H        0.1780     2.9060    -1.3590 H     1 <1>   0.0800 
 28 H        0.5780     2.3960     0.2660 H     1 <1>   0.0800 
 29 H       -5.1180     1.2380     0.4940 H     1 <1>   0.1500 
 30 H       -4.2200     1.3700    -1.7860 H     1 <1>   0.1500 
 31 H       -0.3570     4.4360     1.0790 H     1 <1>   0.4500 
 32 H       -1.9130     4.9440    -0.6650 H     1 <1>   0.0800 
 33 H       -0.5750     5.3170    -1.7260 H     1 <1>   0.0800 
 34 H        1.8160     4.8900    -0.8660 H     1 <1>   0.0800 
 35 H        2.0090     4.2400     0.7470 H     1 <1>   0.0800 
 36 H       -1.2830     6.7410     0.8460 H     1 <1>   0.0800 
 37 H       -1.4490     7.3700    -0.7750 H     1 <1>   0.0800 
 38 H        2.4850     6.6600     0.6460 H     1 <1>   0.0800 
 39 H        1.1700     6.3030     1.7300 H     1 <1>   0.0800 
 40 H        0.9480     7.3070    -1.1260 H     1 <1>   0.0800 
 41 H       -0.2340     8.8680     0.9960 H     1 <1>   0.4000 
 42 H        2.2450    12.7870     0.5480 H     1 <1>   0.1500 
 43 H        0.5270    12.1700     2.1000 H     1 <1>   0.0800 
 44 H        0.0620    10.5160     2.3050 H     1 <1>   0.0800 
 45 H        4.4250     8.7710    -2.1400 H     1 <1>   0.0800 
 46 H        5.4040    10.0040    -1.3780 H     1 <1>   0.0800 
 47 H        4.4210    10.4030    -2.7680 H     1 <1>   0.0800 
 48 H       -0.8830    12.3560     0.0770 H     1 <1>   0.0800 
 49 H       -1.8330    11.8650     1.4590 H     1 <1>   0.0800 
 50 H       -1.3700    10.6890     0.2510 H     1 <1>   0.0800 
@<TRIPOS>BOND
  1   1   2  1   
  2   2   3  ar  
  3   2   4  ar  
  4   3   5  ar  
  5   3   6  1   
  6   4   7  ar  
  7   4  25  1   
  8   5   8  ar  
  9   5  26  1   
 10   6   9  1   
 11   6  27  1   
 12   6  28  1   
 13   7   8  ar  
 14   7  29  1   
 15   8  30  1   
 16   9  10  1   
 17   9  11  1   
 18   9  31  1   
 19  10  12  1   
 20  10  32  1   
 21  10  33  1   
 22  11  13  1   
 23  11  34  1   
 24  11  35  1   
 25  12  14  1   
 26  12  36  1   
 27  12  37  1   
 28  13  14  1   
 29  13  38  1   
 30  13  39  1   
 31  14  15  1   
 32  14  40  1   
 33  15  16  1   
 34  15  41  1   
 35  16  17  ar  
 36  16  18  ar  
 37  17  19  ar  
 38  18  20  ar  
 39  18  21  1   
 40  19  22  ar  
 41  19  23  1   
 42  20  22  ar  
 43  20  42  1   
 44  21  24  1   
 45  21  43  1   
 46  21  44  1   
 47  23  45  1   
 48  23  46  1   
 49  23  47  1   
 50  24  48  1   
 51  24  49  1   
 52  24  50  1   
@<TRIPOS>SUBSTRUCTURE
  1 ****  14 GROUP 4 **** **** 0

# MOE 2024.06 (io_trps.svl 2023.06)
