@<TRIPOS>MOLECULE
NONAME
45 46 1 0 0 
SMALL
USER_CHARGES


@<TRIPOS>ATOM
  1 S        0.3750    -0.0590     0.5860 S.o2  1 <1>   1.3330 
  2 O       -0.7100    -0.0630     1.5410 O.2   1 <1>  -0.6500 
  3 O        1.7400     0.0140     1.0550 O.2   1 <1>  -0.6500 
  4 N        0.2330    -1.4370    -0.3940 N.am  1 <1>  -0.8490 
  5 C        0.0770     1.2810    -0.5650 C.3   1 <1>  -0.0550 
  6 C        1.4680    -1.7700    -1.1130 C.3   1 <1>   0.1160 
  7 C       -0.2370    -2.6060     0.3550 C.3   1 <1>   0.1160 
  8 C        0.0600     2.6630     0.1100 C.3   1 <1>  -0.0800 
  9 C       -0.3340     3.7760    -0.8550 C.3   1 <1>   0.2000 
 10 C        1.4180     3.1130     0.6560 C.3   1 <1>   0.1400 
 11 O       -1.7120     3.8340    -0.9780 O.3   1 <1>  -0.6800 
 12 C        0.2410     5.0530    -0.2480 C.3   1 <1>   0.1400 
 13 N        1.4120     4.5930     0.5400 N.am  1 <1>  -0.6600 
 14 C        2.5440     5.3470     0.7590 C.2   1 <1>   0.5440 
 15 O        3.5870     4.7710     1.0020 O.2   1 <1>  -0.5700 
 16 C        2.5220     6.7960     0.6840 C.ar  1 <1>   0.0860 
 17 C        3.5090     7.4880    -0.0190 C.ar  1 <1>  -0.1500 
 18 C        1.5260     7.5490     1.3110 C.ar  1 <1>  -0.1500 
 19 C        3.5000     8.8680    -0.1160 C.ar  1 <1>  -0.1500 
 20 C        1.5040     8.9290     1.2200 C.ar  1 <1>  -0.1500 
 21 C        2.4890     9.5840     0.5050 C.ar  1 <1>   0.1020 
 22 S        2.3930    11.3780     0.4290 S.3   1 <1>  -0.3320 
 23 C        3.8570    11.9500    -0.5410 C.3   1 <1>  -0.0100 
 24 H        0.8230     1.2670    -1.3350 H     1 <1>   0.0800 
 25 H       -0.8760     1.1200    -1.0310 H     1 <1>   0.0800 
 26 H        1.2940    -2.5940    -1.7840 H     1 <1>   0.0800 
 27 H        2.2470    -2.0420    -0.4190 H     1 <1>   0.0800 
 28 H        1.8020    -0.9260    -1.6910 H     1 <1>   0.0800 
 29 H       -0.3310    -3.4560    -0.2980 H     1 <1>   0.0800 
 30 H       -1.2050    -2.4040     0.7840 H     1 <1>   0.0800 
 31 H        0.4500    -2.8420     1.1510 H     1 <1>   0.0800 
 32 H       -0.6280     2.6490     0.9380 H     1 <1>   0.0800 
 33 H        0.0880     3.6180    -1.8330 H     1 <1>   0.0800 
 34 H        2.2280     2.7180     0.0640 H     1 <1>   0.0800 
 35 H        1.5560     2.8140     1.6820 H     1 <1>   0.0800 
 36 H       -2.1350     3.8980    -0.0990 H     1 <1>   0.4000 
 37 H       -0.4710     5.5140     0.4130 H     1 <1>   0.0800 
 38 H        0.5410     5.7430    -1.0180 H     1 <1>   0.0800 
 39 H        4.2950     6.9230    -0.4920 H     1 <1>   0.1500 
 40 H        0.7670     7.0420     1.8800 H     1 <1>   0.1500 
 41 H        4.2750     9.3620    -0.6690 H     1 <1>   0.1500 
 42 H        0.7320     9.5020     1.7040 H     1 <1>   0.1500 
 43 H        3.8200    13.0240    -0.5800 H     1 <1>   0.0800 
 44 H        3.7870    11.5300    -1.5280 H     1 <1>   0.0800 
 45 H        4.7430    11.6180    -0.0320 H     1 <1>   0.0800 
@<TRIPOS>BOND
  1   1   2  2   
  2   1   3  2   
  3   1   4  am  
  4   1   5  1   
  5   4   6  1   
  6   4   7  1   
  7   5   8  1   
  8   5  24  1   
  9   5  25  1   
 10   6  26  1   
 11   6  27  1   
 12   6  28  1   
 13   7  29  1   
 14   7  30  1   
 15   7  31  1   
 16   8   9  1   
 17   8  10  1   
 18   8  32  1   
 19   9  11  1   
 20   9  12  1   
 21   9  33  1   
 22  10  13  1   
 23  10  34  1   
 24  10  35  1   
 25  11  36  1   
 26  12  13  1   
 27  12  37  1   
 28  12  38  1   
 29  13  14  am  
 30  14  15  2   
 31  14  16  1   
 32  16  17  ar  
 33  16  18  ar  
 34  17  19  ar  
 35  17  39  1   
 36  18  20  ar  
 37  18  40  1   
 38  19  21  ar  
 39  19  41  1   
 40  20  21  ar  
 41  20  42  1   
 42  21  22  1   
 43  22  23  1   
 44  23  43  1   
 45  23  44  1   
 46  23  45  1   
@<TRIPOS>SUBSTRUCTURE
  1 ****  13 GROUP 4 **** **** 0

# MOE 2024.06 (io_trps.svl 2023.06)
