@<TRIPOS>MOLECULE
NONAME
42 43 1 0 0 
SMALL
USER_CHARGES


@<TRIPOS>ATOM
  1 S       -0.7290     0.3580     0.7440 S.o2  1 <1>   1.4470 
  2 O       -0.3860    -0.5240     1.8400 O.2   1 <1>  -0.6500 
  3 O       -1.5850     1.4930     1.0210 O.2   1 <1>  -0.6500 
  4 N       -1.4370    -0.5720    -0.4860 N.am  1 <1>  -0.8490 
  5 C        0.8050     0.9390    -0.0150 C.ar  1 <1>  -0.0090 
  6 C       -0.9020    -1.9390    -0.6680 C.3   1 <1>   0.1960 
  7 C       -2.8950    -0.5250    -0.5660 C.3   1 <1>   0.1960 
  8 C        0.7910     1.8030    -1.0980 C.ar  1 <1>   0.1900 
  9 C        2.0540     0.5360     0.4500 C.ar  1 <1>  -0.1500 
 10 C       -1.8160    -3.0900    -0.1530 C.3   1 <1>  -0.1060 
 11 C       -3.5370    -1.3060     0.5830 C.3   1 <1>  -0.1600 
 12 F       -0.3480     2.2170    -1.5840 F     1 <1>  -0.1900 
 13 C        1.9430     2.2640    -1.7110 C.ar  1 <1>  -0.1500 
 14 C        3.2230     0.9850    -0.1460 C.ar  1 <1>  -0.1500 
 15 C       -2.6490    -3.6060    -1.3430 C.2   1 <1>   0.9060 
 16 C       -2.7290    -2.5510     0.9810 C.3   1 <1>   0.2000 
 17 C       -0.9380    -4.2830     0.3370 C.3   1 <1>  -0.1600 
 18 C        3.1700     1.8490    -1.2270 C.ar  1 <1>  -0.1500 
 19 O       -3.8570    -3.8550    -1.2030 O.co2 1 <1>  -0.9000 
 20 O       -2.0880    -3.8050    -2.4270 O.co2 1 <1>  -0.9000 
 21 O       -3.6250    -3.5270     1.3710 O.3   1 <1>  -0.6800 
 22 C       -0.1260    -4.0580     1.6280 C.3   1 <1>  -0.1600 
 23 C        0.7870    -5.2550     1.9100 C.3   1 <1>  -0.2400 
 24 H       -0.7030    -2.0740    -1.7170 H     1 <1>   0.0800 
 25 H        0.0580    -1.9980    -0.1920 H     1 <1>   0.0800 
 26 H       -3.2400     0.4950    -0.5650 H     1 <1>   0.0800 
 27 H       -3.2000    -0.9640    -1.5030 H     1 <1>   0.0800 
 28 H        2.1130    -0.1370     1.2890 H     1 <1>   0.1500 
 29 H       -4.5280    -1.5870     0.2710 H     1 <1>   0.0800 
 30 H       -3.6300    -0.6650     1.4400 H     1 <1>   0.0800 
 31 H        1.8740     2.9340    -2.5490 H     1 <1>   0.1500 
 32 H        4.1780     0.6590     0.2330 H     1 <1>   0.1500 
 33 H       -2.1370    -2.3030     1.8420 H     1 <1>   0.0800 
 34 H       -1.5850    -5.1290     0.4950 H     1 <1>   0.0800 
 35 H       -0.2680    -4.5540    -0.4620 H     1 <1>   0.0800 
 36 H        4.0800     2.1960    -1.6890 H     1 <1>   0.1500 
 37 H       -4.0090    -3.8690     0.5110 H     1 <1>   0.4000 
 38 H        0.4750    -3.1710     1.5570 H     1 <1>   0.0800 
 39 H       -0.7980    -3.9370     2.4600 H     1 <1>   0.0800 
 40 H        1.4880    -5.3900     1.1060 H     1 <1>   0.0800 
 41 H        0.2010    -6.1510     2.0160 H     1 <1>   0.0800 
 42 H        1.3340    -5.0920     2.8220 H     1 <1>   0.0800 
@<TRIPOS>BOND
  1   1   2  2   
  2   1   3  2   
  3   1   4  am  
  4   1   5  1   
  5   4   6  1   
  6   4   7  1   
  7   5   8  ar  
  8   5   9  ar  
  9   6  10  1   
 10   6  24  1   
 11   6  25  1   
 12   7  11  1   
 13   7  26  1   
 14   7  27  1   
 15   8  12  1   
 16   8  13  ar  
 17   9  14  ar  
 18   9  28  1   
 19  10  15  1   
 20  10  16  1   
 21  10  17  1   
 22  11  16  1   
 23  11  29  1   
 24  11  30  1   
 25  13  18  ar  
 26  13  31  1   
 27  14  18  ar  
 28  14  32  1   
 29  15  19  ar  
 30  15  20  ar  
 31  16  21  1   
 32  16  33  1   
 33  17  22  1   
 34  17  34  1   
 35  17  35  1   
 36  18  36  1   
 37  21  37  1   
 38  22  23  1   
 39  22  38  1   
 40  22  39  1   
 41  23  40  1   
 42  23  41  1   
 43  23  42  1   
@<TRIPOS>SUBSTRUCTURE
  1 ****   4 GROUP 4 **** **** 0

# MOE 2024.06 (io_trps.svl 2023.06)
