@<TRIPOS>MOLECULE
NONAME
25 25 1 0 0 
SMALL
USER_CHARGES


@<TRIPOS>ATOM
  1 F        0.1540     0.7280     1.3900 F     1 <1>  -0.1900 
  2 C        0.0100     1.8450     0.7230 C.ar  1 <1>   0.1900 
  3 C        1.0380     2.3250    -0.0700 C.ar  1 <1>   0.1900 
  4 C       -1.1840     2.5330     0.8260 C.ar  1 <1>  -0.1500 
  5 F        2.1670     1.6700    -0.1630 F     1 <1>  -0.1900 
  6 C        0.8910     3.5040    -0.7760 C.ar  1 <1>  -0.1500 
  7 C       -1.3470     3.7230     0.1200 C.ar  1 <1>  -0.1440 
  8 C       -0.3070     4.1980    -0.6760 C.ar  1 <1>  -0.1500 
  9 C       -2.6520     4.5090     0.2030 C.3   1 <1>   0.3440 
 10 O       -2.9790     4.6520     1.5360 O.3   1 <1>  -0.6800 
 11 C       -3.7940     3.7970    -0.5110 C.3   1 <1>  -0.0990 
 12 C       -5.0040     4.6900    -0.5670 C.2   1 <1>   0.6590 
 13 O       -4.9760     5.7360    -1.1640 O.2   1 <1>  -0.5700 
 14 O       -6.0950     4.2490     0.0470 O.3   1 <1>  -0.4300 
 15 C       -7.2880     5.0030     0.0680 C.3   1 <1>   0.0400 
 16 H       -1.9700     2.1440     1.4490 H     1 <1>   0.1500 
 17 H        1.6970     3.8670    -1.3900 H     1 <1>   0.1500 
 18 H       -0.4240     5.1160    -1.2280 H     1 <1>   0.1500 
 19 H       -2.5180     5.4970    -0.2070 H     1 <1>   0.0800 
 20 H       -2.2040     4.9960     2.0210 H     1 <1>   0.4000 
 21 H       -4.0310     2.8740    -0.0140 H     1 <1>   0.0800 
 22 H       -3.4980     3.5750    -1.5180 H     1 <1>   0.0800 
 23 H       -8.0290     4.4540     0.6200 H     1 <1>   0.0800 
 24 H       -7.6180     5.1610    -0.9450 H     1 <1>   0.0800 
 25 H       -7.0930     5.9470     0.5460 H     1 <1>   0.0800 
@<TRIPOS>BOND
  1   1   2  1   
  2   2   3  ar  
  3   2   4  ar  
  4   3   5  1   
  5   3   6  ar  
  6   4   7  ar  
  7   4  16  1   
  8   6   8  ar  
  9   6  17  1   
 10   7   8  ar  
 11   7   9  1   
 12   8  18  1   
 13   9  10  1   
 14   9  11  1   
 15   9  19  1   
 16  10  20  1   
 17  11  12  1   
 18  11  21  1   
 19  11  22  1   
 20  12  13  2   
 21  12  14  1   
 22  14  15  1   
 23  15  23  1   
 24  15  24  1   
 25  15  25  1   
@<TRIPOS>SUBSTRUCTURE
  1 ****   7 GROUP 4 **** **** 0

# MOE 2024.06 (io_trps.svl 2023.06)
