@<TRIPOS>MOLECULE
NONAME
40 41 1 0 0 
SMALL
USER_CHARGES


@<TRIPOS>ATOM
  1 O        0.6130     0.7600    -1.3970 O.2   1 <1>  -0.5700 
  2 C        1.3850     0.8600    -0.4600 C.2   1 <1>   0.5440 
  3 N        1.4790     2.0690     0.1780 N.am  1 <1>  -0.7300 
  4 C        2.1800    -0.2650    -0.0180 C.ar  1 <1>   0.0860 
  5 C        0.7310     3.3000    -0.1900 C.3   1 <1>   0.0600 
  6 C        1.6800    -1.5850    -0.0500 C.ar  1 <1>   0.4100 
  7 C        3.4720    -0.0820     0.4590 C.ar  1 <1>  -0.1500 
  8 N        2.3620    -2.6570     0.3610 N.ar  1 <1>  -0.6200 
  9 N        0.4080    -1.8390    -0.5120 N.pl3 1 <1>  -0.8690 
 10 C        4.1760    -1.1850     0.8820 C.ar  1 <1>  -0.1500 
 11 C        3.5810    -2.4310     0.8140 C.ar  1 <1>   0.1600 
 12 C       -0.0490    -3.1450    -1.0320 C.3   1 <1>   0.2090 
 13 C       -0.4490    -4.0550     0.1460 C.3   1 <1>   0.3430 
 14 N        0.0080    -5.4790    -0.0040 N.4   1 <1>  -0.9590 
 15 C       -0.6210    -6.3510     1.0450 C.3   1 <1>   0.3430 
 16 C        1.5090    -5.5590     0.1060 C.3   1 <1>   0.3430 
 17 C       -0.0460    -7.7810     1.0090 C.3   1 <1>   0.1200 
 18 C        2.0010    -7.0180     0.1150 C.3   1 <1>   0.1200 
 19 O        1.3480    -7.7480     1.1140 O.3   1 <1>  -0.5600 
 20 H        2.0410     2.1370     1.0280 H     1 <1>   0.3700 
 21 H        0.1980     3.1590    -1.1150 H     1 <1>   0.0800 
 22 H        1.4170     4.1210    -0.3100 H     1 <1>   0.0800 
 23 H        0.0230     3.5400     0.5840 H     1 <1>   0.0800 
 24 H        3.9180     0.8970     0.4900 H     1 <1>   0.1500 
 25 H        0.0070    -1.0200    -1.0110 H     1 <1>   0.4000 
 26 H        5.1790    -1.0850     1.2590 H     1 <1>   0.1500 
 27 H        4.1490    -3.2810     1.1540 H     1 <1>   0.1500 
 28 H        0.7450    -3.5810    -1.6120 H     1 <1>   0.0800 
 29 H       -0.8970    -2.9900    -1.6760 H     1 <1>   0.0800 
 30 H       -1.5210    -4.0210     0.2520 H     1 <1>   0.0800 
 31 H       -0.0140    -3.6430     1.0420 H     1 <1>   0.0800 
 32 H       -0.2670    -5.8340    -0.9280 H     1 <1>   0.4500 
 33 H       -1.6880    -6.3910     0.9020 H     1 <1>   0.0800 
 34 H       -0.4320    -5.9360     2.0220 H     1 <1>   0.0800 
 35 H        1.8300    -5.0860     1.0190 H     1 <1>   0.0800 
 36 H        1.9720    -5.0290    -0.7100 H     1 <1>   0.0800 
 37 H       -0.3140    -8.2860     0.0970 H     1 <1>   0.0800 
 38 H       -0.4220    -8.3520     1.8400 H     1 <1>   0.0800 
 39 H        3.0560    -7.0510     0.3240 H     1 <1>   0.0800 
 40 H        1.8250    -7.4950    -0.8340 H     1 <1>   0.0800 
@<TRIPOS>BOND
  1   1   2  2   
  2   2   3  am  
  3   2   4  1   
  4   3   5  1   
  5   3  20  1   
  6   4   6  ar  
  7   4   7  ar  
  8   5  21  1   
  9   5  22  1   
 10   5  23  1   
 11   6   8  ar  
 12   6   9  1   
 13   7  10  ar  
 14   7  24  1   
 15   8  11  ar  
 16   9  12  1   
 17   9  25  1   
 18  10  11  ar  
 19  10  26  1   
 20  11  27  1   
 21  12  13  1   
 22  12  28  1   
 23  12  29  1   
 24  13  14  1   
 25  13  30  1   
 26  13  31  1   
 27  14  15  1   
 28  14  16  1   
 29  14  32  1   
 30  15  17  1   
 31  15  33  1   
 32  15  34  1   
 33  16  18  1   
 34  16  35  1   
 35  16  36  1   
 36  17  19  1   
 37  17  37  1   
 38  17  38  1   
 39  18  19  1   
 40  18  39  1   
 41  18  40  1   
@<TRIPOS>SUBSTRUCTURE
  1 ****   8 GROUP 4 **** **** 0

# MOE 2024.06 (io_trps.svl 2023.06)
