@<TRIPOS>MOLECULE
NONAME
44 45 1 0 0 
SMALL
USER_CHARGES


@<TRIPOS>ATOM
  1 CL       0.0660     0.8200     0.3700 Cl    1 <1>  -0.1770 
  2 C        1.2090    -0.4620     0.0600 C.ar  1 <1>   0.1770 
  3 C        2.4430    -0.4220     0.6760 C.ar  1 <1>  -0.1500 
  4 C        0.8560    -1.4920    -0.7880 C.ar  1 <1>  -0.1500 
  5 C        3.3640    -1.4400     0.4430 C.ar  1 <1>   0.0830 
  6 C        1.7680    -2.5070    -1.0340 C.ar  1 <1>  -0.1440 
  7 O        4.5750    -1.4570     1.0700 O.3   1 <1>  -0.3620 
  8 C        3.0230    -2.4830    -0.4370 C.ar  1 <1>   0.0830 
  9 C        1.3740    -3.6400    -1.9590 C.3   1 <1>   0.4870 
 10 C        4.9610    -0.4590     1.9920 C.3   1 <1>   0.0400 
 11 O        3.8450    -3.5280    -0.7480 O.3   1 <1>  -0.3630 
 12 N        0.6050    -4.6310    -1.1740 N.4   1 <1>  -0.9590 
 13 C        5.2280    -3.3140    -0.9530 C.3   1 <1>   0.0400 
 14 C        1.4320    -5.3840    -0.1940 C.3   1 <1>   0.5240 
 15 C       -0.2520    -5.4960    -2.0860 C.3   1 <1>   0.2370 
 16 C        0.5530    -6.2080     0.7390 C.2   1 <1>   0.0460 
 17 C       -1.2680    -4.6740    -2.8900 C.2   1 <1>   0.9060 
 18 N        0.0980    -7.4260     0.3790 N.2   1 <1>  -0.5650 
 19 C        0.1160    -5.8820     1.9770 C.2   1 <1>  -0.3020 
 20 O       -1.5650    -3.5590    -2.4330 O.co2 1 <1>  -0.9000 
 21 O       -1.6540    -5.0860    -3.9830 O.co2 1 <1>  -0.9000 
 22 C       -0.6050    -7.8120     1.3910 C.2   1 <1>   0.0060 
 23 N       -0.6330    -6.9160     2.4010 N.pl3 1 <1>   0.0330 
 24 C       -1.3320    -9.1380     1.4520 C.3   1 <1>  -0.0600 
 25 H        2.6500     0.4040     1.3280 H     1 <1>   0.1500 
 26 H       -0.1220    -1.4950    -1.2490 H     1 <1>   0.1500 
 27 H        2.2440    -4.0980    -2.3970 H     1 <1>   0.0800 
 28 H        0.7610    -3.2400    -2.7520 H     1 <1>   0.0800 
 29 H        5.9450    -0.6990     2.3520 H     1 <1>   0.0800 
 30 H        4.2660    -0.4510     2.8130 H     1 <1>   0.0800 
 31 H        4.9790     0.4930     1.4910 H     1 <1>   0.0800 
 32 H       -0.0990    -4.0700    -0.6700 H     1 <1>   0.4500 
 33 H        5.6030    -4.1010    -1.5820 H     1 <1>   0.0800 
 34 H        5.7300    -3.3420    -0.0020 H     1 <1>   0.0800 
 35 H        5.3740    -2.3600    -1.4300 H     1 <1>   0.0800 
 36 H        2.0060    -4.6940     0.4010 H     1 <1>   0.0800 
 37 H        2.1140    -6.0380    -0.7080 H     1 <1>   0.0800 
 38 H       -0.8120    -6.2040    -1.5030 H     1 <1>   0.0800 
 39 H        0.3610    -6.0390    -2.7800 H     1 <1>   0.0800 
 40 H        0.2860    -4.9980     2.5650 H     1 <1>   0.1500 
 41 H       -1.1260    -7.0100     3.2940 H     1 <1>   0.2700 
 42 H       -1.1670    -9.6860     0.5410 H     1 <1>   0.0800 
 43 H       -2.3880    -8.9760     1.5680 H     1 <1>   0.0800 
 44 H       -0.9670    -9.7240     2.2760 H     1 <1>   0.0800 
@<TRIPOS>BOND
  1   1   2  1   
  2   2   3  ar  
  3   2   4  ar  
  4   3   5  ar  
  5   3  25  1   
  6   4   6  ar  
  7   4  26  1   
  8   5   7  1   
  9   5   8  ar  
 10   6   8  ar  
 11   6   9  1   
 12   7  10  1   
 13   8  11  1   
 14   9  12  1   
 15   9  27  1   
 16   9  28  1   
 17  10  29  1   
 18  10  30  1   
 19  10  31  1   
 20  11  13  1   
 21  12  14  1   
 22  12  15  1   
 23  12  32  1   
 24  13  33  1   
 25  13  34  1   
 26  13  35  1   
 27  14  16  1   
 28  14  36  1   
 29  14  37  1   
 30  15  17  1   
 31  15  38  1   
 32  15  39  1   
 33  16  18  1   
 34  16  19  2   
 35  17  20  ar  
 36  17  21  ar  
 37  18  22  2   
 38  19  23  1   
 39  19  40  1   
 40  22  23  1   
 41  22  24  1   
 42  23  41  1   
 43  24  42  1   
 44  24  43  1   
 45  24  44  1   
@<TRIPOS>SUBSTRUCTURE
  1 ****  12 GROUP 4 **** **** 0

# MOE 2024.06 (io_trps.svl 2023.06)
