@<TRIPOS>MOLECULE
NONAME
33 34 1 0 0 
SMALL
USER_CHARGES


@<TRIPOS>ATOM
  1 BR      -0.2330     0.6480     0.0010 Br    1 <1>  -0.1110 
  2 C        1.1510    -0.6410    -0.3930 C.ar  1 <1>   0.1110 
  3 C        2.3120    -0.6840     0.3710 C.ar  1 <1>   0.0820 
  4 C        0.9390    -1.5130    -1.4440 C.ar  1 <1>  -0.1500 
  5 O        2.5290     0.1630     1.4010 O.3   1 <1>  -0.3630 
  6 C        3.2700    -1.6410     0.0850 C.ar  1 <1>  -0.1500 
  7 C        1.9080    -2.4620    -1.7260 C.ar  1 <1>  -0.1500 
  8 C        3.0040     1.4470     1.0630 C.3   1 <1>   0.0400 
  9 C        3.0650    -2.5390    -0.9610 C.ar  1 <1>   0.0820 
 10 O        3.9460    -3.5200    -1.2910 O.3   1 <1>  -0.3630 
 11 C        4.8860    -4.0290    -0.3760 C.3   1 <1>   0.2000 
 12 C        5.8310    -4.9330    -1.1700 C.3   1 <1>  -0.1600 
 13 C        4.1460    -4.8230     0.7100 C.3   1 <1>  -0.1600 
 14 C        6.7800    -5.6910    -0.2470 C.3   1 <1>   0.3430 
 15 C        5.1220    -5.5870     1.6000 C.3   1 <1>   0.3430 
 16 N        5.9920    -6.4540     0.7590 N.4   1 <1>  -0.9060 
 17 H        0.0360    -1.4520    -2.0250 H     1 <1>   0.1500 
 18 H        4.1550    -1.6540     0.6870 H     1 <1>   0.1500 
 19 H        1.7670    -3.1520    -2.5390 H     1 <1>   0.1500 
 20 H        3.1380     2.0060     1.9720 H     1 <1>   0.0800 
 21 H        2.2840     1.9390     0.4350 H     1 <1>   0.0800 
 22 H        3.9440     1.3480     0.5490 H     1 <1>   0.0800 
 23 H        5.4450    -3.2100     0.0430 H     1 <1>   0.0800 
 24 H        6.4090    -4.3290    -1.8480 H     1 <1>   0.0800 
 25 H        5.2630    -5.6360    -1.7550 H     1 <1>   0.0800 
 26 H        3.4610    -5.5160     0.2540 H     1 <1>   0.0800 
 27 H        3.5750    -4.1520     1.3260 H     1 <1>   0.0800 
 28 H        7.4330    -4.9920     0.2530 H     1 <1>   0.0800 
 29 H        7.3900    -6.3640    -0.8300 H     1 <1>   0.0800 
 30 H        4.5710    -6.1870     2.3070 H     1 <1>   0.0800 
 31 H        5.7290    -4.8870     2.1530 H     1 <1>   0.0800 
 32 H        6.6270    -6.9950     1.3610 H     1 <1>   0.4500 
 33 H        5.4000    -7.1370     0.2670 H     1 <1>   0.4500 
@<TRIPOS>BOND
  1   1   2  1   
  2   2   3  ar  
  3   2   4  ar  
  4   3   5  1   
  5   3   6  ar  
  6   4   7  ar  
  7   4  17  1   
  8   5   8  1   
  9   6   9  ar  
 10   6  18  1   
 11   7   9  ar  
 12   7  19  1   
 13   8  20  1   
 14   8  21  1   
 15   8  22  1   
 16   9  10  1   
 17  10  11  1   
 18  11  12  1   
 19  11  13  1   
 20  11  23  1   
 21  12  14  1   
 22  12  24  1   
 23  12  25  1   
 24  13  15  1   
 25  13  26  1   
 26  13  27  1   
 27  14  16  1   
 28  14  28  1   
 29  14  29  1   
 30  15  16  1   
 31  15  30  1   
 32  15  31  1   
 33  16  32  1   
 34  16  33  1   
@<TRIPOS>SUBSTRUCTURE
  1 ****   9 GROUP 4 **** **** 0

# MOE 2024.06 (io_trps.svl 2023.06)
