@<TRIPOS>MOLECULE
NONAME
53 56 1 0 0 
SMALL
USER_CHARGES


@<TRIPOS>ATOM
  1 O       -2.3360     1.4230    -2.0670 O.2   1 <1>  -0.5700 
  2 C       -2.3870     1.2560    -0.8610 C.2   1 <1>   0.7160 
  3 N       -2.5530    -0.0210    -0.3660 N.am  1 <1>  -0.6600 
  4 C       -2.1690     2.3570     0.0170 C.2   1 <1>  -0.0860 
  5 C       -2.2230    -1.2290    -1.1850 C.3   1 <1>   0.1400 
  6 C       -2.8930    -0.3070     1.0560 C.3   1 <1>   0.1400 
  7 C       -3.0750     3.3480     0.4010 C.2   1 <1>   0.3720 
  8 C       -1.0560     2.6400     0.7380 C.2   1 <1>   0.0870 
  9 C       -1.0350    -1.9530    -0.5430 C.3   1 <1>   0.2000 
 10 C       -1.7260    -1.0340     1.7340 C.3   1 <1>  -0.1600 
 11 N       -2.5450     4.1330     1.2750 N.2   1 <1>  -0.4100 
 12 N       -4.3980     3.4480    -0.0560 N.pl3 1 <1>  -0.8210 
 13 O       -1.3260     3.6950     1.4610 O.3   1 <1>  -0.0190 
 14 C        0.2110     1.9620     0.8240 C.ar  1 <1>   0.0530 
 15 O       -0.7730    -3.1340    -1.2200 O.3   1 <1>  -0.6800 
 16 C       -1.3210    -2.2760     0.9350 C.3   1 <1>   0.2000 
 17 C       -5.2760     4.4640     0.5810 C.3   1 <1>   0.2090 
 18 C       -4.5880     3.5010    -1.5310 C.3   1 <1>   0.2090 
 19 C        0.8890     1.8590     2.0380 C.ar  1 <1>  -0.1500 
 20 C        0.7850     1.3470    -0.2900 C.ar  1 <1>  -0.1500 
 21 O       -0.1950    -2.8380     1.5220 O.3   1 <1>  -0.6800 
 22 C       -6.3320     4.7810    -0.4660 C.3   1 <1>  -0.1600 
 23 C       -5.5960     4.6150    -1.7880 C.3   1 <1>  -0.1600 
 24 C        2.0630     1.1380     2.1440 C.ar  1 <1>  -0.1500 
 25 C        1.9590     0.6250    -0.1920 C.ar  1 <1>  -0.1500 
 26 C        2.6030     0.5060     1.0360 C.ar  1 <1>   0.0830 
 27 O        3.7420    -0.1990     1.2250 O.3   1 <1>  -0.3620 
 28 C        4.4170    -0.8200     0.1520 C.3   1 <1>   0.0400 
 29 H       -3.0790    -1.8800    -1.2140 H     1 <1>   0.0800 
 30 H       -1.9670    -0.9510    -2.1930 H     1 <1>   0.0800 
 31 H       -3.1230     0.6010     1.5890 H     1 <1>   0.0800 
 32 H       -3.7730    -0.9280     1.0820 H     1 <1>   0.0800 
 33 H       -0.1620    -1.3300    -0.6210 H     1 <1>   0.0800 
 34 H       -2.0240    -1.3270     2.7250 H     1 <1>   0.0800 
 35 H       -0.8950    -0.3600     1.8160 H     1 <1>   0.0800 
 36 H       -0.2250    -3.7010    -0.6360 H     1 <1>   0.4000 
 37 H       -2.1140    -3.0040     0.9870 H     1 <1>   0.0800 
 38 H       -5.7150     4.0740     1.4840 H     1 <1>   0.0800 
 39 H       -4.7140     5.3540     0.8090 H     1 <1>   0.0800 
 40 H       -3.6610     3.7000    -2.0430 H     1 <1>   0.0800 
 41 H       -4.9810     2.5550    -1.8650 H     1 <1>   0.0800 
 42 H        0.4830     2.3420     2.9100 H     1 <1>   0.1500 
 43 H        0.3050     1.4350    -1.2500 H     1 <1>   0.1500 
 44 H        0.5040    -2.1620     1.6310 H     1 <1>   0.4000 
 45 H       -7.1260     4.0590    -0.3910 H     1 <1>   0.0800 
 46 H       -6.7370     5.7690    -0.3390 H     1 <1>   0.0800 
 47 H       -5.0610     5.5180    -2.0250 H     1 <1>   0.0800 
 48 H       -6.2580     4.3740    -2.6010 H     1 <1>   0.0800 
 49 H        2.5720     1.0590     3.0880 H     1 <1>   0.1500 
 50 H        2.3580     0.1640    -1.0770 H     1 <1>   0.1500 
 51 H        5.3000    -1.2920     0.5430 H     1 <1>   0.0800 
 52 H        4.6920    -0.0700    -0.5680 H     1 <1>   0.0800 
 53 H        3.7720    -1.5590    -0.2870 H     1 <1>   0.0800 
@<TRIPOS>BOND
  1   1   2  2   
  2   2   3  am  
  3   2   4  1   
  4   3   5  1   
  5   3   6  1   
  6   4   7  1   
  7   4   8  2   
  8   5   9  1   
  9   5  29  1   
 10   5  30  1   
 11   6  10  1   
 12   6  31  1   
 13   6  32  1   
 14   7  11  2   
 15   7  12  1   
 16   8  13  1   
 17   8  14  1   
 18   9  15  1   
 19   9  16  1   
 20   9  33  1   
 21  10  16  1   
 22  10  34  1   
 23  10  35  1   
 24  11  13  1   
 25  12  17  1   
 26  12  18  1   
 27  14  19  ar  
 28  14  20  ar  
 29  15  36  1   
 30  16  21  1   
 31  16  37  1   
 32  17  22  1   
 33  17  38  1   
 34  17  39  1   
 35  18  23  1   
 36  18  40  1   
 37  18  41  1   
 38  19  24  ar  
 39  19  42  1   
 40  20  25  ar  
 41  20  43  1   
 42  21  44  1   
 43  22  23  1   
 44  22  45  1   
 45  22  46  1   
 46  23  47  1   
 47  23  48  1   
 48  24  26  ar  
 49  24  49  1   
 50  25  26  ar  
 51  25  50  1   
 52  26  27  1   
 53  27  28  1   
 54  28  51  1   
 55  28  52  1   
 56  28  53  1   
@<TRIPOS>SUBSTRUCTURE
  1 ****   4 GROUP 4 **** **** 0

# MOE 2024.06 (io_trps.svl 2023.06)
