@<TRIPOS>MOLECULE
NONAME
45 47 1 0 0 
SMALL
USER_CHARGES


@<TRIPOS>ATOM
  1 O       -1.0810    -0.7600    -0.4550 O.co2 1 <1>  -0.9000 
  2 C       -0.2420    -1.5880    -0.8500 C.2   1 <1>   1.0330 
  3 O       -0.1470    -1.8030    -2.0700 O.co2 1 <1>  -0.9000 
  4 C        0.5670    -2.3010     0.0800 C.2   1 <1>  -0.2330 
  5 C        0.3550    -3.5930     0.5780 C.2   1 <1>   0.3720 
  6 C        1.7320    -1.9130     0.6600 C.2   1 <1>   0.0870 
  7 N        1.3190    -3.9350     1.3640 N.2   1 <1>  -0.4100 
  8 N       -0.7120    -4.4780     0.3340 N.pl3 1 <1>  -0.8210 
  9 O        2.1330    -2.9150     1.4030 O.3   1 <1>  -0.0190 
 10 C        2.5250    -0.7070     0.5920 C.ar  1 <1>   0.0530 
 11 C       -0.3060    -5.8470    -0.1030 C.3   1 <1>   0.2090 
 12 C       -1.8750    -4.0140    -0.4780 C.3   1 <1>   0.2090 
 13 C        1.9680     0.5350     0.2840 C.ar  1 <1>  -0.1500 
 14 C        3.8980    -0.7420     0.8420 C.ar  1 <1>  -0.1500 
 15 C       -1.4860    -6.8630    -0.0740 C.3   1 <1>   0.2800 
 16 C       -3.0130    -5.0470    -0.4490 C.3   1 <1>   0.1200 
 17 C        2.7400     1.6810     0.2230 C.ar  1 <1>  -0.1500 
 18 C        4.6770     0.4000     0.7850 C.ar  1 <1>  -0.1500 
 19 O       -2.5780    -6.3400    -0.7990 O.3   1 <1>  -0.5600 
 20 C       -1.9030    -7.1270     1.4020 C.3   1 <1>  -0.1600 
 21 C       -1.0380    -8.1690    -0.7890 C.3   1 <1>  -0.1600 
 22 C        4.0980     1.6170     0.4740 C.ar  1 <1>  -0.1500 
 23 C       -3.1460    -8.0030     1.6290 C.3   1 <1>  -0.2400 
 24 C       -2.1350    -9.0060    -1.4780 C.3   1 <1>  -0.2400 
 25 H        0.4820    -6.2110     0.5320 H     1 <1>   0.0800 
 26 H        0.0860    -5.7780    -1.1020 H     1 <1>   0.0800 
 27 H       -1.5690    -3.8540    -1.4980 H     1 <1>   0.0800 
 28 H       -2.2440    -3.0830    -0.0840 H     1 <1>   0.0800 
 29 H        0.9120     0.6100     0.0910 H     1 <1>   0.1500 
 30 H        4.3600    -1.6830     1.0810 H     1 <1>   0.1500 
 31 H       -3.7740    -4.7610    -1.1520 H     1 <1>   0.0800 
 32 H       -3.4550    -5.0810     0.5290 H     1 <1>   0.0800 
 33 H        2.2760     2.6200    -0.0210 H     1 <1>   0.1500 
 34 H        5.7330     0.3410     0.9820 H     1 <1>   0.1500 
 35 H       -2.0630    -6.1820     1.8900 H     1 <1>   0.0800 
 36 H       -1.0730    -7.5780     1.9150 H     1 <1>   0.0800 
 37 H       -0.5130    -8.7880    -0.0840 H     1 <1>   0.0800 
 38 H       -0.3240    -7.9140    -1.5520 H     1 <1>   0.0800 
 39 H        4.6990     2.5070     0.4260 H     1 <1>   0.1500 
 40 H       -3.9650    -7.6650     1.0190 H     1 <1>   0.0800 
 41 H       -3.4440    -7.9480     2.6610 H     1 <1>   0.0800 
 42 H       -2.9330    -9.0300     1.4000 H     1 <1>   0.0800 
 43 H       -2.9100    -9.2890    -0.7940 H     1 <1>   0.0800 
 44 H       -1.7060    -9.8990    -1.8960 H     1 <1>   0.0800 
 45 H       -2.5820    -8.4410    -2.2770 H     1 <1>   0.0800 
@<TRIPOS>BOND
  1   1   2  ar  
  2   2   3  ar  
  3   2   4  1   
  4   4   5  1   
  5   4   6  2   
  6   5   7  2   
  7   5   8  1   
  8   6   9  1   
  9   6  10  1   
 10   7   9  1   
 11   8  11  1   
 12   8  12  1   
 13  10  13  ar  
 14  10  14  ar  
 15  11  15  1   
 16  11  25  1   
 17  11  26  1   
 18  12  16  1   
 19  12  27  1   
 20  12  28  1   
 21  13  17  ar  
 22  13  29  1   
 23  14  18  ar  
 24  14  30  1   
 25  15  19  1   
 26  15  20  1   
 27  15  21  1   
 28  16  19  1   
 29  16  31  1   
 30  16  32  1   
 31  17  22  ar  
 32  17  33  1   
 33  18  22  ar  
 34  18  34  1   
 35  20  23  1   
 36  20  35  1   
 37  20  36  1   
 38  21  24  1   
 39  21  37  1   
 40  21  38  1   
 41  22  39  1   
 42  23  40  1   
 43  23  41  1   
 44  23  42  1   
 45  24  43  1   
 46  24  44  1   
 47  24  45  1   
@<TRIPOS>SUBSTRUCTURE
  1 ****   5 GROUP 4 **** **** 0

# MOE 2024.06 (io_trps.svl 2023.06)
