@<TRIPOS>MOLECULE
NONAME
51 54 1 0 0 
SMALL
USER_CHARGES


@<TRIPOS>ATOM
  1 F        1.3130     0.5470     0.0410 F     1 <1>  -0.1900 
  2 C        1.7780    -0.6160    -0.3280 C.ar  1 <1>   0.1900 
  3 C        1.7040    -1.6720     0.5540 C.ar  1 <1>  -0.1500 
  4 C        2.3230    -0.7430    -1.5890 C.ar  1 <1>  -0.1500 
  5 C        2.1880    -2.9230     0.1770 C.ar  1 <1>   0.0860 
  6 C        2.8110    -1.9800    -1.9720 C.ar  1 <1>  -0.1500 
  7 C        2.7480    -3.0600    -1.1030 C.ar  1 <1>  -0.1440 
  8 C        2.0860    -4.0350     1.1020 C.2   1 <1>   0.5440 
  9 C        3.3000    -4.4080    -1.5510 C.3   1 <1>  -0.0960 
 10 O        3.0720    -4.3820     1.7240 O.2   1 <1>  -0.5700 
 11 N        0.8960    -4.7090     1.2840 N.am  1 <1>  -0.6600 
 12 C        0.7540    -5.8210     2.2640 C.3   1 <1>   0.1400 
 13 C       -0.3330    -4.4630     0.4820 C.3   1 <1>   0.1400 
 14 C        0.4120    -7.1090     1.5120 C.3   1 <1>  -0.1600 
 15 C       -0.6800    -5.7340    -0.2960 C.3   1 <1>  -0.1600 
 16 C       -0.8390    -6.9500     0.6350 C.3   1 <1>   0.4240 
 17 O       -1.8890    -6.6740     1.5340 O.3   1 <1>  -0.5600 
 18 C       -1.0980    -8.2400    -0.1730 C.ar  1 <1>  -0.1430 
 19 C       -3.1900    -6.9280     1.1040 C.3   1 <1>   0.1200 
 20 C       -2.2920    -8.9430    -0.0450 C.ar  1 <1>  -0.1430 
 21 C       -0.1370    -8.7230    -1.0550 C.ar  1 <1>  -0.1500 
 22 C       -3.3590    -8.4300     0.9020 C.3   1 <1>  -0.0170 
 23 C       -2.5140   -10.1010    -0.7730 C.ar  1 <1>  -0.1500 
 24 C       -0.3580    -9.8770    -1.7840 C.ar  1 <1>  -0.1500 
 25 C       -1.5440   -10.5750    -1.6500 C.ar  1 <1>   0.0830 
 26 O       -1.6820   -11.6980    -2.3990 O.3   1 <1>  -0.3630 
 27 C       -2.8420   -12.4940    -2.3200 C.3   1 <1>   0.0400 
 28 H        1.2770    -1.5320     1.5300 H     1 <1>   0.1500 
 29 H        2.3640     0.1050    -2.2490 H     1 <1>   0.1500 
 30 H        3.2440    -2.0920    -2.9520 H     1 <1>   0.1500 
 31 H        4.1070    -4.7040    -0.9030 H     1 <1>   0.0800 
 32 H        3.6740    -4.3620    -2.5580 H     1 <1>   0.0800 
 33 H        2.5320    -5.1580    -1.5060 H     1 <1>   0.0800 
 34 H       -0.0310    -5.5800     2.9600 H     1 <1>   0.0800 
 35 H        1.6630    -5.9590     2.8240 H     1 <1>   0.0800 
 36 H       -0.1960    -3.6480    -0.2060 H     1 <1>   0.0800 
 37 H       -1.1410    -4.2070     1.1470 H     1 <1>   0.0800 
 38 H        0.2510    -7.9080     2.2130 H     1 <1>   0.0800 
 39 H        1.2600    -7.3740     0.9100 H     1 <1>   0.0800 
 40 H        0.1090    -5.9220    -0.9990 H     1 <1>   0.0800 
 41 H       -1.5780    -5.5850    -0.8640 H     1 <1>   0.0800 
 42 H       -3.3750    -6.3910     0.1910 H     1 <1>   0.0800 
 43 H       -3.8630    -6.5730     1.8640 H     1 <1>   0.0800 
 44 H        0.7960    -8.2050    -1.1850 H     1 <1>   0.1500 
 45 H       -4.3370    -8.6250     0.5020 H     1 <1>   0.0800 
 46 H       -3.2730    -8.9310     1.8490 H     1 <1>   0.0800 
 47 H       -3.4430   -10.6230    -0.6490 H     1 <1>   0.1500 
 48 H        0.3890   -10.2450    -2.4630 H     1 <1>   0.1500 
 49 H       -2.7220   -13.3270    -2.9890 H     1 <1>   0.0800 
 50 H       -3.6910   -11.9050    -2.6190 H     1 <1>   0.0800 
 51 H       -2.9540   -12.8500    -1.3110 H     1 <1>   0.0800 
@<TRIPOS>BOND
  1   1   2  1   
  2   2   3  ar  
  3   2   4  ar  
  4   3   5  ar  
  5   3  28  1   
  6   4   6  ar  
  7   4  29  1   
  8   5   7  ar  
  9   5   8  1   
 10   6   7  ar  
 11   6  30  1   
 12   7   9  1   
 13   8  10  2   
 14   8  11  am  
 15   9  31  1   
 16   9  32  1   
 17   9  33  1   
 18  11  12  1   
 19  11  13  1   
 20  12  14  1   
 21  12  34  1   
 22  12  35  1   
 23  13  15  1   
 24  13  36  1   
 25  13  37  1   
 26  14  16  1   
 27  14  38  1   
 28  14  39  1   
 29  15  16  1   
 30  15  40  1   
 31  15  41  1   
 32  16  17  1   
 33  16  18  1   
 34  17  19  1   
 35  18  20  ar  
 36  18  21  ar  
 37  19  22  1   
 38  19  42  1   
 39  19  43  1   
 40  20  22  1   
 41  20  23  ar  
 42  21  24  ar  
 43  21  44  1   
 44  22  45  1   
 45  22  46  1   
 46  23  25  ar  
 47  23  47  1   
 48  24  25  ar  
 49  24  48  1   
 50  25  26  1   
 51  26  27  1   
 52  27  49  1   
 53  27  50  1   
 54  27  51  1   
@<TRIPOS>SUBSTRUCTURE
  1 ****  15 GROUP 4 **** **** 0

# MOE 2024.06 (io_trps.svl 2023.06)
