@<TRIPOS>MOLECULE
NONAME
61 64 1 0 0 
SMALL
USER_CHARGES


@<TRIPOS>ATOM
  1 O       -0.6430     1.1700     0.8200 O.2   1 <1>  -0.5700 
  2 C       -1.6020     1.8190     0.4720 C.2   1 <1>   0.5690 
  3 N       -2.8790     1.3110     0.5610 N.am  1 <1>  -0.6600 
  4 C       -1.3580     3.2250    -0.0740 C.3   1 <1>  -0.0990 
  5 C       -4.0830     2.0030     0.0080 C.3   1 <1>   0.2200 
  6 C       -3.0770    -0.0180     1.2230 C.3   1 <1>   0.0600 
  7 C        0.0670     3.7600     0.1610 C.3   1 <1>  -0.1600 
  8 C       -4.9610     2.6040     1.1040 C.3   1 <1>  -0.1600 
  9 C       -5.0270     1.1040    -0.7940 C.3   1 <1>  -0.1600 
 10 C        0.2410     5.1840    -0.3830 C.3   1 <1>   0.0210 
 11 C       -6.3350     2.7820     0.4430 C.3   1 <1>  -0.0800 
 12 C       -6.3710     1.8460    -0.7700 C.3   1 <1>  -0.0800 
 13 C        1.6400     5.7310    -0.1510 C.2   1 <1>  -0.1810 
 14 C       -7.5380     2.3880     1.3120 C.3   1 <1>  -0.1600 
 15 C       -7.6090     0.9560    -0.5780 C.3   1 <1>  -0.1600 
 16 C        2.0420     7.0270    -0.5500 C.ar  1 <1>   0.0000 
 17 C        2.7090     5.1390     0.4370 C.2   1 <1>  -0.3020 
 18 C       -8.5420     1.7420     0.3500 C.3   1 <1>   0.4230 
 19 C        3.3740     7.1620    -0.1720 C.ar  1 <1>  -0.1520 
 20 C        1.3980     8.0900    -1.1930 C.ar  1 <1>  -0.1500 
 21 N        3.7700     5.9970     0.4310 N.pl3 1 <1>   0.0330 
 22 N       -9.2990     2.7860    -0.4150 N.4   1 <1>  -0.9590 
 23 C        4.0780     8.3430    -0.4250 C.ar  1 <1>  -0.1500 
 24 C        2.0910     9.2520    -1.4420 C.ar  1 <1>  -0.1500 
 25 C      -10.1180     3.6750     0.4720 C.3   1 <1>   0.2630 
 26 C      -10.2050     2.1970    -1.4540 C.3   1 <1>   0.2630 
 27 C        3.4310     9.3790    -1.0580 C.ar  1 <1>  -0.1500 
 28 H       -1.5540     3.2090    -1.1300 H     1 <1>   0.0800 
 29 H       -2.0520     3.8950     0.3970 H     1 <1>   0.0800 
 30 H       -3.7840     2.8000    -0.6500 H     1 <1>   0.0800 
 31 H       -4.0150    -0.0510     1.7470 H     1 <1>   0.0800 
 32 H       -2.2920    -0.2050     1.9350 H     1 <1>   0.0800 
 33 H       -3.0540    -0.7970     0.4810 H     1 <1>   0.0800 
 34 H        0.2780     3.7550     1.2170 H     1 <1>   0.0800 
 35 H        0.7760     3.1090    -0.3220 H     1 <1>   0.0800 
 36 H       -5.0220     1.9270     1.9350 H     1 <1>   0.0800 
 37 H       -4.5630     3.5430     1.4460 H     1 <1>   0.0800 
 38 H       -4.6680     0.9670    -1.7990 H     1 <1>   0.0800 
 39 H       -5.1300     0.1430    -0.3260 H     1 <1>   0.0800 
 40 H       -0.4630     5.8410     0.0970 H     1 <1>   0.0800 
 41 H        0.0430     5.1920    -1.4400 H     1 <1>   0.0800 
 42 H       -6.4390     3.8000     0.1010 H     1 <1>   0.0800 
 43 H       -6.4700     2.4370    -1.6660 H     1 <1>   0.0800 
 44 H       -7.9200     3.2120     1.8830 H     1 <1>   0.0800 
 45 H       -7.2390     1.6270     2.0130 H     1 <1>   0.0800 
 46 H       -7.3290     0.0580    -0.0550 H     1 <1>   0.0800 
 47 H       -8.0450     0.6550    -1.5120 H     1 <1>   0.0800 
 48 H        2.7820     4.1530     0.8630 H     1 <1>   0.1500 
 49 H       -9.2240     1.0890     0.8710 H     1 <1>   0.0800 
 50 H        0.3700     7.9810    -1.4830 H     1 <1>   0.1500 
 51 H        4.7030     5.8130     0.8090 H     1 <1>   0.2700 
 52 H       -8.5910     3.3630    -0.8900 H     1 <1>   0.4500 
 53 H        5.1070     8.4310    -0.1270 H     1 <1>   0.1500 
 54 H        1.6080    10.0770    -1.9360 H     1 <1>   0.1500 
 55 H      -10.8100     3.0880     1.0550 H     1 <1>   0.0800 
 56 H      -10.6790     4.3790    -0.1210 H     1 <1>   0.0800 
 57 H       -9.4870     4.2330     1.1430 H     1 <1>   0.0800 
 58 H      -10.9040     1.5140    -0.9990 H     1 <1>   0.0800 
 59 H       -9.6390     1.6650    -2.2000 H     1 <1>   0.0800 
 60 H      -10.7600     2.9770    -1.9500 H     1 <1>   0.0800 
 61 H        3.9510    10.2980    -1.2640 H     1 <1>   0.1500 
@<TRIPOS>BOND
  1   1   2  2   
  2   2   3  am  
  3   2   4  1   
  4   3   5  1   
  5   3   6  1   
  6   4   7  1   
  7   4  28  1   
  8   4  29  1   
  9   5   8  1   
 10   5   9  1   
 11   5  30  1   
 12   6  31  1   
 13   6  32  1   
 14   6  33  1   
 15   7  10  1   
 16   7  34  1   
 17   7  35  1   
 18   8  11  1   
 19   8  36  1   
 20   8  37  1   
 21   9  12  1   
 22   9  38  1   
 23   9  39  1   
 24  10  13  1   
 25  10  40  1   
 26  10  41  1   
 27  11  12  1   
 28  11  14  1   
 29  11  42  1   
 30  12  15  1   
 31  12  43  1   
 32  13  16  1   
 33  13  17  2   
 34  14  18  1   
 35  14  44  1   
 36  14  45  1   
 37  15  18  1   
 38  15  46  1   
 39  15  47  1   
 40  16  19  ar  
 41  16  20  ar  
 42  17  21  1   
 43  17  48  1   
 44  18  22  1   
 45  18  49  1   
 46  19  21  1   
 47  19  23  ar  
 48  20  24  ar  
 49  20  50  1   
 50  21  51  1   
 51  22  25  1   
 52  22  26  1   
 53  22  52  1   
 54  23  27  ar  
 55  23  53  1   
 56  24  27  ar  
 57  24  54  1   
 58  25  55  1   
 59  25  56  1   
 60  25  57  1   
 61  26  58  1   
 62  26  59  1   
 63  26  60  1   
 64  27  61  1   
@<TRIPOS>SUBSTRUCTURE
  1 ****   4 GROUP 4 **** **** 0

# MOE 2024.06 (io_trps.svl 2023.06)
