@<TRIPOS>MOLECULE
NONAME
37 39 1 0 0 
SMALL
USER_CHARGES


@<TRIPOS>ATOM
  1 S       -0.2540     0.0070    -0.8300 S.3   1 <1>  -0.0800 
  2 C       -1.4580    -0.9010     0.0940 C.2   1 <1>  -0.0450 
  3 C       -0.8380     1.5420    -0.2290 C.2   1 <1>  -0.1100 
  4 C       -1.4670    -2.3410    -0.0180 C.2   1 <1>   0.7150 
  5 C       -2.2130    -0.0160     0.7970 C.2   1 <1>  -0.1500 
  6 C       -1.8680     1.3550     0.6140 C.2   1 <1>  -0.1500 
  7 O       -0.4410    -2.9490    -0.2660 O.2   1 <1>  -0.5700 
  8 N       -2.6260    -3.0680     0.1480 N.am  1 <1>  -0.6600 
  9 C       -3.9930    -2.5280    -0.0660 C.3   1 <1>   0.1400 
 10 C       -2.6400    -4.5520     0.0730 C.3   1 <1>   0.1400 
 11 C       -4.8090    -3.7190    -0.5650 C.3   1 <1>   0.2000 
 12 C       -4.1170    -4.9460     0.0200 C.3   1 <1>  -0.0800 
 13 O       -6.1230    -3.6540    -0.1330 O.3   1 <1>  -0.6800 
 14 C       -4.3810    -6.2310    -0.7780 C.3   1 <1>   0.0210 
 15 C       -3.5930    -7.3940    -0.2080 C.2   1 <1>   0.1080 
 16 N       -3.7420    -7.8150     1.0100 N.2   1 <1>  -0.7070 
 17 C       -2.6340    -8.1230    -0.9030 C.2   1 <1>  -0.1500 
 18 N       -2.8730    -8.8370     1.1250 N.pl3 1 <1>   0.3000 
 19 C       -2.1890    -9.0420    -0.0210 C.2   1 <1>  -0.3320 
 20 C       -1.1360   -10.1190    -0.2040 C.3   1 <1>  -0.0600 
 21 H       -0.3410     2.4330    -0.5730 H     1 <1>   0.1500 
 22 H       -3.0130    -0.2890     1.4620 H     1 <1>   0.1500 
 23 H       -2.4050     2.1380     1.1220 H     1 <1>   0.1500 
 24 H       -4.3810    -2.1730     0.8720 H     1 <1>   0.0800 
 25 H       -3.9870    -1.7370    -0.7960 H     1 <1>   0.0800 
 26 H       -2.1250    -4.8660    -0.8200 H     1 <1>   0.0800 
 27 H       -2.1510    -4.9830     0.9310 H     1 <1>   0.0800 
 28 H       -4.8030    -3.7360    -1.6420 H     1 <1>   0.0800 
 29 H       -4.4390    -5.0920     1.0370 H     1 <1>   0.0800 
 30 H       -6.1770    -3.8480     0.8230 H     1 <1>   0.4000 
 31 H       -4.1130    -6.0900    -1.8090 H     1 <1>   0.0800 
 32 H       -5.4290    -6.4720    -0.7340 H     1 <1>   0.0800 
 33 H       -2.3310    -7.9670    -1.9230 H     1 <1>   0.1500 
 34 H       -2.7720    -9.3730     1.9950 H     1 <1>   0.2700 
 35 H       -0.7370   -10.0800    -1.2020 H     1 <1>   0.0800 
 36 H       -1.5660   -11.0920    -0.0450 H     1 <1>   0.0800 
 37 H       -0.3290    -9.9730     0.4930 H     1 <1>   0.0800 
@<TRIPOS>BOND
  1   1   2  1   
  2   1   3  1   
  3   2   4  1   
  4   2   5  2   
  5   3   6  2   
  6   3  21  1   
  7   4   7  2   
  8   4   8  am  
  9   5   6  1   
 10   5  22  1   
 11   6  23  1   
 12   8   9  1   
 13   8  10  1   
 14   9  11  1   
 15   9  24  1   
 16   9  25  1   
 17  10  12  1   
 18  10  26  1   
 19  10  27  1   
 20  11  12  1   
 21  11  13  1   
 22  11  28  1   
 23  12  14  1   
 24  12  29  1   
 25  13  30  1   
 26  14  15  1   
 27  14  31  1   
 28  14  32  1   
 29  15  16  2   
 30  15  17  1   
 31  16  18  1   
 32  17  19  2   
 33  17  33  1   
 34  18  19  1   
 35  18  34  1   
 36  19  20  1   
 37  20  35  1   
 38  20  36  1   
 39  20  37  1   
@<TRIPOS>SUBSTRUCTURE
  1 ****  10 GROUP 4 **** **** 0

# MOE 2024.06 (io_trps.svl 2023.06)
