@<TRIPOS>MOLECULE
NONAME
46 48 1 0 0 
SMALL
USER_CHARGES


@<TRIPOS>ATOM
  1 F       -0.1680     1.1810     0.5670 F     1 <1>  -0.1900 
  2 C       -1.4680     1.2940     0.4740 C.ar  1 <1>   0.1900 
  3 C       -2.0730     2.2500    -0.3500 C.ar  1 <1>   0.0830 
  4 C       -2.2170     0.4200     1.2390 C.ar  1 <1>  -0.1500 
  5 O       -1.4470     3.1640    -1.1460 O.3   1 <1>  -0.3630 
  6 C       -3.4580     2.2900    -0.3770 C.ar  1 <1>  -0.1500 
  7 C       -3.5970     0.4890     1.1890 C.ar  1 <1>  -0.1500 
  8 C       -0.0440     3.2440    -1.2680 C.3   1 <1>   0.0400 
  9 C       -4.2470     1.4190     0.3770 C.ar  1 <1>   0.0530 
 10 C       -5.6840     1.5090     0.3190 C.2   1 <1>   0.0870 
 11 O       -6.2510     2.6840     0.4130 O.3   1 <1>  -0.0190 
 12 C       -6.6840     0.5970     0.1650 C.2   1 <1>  -0.0860 
 13 N       -7.5540     2.6310     0.3480 N.2   1 <1>  -0.4100 
 14 C       -7.8430     1.3870     0.2020 C.2   1 <1>   0.3720 
 15 C       -6.6510    -0.8230    -0.0240 C.2   1 <1>   0.7160 
 16 N       -9.1660     0.9120     0.1140 N.pl3 1 <1>  -0.8210 
 17 O       -5.6780    -1.4950     0.2550 O.2   1 <1>  -0.5700 
 18 N       -7.7550    -1.4580    -0.4910 N.am  1 <1>  -0.7300 
 19 C      -10.1080     1.8340    -0.5850 C.3   1 <1>   0.1290 
 20 C       -9.7170     0.4650     1.4250 C.3   1 <1>   0.1290 
 21 C       -8.0200    -2.9160    -0.4090 C.3   1 <1>   0.2200 
 22 C       -9.1300    -3.3000    -1.3770 C.3   1 <1>   0.2000 
 23 C       -8.6810    -3.2320     0.9350 C.3   1 <1>   0.1200 
 24 O       -9.1520    -4.6810    -1.5520 O.3   1 <1>  -0.6800 
 25 C      -10.3770    -2.8890    -0.5960 C.3   1 <1>   0.1200 
 26 O      -10.0630    -3.0460     0.7630 O.3   1 <1>  -0.5600 
 27 H       -1.7250    -0.3030     1.8630 H     1 <1>   0.1500 
 28 H       -3.9370     3.0200    -1.0040 H     1 <1>   0.1500 
 29 H       -4.1790    -0.1880     1.7890 H     1 <1>   0.1500 
 30 H        0.1860     4.0300    -1.9650 H     1 <1>   0.0800 
 31 H        0.3300     2.3070    -1.6390 H     1 <1>   0.0800 
 32 H        0.3790     3.4760    -0.3060 H     1 <1>   0.0800 
 33 H       -8.5890    -0.8520    -0.5160 H     1 <1>   0.3700 
 34 H      -11.0300     1.3250    -0.8030 H     1 <1>   0.0800 
 35 H       -9.6700     2.1700    -1.5100 H     1 <1>   0.0800 
 36 H      -10.3130     2.6940     0.0310 H     1 <1>   0.0800 
 37 H      -10.6040    -0.1250     1.2710 H     1 <1>   0.0800 
 38 H       -9.9600     1.3190     2.0360 H     1 <1>   0.0800 
 39 H       -8.9940    -0.1370     1.9480 H     1 <1>   0.0800 
 40 H       -7.1120    -3.4710    -0.5730 H     1 <1>   0.0800 
 41 H       -9.0380    -2.8330    -2.3420 H     1 <1>   0.0800 
 42 H       -8.3250    -2.6010     1.7290 H     1 <1>   0.0800 
 43 H       -8.5220    -4.2630     1.1960 H     1 <1>   0.0800 
 44 H       -9.4710    -5.1080    -0.7310 H     1 <1>   0.4000 
 45 H      -11.2380    -3.4830    -0.8440 H     1 <1>   0.0800 
 46 H      -10.5940    -1.8480    -0.7590 H     1 <1>   0.0800 
@<TRIPOS>BOND
  1   1   2  1   
  2   2   3  ar  
  3   2   4  ar  
  4   3   5  1   
  5   3   6  ar  
  6   4   7  ar  
  7   4  27  1   
  8   5   8  1   
  9   6   9  ar  
 10   6  28  1   
 11   7   9  ar  
 12   7  29  1   
 13   8  30  1   
 14   8  31  1   
 15   8  32  1   
 16   9  10  1   
 17  10  11  1   
 18  10  12  2   
 19  11  13  1   
 20  12  14  1   
 21  12  15  1   
 22  13  14  2   
 23  14  16  1   
 24  15  17  2   
 25  15  18  am  
 26  16  19  1   
 27  16  20  1   
 28  18  21  1   
 29  18  33  1   
 30  19  34  1   
 31  19  35  1   
 32  19  36  1   
 33  20  37  1   
 34  20  38  1   
 35  20  39  1   
 36  21  22  1   
 37  21  23  1   
 38  21  40  1   
 39  22  24  1   
 40  22  25  1   
 41  22  41  1   
 42  23  26  1   
 43  23  42  1   
 44  23  43  1   
 45  24  44  1   
 46  25  26  1   
 47  25  45  1   
 48  25  46  1   
@<TRIPOS>SUBSTRUCTURE
  1 ****  12 GROUP 4 **** **** 0

# MOE 2024.06 (io_trps.svl 2023.06)
