@<TRIPOS>MOLECULE
NONAME
46 49 1 0 0 
SMALL
USER_CHARGES


@<TRIPOS>ATOM
  1 O       -1.4450    -1.2860    -2.3170 O.2   1 <1>  -0.5700 
  2 C       -1.9130    -1.6160    -1.2410 C.2   1 <1>   0.7150 
  3 N       -1.5630    -2.8650    -0.7450 N.am  1 <1>  -0.6600 
  4 C       -2.8130    -0.6930    -0.5690 C.2   1 <1>   0.1010 
  5 C       -1.6960    -3.2060     0.7100 C.3   1 <1>   0.2200 
  6 C       -0.9660    -3.8750    -1.6590 C.3   1 <1>   0.1400 
  7 N       -3.6090    -0.9100     0.4620 N.2   1 <1>  -0.5650 
  8 N       -2.9260     0.5860    -1.0160 N.pl3 1 <1>   0.0330 
  9 C       -0.5010    -4.0260     1.2630 C.3   1 <1>   0.1200 
 10 C       -3.0750    -3.8670     0.9670 C.3   1 <1>   0.3430 
 11 C       -1.3450    -5.3120    -1.2870 C.3   1 <1>  -0.0800 
 12 C       -4.2260     0.2630     0.6680 C.2   1 <1>   0.0770 
 13 C       -3.8220     1.1900    -0.2260 C.2   1 <1>  -0.3020 
 14 O       -0.6380    -5.4110     1.0620 O.3   1 <1>  -0.5600 
 15 N       -3.2000    -5.2740     0.4510 N.4   1 <1>  -0.9590 
 16 C       -0.3840    -5.8940    -0.2250 C.3   1 <1>   0.1200 
 17 C       -2.8550    -5.4630    -0.9940 C.3   1 <1>   0.3430 
 18 C       -4.4880    -5.8990     0.8380 C.3   1 <1>   0.4860 
 19 C       -4.3980    -7.3910     0.5740 C.ar  1 <1>  -0.1430 
 20 C       -5.1690    -8.0040    -0.3950 C.ar  1 <1>  -0.1500 
 21 C       -3.5310    -8.2070     1.2780 C.ar  1 <1>  -0.1500 
 22 C       -5.0290    -9.3640    -0.6180 C.ar  1 <1>   0.1600 
 23 C       -3.4680    -9.5560     0.9750 C.ar  1 <1>   0.1600 
 24 N       -4.1900   -10.1460     0.0390 N.ar  1 <1>  -0.6200 
 25 H       -1.6770    -2.2800     1.2560 H     1 <1>   0.0800 
 26 H       -1.3110    -3.6850    -2.6630 H     1 <1>   0.0800 
 27 H        0.1050    -3.7560    -1.6680 H     1 <1>   0.0800 
 28 H       -2.4140     0.9680    -1.8200 H     1 <1>   0.2700 
 29 H       -0.4500    -3.8820     2.3280 H     1 <1>   0.0800 
 30 H        0.4330    -3.6910     0.8440 H     1 <1>   0.0800 
 31 H       -3.8390    -3.2520     0.5230 H     1 <1>   0.0800 
 32 H       -3.2430    -3.8710     2.0310 H     1 <1>   0.0800 
 33 H       -1.1580    -5.8810    -2.1800 H     1 <1>   0.0800 
 34 H       -4.9460     0.3970     1.4590 H     1 <1>   0.1500 
 35 H       -4.1210     2.2180    -0.3360 H     1 <1>   0.1500 
 36 H       -2.4430    -5.7830     0.9450 H     1 <1>   0.4500 
 37 H        0.6430    -5.6780    -0.4710 H     1 <1>   0.0800 
 38 H       -0.4940    -6.9650    -0.1850 H     1 <1>   0.0800 
 39 H       -3.1400    -6.4590    -1.2910 H     1 <1>   0.0800 
 40 H       -3.4140    -4.7690    -1.6020 H     1 <1>   0.0800 
 41 H       -4.6800    -5.7360     1.8860 H     1 <1>   0.0800 
 42 H       -5.2960    -5.4680     0.2700 H     1 <1>   0.0800 
 43 H       -5.8800    -7.4510    -0.9830 H     1 <1>   0.1500 
 44 H       -2.9010    -7.8210     2.0600 H     1 <1>   0.1500 
 45 H       -5.6360    -9.8340    -1.3750 H     1 <1>   0.1500 
 46 H       -2.7900   -10.1850     1.5290 H     1 <1>   0.1500 
@<TRIPOS>BOND
  1   1   2  2   
  2   2   3  am  
  3   2   4  1   
  4   3   5  1   
  5   3   6  1   
  6   4   7  2   
  7   4   8  1   
  8   5   9  1   
  9   5  10  1   
 10   5  25  1   
 11   6  11  1   
 12   6  26  1   
 13   6  27  1   
 14   7  12  1   
 15   8  13  1   
 16   8  28  1   
 17   9  14  1   
 18   9  29  1   
 19   9  30  1   
 20  10  15  1   
 21  10  31  1   
 22  10  32  1   
 23  11  16  1   
 24  11  17  1   
 25  11  33  1   
 26  12  13  2   
 27  12  34  1   
 28  13  35  1   
 29  14  16  1   
 30  15  17  1   
 31  15  18  1   
 32  15  36  1   
 33  16  37  1   
 34  16  38  1   
 35  17  39  1   
 36  17  40  1   
 37  18  19  1   
 38  18  41  1   
 39  18  42  1   
 40  19  20  ar  
 41  19  21  ar  
 42  20  22  ar  
 43  20  43  1   
 44  21  23  ar  
 45  21  44  1   
 46  22  24  ar  
 47  22  45  1   
 48  23  24  ar  
 49  23  46  1   
@<TRIPOS>SUBSTRUCTURE
  1 ****  15 GROUP 4 **** **** 0

# MOE 2024.06 (io_trps.svl 2023.06)
