@<TRIPOS>MOLECULE
NONAME
45 47 1 0 0 
SMALL
USER_CHARGES


@<TRIPOS>ATOM
  1 O        1.9950     0.0250    -0.8860 O.2   1 <1>  -0.5700 
  2 C        1.9970    -0.4630     0.2270 C.2   1 <1>   0.5440 
  3 N        2.5250     0.2920     1.2490 N.am  1 <1>  -0.6600 
  4 C        1.5570    -1.8280     0.4420 C.ar  1 <1>   0.0860 
  5 C        3.7320    -0.1970     1.9670 C.3   1 <1>   0.1400 
  6 C        2.2590     1.7530     1.3030 C.3   1 <1>   0.1400 
  7 C        1.6620    -2.7990    -0.5400 C.ar  1 <1>  -0.1500 
  8 C        1.0090    -2.2670     1.6410 C.ar  1 <1>  -0.1500 
  9 C        4.9400    -0.2610     1.0070 C.3   1 <1>   0.3430 
 10 C        3.5030     2.5810     0.9600 C.3   1 <1>  -0.1600 
 11 C        1.2710    -4.1010    -0.2890 C.ar  1 <1>   0.3920 
 12 C        0.6390    -3.5880     1.7970 C.ar  1 <1>   0.1600 
 13 N        5.4340     1.0700     0.5010 N.4   1 <1>  -0.9590 
 14 C        4.3840     1.9450    -0.1170 C.3   1 <1>   0.3430 
 15 O        1.4260    -4.9870    -1.2940 O.3   1 <1>  -0.3630 
 16 N        0.7680    -4.5170     0.8670 N.ar  1 <1>  -0.6200 
 17 C        6.5470     0.8550    -0.4610 C.3   1 <1>   0.5240 
 18 C        1.0280    -6.3360    -1.1410 C.3   1 <1>   0.0400 
 19 C        7.3250     2.1450    -0.5850 C.2   1 <1>  -0.1810 
 20 C        8.3160     2.6050     0.2100 C.2   1 <1>  -0.0100 
 21 C        7.1590     3.1220    -1.5800 C.2   1 <1>  -0.1500 
 22 O        8.7450     3.7750    -0.2140 O.3   1 <1>  -0.2800 
 23 C        8.0560     4.0890    -1.2910 C.2   1 <1>  -0.0100 
 24 H        3.5380    -1.1870     2.3440 H     1 <1>   0.0800 
 25 H        3.9510     0.4340     2.8110 H     1 <1>   0.0800 
 26 H        1.8990     2.0170     2.2840 H     1 <1>   0.0800 
 27 H        1.4750     1.9900     0.6010 H     1 <1>   0.0800 
 28 H        2.0470    -2.5510    -1.5120 H     1 <1>   0.1500 
 29 H        0.8660    -1.5760     2.4510 H     1 <1>   0.1500 
 30 H        4.6610    -0.8790     0.1690 H     1 <1>   0.0800 
 31 H        5.7460    -0.7600     1.5200 H     1 <1>   0.0800 
 32 H        4.0730     2.7910     1.8470 H     1 <1>   0.0800 
 33 H        3.1540     3.5290     0.5900 H     1 <1>   0.0800 
 34 H        0.2150    -3.9030     2.7370 H     1 <1>   0.1500 
 35 H        5.8370     1.6040     1.2800 H     1 <1>   0.4500 
 36 H        4.8620     2.7440    -0.6580 H     1 <1>   0.0800 
 37 H        3.7830     1.3890    -0.8190 H     1 <1>   0.0800 
 38 H        6.1670     0.5480    -1.4220 H     1 <1>   0.0800 
 39 H        7.2080     0.0870    -0.0920 H     1 <1>   0.0800 
 40 H        1.2340    -6.8550    -2.0590 H     1 <1>   0.0800 
 41 H       -0.0260    -6.3650    -0.9270 H     1 <1>   0.0800 
 42 H        1.5870    -6.7750    -0.3340 H     1 <1>   0.0800 
 43 H        8.7830     2.1850     1.0860 H     1 <1>   0.1500 
 44 H        6.4660     3.0960    -2.4040 H     1 <1>   0.1500 
 45 H        8.2740     5.0180    -1.7920 H     1 <1>   0.1500 
@<TRIPOS>BOND
  1   1   2  2   
  2   2   3  am  
  3   2   4  1   
  4   3   5  1   
  5   3   6  1   
  6   4   7  ar  
  7   4   8  ar  
  8   5   9  1   
  9   5  24  1   
 10   5  25  1   
 11   6  10  1   
 12   6  26  1   
 13   6  27  1   
 14   7  11  ar  
 15   7  28  1   
 16   8  12  ar  
 17   8  29  1   
 18   9  13  1   
 19   9  30  1   
 20   9  31  1   
 21  10  14  1   
 22  10  32  1   
 23  10  33  1   
 24  11  15  1   
 25  11  16  ar  
 26  12  16  ar  
 27  12  34  1   
 28  13  14  1   
 29  13  17  1   
 30  13  35  1   
 31  14  36  1   
 32  14  37  1   
 33  15  18  1   
 34  17  19  1   
 35  17  38  1   
 36  17  39  1   
 37  18  40  1   
 38  18  41  1   
 39  18  42  1   
 40  19  20  2   
 41  19  21  1   
 42  20  22  1   
 43  20  43  1   
 44  21  23  2   
 45  21  44  1   
 46  22  23  1   
 47  23  45  1   
@<TRIPOS>SUBSTRUCTURE
  1 ****   9 GROUP 4 **** **** 0

# MOE 2024.06 (io_trps.svl 2023.06)
