@<TRIPOS>MOLECULE
NONAME
51 53 1 0 0 
SMALL
USER_CHARGES


@<TRIPOS>ATOM
  1 F       -0.2450     0.6110    -0.6200 F     1 <1>  -0.1900 
  2 C       -1.5290     0.8410    -0.5140 C.ar  1 <1>   0.1900 
  3 C       -2.0370     1.8440     0.3200 C.ar  1 <1>   0.0830 
  4 C       -2.3610     0.0420    -1.2750 C.ar  1 <1>  -0.1500 
  5 O       -1.3230     2.6930     1.1140 O.3   1 <1>  -0.3630 
  6 C       -3.4120     2.0100     0.3590 C.ar  1 <1>  -0.1500 
  7 C       -3.7280     0.2360    -1.2120 C.ar  1 <1>  -0.1500 
  8 C        0.0810     2.6360     1.2340 C.3   1 <1>   0.0400 
  9 C       -4.2840     1.2200    -0.3920 C.ar  1 <1>   0.0530 
 10 C       -5.7080     1.4370    -0.3240 C.2   1 <1>   0.0870 
 11 O       -6.1660     2.6610    -0.2580 O.3   1 <1>  -0.0190 
 12 C       -6.7900     0.6090    -0.3230 C.2   1 <1>  -0.0860 
 13 N       -7.4690     2.7210    -0.2210 N.2   1 <1>  -0.4100 
 14 C       -7.8720     1.5000    -0.2590 C.2   1 <1>   0.3720 
 15 C       -6.8810    -0.8200    -0.3600 C.2   1 <1>   0.7160 
 16 N       -9.2310     1.1420    -0.2110 N.pl3 1 <1>  -0.8210 
 17 O       -5.9260    -1.5290    -0.1110 O.2   1 <1>  -0.5700 
 18 N       -8.0630    -1.4140    -0.6740 N.am  1 <1>  -0.7300 
 19 C       -9.7170     0.9510     1.1840 C.3   1 <1>   0.1290 
 20 C      -10.1290     2.0510    -0.9790 C.3   1 <1>   0.1290 
 21 C       -8.3950    -2.8500    -0.5750 C.3   1 <1>   0.1400 
 22 C       -9.7210    -3.0320     0.1750 C.3   1 <1>  -0.0800 
 23 C       -9.9920    -4.5280     0.4000 C.3   1 <1>   0.1200 
 24 C      -10.9060    -2.3890    -0.5720 C.3   1 <1>  -0.1600 
 25 O      -11.2060    -4.6930     1.0670 O.3   1 <1>  -0.5600 
 26 C      -12.2230    -2.7460     0.1280 C.3   1 <1>  -0.1600 
 27 C      -12.3260    -4.2570     0.3610 C.3   1 <1>   0.1200 
 28 H       -1.9420    -0.7210    -1.9050 H     1 <1>   0.1500 
 29 H       -3.8150     2.7770     0.9960 H     1 <1>   0.1500 
 30 H       -4.3740    -0.3850    -1.8070 H     1 <1>   0.1500 
 31 H        0.3870     3.3900     1.9350 H     1 <1>   0.0800 
 32 H        0.5240     2.8310     0.2730 H     1 <1>   0.0800 
 33 H        0.3620     1.6630     1.5980 H     1 <1>   0.0800 
 34 H       -8.8550    -0.7600    -0.7600 H     1 <1>   0.3700 
 35 H       -9.0840     0.2490     1.7000 H     1 <1>   0.0800 
 36 H      -10.7220     0.5670     1.1770 H     1 <1>   0.0800 
 37 H       -9.6980     1.8890     1.7120 H     1 <1>   0.0800 
 38 H       -9.7160     2.2310    -1.9570 H     1 <1>   0.0800 
 39 H      -10.2300     2.9940    -0.4690 H     1 <1>   0.0800 
 40 H      -11.1000     1.6020    -1.0910 H     1 <1>   0.0800 
 41 H       -7.6060    -3.3660    -0.0520 H     1 <1>   0.0800 
 42 H       -8.4680    -3.2640    -1.5660 H     1 <1>   0.0800 
 43 H       -9.6200    -2.5780     1.1460 H     1 <1>   0.0800 
 44 H       -9.2230    -4.9620     1.0160 H     1 <1>   0.0800 
 45 H      -10.0380    -5.0640    -0.5320 H     1 <1>   0.0800 
 46 H      -10.9350    -2.7570    -1.5830 H     1 <1>   0.0800 
 47 H      -10.7990    -1.3190    -0.6100 H     1 <1>   0.0800 
 48 H      -13.0560    -2.4160    -0.4670 H     1 <1>   0.0800 
 49 H      -12.2790    -2.2480     1.0800 H     1 <1>   0.0800 
 50 H      -13.1970    -4.4910     0.9490 H     1 <1>   0.0800 
 51 H      -12.3770    -4.7960    -0.5710 H     1 <1>   0.0800 
@<TRIPOS>BOND
  1   1   2  1   
  2   2   3  ar  
  3   2   4  ar  
  4   3   5  1   
  5   3   6  ar  
  6   4   7  ar  
  7   4  28  1   
  8   5   8  1   
  9   6   9  ar  
 10   6  29  1   
 11   7   9  ar  
 12   7  30  1   
 13   8  31  1   
 14   8  32  1   
 15   8  33  1   
 16   9  10  1   
 17  10  11  1   
 18  10  12  2   
 19  11  13  1   
 20  12  14  1   
 21  12  15  1   
 22  13  14  2   
 23  14  16  1   
 24  15  17  2   
 25  15  18  am  
 26  16  19  1   
 27  16  20  1   
 28  18  21  1   
 29  18  34  1   
 30  19  35  1   
 31  19  36  1   
 32  19  37  1   
 33  20  38  1   
 34  20  39  1   
 35  20  40  1   
 36  21  22  1   
 37  21  41  1   
 38  21  42  1   
 39  22  23  1   
 40  22  24  1   
 41  22  43  1   
 42  23  25  1   
 43  23  44  1   
 44  23  45  1   
 45  24  26  1   
 46  24  46  1   
 47  24  47  1   
 48  25  27  1   
 49  26  27  1   
 50  26  48  1   
 51  26  49  1   
 52  27  50  1   
 53  27  51  1   
@<TRIPOS>SUBSTRUCTURE
  1 ****  12 GROUP 4 **** **** 0

# MOE 2024.06 (io_trps.svl 2023.06)
