@<TRIPOS>MOLECULE
NONAME
51 53 1 0 0 
SMALL
USER_CHARGES


@<TRIPOS>ATOM
  1 O       -2.7980     1.3810    -1.9340 O.2   1 <1>  -0.5700 
  2 C       -2.0150     1.7730    -1.0820 C.2   1 <1>   0.5440 
  3 N       -1.4380     0.8150    -0.2540 N.am  1 <1>  -0.6600 
  4 C       -1.7620     3.2160    -0.9660 C.ar  1 <1>   0.3960 
  5 C       -1.5540    -0.6440    -0.5330 C.3   1 <1>   0.0600 
  6 C       -0.6760     1.1500     0.9790 C.3   1 <1>   0.0600 
  7 N       -0.5320     3.6730    -0.6730 N.ar  1 <1>  -0.6200 
  8 C       -2.8280     4.0900    -1.1780 C.ar  1 <1>  -0.1500 
  9 C       -0.3670     4.9830    -0.5930 C.ar  1 <1>   0.4100 
 10 C       -2.6620     5.4540    -1.0850 C.ar  1 <1>  -0.1500 
 11 N        0.9060     5.4440    -0.3130 N.pl3 1 <1>  -0.8380 
 12 C       -1.3990     5.8960    -0.7830 C.ar  1 <1>  -0.1500 
 13 C        1.5880     6.2640    -1.3580 C.3   1 <1>   0.2090 
 14 C        1.7930     4.6000     0.5320 C.3   1 <1>   0.2090 
 15 C        1.9310     7.6700    -0.8350 C.3   1 <1>   0.2090 
 16 C        3.0400     5.3420     1.0300 C.3   1 <1>  -0.1600 
 17 N        3.0130     7.6930     0.2080 N.pl3 1 <1>  -0.8380 
 18 C        2.7970     6.8100     1.3930 C.3   1 <1>   0.2090 
 19 C        4.0700     8.5430     0.1430 C.ar  1 <1>   0.1000 
 20 C        3.9420     9.9460     0.0930 C.ar  1 <1>  -0.1430 
 21 C        5.3670     8.0170     0.1330 C.ar  1 <1>  -0.1500 
 22 C        5.0680    10.7300     0.0120 C.ar  1 <1>   0.2110 
 23 C        2.5710    10.6140     0.1610 C.3   1 <1>  -0.0970 
 24 C        6.4630     8.8330     0.0540 C.ar  1 <1>   0.2110 
 25 N        6.3060    10.1770    -0.0110 N.ar  1 <1>  -0.1790 
 26 H       -1.9190    -0.8150    -1.5310 H     1 <1>   0.0800 
 27 H       -2.2370    -1.0920     0.1660 H     1 <1>   0.0800 
 28 H       -0.5890    -1.1110    -0.4410 H     1 <1>   0.0800 
 29 H       -1.0200     2.0820     1.3930 H     1 <1>   0.0800 
 30 H        0.3700     1.2370     0.7410 H     1 <1>   0.0800 
 31 H       -0.8100     0.3800     1.7180 H     1 <1>   0.0800 
 32 H       -3.7950     3.6840    -1.4190 H     1 <1>   0.1500 
 33 H       -3.4820     6.1350    -1.2420 H     1 <1>   0.1500 
 34 H       -1.1940     6.9440    -0.6850 H     1 <1>   0.1500 
 35 H        0.9370     6.3630    -2.2090 H     1 <1>   0.0800 
 36 H        2.4830     5.7720    -1.6950 H     1 <1>   0.0800 
 37 H        2.0880     3.7250    -0.0220 H     1 <1>   0.0800 
 38 H        1.2220     4.2690     1.3840 H     1 <1>   0.0800 
 39 H        1.0380     8.1140    -0.4300 H     1 <1>   0.0800 
 40 H        2.2470     8.2670    -1.6710 H     1 <1>   0.0800 
 41 H        3.8210     5.2680     0.2960 H     1 <1>   0.0800 
 42 H        3.3860     4.8260     1.9070 H     1 <1>   0.0800 
 43 H        3.4850     7.0990     2.1690 H     1 <1>   0.0800 
 44 H        1.7980     6.9440     1.7750 H     1 <1>   0.0800 
 45 H        5.4840     6.9500     0.1810 H     1 <1>   0.1500 
 46 H        4.9900    11.8040    -0.0300 H     1 <1>   0.1500 
 47 H        1.9690    10.1430     0.9190 H     1 <1>   0.0800 
 48 H        2.0650    10.5270    -0.7830 H     1 <1>   0.0800 
 49 H        2.6520    11.6580     0.4060 H     1 <1>   0.0800 
 50 H        7.4600     8.4230     0.0410 H     1 <1>   0.1500 
 51 H        7.1310    10.7830    -0.0720 H     1 <1>   0.4570 
@<TRIPOS>BOND
  1   1   2  2   
  2   2   3  am  
  3   2   4  1   
  4   3   5  1   
  5   3   6  1   
  6   4   7  ar  
  7   4   8  ar  
  8   5  26  1   
  9   5  27  1   
 10   5  28  1   
 11   6  29  1   
 12   6  30  1   
 13   6  31  1   
 14   7   9  ar  
 15   8  10  ar  
 16   8  32  1   
 17   9  11  1   
 18   9  12  ar  
 19  10  12  ar  
 20  10  33  1   
 21  11  13  1   
 22  11  14  1   
 23  12  34  1   
 24  13  15  1   
 25  13  35  1   
 26  13  36  1   
 27  14  16  1   
 28  14  37  1   
 29  14  38  1   
 30  15  17  1   
 31  15  39  1   
 32  15  40  1   
 33  16  18  1   
 34  16  41  1   
 35  16  42  1   
 36  17  18  1   
 37  17  19  1   
 38  18  43  1   
 39  18  44  1   
 40  19  20  ar  
 41  19  21  ar  
 42  20  22  ar  
 43  20  23  1   
 44  21  24  ar  
 45  21  45  1   
 46  22  25  ar  
 47  22  46  1   
 48  23  47  1   
 49  23  48  1   
 50  23  49  1   
 51  24  25  ar  
 52  24  50  1   
 53  25  51  1   
@<TRIPOS>SUBSTRUCTURE
  1 ****  11 GROUP 4 **** **** 0

# MOE 2024.06 (io_trps.svl 2023.06)
