@<TRIPOS>MOLECULE
NONAME
51 53 1 0 0 
SMALL
USER_CHARGES


@<TRIPOS>ATOM
  1 S        0.3070     1.6380     0.9200 S.3   1 <1>  -0.2420 
  2 C        1.6810     1.9390    -0.1430 C.2   1 <1>   0.6510 
  3 C        0.2140    -0.0580     0.4110 C.2   1 <1>  -0.0370 
  4 N        2.2660     3.0930    -0.2290 N.2   1 <1>  -0.6210 
  5 N        2.0020     0.7880    -0.8090 N.am  1 <1>  -0.2290 
  6 C        1.1740    -0.3110    -0.4880 C.2   1 <1>  -0.0410 
  7 C       -0.8760    -0.8970     1.0420 C.3   1 <1>  -0.1020 
  8 C        3.3240     3.1590    -1.1000 C.2   1 <1>   0.0330 
  9 C        3.0660     0.8300    -1.6750 C.2   1 <1>   0.6160 
 10 C        3.7330     2.0740    -1.8090 C.2   1 <1>  -0.1360 
 11 C        4.0140     4.5200    -1.2120 C.3   1 <1>   0.4810 
 12 O        3.4160    -0.1620    -2.2910 O.2   1 <1>  -0.5700 
 13 N        3.9340     5.2000     0.1130 N.4   1 <1>  -0.9590 
 14 C        5.1510     5.0080     0.9650 C.3   1 <1>   0.5610 
 15 C        3.5840     6.6470    -0.0680 C.3   1 <1>   0.4230 
 16 C        6.2770     5.8420     0.3730 C.2   1 <1>  -0.2880 
 17 C        5.5420     3.5290     1.1400 C.3   1 <1>  -0.0220 
 18 C        4.7150     7.4030    -0.8070 C.3   1 <1>  -0.0220 
 19 C        3.2410     7.2990     1.2850 C.3   1 <1>  -0.0220 
 20 C        6.1040     6.9050    -0.4210 C.2   1 <1>  -0.2760 
 21 C        6.6020     3.3500     2.2160 C.2   1 <1>  -0.2880 
 22 C        2.4350     8.5860     1.1580 C.2   1 <1>  -0.2880 
 23 C        7.2510     7.7180    -0.9990 C.3   1 <1>  -0.1020 
 24 C        7.8300     2.8680     2.0020 C.2   1 <1>  -0.3000 
 25 C        1.9070     9.1270     0.0530 C.2   1 <1>  -0.3000 
 26 H        1.3670    -1.2530    -0.9770 H     1 <1>   0.1500 
 27 H       -1.8400    -0.4770     0.8180 H     1 <1>   0.0800 
 28 H       -0.7490    -0.9240     2.1100 H     1 <1>   0.0800 
 29 H       -0.8390    -1.9030     0.6630 H     1 <1>   0.0800 
 30 H        4.5600     2.0890    -2.4960 H     1 <1>   0.1500 
 31 H        3.4840     5.1010    -1.9480 H     1 <1>   0.0800 
 32 H        5.0380     4.4170    -1.5310 H     1 <1>   0.0800 
 33 H        3.1390     4.7230     0.5680 H     1 <1>   0.4500 
 34 H        4.9460     5.3920     1.9510 H     1 <1>   0.0800 
 35 H        2.6930     6.7040    -0.6710 H     1 <1>   0.0800 
 36 H        7.2530     5.5010     0.6770 H     1 <1>   0.1500 
 37 H        4.6790     2.9600     1.4330 H     1 <1>   0.0800 
 38 H        5.9210     3.1340     0.2150 H     1 <1>   0.0800 
 39 H        4.5820     7.2890    -1.8680 H     1 <1>   0.0800 
 40 H        4.6390     8.4570    -0.5980 H     1 <1>   0.0800 
 41 H        2.6570     6.6150     1.8760 H     1 <1>   0.0800 
 42 H        4.1480     7.5210     1.8210 H     1 <1>   0.0800 
 43 H        6.2730     3.6470     3.2000 H     1 <1>   0.1500 
 44 H        2.3070     9.0660     2.1170 H     1 <1>   0.1500 
 45 H        7.2160     7.7080    -2.0740 H     1 <1>   0.0800 
 46 H        8.1990     7.3160    -0.6890 H     1 <1>   0.0800 
 47 H        7.1940     8.7390    -0.6620 H     1 <1>   0.0800 
 48 H        8.5670     2.7440     2.7790 H     1 <1>   0.1500 
 49 H        8.2110     2.5510     1.0460 H     1 <1>   0.1500 
 50 H        1.3460    10.0480     0.0660 H     1 <1>   0.1500 
 51 H        1.9660     8.7330    -0.9460 H     1 <1>   0.1500 
@<TRIPOS>BOND
  1   1   2  1   
  2   1   3  1   
  3   2   4  2   
  4   2   5  1   
  5   3   6  2   
  6   3   7  1   
  7   4   8  1   
  8   5   6  1   
  9   5   9  am  
 10   6  26  1   
 11   7  27  1   
 12   7  28  1   
 13   7  29  1   
 14   8  10  2   
 15   8  11  1   
 16   9  10  1   
 17   9  12  2   
 18  10  30  1   
 19  11  13  1   
 20  11  31  1   
 21  11  32  1   
 22  13  14  1   
 23  13  15  1   
 24  13  33  1   
 25  14  16  1   
 26  14  17  1   
 27  14  34  1   
 28  15  18  1   
 29  15  19  1   
 30  15  35  1   
 31  16  20  2   
 32  16  36  1   
 33  17  21  1   
 34  17  37  1   
 35  17  38  1   
 36  18  20  1   
 37  18  39  1   
 38  18  40  1   
 39  19  22  1   
 40  19  41  1   
 41  19  42  1   
 42  20  23  1   
 43  21  24  2   
 44  21  43  1   
 45  22  25  2   
 46  22  44  1   
 47  23  45  1   
 48  23  46  1   
 49  23  47  1   
 50  24  48  1   
 51  24  49  1   
 52  25  50  1   
 53  25  51  1   
@<TRIPOS>SUBSTRUCTURE
  1 ****   8 GROUP 4 **** **** 0

# MOE 2024.06 (io_trps.svl 2023.06)
