@<TRIPOS>MOLECULE
NONAME
41 43 1 0 0 
SMALL
USER_CHARGES


@<TRIPOS>ATOM
  1 S        0.1400    -0.5150     1.7550 S.3   1 <1>  -0.0800 
  2 C        0.6080     1.1050     1.2210 C.ar  1 <1>   0.0400 
  3 C        0.9110    -1.2620     0.3500 C.2   1 <1>  -0.1400 
  4 C        1.3140     1.0260     0.0300 C.ar  1 <1>   0.0000 
  5 C        0.3330     2.2980     1.8630 C.ar  1 <1>  -0.1500 
  6 C        1.4710    -0.3240    -0.4360 C.2   1 <1>  -0.1500 
  7 C        0.8360    -2.7740     0.2390 C.3   1 <1>   0.2900 
  8 C        1.7640     2.2130    -0.5410 C.ar  1 <1>  -0.1500 
  9 C        0.7890     3.4670     1.2800 C.ar  1 <1>  -0.1500 
 10 N       -0.5610    -3.2260     0.1040 N.3   1 <1>  -0.8100 
 11 C        1.5010     3.4210     0.0840 C.ar  1 <1>  -0.1500 
 12 C       -1.2560    -2.6210    -1.0590 C.3   1 <1>   0.1100 
 13 C       -0.6620    -4.7030     0.0640 C.3   1 <1>   0.1100 
 14 C       -2.6580    -3.2250    -1.3150 C.3   1 <1>   0.3430 
 15 C       -2.1290    -5.1900     0.0760 C.3   1 <1>   0.3430 
 16 N       -3.1170    -4.0760    -0.1780 N.4   1 <1>  -0.9590 
 17 C       -4.5200    -4.5520    -0.3840 C.3   1 <1>   0.3430 
 18 C       -5.0350    -5.4030     0.7630 C.3   1 <1>  -0.2660 
 19 C       -4.4920    -6.7800     0.5740 C.2   1 <1>   0.9060 
 20 O       -4.6130    -7.2890    -0.5400 O.co2 1 <1>  -0.9000 
 21 O       -3.7790    -7.2490     1.4580 O.co2 1 <1>  -0.9000 
 22 H       -0.2170     2.3070     2.7870 H     1 <1>   0.1500 
 23 H        2.0060    -0.5110    -1.3500 H     1 <1>   0.1500 
 24 H        1.2670    -3.2060     1.1270 H     1 <1>   0.0800 
 25 H        1.4110    -3.1010    -0.6110 H     1 <1>   0.0800 
 26 H        2.3140     2.1840    -1.4630 H     1 <1>   0.1500 
 27 H        0.5950     4.4150     1.7510 H     1 <1>   0.1500 
 28 H        1.8490     4.3390    -0.3580 H     1 <1>   0.1500 
 29 H       -0.6590    -2.7370    -1.9470 H     1 <1>   0.0800 
 30 H       -1.3720    -1.5640    -0.8860 H     1 <1>   0.0800 
 31 H       -0.1610    -5.1290     0.9180 H     1 <1>   0.0800 
 32 H       -0.1770    -5.0810    -0.8200 H     1 <1>   0.0800 
 33 H       -2.6190    -3.8240    -2.2100 H     1 <1>   0.0800 
 34 H       -3.3580    -2.4260    -1.4870 H     1 <1>   0.0800 
 35 H       -2.3230    -5.6210     1.0440 H     1 <1>   0.0800 
 36 H       -2.2590    -5.9790    -0.6480 H     1 <1>   0.0800 
 37 H       -3.0570    -3.4940     0.6680 H     1 <1>   0.4500 
 38 H       -4.5790    -5.1280    -1.2950 H     1 <1>   0.0800 
 39 H       -5.1670    -3.6980    -0.4920 H     1 <1>   0.0800 
 40 H       -6.1030    -5.4760     0.7090 H     1 <1>   0.0800 
 41 H       -4.7550    -5.0090     1.7210 H     1 <1>   0.0800 
@<TRIPOS>BOND
  1   1   2  1   
  2   1   3  1   
  3   2   4  ar  
  4   2   5  ar  
  5   3   6  2   
  6   3   7  1   
  7   4   6  1   
  8   4   8  ar  
  9   5   9  ar  
 10   5  22  1   
 11   6  23  1   
 12   7  10  1   
 13   7  24  1   
 14   7  25  1   
 15   8  11  ar  
 16   8  26  1   
 17   9  11  ar  
 18   9  27  1   
 19  10  12  1   
 20  10  13  1   
 21  11  28  1   
 22  12  14  1   
 23  12  29  1   
 24  12  30  1   
 25  13  15  1   
 26  13  31  1   
 27  13  32  1   
 28  14  16  1   
 29  14  33  1   
 30  14  34  1   
 31  15  16  1   
 32  15  35  1   
 33  15  36  1   
 34  16  17  1   
 35  16  37  1   
 36  17  18  1   
 37  17  38  1   
 38  17  39  1   
 39  18  19  1   
 40  18  40  1   
 41  18  41  1   
 42  19  20  ar  
 43  19  21  ar  
@<TRIPOS>SUBSTRUCTURE
  1 ****  10 GROUP 4 **** **** 0

# MOE 2024.06 (io_trps.svl 2023.06)
