@<TRIPOS>MOLECULE
NONAME
48 50 1 0 0 
SMALL
USER_CHARGES


@<TRIPOS>ATOM
  1 O       -1.8640     0.4690     1.2240 O.2   1 <1>  -0.5700 
  2 C       -1.9440     1.3270     0.3590 C.2   1 <1>   0.7670 
  3 N       -1.1810     2.4560     0.5350 N.2   1 <1>  -0.6610 
  4 C       -2.7930     1.1850    -0.7810 C.2   1 <1>   0.0290 
  5 C       -1.2060     3.3580    -0.3690 C.2   1 <1>   0.4390 
  6 C       -3.6180     0.0240    -0.9320 C.2   1 <1>   0.6160 
  7 C       -2.7620     2.1790    -1.7150 C.2   1 <1>  -0.0500 
  8 N       -1.9650     3.2620    -1.4990 N.pl3 1 <1>  -0.5500 
  9 C       -0.3700     4.6040    -0.2170 C.3   1 <1>  -0.1790 
 10 O       -3.5760    -0.5720    -1.9950 O.2   1 <1>  -0.5700 
 11 N       -4.5160    -0.4160     0.0220 N.am  1 <1>  -0.6600 
 12 C       -5.1120    -1.7800    -0.0930 C.3   1 <1>   0.1400 
 13 C       -4.9120     0.3930     1.2140 C.3   1 <1>   0.1400 
 14 C       -6.4180    -1.7380    -0.8980 C.3   1 <1>   0.1400 
 15 C       -6.4220     0.3930     1.4950 C.3   1 <1>  -0.1600 
 16 N       -7.5280    -1.0980    -0.1270 N.am  1 <1>  -0.6600 
 17 C       -7.3130     0.3270     0.2490 C.3   1 <1>   0.1400 
 18 C       -8.7120    -1.7470     0.1630 C.2   1 <1>   0.7160 
 19 O       -9.6900    -1.0880     0.4650 O.2   1 <1>  -0.5700 
 20 C       -8.8160    -3.1880     0.1220 C.2   1 <1>  -0.0860 
 21 C       -9.7610    -3.9730    -0.4650 C.2   1 <1>  -0.0400 
 22 C       -7.9310    -4.1090     0.7220 C.2   1 <1>  -0.1500 
 23 O       -9.5010    -5.2450    -0.2800 O.3   1 <1>  -0.2800 
 24 C      -10.9970    -3.6020    -1.2560 C.3   1 <1>  -0.0600 
 25 C       -8.4030    -5.3380     0.4360 C.2   1 <1>  -0.0400 
 26 C       -7.8910    -6.7140     0.8000 C.3   1 <1>  -0.0600 
 27 H       -3.3480     2.1300    -2.6210 H     1 <1>   0.1500 
 28 H       -1.9070     4.0230    -2.1830 H     1 <1>   0.4000 
 29 H        0.3300     4.6780    -1.0280 H     1 <1>   0.0800 
 30 H        0.1800     4.5670     0.7070 H     1 <1>   0.0800 
 31 H       -1.0020     5.4720    -0.2050 H     1 <1>   0.0800 
 32 H       -5.2870    -2.1950     0.8830 H     1 <1>   0.0800 
 33 H       -4.4150    -2.4260    -0.5990 H     1 <1>   0.0800 
 34 H       -4.6090     1.4140     1.0650 H     1 <1>   0.0800 
 35 H       -4.3860     0.0240     2.0790 H     1 <1>   0.0800 
 36 H       -6.6850    -2.7400    -1.1800 H     1 <1>   0.0800 
 37 H       -6.2530    -1.1900    -1.8100 H     1 <1>   0.0800 
 38 H       -6.6490     1.3000     2.0260 H     1 <1>   0.0800 
 39 H       -6.6720    -0.4170     2.1580 H     1 <1>   0.0800 
 40 H       -6.8690     0.8650    -0.5710 H     1 <1>   0.0800 
 41 H       -8.2580     0.7950     0.4690 H     1 <1>   0.0800 
 42 H       -7.0630    -3.8430     1.2960 H     1 <1>   0.1500 
 43 H      -11.0870    -2.5340    -1.3410 H     1 <1>   0.0800 
 44 H      -11.8700    -3.9840    -0.7590 H     1 <1>   0.0800 
 45 H      -10.9400    -4.0280    -2.2410 H     1 <1>   0.0800 
 46 H       -6.9920    -6.6350     1.3830 H     1 <1>   0.0800 
 47 H       -7.6840    -7.2720    -0.0940 H     1 <1>   0.0800 
 48 H       -8.6360    -7.2360     1.3720 H     1 <1>   0.0800 
@<TRIPOS>BOND
  1   1   2  2   
  2   2   3  1   
  3   2   4  1   
  4   3   5  2   
  5   4   6  1   
  6   4   7  2   
  7   5   8  1   
  8   5   9  1   
  9   6  10  2   
 10   6  11  am  
 11   7   8  1   
 12   7  27  1   
 13   8  28  1   
 14   9  29  1   
 15   9  30  1   
 16   9  31  1   
 17  11  12  1   
 18  11  13  1   
 19  12  14  1   
 20  12  32  1   
 21  12  33  1   
 22  13  15  1   
 23  13  34  1   
 24  13  35  1   
 25  14  16  1   
 26  14  36  1   
 27  14  37  1   
 28  15  17  1   
 29  15  38  1   
 30  15  39  1   
 31  16  17  1   
 32  16  18  am  
 33  17  40  1   
 34  17  41  1   
 35  18  19  2   
 36  18  20  1   
 37  20  21  2   
 38  20  22  1   
 39  21  23  1   
 40  21  24  1   
 41  22  25  2   
 42  22  42  1   
 43  23  25  1   
 44  24  43  1   
 45  24  44  1   
 46  24  45  1   
 47  25  26  1   
 48  26  46  1   
 49  26  47  1   
 50  26  48  1   
@<TRIPOS>SUBSTRUCTURE
  1 ****  12 GROUP 4 **** **** 0

# MOE 2024.06 (io_trps.svl 2023.06)
