@<TRIPOS>MOLECULE
NONAME
58 61 1 0 0 
SMALL
USER_CHARGES


@<TRIPOS>ATOM
  1 F       -0.2860     2.2600     0.5710 F     1 <1>  -0.1900 
  2 C        0.9690     2.4530     0.2740 C.ar  1 <1>   0.1900 
  3 C        1.9310     2.1620     1.2210 C.ar  1 <1>  -0.1500 
  4 C        1.2910     2.9420    -0.9770 C.ar  1 <1>  -0.1500 
  5 C        3.2620     2.3730     0.9030 C.ar  1 <1>  -0.1500 
  6 C        2.6240     3.1510    -1.2870 C.ar  1 <1>  -0.1500 
  7 C        3.6130     2.8760    -0.3460 C.ar  1 <1>  -0.1440 
  8 C        5.0710     3.1320    -0.6790 C.3   1 <1>   0.4870 
  9 N        5.3040     4.6070    -0.6700 N.4   1 <1>  -0.9590 
 10 C        6.6440     4.9490    -1.2220 C.3   1 <1>   0.3430 
 11 C        5.0680     5.1910     0.6840 C.3   1 <1>   0.3430 
 12 C        6.7910     6.4690    -1.3130 C.3   1 <1>  -0.1600 
 13 C        5.1930     6.7130     0.6180 C.3   1 <1>  -0.1600 
 14 C        6.5380     7.1510     0.0340 C.3   1 <1>   0.2890 
 15 N        6.4830     8.6050    -0.1940 N.pl3 1 <1>  -0.8690 
 16 C        7.1450     9.6790     0.2590 C.ar  1 <1>   0.7710 
 17 N        6.7340    10.8240    -0.2370 N.ar  1 <1>  -0.6200 
 18 N        8.1500     9.5840     1.1510 N.ar  1 <1>  -0.1790 
 19 C        7.3230    11.9320     0.1730 C.ar  1 <1>   0.4100 
 20 C        8.8000    10.6950     1.5790 C.ar  1 <1>   0.2110 
 21 N        6.8640    13.1120    -0.3180 N.pl3 1 <1>  -0.8380 
 22 C        8.3940    11.8900     1.0890 C.ar  1 <1>  -0.1500 
 23 C        6.8920    14.4140     0.4280 C.3   1 <1>   0.2090 
 24 C        6.1910    13.2270    -1.6490 C.3   1 <1>   0.2090 
 25 C        7.6200    15.4870    -0.4000 C.3   1 <1>   0.2000 
 26 C        6.9120    14.2820    -2.4990 C.3   1 <1>  -0.1600 
 27 O        7.5490    16.7060     0.2520 O.3   1 <1>  -0.6800 
 28 C        6.9980    15.6460    -1.7920 C.3   1 <1>  -0.1600 
 29 H        1.6360     1.7750     2.1810 H     1 <1>   0.1500 
 30 H        0.5080     3.1470    -1.6870 H     1 <1>   0.1500 
 31 H        4.0110     2.1370     1.6410 H     1 <1>   0.1500 
 32 H        2.8710     3.5220    -2.2670 H     1 <1>   0.1500 
 33 H        5.2870     2.7250    -1.6540 H     1 <1>   0.0800 
 34 H        5.7060     2.6440     0.0430 H     1 <1>   0.0800 
 35 H        4.5820     4.9960    -1.2910 H     1 <1>   0.4500 
 36 H        6.7590     4.5200    -2.2060 H     1 <1>   0.0800 
 37 H        7.4160     4.5460    -0.5870 H     1 <1>   0.0800 
 38 H        5.7850     4.7940     1.3850 H     1 <1>   0.0800 
 39 H        4.0790     4.9330     1.0320 H     1 <1>   0.0800 
 40 H        6.1000     6.8370    -2.0520 H     1 <1>   0.0800 
 41 H        7.7860     6.7000    -1.6510 H     1 <1>   0.0800 
 42 H        5.0850     7.1110     1.6120 H     1 <1>   0.0800 
 43 H        4.3830     7.0970     0.0220 H     1 <1>   0.0800 
 44 H        7.3300     6.9020     0.7210 H     1 <1>   0.0800 
 45 H        5.7500     8.8860    -0.8570 H     1 <1>   0.4000 
 46 H        8.4000     8.6600     1.4800 H     1 <1>   0.4570 
 47 H        9.6130    10.5990     2.2830 H     1 <1>   0.1500 
 48 H        8.8810    12.8030     1.3740 H     1 <1>   0.1500 
 49 H        7.3700    14.3090     1.3830 H     1 <1>   0.0800 
 50 H        5.8770    14.7280     0.5980 H     1 <1>   0.0800 
 51 H        5.1620    13.5100    -1.5040 H     1 <1>   0.0800 
 52 H        6.2070    12.2860    -2.1730 H     1 <1>   0.0800 
 53 H        8.6610    15.2250    -0.4820 H     1 <1>   0.0800 
 54 H        6.3930    14.3950    -3.4340 H     1 <1>   0.0800 
 55 H        7.9030    13.9250    -2.7200 H     1 <1>   0.0800 
 56 H        6.6620    17.0990     0.1490 H     1 <1>   0.4000 
 57 H        7.5980    16.3180    -2.3800 H     1 <1>   0.0800 
 58 H        6.0060    16.0520    -1.7040 H     1 <1>   0.0800 
@<TRIPOS>BOND
  1   1   2  1   
  2   2   3  ar  
  3   2   4  ar  
  4   3   5  ar  
  5   3  29  1   
  6   4   6  ar  
  7   4  30  1   
  8   5   7  ar  
  9   5  31  1   
 10   6   7  ar  
 11   6  32  1   
 12   7   8  1   
 13   8   9  1   
 14   8  33  1   
 15   8  34  1   
 16   9  10  1   
 17   9  11  1   
 18   9  35  1   
 19  10  12  1   
 20  10  36  1   
 21  10  37  1   
 22  11  13  1   
 23  11  38  1   
 24  11  39  1   
 25  12  14  1   
 26  12  40  1   
 27  12  41  1   
 28  13  14  1   
 29  13  42  1   
 30  13  43  1   
 31  14  15  1   
 32  14  44  1   
 33  15  16  1   
 34  15  45  1   
 35  16  17  ar  
 36  16  18  ar  
 37  17  19  ar  
 38  18  20  ar  
 39  18  46  1   
 40  19  21  1   
 41  19  22  ar  
 42  20  22  ar  
 43  20  47  1   
 44  21  23  1   
 45  21  24  1   
 46  22  48  1   
 47  23  25  1   
 48  23  49  1   
 49  23  50  1   
 50  24  26  1   
 51  24  51  1   
 52  24  52  1   
 53  25  27  1   
 54  25  28  1   
 55  25  53  1   
 56  26  28  1   
 57  26  54  1   
 58  26  55  1   
 59  27  56  1   
 60  28  57  1   
 61  28  58  1   
@<TRIPOS>SUBSTRUCTURE
  1 ****  15 GROUP 4 **** **** 0

# MOE 2024.06 (io_trps.svl 2023.06)
