@<TRIPOS>MOLECULE
NONAME
53 55 1 0 0 
SMALL
USER_CHARGES


@<TRIPOS>ATOM
  1 S       -0.8090     0.4930    -1.9020 S.3   1 <1>  -0.0800 
  2 C       -0.7880     0.6600    -0.1570 C.2   1 <1>   0.1980 
  3 C       -0.5300     2.2030    -2.0440 C.2   1 <1>  -0.1100 
  4 N       -0.5930     1.8540     0.2440 N.2   1 <1>  -0.5650 
  5 C       -0.9960    -0.5860     0.6980 C.3   1 <1>   0.1000 
  6 C       -0.4460     2.7350    -0.8130 C.2   1 <1>   0.0460 
  7 C        0.1210    -1.6150     0.4740 C.3   1 <1>  -0.2400 
  8 C       -2.3710    -1.2200     0.4490 C.3   1 <1>  -0.2400 
  9 C       -0.2080     4.1850    -0.4300 C.3   1 <1>   0.0210 
 10 C        0.2240     5.0440    -1.6200 C.3   1 <1>   0.2090 
 11 N        0.5860     6.4110    -1.1660 N.pl3 1 <1>  -0.8690 
 12 C        1.7570     6.8750    -0.7010 C.ar  1 <1>   0.4100 
 13 N        1.7760     8.1600    -0.4320 N.ar  1 <1>  -0.6200 
 14 C        2.8790     6.0510    -0.5030 C.ar  1 <1>  -0.1500 
 15 C        2.9000     8.6860     0.0350 C.ar  1 <1>   0.7710 
 16 C        4.0160     6.6010    -0.0160 C.ar  1 <1>   0.2180 
 17 N        3.9940     7.9300     0.2460 N.ar  1 <1>  -0.1790 
 18 N        2.9510    10.0180     0.3130 N.pl3 1 <1>  -0.8380 
 19 C        5.2900     5.8100     0.2510 C.3   1 <1>  -0.0170 
 20 C        4.1610    10.8350     0.6870 C.3   1 <1>   0.2090 
 21 C        1.7200    10.8930     0.2460 C.3   1 <1>   0.2090 
 22 C        5.6470     5.7770     1.7430 C.3   1 <1>  -0.2400 
 23 C        4.2790    12.0920    -0.1970 C.3   1 <1>   0.1200 
 24 C        1.9710    12.1490    -0.6050 C.3   1 <1>   0.1200 
 25 O        3.1000    12.8360    -0.1460 O.3   1 <1>  -0.5600 
 26 H       -0.4630     2.6110    -3.0350 H     1 <1>   0.1500 
 27 H       -0.9560    -0.2740     1.7270 H     1 <1>   0.0800 
 28 H        0.1040    -1.9830    -0.5370 H     1 <1>   0.0800 
 29 H        0.0030    -2.4460     1.1460 H     1 <1>   0.0800 
 30 H        1.0780    -1.1600     0.6580 H     1 <1>   0.0800 
 31 H       -2.4480    -1.5810    -0.5610 H     1 <1>   0.0800 
 32 H       -3.1440    -0.4890     0.6120 H     1 <1>   0.0800 
 33 H       -2.5300    -2.0420     1.1230 H     1 <1>   0.0800 
 34 H        0.5600     4.2080     0.3200 H     1 <1>   0.0800 
 35 H       -1.1110     4.5820    -0.0020 H     1 <1>   0.0800 
 36 H       -0.5810     5.1090    -2.3330 H     1 <1>   0.0800 
 37 H        1.0670     4.5900    -2.1110 H     1 <1>   0.0800 
 38 H       -0.1750     7.0970    -1.2220 H     1 <1>   0.4000 
 39 H        2.8090     5.0050    -0.7340 H     1 <1>   0.1500 
 40 H        4.7910     8.4040     0.6450 H     1 <1>   0.4570 
 41 H        6.1070     6.2330    -0.3090 H     1 <1>   0.0800 
 42 H        5.1600     4.7970    -0.0920 H     1 <1>   0.0800 
 43 H        5.0680    10.2700     0.5880 H     1 <1>   0.0800 
 44 H        4.0730    11.1500     1.7140 H     1 <1>   0.0800 
 45 H        1.4510    11.2010     1.2420 H     1 <1>   0.0800 
 46 H        0.8730    10.3710    -0.1640 H     1 <1>   0.0800 
 47 H        5.8580     6.7610     2.1230 H     1 <1>   0.0800 
 48 H        6.5210     5.1660     1.8950 H     1 <1>   0.0800 
 49 H        4.8400     5.3490     2.3140 H     1 <1>   0.0800 
 50 H        4.4750    11.8270    -1.2220 H     1 <1>   0.0800 
 51 H        5.0760    12.7230     0.1550 H     1 <1>   0.0800 
 52 H        1.1310    12.8170    -0.5370 H     1 <1>   0.0800 
 53 H        2.1190    11.8870    -1.6390 H     1 <1>   0.0800 
@<TRIPOS>BOND
  1   1   2  1   
  2   1   3  1   
  3   2   4  2   
  4   2   5  1   
  5   3   6  2   
  6   3  26  1   
  7   4   6  1   
  8   5   7  1   
  9   5   8  1   
 10   5  27  1   
 11   6   9  1   
 12   7  28  1   
 13   7  29  1   
 14   7  30  1   
 15   8  31  1   
 16   8  32  1   
 17   8  33  1   
 18   9  10  1   
 19   9  34  1   
 20   9  35  1   
 21  10  11  1   
 22  10  36  1   
 23  10  37  1   
 24  11  12  1   
 25  11  38  1   
 26  12  13  ar  
 27  12  14  ar  
 28  13  15  ar  
 29  14  16  ar  
 30  14  39  1   
 31  15  17  ar  
 32  15  18  1   
 33  16  17  ar  
 34  16  19  1   
 35  17  40  1   
 36  18  20  1   
 37  18  21  1   
 38  19  22  1   
 39  19  41  1   
 40  19  42  1   
 41  20  23  1   
 42  20  43  1   
 43  20  44  1   
 44  21  24  1   
 45  21  45  1   
 46  21  46  1   
 47  22  47  1   
 48  22  48  1   
 49  22  49  1   
 50  23  25  1   
 51  23  50  1   
 52  23  51  1   
 53  24  25  1   
 54  24  52  1   
 55  24  53  1   
@<TRIPOS>SUBSTRUCTURE
  1 ****  12 GROUP 4 **** **** 0

# MOE 2024.06 (io_trps.svl 2023.06)
