@<TRIPOS>MOLECULE
NONAME
56 59 1 0 0 
SMALL
USER_CHARGES


@<TRIPOS>ATOM
  1 O       -0.7340     0.0010     0.7150 O.2   1 <1>  -0.5700 
  2 C       -1.7290     0.6760     0.5790 C.2   1 <1>   0.5690 
  3 N       -2.9610     0.2110     0.9930 N.am  1 <1>  -0.6600 
  4 C       -1.5060     2.0570    -0.0550 C.3   1 <1>  -0.0190 
  5 C       -4.2550     0.9540     0.9340 C.3   1 <1>   0.1400 
  6 C       -3.0900    -1.1590     1.5710 C.3   1 <1>   0.1400 
  7 C       -1.7070     3.2210     0.9410 C.3   1 <1>  -0.1600 
  8 C       -2.2400     2.2540    -1.4070 C.3   1 <1>  -0.1600 
  9 C       -5.2820     0.1510     0.1330 C.3   1 <1>  -0.1600 
 10 C       -4.1070    -1.9730     0.7670 C.3   1 <1>  -0.1600 
 11 C       -1.3140     4.5860     0.3410 C.3   1 <1>   0.2000 
 12 C       -2.6100     3.7200    -1.6920 C.3   1 <1>  -0.1600 
 13 C       -5.4670    -1.2640     0.7030 C.3   1 <1>   0.1000 
 14 O       -2.1070     5.5710     0.9590 O.3   1 <1>  -0.5600 
 15 C       -1.5090     4.6600    -1.1980 C.3   1 <1>   0.2000 
 16 C       -6.4620    -2.0880    -0.1170 C.2   1 <1>   0.0060 
 17 C       -1.6500     6.0040     2.2040 C.3   1 <1>   0.0400 
 18 O       -1.8590     5.9470    -1.5520 O.3   1 <1>  -0.6800 
 19 N       -6.7030    -1.8780    -1.3670 N.2   1 <1>  -0.5650 
 20 N       -7.1810    -3.1230     0.4120 N.pl3 1 <1>   0.0480 
 21 C       -7.6320    -2.8130    -1.7010 C.ar  1 <1>   0.2270 
 22 C       -7.9450    -3.5960    -0.6080 C.ar  1 <1>  -0.1520 
 23 C       -7.1980    -3.6560     1.7880 C.3   1 <1>   0.0160 
 24 C       -8.2510    -3.0430    -2.9280 C.ar  1 <1>  -0.1500 
 25 C       -8.8860    -4.6260    -0.7080 C.ar  1 <1>  -0.1500 
 26 C       -9.1770    -4.0570    -3.0350 C.ar  1 <1>  -0.1500 
 27 C       -9.4940    -4.8480    -1.9230 C.ar  1 <1>  -0.1500 
 28 H       -0.4570     2.0870    -0.2990 H     1 <1>   0.0800 
 29 H       -4.6140     1.1080     1.9370 H     1 <1>   0.0800 
 30 H       -4.1410     1.9150     0.4750 H     1 <1>   0.0800 
 31 H       -2.1440    -1.6730     1.5630 H     1 <1>   0.0800 
 32 H       -3.4090    -1.0760     2.5960 H     1 <1>   0.0800 
 33 H       -1.1080     3.0360     1.8150 H     1 <1>   0.0800 
 34 H       -2.7330     3.2640     1.2500 H     1 <1>   0.0800 
 35 H       -1.5910     1.8990    -2.1900 H     1 <1>   0.0800 
 36 H       -3.1290     1.6540    -1.4620 H     1 <1>   0.0800 
 37 H       -6.2260     0.6650     0.1390 H     1 <1>   0.0800 
 38 H       -4.9530     0.0900    -0.8900 H     1 <1>   0.0800 
 39 H       -3.7290    -2.1150    -0.2310 H     1 <1>   0.0800 
 40 H       -4.2160    -2.9430     1.2140 H     1 <1>   0.0800 
 41 H       -0.2770     4.7950     0.5470 H     1 <1>   0.0800 
 42 H       -3.5280     3.9620    -1.1850 H     1 <1>   0.0800 
 43 H       -2.7590     3.8530    -2.7490 H     1 <1>   0.0800 
 44 H       -5.8540    -1.1600     1.7010 H     1 <1>   0.0800 
 45 H       -0.5880     4.4200    -1.7010 H     1 <1>   0.0800 
 46 H       -2.3310     6.7530     2.5670 H     1 <1>   0.0800 
 47 H       -0.6680     6.4310     2.0930 H     1 <1>   0.0800 
 48 H       -1.6280     5.1740     2.8890 H     1 <1>   0.0800 
 49 H       -2.2910     6.3320    -0.7540 H     1 <1>   0.4000 
 50 H       -7.2430    -4.7290     1.7510 H     1 <1>   0.0800 
 51 H       -8.0640    -3.2790     2.3000 H     1 <1>   0.0800 
 52 H       -6.3110    -3.3610     2.3140 H     1 <1>   0.0800 
 53 H       -7.9860    -2.4200    -3.7620 H     1 <1>   0.1500 
 54 H       -9.1260    -5.2290     0.1490 H     1 <1>   0.1500 
 55 H       -9.6650    -4.2490    -3.9750 H     1 <1>   0.1500 
 56 H      -10.2220    -5.6330    -2.0310 H     1 <1>   0.1500 
@<TRIPOS>BOND
  1   1   2  2   
  2   2   3  am  
  3   2   4  1   
  4   3   5  1   
  5   3   6  1   
  6   4   7  1   
  7   4   8  1   
  8   4  28  1   
  9   5   9  1   
 10   5  29  1   
 11   5  30  1   
 12   6  10  1   
 13   6  31  1   
 14   6  32  1   
 15   7  11  1   
 16   7  33  1   
 17   7  34  1   
 18   8  12  1   
 19   8  35  1   
 20   8  36  1   
 21   9  13  1   
 22   9  37  1   
 23   9  38  1   
 24  10  13  1   
 25  10  39  1   
 26  10  40  1   
 27  11  14  1   
 28  11  15  1   
 29  11  41  1   
 30  12  15  1   
 31  12  42  1   
 32  12  43  1   
 33  13  16  1   
 34  13  44  1   
 35  14  17  1   
 36  15  18  1   
 37  15  45  1   
 38  16  19  2   
 39  16  20  1   
 40  17  46  1   
 41  17  47  1   
 42  17  48  1   
 43  18  49  1   
 44  19  21  1   
 45  20  22  1   
 46  20  23  1   
 47  21  22  ar  
 48  21  24  ar  
 49  22  25  ar  
 50  23  50  1   
 51  23  51  1   
 52  23  52  1   
 53  24  26  ar  
 54  24  53  1   
 55  25  27  ar  
 56  25  54  1   
 57  26  27  ar  
 58  26  55  1   
 59  27  56  1   
@<TRIPOS>SUBSTRUCTURE
  1 ****   9 GROUP 4 **** **** 0

# MOE 2024.06 (io_trps.svl 2023.06)
