@<TRIPOS>MOLECULE
NONAME
51 53 1 0 0 
SMALL
USER_CHARGES


@<TRIPOS>ATOM
  1 CL      -1.5920    -1.0070    -2.1130 Cl    1 <1>  -0.1770 
  2 C       -2.0060     0.0400    -0.7760 C.ar  1 <1>   0.1770 
  3 C       -2.4840    -0.5050     0.4070 C.ar  1 <1>  -0.1440 
  4 C       -1.8580     1.4040    -0.9370 C.ar  1 <1>  -0.1500 
  5 C       -2.8170     0.3520     1.4470 C.ar  1 <1>  -0.1500 
  6 C       -2.6380    -2.0060     0.5650 C.3   1 <1>   0.4870 
  7 C       -2.1970     2.2490     0.1050 C.ar  1 <1>  -0.1500 
  8 C       -2.6750     1.7210     1.2930 C.ar  1 <1>  -0.1500 
  9 N       -3.7090    -2.4980    -0.3450 N.4   1 <1>  -0.9590 
 10 C       -3.8470    -3.9880    -0.2590 C.3   1 <1>   0.5660 
 11 C       -5.0270    -1.8150    -0.1230 C.3   1 <1>   0.3430 
 12 C       -2.5380    -4.6130    -0.7220 C.ar  1 <1>  -0.1430 
 13 C       -5.0580    -4.5380    -1.0620 C.3   1 <1>   0.2000 
 14 C       -6.1240    -2.4170    -1.0180 C.3   1 <1>   0.1200 
 15 C       -1.8140    -5.3860     0.1750 C.ar  1 <1>  -0.1500 
 16 C       -2.0460    -4.4270    -2.0090 C.ar  1 <1>  -0.1500 
 17 O       -6.2230    -3.7930    -0.7980 O.3   1 <1>  -0.5600 
 18 C       -5.3240    -6.0070    -0.6920 C.3   1 <1>   0.1200 
 19 C       -0.6080    -5.9560    -0.1930 C.ar  1 <1>   0.0830 
 20 C       -0.8350    -4.9850    -2.3800 C.ar  1 <1>  -0.1500 
 21 O       -5.3160    -6.1620     0.6930 O.3   1 <1>  -0.6800 
 22 O        0.0220    -6.7120     0.7380 O.3   1 <1>  -0.3630 
 23 C       -0.1010    -5.7340    -1.4770 C.ar  1 <1>   0.0830 
 24 C        0.2130    -8.0780     0.4310 C.3   1 <1>   0.0400 
 25 O        1.0930    -6.2180    -1.8960 O.3   1 <1>  -0.3630 
 26 C        2.2430    -5.6920    -1.2690 C.3   1 <1>   0.0400 
 27 H       -1.4830     1.8020    -1.8640 H     1 <1>   0.1500 
 28 H       -3.1850    -0.0290     2.3860 H     1 <1>   0.1500 
 29 H       -2.8850    -2.2410     1.5880 H     1 <1>   0.0800 
 30 H       -1.7000    -2.4830     0.3260 H     1 <1>   0.0800 
 31 H       -2.0860     3.3160    -0.0060 H     1 <1>   0.1500 
 32 H       -2.9330     2.3850     2.1030 H     1 <1>   0.1500 
 33 H       -3.3840    -2.2880    -1.2960 H     1 <1>   0.4500 
 34 H       -4.0050    -4.2590     0.7720 H     1 <1>   0.0800 
 35 H       -5.3290    -1.9250     0.9060 H     1 <1>   0.0800 
 36 H       -4.9370    -0.7610    -0.3310 H     1 <1>   0.0800 
 37 H       -4.8690    -4.4770    -2.1190 H     1 <1>   0.0800 
 38 H       -5.9210    -2.2410    -2.0600 H     1 <1>   0.0800 
 39 H       -7.0780    -1.9800    -0.7760 H     1 <1>   0.0800 
 40 H       -2.1750    -5.5690     1.1730 H     1 <1>   0.1500 
 41 H       -2.5830    -3.8490    -2.7410 H     1 <1>   0.1500 
 42 H       -4.5590    -6.6460    -1.0990 H     1 <1>   0.0800 
 43 H       -6.2830    -6.3170    -1.0730 H     1 <1>   0.0800 
 44 H       -0.4450    -4.8390    -3.3720 H     1 <1>   0.1500 
 45 H       -5.7090    -7.0250     0.9450 H     1 <1>   0.4000 
 46 H        0.5870    -8.5700     1.3110 H     1 <1>   0.0800 
 47 H        0.9260    -8.1710    -0.3670 H     1 <1>   0.0800 
 48 H       -0.7300    -8.5060     0.1420 H     1 <1>   0.0800 
 49 H        3.1080    -6.1120    -1.7500 H     1 <1>   0.0800 
 50 H        2.2380    -5.9590    -0.2280 H     1 <1>   0.0800 
 51 H        2.2420    -4.6220    -1.3820 H     1 <1>   0.0800 
@<TRIPOS>BOND
  1   1   2  1   
  2   2   3  ar  
  3   2   4  ar  
  4   3   5  ar  
  5   3   6  1   
  6   4   7  ar  
  7   4  27  1   
  8   5   8  ar  
  9   5  28  1   
 10   6   9  1   
 11   6  29  1   
 12   6  30  1   
 13   7   8  ar  
 14   7  31  1   
 15   8  32  1   
 16   9  10  1   
 17   9  11  1   
 18   9  33  1   
 19  10  12  1   
 20  10  13  1   
 21  10  34  1   
 22  11  14  1   
 23  11  35  1   
 24  11  36  1   
 25  12  15  ar  
 26  12  16  ar  
 27  13  17  1   
 28  13  18  1   
 29  13  37  1   
 30  14  17  1   
 31  14  38  1   
 32  14  39  1   
 33  15  19  ar  
 34  15  40  1   
 35  16  20  ar  
 36  16  41  1   
 37  18  21  1   
 38  18  42  1   
 39  18  43  1   
 40  19  22  1   
 41  19  23  ar  
 42  20  23  ar  
 43  20  44  1   
 44  21  45  1   
 45  22  24  1   
 46  23  25  1   
 47  24  46  1   
 48  24  47  1   
 49  24  48  1   
 50  25  26  1   
 51  26  49  1   
 52  26  50  1   
 53  26  51  1   
@<TRIPOS>SUBSTRUCTURE
  1 ****  12 GROUP 4 **** **** 0

# MOE 2024.06 (io_trps.svl 2023.06)
