@<TRIPOS>MOLECULE
NONAME
53 56 1 0 0 
SMALL
USER_CHARGES


@<TRIPOS>ATOM
  1 O        0.0240     0.5080     0.5060 O.2   1 <1>  -0.5700 
  2 C       -0.5660     1.5510     0.2620 C.2   1 <1>   0.6160 
  3 N       -1.9390     1.6070     0.1020 N.am  1 <1>  -0.4200 
  4 C        0.1220     2.7700     0.1280 C.2   1 <1>  -0.1240 
  5 C       -2.5340     2.8310    -0.1730 C.2   1 <1>   0.4490 
  6 C       -2.7450     0.3560     0.2280 C.3   1 <1>   0.0600 
  7 C       -0.5390     3.8980    -0.1370 C.2   1 <1>   0.0330 
  8 C        1.5980     2.9840     0.2530 C.3   1 <1>   0.3470 
  9 N       -1.8920     3.9460    -0.2930 N.2   1 <1>  -0.6210 
 10 C       -4.0390     2.8870    -0.3480 C.3   1 <1>  -0.1790 
 11 C        0.3980     5.0750    -0.2360 C.3   1 <1>   0.3470 
 12 N        1.7500     4.4580     0.0160 N.pl3 1 <1>  -0.8380 
 13 C        2.9000     5.1730     0.0080 C.ar  1 <1>   0.4100 
 14 N        2.8030     6.4660    -0.2270 N.ar  1 <1>  -0.6200 
 15 C        4.1470     4.5630     0.2420 C.ar  1 <1>  -0.1500 
 16 C        3.9090     7.1960    -0.2470 C.ar  1 <1>   0.7710 
 17 C        5.2680     5.3230     0.2270 C.ar  1 <1>   0.2180 
 18 N        5.1130     6.6440    -0.0200 N.ar  1 <1>  -0.1790 
 19 N        3.8320     8.5320    -0.4940 N.pl3 1 <1>  -0.8380 
 20 C        6.6670     4.7720     0.4720 C.3   1 <1>  -0.0170 
 21 C        4.9700     9.4810    -0.7020 C.3   1 <1>   0.2090 
 22 C        2.5140     9.2470    -0.5650 C.3   1 <1>   0.2090 
 23 C        7.5710     4.9240    -0.7590 C.3   1 <1>  -0.2400 
 24 C        4.9680    10.5190     0.4240 C.3   1 <1>  -0.1600 
 25 C        2.4530    10.2950     0.5510 C.3   1 <1>  -0.1600 
 26 C        3.6330    11.2750     0.4820 C.3   1 <1>  -0.1600 
 27 H       -2.1190    -0.4930     0.4430 H     1 <1>   0.0800 
 28 H       -3.2650     0.1650    -0.6940 H     1 <1>   0.0800 
 29 H       -3.4560     0.4610     1.0270 H     1 <1>   0.0800 
 30 H        2.1270     2.4180    -0.4950 H     1 <1>   0.0800 
 31 H        1.9370     2.7180     1.2400 H     1 <1>   0.0800 
 32 H       -4.3400     2.2680    -1.1710 H     1 <1>   0.0800 
 33 H       -4.3490     3.8960    -0.5550 H     1 <1>   0.0800 
 34 H       -4.5290     2.5630     0.5510 H     1 <1>   0.0800 
 35 H        0.1670     5.8110     0.5140 H     1 <1>   0.0800 
 36 H        0.3560     5.5150    -1.2180 H     1 <1>   0.0800 
 37 H        4.1870     3.5070     0.4290 H     1 <1>   0.1500 
 38 H        5.8940     7.2840    -0.0300 H     1 <1>   0.4570 
 39 H        6.6000     3.7260     0.7220 H     1 <1>   0.0800 
 40 H        7.1130     5.2730     1.3150 H     1 <1>   0.0800 
 41 H        4.8380     9.9840    -1.6480 H     1 <1>   0.0800 
 42 H        5.9190     8.9800    -0.7350 H     1 <1>   0.0800 
 43 H        1.6780     8.5760    -0.4610 H     1 <1>   0.0800 
 44 H        2.4220     9.7310    -1.5240 H     1 <1>   0.0800 
 45 H        7.1380     4.4250    -1.6090 H     1 <1>   0.0800 
 46 H        8.5300     4.4740    -0.5630 H     1 <1>   0.0800 
 47 H        7.7340     5.9570    -1.0070 H     1 <1>   0.0800 
 48 H        5.7670    11.2230     0.2640 H     1 <1>   0.0800 
 49 H        5.1470    10.0290     1.3650 H     1 <1>   0.0800 
 50 H        2.4520     9.7900     1.5010 H     1 <1>   0.0800 
 51 H        1.5290    10.8400     0.4740 H     1 <1>   0.0800 
 52 H        3.5320    11.8890    -0.3970 H     1 <1>   0.0800 
 53 H        3.6170    11.9260     1.3410 H     1 <1>   0.0800 
@<TRIPOS>BOND
  1   1   2  2   
  2   2   3  am  
  3   2   4  1   
  4   3   5  1   
  5   3   6  1   
  6   4   7  2   
  7   4   8  1   
  8   5   9  2   
  9   5  10  1   
 10   6  27  1   
 11   6  28  1   
 12   6  29  1   
 13   7   9  1   
 14   7  11  1   
 15   8  12  1   
 16   8  30  1   
 17   8  31  1   
 18  10  32  1   
 19  10  33  1   
 20  10  34  1   
 21  11  12  1   
 22  11  35  1   
 23  11  36  1   
 24  12  13  1   
 25  13  14  ar  
 26  13  15  ar  
 27  14  16  ar  
 28  15  17  ar  
 29  15  37  1   
 30  16  18  ar  
 31  16  19  1   
 32  17  18  ar  
 33  17  20  1   
 34  18  38  1   
 35  19  21  1   
 36  19  22  1   
 37  20  23  1   
 38  20  39  1   
 39  20  40  1   
 40  21  24  1   
 41  21  41  1   
 42  21  42  1   
 43  22  25  1   
 44  22  43  1   
 45  22  44  1   
 46  23  45  1   
 47  23  46  1   
 48  23  47  1   
 49  24  26  1   
 50  24  48  1   
 51  24  49  1   
 52  25  26  1   
 53  25  50  1   
 54  25  51  1   
 55  26  52  1   
 56  26  53  1   
@<TRIPOS>SUBSTRUCTURE
  1 ****  12 GROUP 4 **** **** 0

# MOE 2024.06 (io_trps.svl 2023.06)
