@<TRIPOS>MOLECULE
NONAME
49 52 1 0 0 
SMALL
USER_CHARGES


@<TRIPOS>ATOM
  1 O       -0.2840     1.2680     1.4070 O.2   1 <1>  -0.5700 
  2 C       -0.0360     2.3810     0.9830 C.2   1 <1>   0.5440 
  3 N       -1.0740     3.2100     0.6120 N.am  1 <1>  -0.6600 
  4 C        1.3540     2.7830     0.8680 C.ar  1 <1>   0.0860 
  5 C       -2.4970     2.8940     0.9590 C.3   1 <1>   0.1400 
  6 C       -0.9280     4.3870    -0.2880 C.3   1 <1>   0.1400 
  7 C        2.2760     1.9600     0.2260 C.ar  1 <1>  -0.1500 
  8 C        1.8210     3.9830     1.4030 C.ar  1 <1>  -0.1500 
  9 C       -3.3390     2.6290    -0.3140 C.3   1 <1>   0.0000 
 10 C       -1.7340     4.1630    -1.5730 C.3   1 <1>  -0.1600 
 11 C        3.6140     2.3100     0.1030 C.ar  1 <1>  -0.0230 
 12 C        3.1480     4.3510     1.2870 C.ar  1 <1>  -0.1500 
 13 C       -4.8100     2.3490     0.0380 C.3   1 <1>   0.2000 
 14 C       -3.2060     3.8290    -1.2760 C.3   1 <1>  -0.1600 
 15 C       -2.9210     1.3010    -0.9710 C.3   1 <1>  -0.1600 
 16 N        4.5290     1.4440    -0.5540 N.pl3 1 <1>   0.3260 
 17 C        4.0420     3.5190     0.6380 C.ar  1 <1>  -0.1500 
 18 O       -5.2670     3.1960     1.0510 O.3   1 <1>  -0.5600 
 19 C       -4.8610     0.8790     0.4680 C.3   1 <1>  -0.1600 
 20 C       -3.6410     0.2070    -0.1770 C.3   1 <1>  -0.1600 
 21 C        5.4790     1.7370    -1.4520 C.2   1 <1>   0.0360 
 22 C        4.6720     0.1170    -0.4390 C.2   1 <1>   0.0360 
 23 C       -6.6490     3.2160     1.2220 C.3   1 <1>   0.0400 
 24 N        6.1310     0.6960    -1.8400 N.2   1 <1>  -0.3380 
 25 N        5.6110    -0.3460    -1.1880 N.2   1 <1>  -0.3380 
 26 H       -2.5450     2.0460     1.6200 H     1 <1>   0.0800 
 27 H       -2.9050     3.7340     1.4920 H     1 <1>   0.0800 
 28 H       -1.2920     5.2620     0.2230 H     1 <1>   0.0800 
 29 H        0.1030     4.5500    -0.5460 H     1 <1>   0.0800 
 30 H        1.9200     1.0270    -0.1790 H     1 <1>   0.1500 
 31 H        1.1290     4.6260     1.9190 H     1 <1>   0.1500 
 32 H       -1.6840     5.0510    -2.1780 H     1 <1>   0.0800 
 33 H       -1.2820     3.3630    -2.1320 H     1 <1>   0.0800 
 34 H        3.4860     5.2840     1.7070 H     1 <1>   0.1500 
 35 H       -5.4160     2.4940    -0.8410 H     1 <1>   0.0800 
 36 H       -3.7230     3.6280    -2.1980 H     1 <1>   0.0800 
 37 H       -3.6720     4.6870    -0.8220 H     1 <1>   0.0800 
 38 H       -3.2680     1.2760    -1.9890 H     1 <1>   0.0800 
 39 H       -1.8560     1.1510    -0.9700 H     1 <1>   0.0800 
 40 H        5.0760     3.8140     0.5610 H     1 <1>   0.1500 
 41 H       -4.7860     0.8020     1.5390 H     1 <1>   0.0800 
 42 H       -5.7730     0.4190     0.1340 H     1 <1>   0.0800 
 43 H       -2.9870    -0.1670     0.5930 H     1 <1>   0.0800 
 44 H       -3.9270    -0.6100    -0.8160 H     1 <1>   0.0800 
 45 H        5.6560     2.7370    -1.7970 H     1 <1>   0.1500 
 46 H        4.0590    -0.4740     0.2170 H     1 <1>   0.1500 
 47 H       -6.8770     3.9140     2.0070 H     1 <1>   0.0800 
 48 H       -6.9910     2.2350     1.5010 H     1 <1>   0.0800 
 49 H       -7.1160     3.5350     0.3060 H     1 <1>   0.0800 
@<TRIPOS>BOND
  1   1   2  2   
  2   2   3  am  
  3   2   4  1   
  4   3   5  1   
  5   3   6  1   
  6   4   7  ar  
  7   4   8  ar  
  8   5   9  1   
  9   5  26  1   
 10   5  27  1   
 11   6  10  1   
 12   6  28  1   
 13   6  29  1   
 14   7  11  ar  
 15   7  30  1   
 16   8  12  ar  
 17   8  31  1   
 18   9  13  1   
 19   9  14  1   
 20   9  15  1   
 21  10  14  1   
 22  10  32  1   
 23  10  33  1   
 24  11  16  1   
 25  11  17  ar  
 26  12  17  ar  
 27  12  34  1   
 28  13  18  1   
 29  13  19  1   
 30  13  35  1   
 31  14  36  1   
 32  14  37  1   
 33  15  20  1   
 34  15  38  1   
 35  15  39  1   
 36  16  21  1   
 37  16  22  1   
 38  17  40  1   
 39  18  23  1   
 40  19  20  1   
 41  19  41  1   
 42  19  42  1   
 43  20  43  1   
 44  20  44  1   
 45  21  24  2   
 46  21  45  1   
 47  22  25  2   
 48  22  46  1   
 49  23  47  1   
 50  23  48  1   
 51  23  49  1   
 52  24  25  1   
@<TRIPOS>SUBSTRUCTURE
  1 ****   2 GROUP 4 **** **** 0

# MOE 2024.06 (io_trps.svl 2023.06)
