@<TRIPOS>MOLECULE
NONAME
42 45 1 0 0 
SMALL
USER_CHARGES


@<TRIPOS>ATOM
  1 F       -3.5090     1.9230    -2.7860 F     1 <1>  -0.1900 
  2 C       -3.7680     1.5510    -1.5620 C.ar  1 <1>   0.1900 
  3 C       -3.2920     2.3070    -0.5040 C.ar  1 <1>   0.1600 
  4 C       -4.5140     0.4160    -1.3510 C.ar  1 <1>  -0.1500 
  5 N       -3.5090     1.9980     0.7680 N.ar  1 <1>  -0.6200 
  6 C       -4.7600     0.0750    -0.0270 C.ar  1 <1>   0.0860 
  7 C       -4.2180     0.8910     0.9660 C.ar  1 <1>   0.1600 
  8 C       -5.5540    -1.0730     0.3410 C.2   1 <1>   0.5440 
  9 O       -5.0320    -1.9660     0.9770 O.2   1 <1>  -0.5700 
 10 N       -6.8900    -1.1670     0.0140 N.am  1 <1>  -0.6600 
 11 C       -7.6960    -0.0340    -0.5420 C.3   1 <1>   0.1400 
 12 C       -7.6720    -2.3990     0.3480 C.3   1 <1>   0.1400 
 13 C       -8.7940     0.4030     0.4520 C.3   1 <1>   0.1430 
 14 C       -9.1870    -2.1330     0.3960 C.3   1 <1>  -0.1600 
 15 C       -9.7550     1.2950    -0.3150 C.ar  1 <1>   0.1670 
 16 C       -9.4940    -0.8120     1.1210 C.3   1 <1>  -0.1600 
 17 C       -8.2300     1.3820     1.5170 C.3   1 <1>  -0.1600 
 18 N      -10.6530     0.8830    -1.1790 N.ar  1 <1>  -0.6200 
 19 C       -9.5600     2.6130    -0.0210 C.ar  1 <1>  -0.1440 
 20 C       -8.4520     2.8080     0.9830 C.3   1 <1>  -0.0170 
 21 C      -11.3560     1.8590    -1.7340 C.ar  1 <1>   0.7200 
 22 C      -10.3570     3.5360    -0.6540 C.ar  1 <1>   0.1600 
 23 N      -11.2730     3.1650    -1.5200 N.ar  1 <1>  -0.6200 
 24 N      -12.2860     1.4760    -2.6080 N.pl3 1 <1>  -0.9000 
 25 H       -2.7140     3.1910    -0.7160 H     1 <1>   0.1500 
 26 H       -4.8860    -0.1760    -2.1680 H     1 <1>   0.1500 
 27 H       -4.3910     0.6040     1.9900 H     1 <1>   0.1500 
 28 H       -8.1580    -0.3670    -1.4560 H     1 <1>   0.0800 
 29 H       -7.0810     0.8110    -0.7880 H     1 <1>   0.0800 
 30 H       -7.3530    -2.7600     1.3120 H     1 <1>   0.0800 
 31 H       -7.4560    -3.1640    -0.3770 H     1 <1>   0.0800 
 32 H       -9.6720    -2.9490     0.9000 H     1 <1>   0.0800 
 33 H       -9.5790    -2.0970    -0.6060 H     1 <1>   0.0800 
 34 H      -10.5580    -0.6530     1.1570 H     1 <1>   0.0800 
 35 H       -9.1490    -0.9190     2.1350 H     1 <1>   0.0800 
 36 H       -7.1970     1.1920     1.7450 H     1 <1>   0.0800 
 37 H       -8.7970     1.2890     2.4270 H     1 <1>   0.0800 
 38 H       -7.5690     3.1720     0.4860 H     1 <1>   0.0800 
 39 H       -8.7370     3.4860     1.7690 H     1 <1>   0.0800 
 40 H      -10.2420     4.5870    -0.4500 H     1 <1>   0.1500 
 41 H      -13.0110     2.1630    -2.7930 H     1 <1>   0.4000 
 42 H      -12.5800     0.5070    -2.5290 H     1 <1>   0.4000 
@<TRIPOS>BOND
  1   1   2  1   
  2   2   3  ar  
  3   2   4  ar  
  4   3   5  ar  
  5   3  25  1   
  6   4   6  ar  
  7   4  26  1   
  8   5   7  ar  
  9   6   7  ar  
 10   6   8  1   
 11   7  27  1   
 12   8   9  2   
 13   8  10  am  
 14  10  11  1   
 15  10  12  1   
 16  11  13  1   
 17  11  28  1   
 18  11  29  1   
 19  12  14  1   
 20  12  30  1   
 21  12  31  1   
 22  13  15  1   
 23  13  16  1   
 24  13  17  1   
 25  14  16  1   
 26  14  32  1   
 27  14  33  1   
 28  15  18  ar  
 29  15  19  ar  
 30  16  34  1   
 31  16  35  1   
 32  17  20  1   
 33  17  36  1   
 34  17  37  1   
 35  18  21  ar  
 36  19  20  1   
 37  19  22  ar  
 38  20  38  1   
 39  20  39  1   
 40  21  23  ar  
 41  21  24  1   
 42  22  23  ar  
 43  22  40  1   
 44  24  41  1   
 45  24  42  1   
@<TRIPOS>SUBSTRUCTURE
  1 ****  11 GROUP 4 **** **** 0

# MOE 2024.06 (io_trps.svl 2023.06)
