@<TRIPOS>MOLECULE
NONAME
48 49 1 0 0 
SMALL
USER_CHARGES


@<TRIPOS>ATOM
  1 O       -0.7900     0.1520     0.2340 O.2   1 <1>  -0.5700 
  2 C       -1.7320     0.8180     0.6200 C.2   1 <1>   0.5440 
  3 N       -2.7590     0.1900     1.2960 N.am  1 <1>  -0.6600 
  4 C       -1.7390     2.2430     0.3400 C.ar  1 <1>   0.0860 
  5 C       -2.7320    -1.2940     1.5270 C.3   1 <1>   0.3210 
  6 C       -4.0600     0.8660     1.6320 C.3   1 <1>   0.1400 
  7 C       -1.7650     3.1970     1.3560 C.ar  1 <1>  -0.1500 
  8 C       -1.7120     2.7050    -0.9740 C.ar  1 <1>  -0.1500 
  9 C       -3.8680    -2.0050     0.7970 C.2   1 <1>   0.0460 
 10 C       -4.3630     0.8100     3.1360 C.3   1 <1>   0.1200 
 11 C       -1.7820     4.5510     1.0720 C.ar  1 <1>  -0.1500 
 12 C       -1.7280     4.0570    -1.2630 C.ar  1 <1>  -0.1500 
 13 N       -5.0470    -2.2490     1.4100 N.2   1 <1>  -0.5650 
 14 C       -3.8810    -2.4700    -0.4750 C.2   1 <1>  -0.3320 
 15 O       -3.2400     1.2060     3.8470 O.3   1 <1>  -0.6800 
 16 C       -1.7660     4.9910    -0.2410 C.ar  1 <1>  -0.1430 
 17 C       -5.7440    -2.8560     0.5070 C.2   1 <1>   0.0360 
 18 N       -5.0930    -3.0220    -0.6620 N.pl3 1 <1>   0.0330 
 19 C       -2.8100    -2.4240    -1.5510 C.3   1 <1>  -0.0600 
 20 C       -1.7830     6.4790    -0.5550 C.3   1 <1>  -0.0170 
 21 C       -0.3530     7.0280    -0.6310 C.3   1 <1>  -0.1600 
 22 C       -0.3420     8.5280    -0.9480 C.3   1 <1>  -0.1600 
 23 C        1.0910     9.0630    -1.0210 C.3   1 <1>  -0.2400 
 24 H       -2.8160    -1.4950     2.5800 H     1 <1>   0.0800 
 25 H       -1.8000    -1.7170     1.2000 H     1 <1>   0.0800 
 26 H       -4.8630     0.3940     1.0930 H     1 <1>   0.0800 
 27 H       -4.0520     1.8950     1.3230 H     1 <1>   0.0800 
 28 H       -1.7710     2.8740     2.3820 H     1 <1>   0.1500 
 29 H       -1.6740     1.9860    -1.7730 H     1 <1>   0.1500 
 30 H       -4.6180    -0.1930     3.4300 H     1 <1>   0.0800 
 31 H       -5.1780     1.4660     3.3900 H     1 <1>   0.0800 
 32 H       -1.8040     5.2620     1.8800 H     1 <1>   0.1500 
 33 H       -1.7060     4.3820    -2.2890 H     1 <1>   0.1500 
 34 H       -2.4600     0.7630     3.4520 H     1 <1>   0.4000 
 35 H       -6.7520    -3.2050     0.6540 H     1 <1>   0.1500 
 36 H       -5.4490    -3.4730    -1.5100 H     1 <1>   0.2700 
 37 H       -1.9350    -1.9110    -1.1930 H     1 <1>   0.0800 
 38 H       -3.1760    -1.8990    -2.4160 H     1 <1>   0.0800 
 39 H       -2.5270    -3.4200    -1.8390 H     1 <1>   0.0800 
 40 H       -2.3330     7.0020     0.2080 H     1 <1>   0.0800 
 41 H       -2.2860     6.6430    -1.4920 H     1 <1>   0.0800 
 42 H        0.1890     6.4940    -1.3920 H     1 <1>   0.0800 
 43 H        0.1410     6.8540     0.3100 H     1 <1>   0.0800 
 44 H       -0.8810     9.0650    -0.1860 H     1 <1>   0.0800 
 45 H       -0.8320     8.7040    -1.8910 H     1 <1>   0.0800 
 46 H        1.5950     8.9190    -0.0810 H     1 <1>   0.0800 
 47 H        1.0800    10.1150    -1.2450 H     1 <1>   0.0800 
 48 H        1.6440     8.5550    -1.7920 H     1 <1>   0.0800 
@<TRIPOS>BOND
  1   1   2  2   
  2   2   3  am  
  3   2   4  1   
  4   3   5  1   
  5   3   6  1   
  6   4   7  ar  
  7   4   8  ar  
  8   5   9  1   
  9   5  24  1   
 10   5  25  1   
 11   6  10  1   
 12   6  26  1   
 13   6  27  1   
 14   7  11  ar  
 15   7  28  1   
 16   8  12  ar  
 17   8  29  1   
 18   9  13  1   
 19   9  14  2   
 20  10  15  1   
 21  10  30  1   
 22  10  31  1   
 23  11  16  ar  
 24  11  32  1   
 25  12  16  ar  
 26  12  33  1   
 27  13  17  2   
 28  14  18  1   
 29  14  19  1   
 30  15  34  1   
 31  16  20  1   
 32  17  18  1   
 33  17  35  1   
 34  18  36  1   
 35  19  37  1   
 36  19  38  1   
 37  19  39  1   
 38  20  21  1   
 39  20  40  1   
 40  20  41  1   
 41  21  22  1   
 42  21  42  1   
 43  21  43  1   
 44  22  23  1   
 45  22  44  1   
 46  22  45  1   
 47  23  46  1   
 48  23  47  1   
 49  23  48  1   
@<TRIPOS>SUBSTRUCTURE
  1 ****   4 GROUP 4 **** **** 0

# MOE 2024.06 (io_trps.svl 2023.06)
