@<TRIPOS>MOLECULE
NONAME
51 53 1 0 0 
SMALL
USER_CHARGES


@<TRIPOS>ATOM
  1 O        0.7320    -0.2580     0.1020 O.2   1 <1>  -0.5700 
  2 C       -0.1230     0.4380    -0.3910 C.2   1 <1>   0.5690 
  3 N       -1.3470    -0.0590    -0.7420 N.am  1 <1>  -0.6600 
  4 C        0.1810     1.9070    -0.5860 C.3   1 <1>  -0.0990 
  5 C       -2.5000     0.7260    -1.2600 C.3   1 <1>   0.1400 
  6 C       -1.8300    -1.3590    -0.2230 C.3   1 <1>   0.1400 
  7 C       -0.3900     2.7250     0.5810 C.3   1 <1>   0.0210 
  8 C       -3.7350     0.0810    -0.6260 C.3   1 <1>   0.2000 
  9 C       -3.3330    -1.3950    -0.5290 C.3   1 <1>  -0.0800 
 10 C       -0.7000     4.1400     0.1340 C.2   1 <1>   0.1080 
 11 O       -3.9430     0.5740     0.6690 O.3   1 <1>  -0.5600 
 12 C       -4.1490    -2.2100     0.4910 C.3   1 <1>   0.0200 
 13 N       -1.8110     4.4360    -0.4670 N.2   1 <1>  -0.7070 
 14 C        0.1300     5.2490     0.2930 C.2   1 <1>  -0.1810 
 15 C       -4.5060     1.8490     0.7500 C.3   1 <1>   0.0400 
 16 C       -3.8540    -3.7000     0.4420 C.2   1 <1>  -0.0400 
 17 N       -1.7200     5.7570    -0.7060 N.pl3 1 <1>   0.3000 
 18 C       -0.5580     6.2730    -0.2580 C.2   1 <1>  -0.3320 
 19 C        1.5010     5.2500     0.9470 C.3   1 <1>  -0.0590 
 20 O       -4.4380    -4.4840     1.3090 O.3   1 <1>  -0.0190 
 21 C       -3.0790    -4.4680    -0.3420 C.2   1 <1>  -0.1500 
 22 C       -0.2050     7.7450    -0.4030 C.3   1 <1>  -0.0600 
 23 N       -4.0960    -5.7300     1.1500 N.2   1 <1>  -0.4100 
 24 C       -3.2760    -5.7500     0.1620 C.2   1 <1>   0.1080 
 25 C       -2.6190    -7.0020    -0.3720 C.3   1 <1>  -0.0590 
 26 H        1.2440     2.0520    -0.6430 H     1 <1>   0.0800 
 27 H       -0.2400     2.2340    -1.5180 H     1 <1>   0.0800 
 28 H       -2.4320     1.7730    -1.0330 H     1 <1>   0.0800 
 29 H       -2.5400     0.6060    -2.3280 H     1 <1>   0.0800 
 30 H       -1.3010    -2.1700    -0.6930 H     1 <1>   0.0800 
 31 H       -1.6570    -1.3920     0.8400 H     1 <1>   0.0800 
 32 H        0.3030     2.7260     1.4020 H     1 <1>   0.0800 
 33 H       -1.3050     2.2850     0.9360 H     1 <1>   0.0800 
 34 H       -4.6300     0.2260    -1.2070 H     1 <1>   0.0800 
 35 H       -3.4620    -1.8320    -1.5030 H     1 <1>   0.0800 
 36 H       -5.1980    -2.0670     0.3030 H     1 <1>   0.0800 
 37 H       -3.9470    -1.8540     1.4870 H     1 <1>   0.0800 
 38 H       -4.6910     2.0640     1.7880 H     1 <1>   0.0800 
 39 H       -5.4350     1.8670     0.2070 H     1 <1>   0.0800 
 40 H       -3.8210     2.5790     0.3560 H     1 <1>   0.0800 
 41 H       -2.4670     6.2800    -1.1770 H     1 <1>   0.2700 
 42 H        2.1320     4.5210     0.4710 H     1 <1>   0.0800 
 43 H        1.4070     5.0040     1.9890 H     1 <1>   0.0800 
 44 H        1.9680     6.2120     0.8620 H     1 <1>   0.0800 
 45 H       -2.4460    -4.2060    -1.1680 H     1 <1>   0.1500 
 46 H        0.7520     7.9550     0.0350 H     1 <1>   0.0800 
 47 H       -0.9440     8.3510     0.0910 H     1 <1>   0.0800 
 48 H       -0.1690     8.0140    -1.4430 H     1 <1>   0.0800 
 49 H       -1.5510    -6.8910    -0.3530 H     1 <1>   0.0800 
 50 H       -2.9400    -7.1800    -1.3820 H     1 <1>   0.0800 
 51 H       -2.8920    -7.8470     0.2340 H     1 <1>   0.0800 
@<TRIPOS>BOND
  1   1   2  2   
  2   2   3  am  
  3   2   4  1   
  4   3   5  1   
  5   3   6  1   
  6   4   7  1   
  7   4  26  1   
  8   4  27  1   
  9   5   8  1   
 10   5  28  1   
 11   5  29  1   
 12   6   9  1   
 13   6  30  1   
 14   6  31  1   
 15   7  10  1   
 16   7  32  1   
 17   7  33  1   
 18   8   9  1   
 19   8  11  1   
 20   8  34  1   
 21   9  12  1   
 22   9  35  1   
 23  10  13  2   
 24  10  14  1   
 25  11  15  1   
 26  12  16  1   
 27  12  36  1   
 28  12  37  1   
 29  13  17  1   
 30  14  18  2   
 31  14  19  1   
 32  15  38  1   
 33  15  39  1   
 34  15  40  1   
 35  16  20  1   
 36  16  21  2   
 37  17  18  1   
 38  17  41  1   
 39  18  22  1   
 40  19  42  1   
 41  19  43  1   
 42  19  44  1   
 43  20  23  1   
 44  21  24  1   
 45  21  45  1   
 46  22  46  1   
 47  22  47  1   
 48  22  48  1   
 49  23  24  2   
 50  24  25  1   
 51  25  49  1   
 52  25  50  1   
 53  25  51  1   
@<TRIPOS>SUBSTRUCTURE
  1 ****   3 GROUP 4 **** **** 0

# MOE 2024.06 (io_trps.svl 2023.06)
