@<TRIPOS>MOLECULE
NONAME
24 23 1 0 0 
SMALL
USER_CHARGES


@<TRIPOS>ATOM
  1 O        0.5220    -1.5020     1.6880 O.2   1 <1>  -0.5700 
  2 C        0.0470    -1.7250     0.6000 C.2   1 <1>   0.6590 
  3 O        0.6420    -1.3340    -0.5230 O.3   1 <1>  -0.4300 
  4 C       -1.2910    -2.4670     0.4390 C.3   1 <1>   0.2610 
  5 C        1.8670    -0.6300    -0.5070 C.3   1 <1>   0.0400 
  6 O       -1.5600    -3.2710     1.5500 O.3   1 <1>  -0.6800 
  7 C       -2.4680    -1.4970     0.2520 C.3   1 <1>  -0.1600 
  8 C       -3.8260    -2.2090     0.0690 C.3   1 <1>  -0.0990 
  9 C       -4.9840    -1.2630    -0.1900 C.2   1 <1>   0.6590 
 10 O       -4.8320    -0.0780    -0.3430 O.2   1 <1>  -0.5700 
 11 O       -6.1810    -1.8320    -0.2460 O.3   1 <1>  -0.4300 
 12 C       -7.3510    -1.0760    -0.4820 C.3   1 <1>   0.0400 
 13 H       -1.2220    -3.1200    -0.4130 H     1 <1>   0.0800 
 14 H        2.1530    -0.4200    -1.5220 H     1 <1>   0.0800 
 15 H        2.6130    -1.2400    -0.0290 H     1 <1>   0.0800 
 16 H        1.7330     0.2890     0.0380 H     1 <1>   0.0800 
 17 H       -1.1120    -2.8760     2.3300 H     1 <1>   0.4000 
 18 H       -2.5190    -0.8310     1.0970 H     1 <1>   0.0800 
 19 H       -2.2730    -0.8930    -0.6180 H     1 <1>   0.0800 
 20 H       -4.0590    -2.7770     0.9510 H     1 <1>   0.0800 
 21 H       -3.7660    -2.8930    -0.7580 H     1 <1>   0.0800 
 22 H       -8.1940    -1.7430    -0.4840 H     1 <1>   0.0800 
 23 H       -7.2610    -0.5860    -1.4360 H     1 <1>   0.0800 
 24 H       -7.4560    -0.3460     0.3010 H     1 <1>   0.0800 
@<TRIPOS>BOND
  1   1   2  2   
  2   2   3  1   
  3   2   4  1   
  4   3   5  1   
  5   4   6  1   
  6   4   7  1   
  7   4  13  1   
  8   5  14  1   
  9   5  15  1   
 10   5  16  1   
 11   6  17  1   
 12   7   8  1   
 13   7  18  1   
 14   7  19  1   
 15   8   9  1   
 16   8  20  1   
 17   8  21  1   
 18   9  10  2   
 19   9  11  1   
 20  11  12  1   
 21  12  22  1   
 22  12  23  1   
 23  12  24  1   
@<TRIPOS>SUBSTRUCTURE
  1 ****   7 GROUP 4 **** **** 0

# MOE 2024.06 (io_trps.svl 2023.06)
