@<TRIPOS>MOLECULE
NONAME
65 68 1 0 0 
SMALL
USER_CHARGES


@<TRIPOS>ATOM
  1 O        2.3930    -1.4720    -0.2110 O.2   1 <1>  -0.5700 
  2 C        2.7150    -0.3170    -0.1350 C.2   1 <1>   0.4950 
  3 C        3.4160     0.3830    -1.1690 C.2   1 <1>  -0.1360 
  4 C        2.3430     0.4840     1.0960 C.3   1 <1>  -0.0990 
  5 C        3.8990     1.6370    -1.0740 C.2   1 <1>  -0.2760 
  6 C        3.4330     1.5230     1.4160 C.3   1 <1>  -0.1600 
  7 C        3.8110     2.4570     0.2280 C.3   1 <1>   0.1380 
  8 C        4.5240     2.3240    -2.2910 C.3   1 <1>  -0.0220 
  9 C        5.1870     3.1430     0.5760 C.3   1 <1>  -0.0800 
 10 C        2.6530     3.4550     0.0130 C.3   1 <1>  -0.2400 
 11 C        5.4910     3.4620    -1.9410 C.3   1 <1>  -0.1600 
 12 C        6.1910     3.1570    -0.6110 C.3   1 <1>  -0.0800 
 13 C        5.0530     4.5090     1.3120 C.3   1 <1>  -0.1600 
 14 C        7.4600     3.9540    -0.2370 C.3   1 <1>  -0.0800 
 15 C        6.4020     5.1770     1.6560 C.3   1 <1>  -0.1600 
 16 C        7.2940     5.3470     0.4060 C.3   1 <1>   0.0000 
 17 C        8.6090     4.1190    -1.2360 C.3   1 <1>  -0.1600 
 18 C        8.7950     5.7430     0.6530 C.3   1 <1>   0.3410 
 19 C        6.6190     6.3590    -0.5680 C.3   1 <1>  -0.2400 
 20 C        9.4750     5.2580    -0.6500 C.3   1 <1>  -0.1600 
 21 O        9.3190     4.9260     1.6630 O.3   1 <1>  -0.6800 
 22 C        9.1320     7.2030     1.0520 C.2   1 <1>   0.4480 
 23 O        8.3210     8.0800     1.1700 O.2   1 <1>  -0.5700 
 24 C       10.5990     7.4570     1.3970 C.3   1 <1>   0.1810 
 25 O       11.0640     8.6980     0.8920 O.3   1 <1>  -0.4300 
 26 C       11.2740     8.8850    -0.4030 C.2   1 <1>   0.6590 
 27 O       11.0980     8.0040    -1.2060 O.2   1 <1>  -0.5700 
 28 C       11.7540    10.2610    -0.8100 C.3   1 <1>  -0.0990 
 29 C       13.1870    10.5510    -0.3280 C.3   1 <1>  -0.2660 
 30 C       13.6240    11.9260    -0.7550 C.2   1 <1>   0.9060 
 31 O       13.4140    12.8710     0.0090 O.co2 1 <1>  -0.9000 
 32 O       14.1550    12.0530    -1.8600 O.co2 1 <1>  -0.9000 
 33 H        3.5090    -0.1860    -2.0760 H     1 <1>   0.1500 
 34 H        1.4000     0.9660     0.9220 H     1 <1>   0.0800 
 35 H        2.2260    -0.1860     1.9280 H     1 <1>   0.0800 
 36 H        4.2980     0.9560     1.7100 H     1 <1>   0.0800 
 37 H        3.1350     2.1100     2.2670 H     1 <1>   0.0800 
 38 H        5.0510     1.5850    -2.8700 H     1 <1>   0.0800 
 39 H        3.7410     2.7190    -2.9150 H     1 <1>   0.0800 
 40 H        5.6820     2.5150     1.2950 H     1 <1>   0.0800 
 41 H        2.4040     3.9680     0.9230 H     1 <1>   0.0800 
 42 H        1.7730     2.9420    -0.3280 H     1 <1>   0.0800 
 43 H        2.9100     4.1850    -0.7320 H     1 <1>   0.0800 
 44 H        4.9240     4.3670    -1.8760 H     1 <1>   0.0800 
 45 H        6.2030     3.5710    -2.7380 H     1 <1>   0.0800 
 46 H        6.5400     2.1430    -0.7200 H     1 <1>   0.0800 
 47 H        4.4780     5.1960     0.7220 H     1 <1>   0.0800 
 48 H        4.5100     4.3580     2.2280 H     1 <1>   0.0800 
 49 H        7.8750     3.3240     0.5320 H     1 <1>   0.0800 
 50 H        6.9000     4.5720     2.3930 H     1 <1>   0.0800 
 51 H        6.2270     6.1410     2.1040 H     1 <1>   0.0800 
 52 H        9.1690     3.2050    -1.3380 H     1 <1>   0.0800 
 53 H        8.2410     4.4120    -2.2030 H     1 <1>   0.0800 
 54 H        5.6630     6.0310    -0.9030 H     1 <1>   0.0800 
 55 H        7.2170     6.5500    -1.4380 H     1 <1>   0.0800 
 56 H        6.4400     7.2980    -0.0810 H     1 <1>   0.0800 
 57 H        9.4890     6.0630    -1.3620 H     1 <1>   0.0800 
 58 H       10.4930     4.9490    -0.4850 H     1 <1>   0.0800 
 59 H        9.1140     3.9980     1.4470 H     1 <1>   0.4000 
 60 H       11.2320     6.6810     1.0080 H     1 <1>   0.0800 
 61 H       10.7050     7.4840     2.4650 H     1 <1>   0.0800 
 62 H       11.7210    10.3410    -1.8820 H     1 <1>   0.0800 
 63 H       11.0850    10.9960    -0.4010 H     1 <1>   0.0800 
 64 H       13.8720     9.8380    -0.7440 H     1 <1>   0.0800 
 65 H       13.2400    10.5020     0.7430 H     1 <1>   0.0800 
@<TRIPOS>BOND
  1   1   2  2   
  2   2   3  1   
  3   2   4  1   
  4   3   5  2   
  5   3  33  1   
  6   4   6  1   
  7   4  34  1   
  8   4  35  1   
  9   5   7  1   
 10   5   8  1   
 11   6   7  1   
 12   6  36  1   
 13   6  37  1   
 14   7   9  1   
 15   7  10  1   
 16   8  11  1   
 17   8  38  1   
 18   8  39  1   
 19   9  12  1   
 20   9  13  1   
 21   9  40  1   
 22  10  41  1   
 23  10  42  1   
 24  10  43  1   
 25  11  12  1   
 26  11  44  1   
 27  11  45  1   
 28  12  14  1   
 29  12  46  1   
 30  13  15  1   
 31  13  47  1   
 32  13  48  1   
 33  14  16  1   
 34  14  17  1   
 35  14  49  1   
 36  15  16  1   
 37  15  50  1   
 38  15  51  1   
 39  16  18  1   
 40  16  19  1   
 41  17  20  1   
 42  17  52  1   
 43  17  53  1   
 44  18  20  1   
 45  18  21  1   
 46  18  22  1   
 47  19  54  1   
 48  19  55  1   
 49  19  56  1   
 50  20  57  1   
 51  20  58  1   
 52  21  59  1   
 53  22  23  2   
 54  22  24  1   
 55  24  25  1   
 56  24  60  1   
 57  24  61  1   
 58  25  26  1   
 59  26  27  2   
 60  26  28  1   
 61  28  29  1   
 62  28  62  1   
 63  28  63  1   
 64  29  30  1   
 65  29  64  1   
 66  29  65  1   
 67  30  31  ar  
 68  30  32  ar  
@<TRIPOS>SUBSTRUCTURE
  1 ****  16 GROUP 4 **** **** 0

# MOE 2024.06 (io_trps.svl 2023.06)
