@<TRIPOS>MOLECULE
NONAME
57 60 1 0 0 
SMALL
USER_CHARGES


@<TRIPOS>ATOM
  1 O       -0.6170     0.3060     1.2770 O.2   1 <1>  -0.5700 
  2 C       -1.5240     0.9980     0.8790 C.2   1 <1>   0.5690 
  3 N       -2.5620     0.4290     0.1700 N.am  1 <1>  -0.6600 
  4 C       -1.4530     2.4900     1.2060 C.3   1 <1>   0.1810 
  5 C       -3.7690     1.1850    -0.3120 C.3   1 <1>   0.1400 
  6 C       -2.4070    -0.9770    -0.3370 C.3   1 <1>   0.1400 
  7 O       -1.7830     3.2870     0.0770 O.3   1 <1>  -0.3620 
  8 C       -5.0890     0.3730    -0.2380 C.3   1 <1>   0.4230 
  9 C       -3.7430    -1.6590    -0.6840 C.3   1 <1>   0.3430 
 10 C       -1.2640     4.5340     0.0670 C.ar  1 <1>   0.0820 
 11 N       -4.8670    -1.0800     0.1240 N.4   1 <1>  -0.9590 
 12 C       -5.8820     0.5090    -1.5600 C.3   1 <1>   0.1200 
 13 C        0.0340     4.7440    -0.4030 C.ar  1 <1>  -0.1430 
 14 C       -2.0460     5.5890     0.5260 C.ar  1 <1>  -0.1430 
 15 C       -6.1560    -1.8400     0.0600 C.3   1 <1>   0.5180 
 16 O       -7.0640    -0.2380    -1.5110 O.3   1 <1>  -0.5600 
 17 C        0.5620     6.0310    -0.3690 C.ar  1 <1>  -0.1430 
 18 C        0.8650     3.5800    -0.9460 C.3   1 <1>  -0.0970 
 19 C       -1.5060     6.8620     0.5420 C.ar  1 <1>  -0.1500 
 20 C       -3.4730     5.3760     1.0080 C.3   1 <1>  -0.0970 
 21 C       -5.9030    -3.3270     0.3360 C.3   1 <1>  -0.1950 
 22 C       -6.8930    -1.6100    -1.2770 C.3   1 <1>   0.1200 
 23 C       -0.2140     7.0780     0.1020 C.ar  1 <1>  -0.1500 
 24 C        1.9790     6.3360    -0.8380 C.3   1 <1>  -0.0970 
 25 C       -6.8670    -4.1090     1.1730 C.3   1 <1>  -0.2000 
 26 C       -5.4890    -3.8150     1.6910 C.3   1 <1>  -0.2000 
 27 H       -0.4520     2.7340     1.5160 H     1 <1>   0.0800 
 28 H       -2.1320     2.7310     2.0010 H     1 <1>   0.0800 
 29 H       -3.9070     2.0780     0.2710 H     1 <1>   0.0800 
 30 H       -3.5840     1.5020    -1.3250 H     1 <1>   0.0800 
 31 H       -1.7680    -0.9740    -1.2040 H     1 <1>   0.0800 
 32 H       -1.9140    -1.5700     0.4150 H     1 <1>   0.0800 
 33 H       -5.6950     0.8250     0.5300 H     1 <1>   0.0800 
 34 H       -3.6430    -2.7160    -0.4970 H     1 <1>   0.0800 
 35 H       -3.9440    -1.5290    -1.7350 H     1 <1>   0.0800 
 36 H       -4.5450    -1.1000     1.1000 H     1 <1>   0.4500 
 37 H       -5.3010     0.1780    -2.4040 H     1 <1>   0.0800 
 38 H       -6.1590     1.5370    -1.7220 H     1 <1>   0.0800 
 39 H       -6.8020    -1.4730     0.8410 H     1 <1>   0.0800 
 40 H        1.4240     3.8840    -1.8120 H     1 <1>   0.0800 
 41 H        0.2440     2.7570    -1.2460 H     1 <1>   0.0800 
 42 H        1.5490     3.2380    -0.1910 H     1 <1>   0.0800 
 43 H       -2.0860     7.6970     0.8960 H     1 <1>   0.1500 
 44 H       -3.9770     6.3170     1.1390 H     1 <1>   0.0800 
 45 H       -3.4680     4.8580     1.9490 H     1 <1>   0.0800 
 46 H       -4.0210     4.7990     0.2870 H     1 <1>   0.0800 
 47 H       -5.5260    -3.8520    -0.5260 H     1 <1>   0.1000 
 48 H       -7.8700    -2.0590    -1.2380 H     1 <1>   0.0800 
 49 H       -6.3530    -2.0390    -2.1030 H     1 <1>   0.0800 
 50 H        0.1840     8.0770     0.1280 H     1 <1>   0.1500 
 51 H        2.2660     7.3370    -0.5720 H     1 <1>   0.0800 
 52 H        2.0400     6.2390    -1.9060 H     1 <1>   0.0800 
 53 H        2.6760     5.6580    -0.3810 H     1 <1>   0.0800 
 54 H       -7.7010    -3.6200     1.6480 H     1 <1>   0.1000 
 55 H       -7.0990    -5.1260     0.8980 H     1 <1>   0.1000 
 56 H       -4.7940    -4.6360     1.7680 H     1 <1>   0.1000 
 57 H       -5.4090    -3.1380     2.5250 H     1 <1>   0.1000 
@<TRIPOS>BOND
  1   1   2  2   
  2   2   3  am  
  3   2   4  1   
  4   3   5  1   
  5   3   6  1   
  6   4   7  1   
  7   4  27  1   
  8   4  28  1   
  9   5   8  1   
 10   5  29  1   
 11   5  30  1   
 12   6   9  1   
 13   6  31  1   
 14   6  32  1   
 15   7  10  1   
 16   8  11  1   
 17   8  12  1   
 18   8  33  1   
 19   9  11  1   
 20   9  34  1   
 21   9  35  1   
 22  10  13  ar  
 23  10  14  ar  
 24  11  15  1   
 25  11  36  1   
 26  12  16  1   
 27  12  37  1   
 28  12  38  1   
 29  13  17  ar  
 30  13  18  1   
 31  14  19  ar  
 32  14  20  1   
 33  15  21  1   
 34  15  22  1   
 35  15  39  1   
 36  16  22  1   
 37  17  23  ar  
 38  17  24  1   
 39  18  40  1   
 40  18  41  1   
 41  18  42  1   
 42  19  23  ar  
 43  19  43  1   
 44  20  44  1   
 45  20  45  1   
 46  20  46  1   
 47  21  25  1   
 48  21  26  1   
 49  21  47  1   
 50  22  48  1   
 51  22  49  1   
 52  23  50  1   
 53  24  51  1   
 54  24  52  1   
 55  24  53  1   
 56  25  26  1   
 57  25  54  1   
 58  25  55  1   
 59  26  56  1   
 60  26  57  1   
@<TRIPOS>SUBSTRUCTURE
  1 ****   5 GROUP 4 **** **** 0

# MOE 2024.06 (io_trps.svl 2023.06)
