@<TRIPOS>MOLECULE
NONAME
58 61 1 0 0 
SMALL
USER_CHARGES


@<TRIPOS>ATOM
  1 O       -2.9250     2.4690    -0.8550 O.co2 1 <1>  -0.9000 
  2 C       -1.8980     1.7800    -0.8300 C.2   1 <1>   0.9060 
  3 O       -1.8620     0.5950    -1.1780 O.co2 1 <1>  -0.9000 
  4 C       -0.6040     2.4830    -0.4370 C.3   1 <1>  -0.1060 
  5 C       -0.3890     2.7830    -1.9980 C.3   1 <1>   0.2000 
  6 C        0.6960     3.2540    -0.0730 C.3   1 <1>   0.3430 
  7 C       -0.8510     2.1090     1.0990 C.3   1 <1>  -0.0650 
  8 O        0.6280     1.9600    -2.4550 O.3   1 <1>  -0.6800 
  9 C       -0.0610     4.2390    -2.3950 C.3   1 <1>  -0.1600 
 10 N        0.4400     4.7310    -0.0450 N.4   1 <1>  -0.9590 
 11 C        0.0000     0.9050     1.5420 C.3   1 <1>  -0.1950 
 12 C       -0.3810     5.1510    -1.2200 C.3   1 <1>   0.3430 
 13 C        1.7180     5.4790     0.0270 C.3   1 <1>   0.4860 
 14 C        0.0460     0.5340     2.9900 C.3   1 <1>  -0.2000 
 15 C        1.2840     1.0320     2.3080 C.3   1 <1>  -0.2000 
 16 C        1.4260     6.9200     0.3880 C.ar  1 <1>  -0.1430 
 17 C        1.4610     7.8970    -0.6050 C.ar  1 <1>   0.0830 
 18 C        1.1310     7.2650     1.7000 C.ar  1 <1>  -0.1500 
 19 O        1.7530     7.4840    -1.8660 O.3   1 <1>  -0.3620 
 20 C        1.1950     9.2260    -0.2820 C.ar  1 <1>  -0.1500 
 21 C        0.8660     8.5870     2.0030 C.ar  1 <1>  -0.1430 
 22 C        1.8910     8.4010    -2.9280 C.3   1 <1>   0.1200 
 23 C        0.8980     9.5510     1.0270 C.ar  1 <1>  -0.1430 
 24 C        0.5270     9.1810     3.3480 C.3   1 <1>  -0.0170 
 25 C        2.2330     7.6100    -4.1870 C.3   1 <1>  -0.2400 
 26 C        0.5830    10.9140     1.5930 C.3   1 <1>  -0.0170 
 27 C        0.0490    10.6010     3.0010 C.3   1 <1>  -0.1600 
 28 H       -1.2170     2.5490    -2.6610 H     1 <1>   0.0800 
 29 H        1.4750     3.0440    -0.7880 H     1 <1>   0.0800 
 30 H        1.1080     2.9550     0.8720 H     1 <1>   0.0800 
 31 H       -0.6780     2.9380     1.7670 H     1 <1>   0.0800 
 32 H       -1.8700     1.8430     1.3550 H     1 <1>   0.0800 
 33 H        0.2830     1.0350    -2.4190 H     1 <1>   0.4000 
 34 H        0.9680     4.3550    -2.6870 H     1 <1>   0.0800 
 35 H       -0.6780     4.5250    -3.2270 H     1 <1>   0.0800 
 36 H       -0.1070     4.9620     0.7910 H     1 <1>   0.4500 
 37 H       -0.1010     0.0760     0.8580 H     1 <1>   0.1000 
 38 H       -1.4280     5.0390    -0.9820 H     1 <1>   0.0800 
 39 H       -0.2000     6.1820    -1.4730 H     1 <1>   0.0800 
 40 H        2.3540     5.0510     0.7830 H     1 <1>   0.0800 
 41 H        2.2320     5.4260    -0.9190 H     1 <1>   0.0800 
 42 H       -0.4490     1.1680     3.7050 H     1 <1>   0.1000 
 43 H       -0.0280    -0.5090     3.2480 H     1 <1>   0.1000 
 44 H        2.0730     0.3280     2.1040 H     1 <1>   0.1000 
 45 H        1.6590     1.9870     2.6280 H     1 <1>   0.1000 
 46 H        1.1070     6.5290     2.4850 H     1 <1>   0.1500 
 47 H        1.2130    10.0090    -1.0170 H     1 <1>   0.1500 
 48 H        0.9610     8.9280    -3.0530 H     1 <1>   0.0800 
 49 H        2.6810     9.0920    -2.6850 H     1 <1>   0.0800 
 50 H       -0.2410     8.6200     3.8520 H     1 <1>   0.0800 
 51 H        1.4130     9.2190     3.9580 H     1 <1>   0.0800 
 52 H        1.4440     6.9180    -4.4200 H     1 <1>   0.0800 
 53 H        3.1550     7.0740    -4.0500 H     1 <1>   0.0800 
 54 H        2.3520     8.2840    -5.0170 H     1 <1>   0.0800 
 55 H        1.4860    11.4960     1.6500 H     1 <1>   0.0800 
 56 H       -0.1500    11.4320     0.9990 H     1 <1>   0.0800 
 57 H        0.3840    11.3240     3.7240 H     1 <1>   0.0800 
 58 H       -1.0260    10.6080     2.9730 H     1 <1>   0.0800 
@<TRIPOS>BOND
  1   1   2  ar  
  2   2   3  ar  
  3   2   4  1   
  4   4   5  1   
  5   4   6  1   
  6   4   7  1   
  7   5   8  1   
  8   5   9  1   
  9   5  28  1   
 10   6  10  1   
 11   6  29  1   
 12   6  30  1   
 13   7  11  1   
 14   7  31  1   
 15   7  32  1   
 16   8  33  1   
 17   9  12  1   
 18   9  34  1   
 19   9  35  1   
 20  10  12  1   
 21  10  13  1   
 22  10  36  1   
 23  11  14  1   
 24  11  15  1   
 25  11  37  1   
 26  12  38  1   
 27  12  39  1   
 28  13  16  1   
 29  13  40  1   
 30  13  41  1   
 31  14  15  1   
 32  14  42  1   
 33  14  43  1   
 34  15  44  1   
 35  15  45  1   
 36  16  17  ar  
 37  16  18  ar  
 38  17  19  1   
 39  17  20  ar  
 40  18  21  ar  
 41  18  46  1   
 42  19  22  1   
 43  20  23  ar  
 44  20  47  1   
 45  21  23  ar  
 46  21  24  1   
 47  22  25  1   
 48  22  48  1   
 49  22  49  1   
 50  23  26  1   
 51  24  27  1   
 52  24  50  1   
 53  24  51  1   
 54  25  52  1   
 55  25  53  1   
 56  25  54  1   
 57  26  27  1   
 58  26  55  1   
 59  26  56  1   
 60  27  57  1   
 61  27  58  1   
@<TRIPOS>SUBSTRUCTURE
  1 ****  10 GROUP 4 **** **** 0

# MOE 2024.06 (io_trps.svl 2023.06)
