@<TRIPOS>MOLECULE
NONAME
52 54 1 0 0 
SMALL
USER_CHARGES


@<TRIPOS>ATOM
  1 O        0.0900     1.1660     1.0990 O.2   1 <1>  -0.5700 
  2 C        0.0330     2.2550     0.5880 C.2   1 <1>   0.5690 
  3 N       -0.8480     3.1790     1.0300 N.am  1 <1>  -0.7300 
  4 C        0.9360     2.6010    -0.5970 C.3   1 <1>   0.1810 
  5 C       -1.0510     4.5000     0.3850 C.3   1 <1>   0.3640 
  6 O        1.0930     3.9930    -0.7570 O.3   1 <1>  -0.5600 
  7 C       -2.5210     4.6400    -0.0080 C.ar  1 <1>  -0.1440 
  8 C       -0.1260     4.7200    -0.8410 C.3   1 <1>   0.2610 
  9 C       -3.1610     5.8610     0.1560 C.ar  1 <1>  -0.1500 
 10 C       -3.2370     3.5740    -0.5400 C.ar  1 <1>  -0.1500 
 11 C        0.1090     6.2270    -1.0310 C.2   1 <1>   0.5690 
 12 C       -4.4900     6.0130    -0.1970 C.ar  1 <1>  -0.1500 
 13 C       -4.5670     3.7250    -0.8920 C.ar  1 <1>  -0.1500 
 14 O       -0.5080     6.7420    -1.9350 O.2   1 <1>  -0.5700 
 15 N        0.9320     6.9850    -0.2160 N.am  1 <1>  -0.6600 
 16 C       -5.1950     4.9440    -0.7200 C.ar  1 <1>  -0.1500 
 17 C        1.7990     6.4370     0.8750 C.3   1 <1>   0.2840 
 18 C        1.1150     8.4510    -0.4860 C.3   1 <1>   0.1400 
 19 C        3.2700     6.6410     0.5500 C.ar  1 <1>  -0.1430 
 20 C        0.6560     9.3390     0.6880 C.3   1 <1>  -0.0800 
 21 C        4.0610     7.4550     1.3480 C.ar  1 <1>   0.1600 
 22 C        3.8450     6.0270    -0.5450 C.ar  1 <1>  -0.1500 
 23 C       -0.7970     9.0570     1.0990 C.3   1 <1>  -0.2400 
 24 C        0.8000    10.8170     0.3040 C.3   1 <1>  -0.2400 
 25 N        5.3450     7.6990     1.1470 N.ar  1 <1>  -0.6200 
 26 C        5.1830     6.2690    -0.7700 C.ar  1 <1>  -0.1500 
 27 C        5.8760     7.1000     0.0940 C.ar  1 <1>   0.1600 
 28 H       -1.5020     2.9150     1.7690 H     1 <1>   0.3700 
 29 H        0.5210     2.1970    -1.5010 H     1 <1>   0.0800 
 30 H        1.9110     2.1770    -0.4390 H     1 <1>   0.0800 
 31 H       -0.8280     5.2520     1.1210 H     1 <1>   0.0800 
 32 H       -0.6350     4.3640    -1.7190 H     1 <1>   0.0800 
 33 H       -2.6320     6.7090     0.5520 H     1 <1>   0.1500 
 34 H       -2.7700     2.6150    -0.6850 H     1 <1>   0.1500 
 35 H       -4.9760     6.9650    -0.0680 H     1 <1>   0.1500 
 36 H       -5.1140     2.8930    -1.3010 H     1 <1>   0.1500 
 37 H       -6.2290     5.0630    -0.9950 H     1 <1>   0.1500 
 38 H        1.5560     6.9350     1.7960 H     1 <1>   0.0800 
 39 H        1.6220     5.3920     1.0390 H     1 <1>   0.0800 
 40 H        2.1520     8.6460    -0.6990 H     1 <1>   0.0800 
 41 H        0.5630     8.7390    -1.3640 H     1 <1>   0.0800 
 42 H        1.2980     9.1650     1.5330 H     1 <1>   0.0800 
 43 H        3.6160     7.9370     2.2020 H     1 <1>   0.1500 
 44 H        3.2730     5.3900    -1.1980 H     1 <1>   0.1500 
 45 H       -1.4530     9.1590     0.2510 H     1 <1>   0.0800 
 46 H       -1.1130     9.7450     1.8640 H     1 <1>   0.0800 
 47 H       -0.8900     8.0610     1.4890 H     1 <1>   0.0800 
 48 H        0.1680    11.0550    -0.5340 H     1 <1>   0.0800 
 49 H        1.8190    11.0360     0.0380 H     1 <1>   0.0800 
 50 H        0.5250    11.4480     1.1310 H     1 <1>   0.0800 
 51 H        5.6860     5.8190    -1.6060 H     1 <1>   0.1500 
 52 H        6.9210     7.2820    -0.0930 H     1 <1>   0.1500 
@<TRIPOS>BOND
  1   1   2  2   
  2   2   3  am  
  3   2   4  1   
  4   3   5  1   
  5   3  28  1   
  6   4   6  1   
  7   4  29  1   
  8   4  30  1   
  9   5   7  1   
 10   5   8  1   
 11   5  31  1   
 12   6   8  1   
 13   7   9  ar  
 14   7  10  ar  
 15   8  11  1   
 16   8  32  1   
 17   9  12  ar  
 18   9  33  1   
 19  10  13  ar  
 20  10  34  1   
 21  11  14  2   
 22  11  15  am  
 23  12  16  ar  
 24  12  35  1   
 25  13  16  ar  
 26  13  36  1   
 27  15  17  1   
 28  15  18  1   
 29  16  37  1   
 30  17  19  1   
 31  17  38  1   
 32  17  39  1   
 33  18  20  1   
 34  18  40  1   
 35  18  41  1   
 36  19  21  ar  
 37  19  22  ar  
 38  20  23  1   
 39  20  24  1   
 40  20  42  1   
 41  21  25  ar  
 42  21  43  1   
 43  22  26  ar  
 44  22  44  1   
 45  23  45  1   
 46  23  46  1   
 47  23  47  1   
 48  24  48  1   
 49  24  49  1   
 50  24  50  1   
 51  25  27  ar  
 52  26  27  ar  
 53  26  51  1   
 54  27  52  1   
@<TRIPOS>SUBSTRUCTURE
  1 ****  11 GROUP 4 **** **** 0

# MOE 2024.06 (io_trps.svl 2023.06)
