@<TRIPOS>MOLECULE
NONAME
51 53 1 0 0 
SMALL
USER_CHARGES


@<TRIPOS>ATOM
  1 S       -0.8920     0.2160    -0.0500 S.o2  1 <1>   1.0900 
  2 O        0.1450     0.0550    -1.0420 O.2   1 <1>  -0.6500 
  3 O       -0.7660     1.1520     1.0420 O.2   1 <1>  -0.6500 
  4 C       -1.3080    -1.3960     0.5490 C.3   1 <1>  -0.0550 
  5 C       -2.4410     0.4540    -0.9090 C.3   1 <1>  -0.0550 
  6 C       -2.1610    -1.9980    -0.5640 C.3   1 <1>   0.1760 
  7 C       -3.1520    -0.9070    -1.0200 C.3   1 <1>  -0.1600 
  8 N       -2.8570    -3.2250    -0.1030 N.pl3 1 <1>   0.3140 
  9 N       -3.6190    -3.2120     1.0050 N.2   1 <1>  -0.7070 
 10 C       -2.8230    -4.4600    -0.6680 C.2   1 <1>  -0.3320 
 11 C       -4.0440    -4.4290     1.1360 C.2   1 <1>   0.1080 
 12 C       -3.5770    -5.2630     0.1150 C.2   1 <1>   0.0630 
 13 C       -2.0490    -4.8100    -1.9320 C.3   1 <1>  -0.0600 
 14 C       -4.9500    -4.8320     2.2790 C.3   1 <1>  -0.0590 
 15 N       -3.8320    -6.6400    -0.1070 N.am  1 <1>  -0.4930 
 16 C       -3.8180    -7.6650     0.7890 C.2   1 <1>   0.5690 
 17 O       -3.5550    -7.5310     1.9590 O.2   1 <1>  -0.5700 
 18 C       -4.1510    -9.0550     0.2820 C.3   1 <1>  -0.0990 
 19 C       -5.6640    -9.2420     0.0860 C.3   1 <1>  -0.1600 
 20 C       -6.0090   -10.6660    -0.3660 C.3   1 <1>  -0.0170 
 21 C       -7.5100   -10.8050    -0.5590 C.ar  1 <1>  -0.1430 
 22 C       -8.3230   -11.1010     0.5280 C.ar  1 <1>  -0.1500 
 23 C       -8.0710   -10.6310    -1.8190 C.ar  1 <1>  -0.1500 
 24 C       -9.6930   -11.2230     0.3630 C.ar  1 <1>  -0.1500 
 25 C       -9.4390   -10.7510    -1.9960 C.ar  1 <1>  -0.1500 
 26 C      -10.2250   -11.0450    -0.8990 C.ar  1 <1>   0.1900 
 27 F      -11.5160   -11.1580    -1.0600 F     1 <1>  -0.1900 
 28 H       -1.8890    -1.3080     1.4480 H     1 <1>   0.0800 
 29 H       -0.4320    -1.9850     0.7390 H     1 <1>   0.0800 
 30 H       -2.2570     0.8640    -1.8840 H     1 <1>   0.0800 
 31 H       -3.0640     1.1400    -0.3650 H     1 <1>   0.0800 
 32 H       -1.5160    -2.2480    -1.3860 H     1 <1>   0.0800 
 33 H       -3.4850    -1.0880    -2.0270 H     1 <1>   0.0800 
 34 H       -4.0090    -0.8990    -0.3660 H     1 <1>   0.0800 
 35 H       -2.4090    -4.2290    -2.7630 H     1 <1>   0.0800 
 36 H       -2.1620    -5.8520    -2.1710 H     1 <1>   0.0800 
 37 H       -1.0010    -4.6120    -1.7920 H     1 <1>   0.0800 
 38 H       -5.5160    -3.9820     2.6140 H     1 <1>   0.0800 
 39 H       -4.3550    -5.1980     3.0940 H     1 <1>   0.0800 
 40 H       -5.6290    -5.6020     1.9640 H     1 <1>   0.0800 
 41 H       -4.0050    -6.8820    -1.0780 H     1 <1>   0.3700 
 42 H       -3.7900    -9.7700     1.0010 H     1 <1>   0.0800 
 43 H       -3.6300    -9.2280    -0.6420 H     1 <1>   0.0800 
 44 H       -6.0280    -8.5410    -0.6450 H     1 <1>   0.0800 
 45 H       -6.1670    -9.0370     1.0160 H     1 <1>   0.0800 
 46 H       -5.6760   -11.3750     0.3730 H     1 <1>   0.0800 
 47 H       -5.5020   -10.8930    -1.2880 H     1 <1>   0.0800 
 48 H       -7.8930   -11.2340     1.5050 H     1 <1>   0.1500 
 49 H       -7.4470   -10.4010    -2.6650 H     1 <1>   0.1500 
 50 H      -10.3370   -11.4510     1.1930 H     1 <1>   0.1500 
 51 H       -9.8910   -10.6200    -2.9630 H     1 <1>   0.1500 
@<TRIPOS>BOND
  1   1   2  2   
  2   1   3  2   
  3   1   4  1   
  4   1   5  1   
  5   4   6  1   
  6   4  28  1   
  7   4  29  1   
  8   5   7  1   
  9   5  30  1   
 10   5  31  1   
 11   6   7  1   
 12   6   8  1   
 13   6  32  1   
 14   7  33  1   
 15   7  34  1   
 16   8   9  1   
 17   8  10  1   
 18   9  11  2   
 19  10  12  2   
 20  10  13  1   
 21  11  12  1   
 22  11  14  1   
 23  12  15  1   
 24  13  35  1   
 25  13  36  1   
 26  13  37  1   
 27  14  38  1   
 28  14  39  1   
 29  14  40  1   
 30  15  16  am  
 31  15  41  1   
 32  16  17  2   
 33  16  18  1   
 34  18  19  1   
 35  18  42  1   
 36  18  43  1   
 37  19  20  1   
 38  19  44  1   
 39  19  45  1   
 40  20  21  1   
 41  20  46  1   
 42  20  47  1   
 43  21  22  ar  
 44  21  23  ar  
 45  22  24  ar  
 46  22  48  1   
 47  23  25  ar  
 48  23  49  1   
 49  24  26  ar  
 50  24  50  1   
 51  25  26  ar  
 52  25  51  1   
 53  26  27  1   
@<TRIPOS>SUBSTRUCTURE
  1 ****  15 GROUP 4 **** **** 0

# MOE 2024.06 (io_trps.svl 2023.06)
