@<TRIPOS>MOLECULE
NONAME
43 45 1 0 0 
SMALL
USER_CHARGES


@<TRIPOS>ATOM
  1 O       -2.2470     0.5670     2.1240 O.2   1 <1>  -0.5700 
  2 C       -2.1350     1.0390     1.0180 C.2   1 <1>   0.5690 
  3 N       -2.1150     0.2540    -0.1060 N.am  1 <1>  -0.6600 
  4 C       -2.0090     2.5540     0.9250 C.3   1 <1>   0.0440 
  5 C       -2.1170    -1.2440     0.0260 C.3   1 <1>   0.3640 
  6 C       -2.0830     0.7970    -1.5040 C.3   1 <1>   0.1400 
  7 C       -0.6660     2.9960     0.3520 C.ar  1 <1>  -0.1440 
  8 C       -0.6910    -1.8220     0.0270 C.ar  1 <1>  -0.1440 
  9 C       -2.9970    -1.9390    -1.0640 C.3   1 <1>   0.2000 
 10 C       -2.1860    -0.3050    -2.5670 C.3   1 <1>   0.1200 
 11 C       -0.6020     3.9200    -0.6820 C.ar  1 <1>   0.1600 
 12 C        0.5120     2.4710     0.8460 C.ar  1 <1>  -0.1500 
 13 C        0.4370    -1.1190    -0.3840 C.ar  1 <1>  -0.1500 
 14 C       -0.5250    -3.1260     0.4770 C.ar  1 <1>  -0.1500 
 15 O       -3.2190    -1.1710    -2.2260 O.3   1 <1>  -0.5600 
 16 C       -4.3790    -2.3070    -0.5130 C.3   1 <1>   0.1200 
 17 N        0.5120     4.3360    -1.2590 N.ar  1 <1>  -0.6200 
 18 C        1.6840     2.9020     0.2620 C.ar  1 <1>  -0.1500 
 19 C        1.6880    -1.7100    -0.3650 C.ar  1 <1>  -0.1500 
 20 C        0.7250    -3.7200     0.4990 C.ar  1 <1>  -0.1500 
 21 O       -4.2710    -3.3600     0.3920 O.3   1 <1>  -0.6800 
 22 C        1.6290     3.8210    -0.7720 C.ar  1 <1>   0.1600 
 23 C        1.8340    -3.0120     0.0740 C.ar  1 <1>  -0.1500 
 24 H       -2.8210     2.9290     0.3320 H     1 <1>   0.0800 
 25 H       -2.1130     2.9690     1.9110 H     1 <1>   0.0800 
 26 H       -2.5350    -1.5030     0.9840 H     1 <1>   0.0800 
 27 H       -2.9070     1.4760    -1.6370 H     1 <1>   0.0800 
 28 H       -1.1700     1.3420    -1.6640 H     1 <1>   0.0800 
 29 H       -2.5130    -2.8420    -1.3880 H     1 <1>   0.0800 
 30 H       -1.2700    -0.8640    -2.6480 H     1 <1>   0.0800 
 31 H       -2.4140     0.1240    -3.5270 H     1 <1>   0.0800 
 32 H       -1.5180     4.3400    -1.0620 H     1 <1>   0.1500 
 33 H        0.5220     1.7530     1.6500 H     1 <1>   0.1500 
 34 H        0.3640    -0.1010    -0.7180 H     1 <1>   0.1500 
 35 H       -1.3760    -3.6900     0.8220 H     1 <1>   0.1500 
 36 H       -5.0350    -2.6170    -1.3080 H     1 <1>   0.0800 
 37 H       -4.8090    -1.4660     0.0030 H     1 <1>   0.0800 
 38 H        2.6320     2.5290     0.6050 H     1 <1>   0.1500 
 39 H        2.5500    -1.1530    -0.6890 H     1 <1>   0.1500 
 40 H        0.8340    -4.7320     0.8490 H     1 <1>   0.1500 
 41 H       -4.1990    -4.2140    -0.0780 H     1 <1>   0.4000 
 42 H        2.5510     4.1490    -1.2200 H     1 <1>   0.1500 
 43 H        2.8060    -3.4720     0.0890 H     1 <1>   0.1500 
@<TRIPOS>BOND
  1   1   2  2   
  2   2   3  am  
  3   2   4  1   
  4   3   5  1   
  5   3   6  1   
  6   4   7  1   
  7   4  24  1   
  8   4  25  1   
  9   5   8  1   
 10   5   9  1   
 11   5  26  1   
 12   6  10  1   
 13   6  27  1   
 14   6  28  1   
 15   7  11  ar  
 16   7  12  ar  
 17   8  13  ar  
 18   8  14  ar  
 19   9  15  1   
 20   9  16  1   
 21   9  29  1   
 22  10  15  1   
 23  10  30  1   
 24  10  31  1   
 25  11  17  ar  
 26  11  32  1   
 27  12  18  ar  
 28  12  33  1   
 29  13  19  ar  
 30  13  34  1   
 31  14  20  ar  
 32  14  35  1   
 33  16  21  1   
 34  16  36  1   
 35  16  37  1   
 36  17  22  ar  
 37  18  22  ar  
 38  18  38  1   
 39  19  23  ar  
 40  19  39  1   
 41  20  23  ar  
 42  20  40  1   
 43  21  41  1   
 44  22  42  1   
 45  23  43  1   
@<TRIPOS>SUBSTRUCTURE
  1 ****   3 GROUP 4 **** **** 0

# MOE 2024.06 (io_trps.svl 2023.06)
