@<TRIPOS>MOLECULE
NONAME
49 52 1 0 0 
SMALL
USER_CHARGES


@<TRIPOS>ATOM
  1 O        1.7580    -2.7950    -2.4920 O.2   1 <1>  -0.5700 
  2 C        1.7070    -2.2620    -1.3940 C.2   1 <1>   0.5440 
  3 N        0.4830    -1.9770    -0.8060 N.am  1 <1>  -0.2980 
  4 C        2.8970    -1.9060    -0.6730 C.ar  1 <1>   0.0860 
  5 N        0.3470    -1.3360     0.4020 N.2   1 <1>  -0.5120 
  6 C       -0.7820    -2.3360    -1.5190 C.3   1 <1>   0.2010 
  7 C        2.7510    -1.2640     0.5680 C.ar  1 <1>   0.0860 
  8 C        4.1800    -2.1770    -1.1600 C.ar  1 <1>  -0.1500 
  9 C        1.4140    -1.0040     1.0360 C.2   1 <1>   0.3030 
 10 C       -1.0630    -3.8360    -1.6470 C.2   1 <1>   0.5690 
 11 C        3.9130    -0.9180     1.2750 C.ar  1 <1>  -0.1500 
 12 C        5.3040    -1.8270    -0.4470 C.ar  1 <1>  -0.1500 
 13 C        1.2160    -0.2970     2.3660 C.3   1 <1>  -0.1790 
 14 O       -1.4400    -4.2370    -2.7250 O.2   1 <1>  -0.5700 
 15 N       -0.9660    -4.7000    -0.5830 N.am  1 <1>  -0.6600 
 16 C        5.1680    -1.1930     0.7780 C.ar  1 <1>  -0.1500 
 17 C       -0.6200    -4.3550     0.8180 C.3   1 <1>   0.1400 
 18 C       -1.2720    -6.1460    -0.7060 C.3   1 <1>   0.1400 
 19 C       -0.8600    -5.6370     1.6120 C.3   1 <1>   0.2000 
 20 C       -0.7670    -6.7730     0.5960 C.3   1 <1>  -0.0800 
 21 O        0.0950    -5.8120     2.6020 O.3   1 <1>  -0.6800 
 22 C       -1.5460    -8.0240     1.0390 C.3   1 <1>  -0.0160 
 23 C       -1.4010    -9.1650     0.0440 C.ar  1 <1>   0.1670 
 24 N       -2.2170    -9.1500    -0.9970 N.ar  1 <1>  -0.6200 
 25 C       -0.4420   -10.1540     0.2550 C.ar  1 <1>   0.1600 
 26 C       -2.0090   -10.1740    -1.8080 C.ar  1 <1>   0.1600 
 27 N       -0.2330   -11.1810    -0.5530 N.ar  1 <1>  -0.6200 
 28 C       -1.0500   -11.1560    -1.5920 C.ar  1 <1>   0.1600 
 29 H       -1.6110    -1.8830    -1.0100 H     1 <1>   0.0800 
 30 H       -0.7410    -1.9180    -2.5080 H     1 <1>   0.0800 
 31 H        4.2810    -2.6680    -2.1130 H     1 <1>   0.1500 
 32 H        3.8400    -0.4250     2.2270 H     1 <1>   0.1500 
 33 H        6.2860    -2.0420    -0.8360 H     1 <1>   0.1500 
 34 H        1.6750     0.6740     2.3400 H     1 <1>   0.0800 
 35 H        1.6440    -0.8780     3.1620 H     1 <1>   0.0800 
 36 H        0.1680    -0.1670     2.5690 H     1 <1>   0.0800 
 37 H        6.0490    -0.9190     1.3350 H     1 <1>   0.1500 
 38 H        0.4160    -4.0710     0.8650 H     1 <1>   0.0800 
 39 H       -1.2440    -3.5540     1.1760 H     1 <1>   0.0800 
 40 H       -2.3370    -6.2700    -0.8090 H     1 <1>   0.0800 
 41 H       -0.7840    -6.5700    -1.5670 H     1 <1>   0.0800 
 42 H       -1.8310    -5.6020     2.0760 H     1 <1>   0.0800 
 43 H        0.2660    -7.0310     0.4400 H     1 <1>   0.0800 
 44 H        0.9880    -5.8310     2.2080 H     1 <1>   0.4000 
 45 H       -2.5900    -7.7880     1.1500 H     1 <1>   0.0800 
 46 H       -1.1840    -8.3420     2.0010 H     1 <1>   0.0800 
 47 H        0.1820   -10.0930     1.1290 H     1 <1>   0.1500 
 48 H       -2.6270   -10.2390    -2.6850 H     1 <1>   0.1500 
 49 H       -0.9560   -11.9520    -2.3100 H     1 <1>   0.1500 
@<TRIPOS>BOND
  1   1   2  2   
  2   2   3  am  
  3   2   4  1   
  4   3   5  1   
  5   3   6  1   
  6   4   7  ar  
  7   4   8  ar  
  8   5   9  2   
  9   6  10  1   
 10   6  29  1   
 11   6  30  1   
 12   7   9  1   
 13   7  11  ar  
 14   8  12  ar  
 15   8  31  1   
 16   9  13  1   
 17  10  14  2   
 18  10  15  am  
 19  11  16  ar  
 20  11  32  1   
 21  12  16  ar  
 22  12  33  1   
 23  13  34  1   
 24  13  35  1   
 25  13  36  1   
 26  15  17  1   
 27  15  18  1   
 28  16  37  1   
 29  17  19  1   
 30  17  38  1   
 31  17  39  1   
 32  18  20  1   
 33  18  40  1   
 34  18  41  1   
 35  19  20  1   
 36  19  21  1   
 37  19  42  1   
 38  20  22  1   
 39  20  43  1   
 40  21  44  1   
 41  22  23  1   
 42  22  45  1   
 43  22  46  1   
 44  23  24  ar  
 45  23  25  ar  
 46  24  26  ar  
 47  25  27  ar  
 48  25  47  1   
 49  26  28  ar  
 50  26  48  1   
 51  27  28  ar  
 52  28  49  1   
@<TRIPOS>SUBSTRUCTURE
  1 ****  15 GROUP 4 **** **** 0

# MOE 2024.06 (io_trps.svl 2023.06)
