@<TRIPOS>MOLECULE
NONAME
46 48 1 0 0 
SMALL
USER_CHARGES


@<TRIPOS>ATOM
  1 F       -0.8440    -4.4080    -2.5270 F     1 <1>  -0.1900 
  2 C        0.3460    -3.9780    -2.1830 C.ar  1 <1>   0.1900 
  3 C        0.6470    -3.8450    -0.8310 C.ar  1 <1>   0.0830 
  4 C        1.2540    -3.6840    -3.1810 C.ar  1 <1>  -0.1500 
  5 O       -0.3170    -4.1590     0.0760 O.3   1 <1>  -0.3630 
  6 C        1.9200    -3.3990    -0.4860 C.ar  1 <1>  -0.1500 
  7 C        2.5150    -3.2410    -2.8190 C.ar  1 <1>  -0.1500 
  8 C       -0.0610    -4.1450     1.4670 C.3   1 <1>   0.1200 
  9 C        2.8430    -3.1010    -1.4780 C.ar  1 <1>  -0.1500 
 10 C       -1.3280    -4.5900     2.2110 C.3   1 <1>   0.2090 
 11 N       -1.7010    -6.0150     1.9550 N.pl3 1 <1>  -0.8690 
 12 C       -2.1950    -6.6530     0.8850 C.ar  1 <1>   0.7710 
 13 N       -2.6660    -7.8620     1.1100 N.ar  1 <1>  -0.6200 
 14 N       -2.2030    -6.0830    -0.3310 N.ar  1 <1>  -0.1790 
 15 C       -3.1980    -8.5210     0.0960 C.ar  1 <1>   0.4100 
 16 C       -2.7130    -6.7300    -1.4030 C.ar  1 <1>   0.2110 
 17 N       -3.7190    -9.7520     0.3450 N.pl3 1 <1>  -0.8380 
 18 C       -3.2220    -7.9680    -1.2010 C.ar  1 <1>  -0.1500 
 19 C       -4.8700   -10.3570    -0.4030 C.3   1 <1>   0.2090 
 20 C       -3.2460   -10.6140     1.4730 C.3   1 <1>   0.2090 
 21 C       -4.4730   -11.7300    -0.9690 C.3   1 <1>   0.2000 
 22 C       -2.8320   -11.9880     0.9290 C.3   1 <1>  -0.1600 
 23 O       -5.5710   -12.3220    -1.5700 O.3   1 <1>  -0.6800 
 24 C       -3.9590   -12.6670     0.1290 C.3   1 <1>  -0.1600 
 25 H        0.9830    -3.7980    -4.2160 H     1 <1>   0.1500 
 26 H        2.2170    -3.2730     0.5390 H     1 <1>   0.1500 
 27 H        3.2420    -3.0050    -3.5780 H     1 <1>   0.1500 
 28 H        0.1990    -3.1400     1.7500 H     1 <1>   0.0800 
 29 H        0.7580    -4.8100     1.6830 H     1 <1>   0.0800 
 30 H        3.8270    -2.7560    -1.2080 H     1 <1>   0.1500 
 31 H       -2.1480    -3.9420     1.9480 H     1 <1>   0.0800 
 32 H       -1.1580    -4.4710     3.2680 H     1 <1>   0.0800 
 33 H       -1.7350    -6.5920     2.8040 H     1 <1>   0.4000 
 34 H       -1.7230    -5.1810    -0.4060 H     1 <1>   0.4570 
 35 H       -2.6890    -6.2510    -2.3690 H     1 <1>   0.1500 
 36 H       -3.6230    -8.5410    -2.0140 H     1 <1>   0.1500 
 37 H       -5.1990    -9.7180    -1.2010 H     1 <1>   0.0800 
 38 H       -5.6910   -10.4800     0.2830 H     1 <1>   0.0800 
 39 H       -4.0400   -10.7240     2.1920 H     1 <1>   0.0800 
 40 H       -2.4030   -10.1680     1.9730 H     1 <1>   0.0800 
 41 H       -3.7230   -11.5960    -1.7290 H     1 <1>   0.0800 
 42 H       -2.5440   -12.6200     1.7500 H     1 <1>   0.0800 
 43 H       -1.9690   -11.8610     0.2990 H     1 <1>   0.0800 
 44 H       -6.1820   -12.6750    -0.8950 H     1 <1>   0.4000 
 45 H       -3.5870   -13.5740    -0.3150 H     1 <1>   0.0800 
 46 H       -4.7600   -12.9130     0.8040 H     1 <1>   0.0800 
@<TRIPOS>BOND
  1   1   2  1   
  2   2   3  ar  
  3   2   4  ar  
  4   3   5  1   
  5   3   6  ar  
  6   4   7  ar  
  7   4  25  1   
  8   5   8  1   
  9   6   9  ar  
 10   6  26  1   
 11   7   9  ar  
 12   7  27  1   
 13   8  10  1   
 14   8  28  1   
 15   8  29  1   
 16   9  30  1   
 17  10  11  1   
 18  10  31  1   
 19  10  32  1   
 20  11  12  1   
 21  11  33  1   
 22  12  13  ar  
 23  12  14  ar  
 24  13  15  ar  
 25  14  16  ar  
 26  14  34  1   
 27  15  17  1   
 28  15  18  ar  
 29  16  18  ar  
 30  16  35  1   
 31  17  19  1   
 32  17  20  1   
 33  18  36  1   
 34  19  21  1   
 35  19  37  1   
 36  19  38  1   
 37  20  22  1   
 38  20  39  1   
 39  20  40  1   
 40  21  23  1   
 41  21  24  1   
 42  21  41  1   
 43  22  24  1   
 44  22  42  1   
 45  22  43  1   
 46  23  44  1   
 47  24  45  1   
 48  24  46  1   
@<TRIPOS>SUBSTRUCTURE
  1 ****  14 GROUP 4 **** **** 0

# MOE 2024.06 (io_trps.svl 2023.06)
