@<TRIPOS>MOLECULE
NONAME
46 48 1 0 0 
SMALL
USER_CHARGES


@<TRIPOS>ATOM
  1 O        0.4710     0.5860     0.3120 O.3   1 <1>  -0.0190 
  2 N        0.7010    -0.5660    -0.1980 N.2   1 <1>  -0.4100 
  3 C        1.4730     1.3910     0.0830 C.2   1 <1>   0.4250 
  4 C        1.8530    -0.4270    -0.7300 C.2   1 <1>   0.3350 
  5 N        2.3920     0.7850    -0.5860 N.2   1 <1>  -0.5650 
  6 C        1.4620     2.7560     0.5560 C.ar  1 <1>   0.0530 
  7 C        2.5900    -1.5160    -1.4730 C.3   1 <1>  -0.0590 
  8 C        2.5020     3.6330     0.3050 C.ar  1 <1>  -0.1500 
  9 C        0.4140     3.2950     1.2940 C.ar  1 <1>  -0.1500 
 10 C        2.4720     4.9390     0.7720 C.ar  1 <1>   0.4100 
 11 C        0.4660     4.6070     1.7180 C.ar  1 <1>   0.1600 
 12 N        1.4650     5.4370     1.4770 N.ar  1 <1>  -0.6200 
 13 N        3.5320     5.7730     0.5010 N.pl3 1 <1>  -0.8690 
 14 C        3.6570     7.1010     1.1320 C.3   1 <1>   0.2090 
 15 C        4.8790     7.8100     0.5570 C.3   1 <1>  -0.1600 
 16 C        4.9990     9.2290     1.1260 C.3   1 <1>   0.0960 
 17 N        6.1680     9.9270     0.5450 N.pl3 1 <1>   0.0480 
 18 C        6.2270    10.9570    -0.3430 C.2   1 <1>   0.0070 
 19 C        7.4530     9.6360     0.8210 C.2   1 <1>  -0.3020 
 20 N        7.4420    11.3080    -0.6330 N.2   1 <1>  -0.5650 
 21 C        4.9850    11.6300    -0.9390 C.3   1 <1>   0.1000 
 22 C        8.2100    10.4830     0.0960 C.2   1 <1>   0.0770 
 23 C        4.4310    10.7960    -2.1000 C.3   1 <1>  -0.2400 
 24 C        5.2800    13.0570    -1.4230 C.3   1 <1>  -0.2400 
 25 H        2.0040    -2.4160    -1.4870 H     1 <1>   0.0800 
 26 H        3.5270    -1.7120    -0.9860 H     1 <1>   0.0800 
 27 H        2.7750    -1.1990    -2.4820 H     1 <1>   0.0800 
 28 H        3.3500     3.3040    -0.2640 H     1 <1>   0.1500 
 29 H       -0.4420     2.6930     1.5390 H     1 <1>   0.1500 
 30 H       -0.3590     5.0000     2.2870 H     1 <1>   0.1500 
 31 H        4.4200     5.3120     0.2980 H     1 <1>   0.4000 
 32 H        3.7520     6.9820     2.1990 H     1 <1>   0.0800 
 33 H        2.7650     7.6720     0.9280 H     1 <1>   0.0800 
 34 H        4.7810     7.8620    -0.5130 H     1 <1>   0.0800 
 35 H        5.7620     7.2490     0.8050 H     1 <1>   0.0800 
 36 H        5.1250     9.1910     2.1930 H     1 <1>   0.0800 
 37 H        4.1060     9.7860     0.9120 H     1 <1>   0.0800 
 38 H        7.7560     8.8620     1.5010 H     1 <1>   0.1500 
 39 H        4.2330    11.7070    -0.1740 H     1 <1>   0.0800 
 40 H        9.2850    10.5460     0.0590 H     1 <1>   0.1500 
 41 H        5.1820    10.6930    -2.8650 H     1 <1>   0.0800 
 42 H        3.5660    11.2710    -2.5250 H     1 <1>   0.0800 
 43 H        4.1520     9.8160    -1.7630 H     1 <1>   0.0800 
 44 H        6.0040    13.0390    -2.2180 H     1 <1>   0.0800 
 45 H        5.6810    13.6400    -0.6140 H     1 <1>   0.0800 
 46 H        4.3830    13.5300    -1.7790 H     1 <1>   0.0800 
@<TRIPOS>BOND
  1   1   2  1   
  2   1   3  1   
  3   2   4  2   
  4   3   5  2   
  5   3   6  1   
  6   4   5  1   
  7   4   7  1   
  8   6   8  ar  
  9   6   9  ar  
 10   7  25  1   
 11   7  26  1   
 12   7  27  1   
 13   8  10  ar  
 14   8  28  1   
 15   9  11  ar  
 16   9  29  1   
 17  10  12  ar  
 18  10  13  1   
 19  11  12  ar  
 20  11  30  1   
 21  13  14  1   
 22  13  31  1   
 23  14  15  1   
 24  14  32  1   
 25  14  33  1   
 26  15  16  1   
 27  15  34  1   
 28  15  35  1   
 29  16  17  1   
 30  16  36  1   
 31  16  37  1   
 32  17  18  1   
 33  17  19  1   
 34  18  20  2   
 35  18  21  1   
 36  19  22  2   
 37  19  38  1   
 38  20  22  1   
 39  21  23  1   
 40  21  24  1   
 41  21  39  1   
 42  22  40  1   
 43  23  41  1   
 44  23  42  1   
 45  23  43  1   
 46  24  44  1   
 47  24  45  1   
 48  24  46  1   
@<TRIPOS>SUBSTRUCTURE
  1 ****  13 GROUP 4 **** **** 0

# MOE 2024.06 (io_trps.svl 2023.06)
