@<TRIPOS>MOLECULE
NONAME
46 48 1 0 0 
SMALL
USER_CHARGES


@<TRIPOS>ATOM
  1 F        0.5810    -0.5800     0.2960 F     1 <1>  -0.1900 
  2 C        0.2930    -1.8490     0.2190 C.ar  1 <1>   0.1900 
  3 C       -0.1280    -2.3680    -0.9890 C.ar  1 <1>  -0.1500 
  4 C        0.4200    -2.6330     1.3480 C.ar  1 <1>  -0.1500 
  5 C       -0.4350    -3.7150    -1.0610 C.ar  1 <1>  -0.1500 
  6 C        0.1080    -3.9790     1.2580 C.ar  1 <1>  -0.1500 
  7 C       -0.3330    -4.5490     0.0600 C.ar  1 <1>   0.0860 
  8 C       -0.6700    -5.9610    -0.0120 C.2   1 <1>   0.5440 
  9 O       -0.0840    -6.7740     0.6810 O.2   1 <1>  -0.5700 
 10 N       -1.6800    -6.4360    -0.8210 N.am  1 <1>  -0.6600 
 11 C       -1.7290    -7.8880    -1.1320 C.3   1 <1>   0.1400 
 12 C       -3.0150    -5.7810    -0.8280 C.3   1 <1>   0.1400 
 13 C       -2.5690    -8.5950    -0.0450 C.3   1 <1>   0.4230 
 14 C       -3.8870    -6.4610     0.2370 C.3   1 <1>  -0.1600 
 15 N       -2.5220   -10.1150    -0.1170 N.4   1 <1>  -0.9590 
 16 C       -4.0090    -8.0040     0.0560 C.3   1 <1>   0.0000 
 17 C       -3.6230   -10.7970     0.6370 C.3   1 <1>   0.3430 
 18 C       -2.4050   -10.6950    -1.4940 C.3   1 <1>   0.2630 
 19 C       -4.7210    -8.5990     1.3070 C.3   1 <1>  -0.1600 
 20 C       -4.8150    -8.3340    -1.2340 C.3   1 <1>   0.1200 
 21 C       -4.1150    -9.9290     1.7940 C.3   1 <1>  -0.1600 
 22 O       -6.0190    -7.6520    -1.2750 O.3   1 <1>  -0.6800 
 23 H       -0.2090    -1.7280    -1.8500 H     1 <1>   0.1500 
 24 H        0.7580    -2.1980     2.2720 H     1 <1>   0.1500 
 25 H       -0.7540    -4.1330    -2.0000 H     1 <1>   0.1500 
 26 H        0.2080    -4.6060     2.1290 H     1 <1>   0.1500 
 27 H       -2.1480    -8.0190    -2.1130 H     1 <1>   0.0800 
 28 H       -0.7280    -8.2830    -1.1340 H     1 <1>   0.0800 
 29 H       -2.9260    -4.7320    -0.6010 H     1 <1>   0.0800 
 30 H       -3.4630    -5.8710    -1.8040 H     1 <1>   0.0800 
 31 H       -2.0910    -8.3270     0.8830 H     1 <1>   0.0800 
 32 H       -3.4470    -6.2410     1.1950 H     1 <1>   0.0800 
 33 H       -4.8590    -5.9980     0.2360 H     1 <1>   0.0800 
 34 H       -1.6500   -10.3550     0.3800 H     1 <1>   0.4500 
 35 H       -4.4540   -10.9870    -0.0230 H     1 <1>   0.0800 
 36 H       -3.2760   -11.7460     1.0140 H     1 <1>   0.0800 
 37 H       -3.2660   -10.4380    -2.0880 H     1 <1>   0.0800 
 38 H       -2.3330   -11.7700    -1.4410 H     1 <1>   0.0800 
 39 H       -1.5210   -10.3240    -1.9880 H     1 <1>   0.0800 
 40 H       -4.6770    -7.9080     2.1330 H     1 <1>   0.0800 
 41 H       -5.7670    -8.7470     1.1020 H     1 <1>   0.0800 
 42 H       -5.0380    -9.3830    -1.3030 H     1 <1>   0.0800 
 43 H       -4.2770    -8.0430    -2.1180 H     1 <1>   0.0800 
 44 H       -4.8600   -10.4710     2.3530 H     1 <1>   0.0800 
 45 H       -3.2950    -9.7400     2.4660 H     1 <1>   0.0800 
 46 H       -6.6100    -7.8990    -0.5360 H     1 <1>   0.4000 
@<TRIPOS>BOND
  1   1   2  1   
  2   2   3  ar  
  3   2   4  ar  
  4   3   5  ar  
  5   3  23  1   
  6   4   6  ar  
  7   4  24  1   
  8   5   7  ar  
  9   5  25  1   
 10   6   7  ar  
 11   6  26  1   
 12   7   8  1   
 13   8   9  2   
 14   8  10  am  
 15  10  11  1   
 16  10  12  1   
 17  11  13  1   
 18  11  27  1   
 19  11  28  1   
 20  12  14  1   
 21  12  29  1   
 22  12  30  1   
 23  13  15  1   
 24  13  16  1   
 25  13  31  1   
 26  14  16  1   
 27  14  32  1   
 28  14  33  1   
 29  15  17  1   
 30  15  18  1   
 31  15  34  1   
 32  16  19  1   
 33  16  20  1   
 34  17  21  1   
 35  17  35  1   
 36  17  36  1   
 37  18  37  1   
 38  18  38  1   
 39  18  39  1   
 40  19  21  1   
 41  19  40  1   
 42  19  41  1   
 43  20  22  1   
 44  20  42  1   
 45  20  43  1   
 46  21  44  1   
 47  21  45  1   
 48  22  46  1   
@<TRIPOS>SUBSTRUCTURE
  1 ****  10 GROUP 4 **** **** 0

# MOE 2024.06 (io_trps.svl 2023.06)
