@<TRIPOS>MOLECULE
NONAME
57 60 1 0 0 
SMALL
USER_CHARGES


@<TRIPOS>ATOM
  1 O       -0.8930    -0.2720    -1.7480 O.2   1 <1>  -0.5700 
  2 C       -1.3040     0.2700    -0.7410 C.2   1 <1>   0.7150 
  3 N       -1.4650    -0.4790     0.3800 N.am  1 <1>  -0.7300 
  4 C       -1.7090     1.6440    -0.7160 C.2   1 <1>  -0.2370 
  5 C       -1.6310    -1.9500     0.4000 C.3   1 <1>   0.2200 
  6 N       -1.5750     2.5250    -1.7430 N.pl3 1 <1>   0.3140 
  7 C       -2.3370     2.3430     0.2710 C.2   1 <1>  -0.1500 
  8 C       -3.1110    -2.3360     0.4070 C.3   1 <1>  -0.0800 
  9 C       -1.1960    -2.4690     1.7630 C.3   1 <1>   0.1200 
 10 N       -2.1030     3.7230    -1.4520 N.2   1 <1>  -0.7070 
 11 C       -0.9480     2.3020    -3.0560 C.3   1 <1>   0.0160 
 12 C       -2.5600     3.6050    -0.2440 C.2   1 <1>   0.1080 
 13 C       -3.4730    -2.2940     1.8990 C.3   1 <1>   0.1200 
 14 C       -4.0290    -1.4610    -0.4780 C.3   1 <1>  -0.0160 
 15 O       -2.2720    -2.1990     2.6060 O.3   1 <1>  -0.5600 
 16 C       -3.2610     4.7380     0.4830 C.3   1 <1>   0.0210 
 17 C       -5.5130    -1.8350    -0.5250 C.ar  1 <1>  -0.1430 
 18 C       -4.7450     4.8560     0.0880 C.3   1 <1>  -0.0800 
 19 C       -6.4500    -0.9090    -1.0480 C.ar  1 <1>   0.0000 
 20 C       -6.0020    -3.0330    -0.0860 C.ar  1 <1>  -0.1500 
 21 C       -5.3720     6.1010     0.7290 C.3   1 <1>  -0.2400 
 22 C       -5.5510     3.6110     0.4890 C.3   1 <1>  -0.2400 
 23 C       -7.8190    -1.2720    -1.0360 C.ar  1 <1>   0.3100 
 24 C       -6.1110     0.3560    -1.5880 C.ar  1 <1>  -0.1500 
 25 C       -7.3760    -3.2980    -0.1340 C.ar  1 <1>   0.1600 
 26 N       -8.2640    -2.4680    -0.5780 N.ar  1 <1>  -0.6200 
 27 C       -8.7710    -0.3610    -1.5220 C.ar  1 <1>  -0.1500 
 28 C       -7.0630     1.2190    -2.0570 C.ar  1 <1>  -0.1500 
 29 C       -8.4120     0.8610    -2.0210 C.ar  1 <1>  -0.1500 
 30 H       -1.7720    -0.0180     1.2370 H     1 <1>   0.3700 
 31 H       -1.0810    -2.4070    -0.4060 H     1 <1>   0.0800 
 32 H       -2.6310     2.0130     1.2510 H     1 <1>   0.1500 
 33 H       -3.1760    -3.3550     0.0730 H     1 <1>   0.0800 
 34 H       -0.3110    -1.9820     2.1330 H     1 <1>   0.0800 
 35 H       -1.0490    -3.5350     1.7400 H     1 <1>   0.0800 
 36 H        0.0600     1.9600    -2.9140 H     1 <1>   0.0800 
 37 H       -0.9420     3.2230    -3.6080 H     1 <1>   0.0800 
 38 H       -1.5110     1.5620    -3.5940 H     1 <1>   0.0800 
 39 H       -3.9850    -3.1880     2.2110 H     1 <1>   0.0800 
 40 H       -4.0680    -1.4320     2.1450 H     1 <1>   0.0800 
 41 H       -3.6470    -1.4640    -1.4850 H     1 <1>   0.0800 
 42 H       -3.9730    -0.4540    -0.1080 H     1 <1>   0.0800 
 43 H       -3.1740     4.5890     1.5440 H     1 <1>   0.0800 
 44 H       -2.7510     5.6530     0.2370 H     1 <1>   0.0800 
 45 H       -4.7960     4.9650    -0.9830 H     1 <1>   0.0800 
 46 H       -5.3740    -3.8080     0.3070 H     1 <1>   0.1500 
 47 H       -5.3400     6.0350     1.8020 H     1 <1>   0.0800 
 48 H       -6.3980     6.2020     0.4220 H     1 <1>   0.0800 
 49 H       -4.8420     6.9860     0.4210 H     1 <1>   0.0800 
 50 H       -5.5020     3.4500     1.5510 H     1 <1>   0.0800 
 51 H       -5.1690     2.7390    -0.0100 H     1 <1>   0.0800 
 52 H       -6.5820     3.7270     0.2070 H     1 <1>   0.0800 
 53 H       -5.0810     0.6580    -1.6420 H     1 <1>   0.1500 
 54 H       -7.7160    -4.2550     0.2250 H     1 <1>   0.1500 
 55 H       -9.8020    -0.6610    -1.4890 H     1 <1>   0.1500 
 56 H       -6.7850     2.1790    -2.4590 H     1 <1>   0.1500 
 57 H       -9.1520     1.5490    -2.3910 H     1 <1>   0.1500 
@<TRIPOS>BOND
  1   1   2  2   
  2   2   3  am  
  3   2   4  1   
  4   3   5  1   
  5   3  30  1   
  6   4   6  1   
  7   4   7  2   
  8   5   8  1   
  9   5   9  1   
 10   5  31  1   
 11   6  10  1   
 12   6  11  1   
 13   7  12  1   
 14   7  32  1   
 15   8  13  1   
 16   8  14  1   
 17   8  33  1   
 18   9  15  1   
 19   9  34  1   
 20   9  35  1   
 21  10  12  2   
 22  11  36  1   
 23  11  37  1   
 24  11  38  1   
 25  12  16  1   
 26  13  15  1   
 27  13  39  1   
 28  13  40  1   
 29  14  17  1   
 30  14  41  1   
 31  14  42  1   
 32  16  18  1   
 33  16  43  1   
 34  16  44  1   
 35  17  19  ar  
 36  17  20  ar  
 37  18  21  1   
 38  18  22  1   
 39  18  45  1   
 40  19  23  ar  
 41  19  24  ar  
 42  20  25  ar  
 43  20  46  1   
 44  21  47  1   
 45  21  48  1   
 46  21  49  1   
 47  22  50  1   
 48  22  51  1   
 49  22  52  1   
 50  23  26  ar  
 51  23  27  ar  
 52  24  28  ar  
 53  24  53  1   
 54  25  26  ar  
 55  25  54  1   
 56  27  29  ar  
 57  27  55  1   
 58  28  29  ar  
 59  28  56  1   
 60  29  57  1   
@<TRIPOS>SUBSTRUCTURE
  1 ****  14 GROUP 4 **** **** 0

# MOE 2024.06 (io_trps.svl 2023.06)
