@<TRIPOS>MOLECULE
NONAME
46 48 1 0 0 
SMALL
USER_CHARGES


@<TRIPOS>ATOM
  1 CL      -0.9680    -0.9250     2.7460 Cl    1 <1>  -0.1770 
  2 C       -1.7790    -1.4450     1.2940 C.ar  1 <1>   0.1770 
  3 C       -2.0250    -0.5250     0.2940 C.ar  1 <1>  -0.1500 
  4 C       -2.1630    -2.7670     1.1690 C.ar  1 <1>  -0.1500 
  5 C       -2.6680    -0.9670    -0.8440 C.ar  1 <1>   0.1770 
  6 C       -2.8210    -3.2180     0.0240 C.ar  1 <1>   0.0860 
  7 CL      -2.9950     0.1630    -2.1300 Cl    1 <1>  -0.1770 
  8 C       -3.0600    -2.2840    -0.9880 C.ar  1 <1>  -0.1500 
  9 C       -3.2270    -4.6070    -0.1050 C.2   1 <1>   0.5440 
 10 O       -2.5740    -5.4890     0.4220 O.2   1 <1>  -0.5700 
 11 N       -4.3660    -4.9840    -0.7820 N.am  1 <1>  -0.6600 
 12 C       -4.5130    -6.4010    -1.2070 C.3   1 <1>   0.1400 
 13 C       -5.6650    -4.3080    -0.5200 C.3   1 <1>   0.1400 
 14 C       -5.1920    -7.1910    -0.0660 C.3   1 <1>   0.4230 
 15 C       -6.3800    -5.0680     0.6080 C.3   1 <1>  -0.1600 
 16 N       -5.2040    -8.6980    -0.2750 N.4   1 <1>  -0.9590 
 17 C       -6.5780    -6.5860     0.3170 C.3   1 <1>   0.0000 
 18 C       -6.1900    -9.4260     0.5890 C.3   1 <1>   0.3430 
 19 C       -5.3300    -9.1560    -1.6970 C.3   1 <1>   0.2630 
 20 C       -7.0990    -7.2790     1.6120 C.3   1 <1>  -0.1600 
 21 C       -7.5890    -6.7850    -0.8490 C.3   1 <1>   0.1200 
 22 C       -6.4630    -8.6570     1.8800 C.3   1 <1>  -0.1600 
 23 O       -8.7660    -6.0910    -0.6300 O.3   1 <1>  -0.6800 
 24 H       -1.7230     0.5010     0.3990 H     1 <1>   0.1500 
 25 H       -1.9460    -3.4550     1.9680 H     1 <1>   0.1500 
 26 H       -3.5510    -2.5870    -1.8960 H     1 <1>   0.1500 
 27 H       -5.0860    -6.4350    -2.1150 H     1 <1>   0.0800 
 28 H       -3.5380    -6.8130    -1.4050 H     1 <1>   0.0800 
 29 H       -5.5080    -3.2860    -0.2200 H     1 <1>   0.0800 
 30 H       -6.2640    -4.3020    -1.4160 H     1 <1>   0.0800 
 31 H       -4.5650    -7.0160     0.7940 H     1 <1>   0.0800 
 32 H       -5.7900    -4.9420     1.4990 H     1 <1>   0.0800 
 33 H       -7.3260    -4.5910     0.8000 H     1 <1>   0.0800 
 34 H       -4.2720    -8.9980     0.0510 H     1 <1>   0.4500 
 35 H       -7.1220    -9.5440     0.0590 H     1 <1>   0.0800 
 36 H       -5.8150   -10.4110     0.8220 H     1 <1>   0.0800 
 37 H       -6.2690    -8.8360    -2.1160 H     1 <1>   0.0800 
 38 H       -5.2810   -10.2320    -1.7480 H     1 <1>   0.0800 
 39 H       -4.5280    -8.7550    -2.2960 H     1 <1>   0.0800 
 40 H       -6.9050    -6.6650     2.4760 H     1 <1>   0.0800 
 41 H       -8.1680    -7.3930     1.5660 H     1 <1>   0.0800 
 42 H       -7.8460    -7.8210    -0.9770 H     1 <1>   0.0800 
 43 H       -7.1930    -6.4170    -1.7780 H     1 <1>   0.0800 
 44 H       -7.1230    -9.2340     2.5040 H     1 <1>   0.0800 
 45 H       -5.5390    -8.5400     2.4220 H     1 <1>   0.0800 
 46 H       -9.2520    -6.4190     0.1520 H     1 <1>   0.4000 
@<TRIPOS>BOND
  1   1   2  1   
  2   2   3  ar  
  3   2   4  ar  
  4   3   5  ar  
  5   3  24  1   
  6   4   6  ar  
  7   4  25  1   
  8   5   7  1   
  9   5   8  ar  
 10   6   8  ar  
 11   6   9  1   
 12   8  26  1   
 13   9  10  2   
 14   9  11  am  
 15  11  12  1   
 16  11  13  1   
 17  12  14  1   
 18  12  27  1   
 19  12  28  1   
 20  13  15  1   
 21  13  29  1   
 22  13  30  1   
 23  14  16  1   
 24  14  17  1   
 25  14  31  1   
 26  15  17  1   
 27  15  32  1   
 28  15  33  1   
 29  16  18  1   
 30  16  19  1   
 31  16  34  1   
 32  17  20  1   
 33  17  21  1   
 34  18  22  1   
 35  18  35  1   
 36  18  36  1   
 37  19  37  1   
 38  19  38  1   
 39  19  39  1   
 40  20  22  1   
 41  20  40  1   
 42  20  41  1   
 43  21  23  1   
 44  21  42  1   
 45  21  43  1   
 46  22  44  1   
 47  22  45  1   
 48  23  46  1   
@<TRIPOS>SUBSTRUCTURE
  1 ****  11 GROUP 4 **** **** 0

# MOE 2024.06 (io_trps.svl 2023.06)
