@<TRIPOS>MOLECULE
NONAME
31 31 1 0 0 
SMALL
USER_CHARGES


@<TRIPOS>ATOM
  1 O        0.0460     0.0590    -0.3990 O.2   1 <1>  -0.5700 
  2 C       -0.5720    -0.9590    -0.1440 C.2   1 <1>   0.7800 
  3 O        0.0620    -2.1080     0.0970 O.3   1 <1>  -0.4300 
  4 N       -1.9230    -1.0190    -0.0820 N.am  1 <1>  -0.4930 
  5 C        1.4540    -2.3380     0.1000 C.3   1 <1>   0.2800 
  6 C       -2.9200    -0.0380    -0.2710 C.2   1 <1>   0.0630 
  7 C        2.0400    -2.0680    -1.2910 C.3   1 <1>  -0.2400 
  8 C        1.6120    -3.8220     0.4330 C.3   1 <1>  -0.2400 
  9 C        2.1280    -1.4990     1.1920 C.3   1 <1>  -0.2400 
 10 C       -4.3080    -0.2580    -0.1710 C.2   1 <1>   0.0560 
 11 C       -2.7670     1.2630    -0.5740 C.2   1 <1>  -0.3020 
 12 N       -4.9490     0.8850    -0.4100 N.2   1 <1>  -0.7070 
 13 C       -4.8580    -1.5880     0.1530 C.2   1 <1>   1.0330 
 14 N       -4.0000     1.7920    -0.6510 N.pl3 1 <1>   0.3140 
 15 O       -6.0810    -1.8180     0.2500 O.co2 1 <1>  -0.9000 
 16 O       -4.0870    -2.5610     0.3480 O.co2 1 <1>  -0.9000 
 17 C       -4.3250     3.1860    -0.9590 C.3   1 <1>   0.0160 
 18 H       -2.3360    -1.9420     0.1440 H     1 <1>   0.3700 
 19 H        1.4950    -2.6170    -2.0380 H     1 <1>   0.0800 
 20 H        3.0690    -2.3760    -1.3230 H     1 <1>   0.0800 
 21 H        2.0060    -1.0210    -1.5300 H     1 <1>   0.0800 
 22 H        1.1200    -4.4230    -0.3090 H     1 <1>   0.0800 
 23 H        1.1800    -4.0330     1.3950 H     1 <1>   0.0800 
 24 H        2.6510    -4.0930     0.4590 H     1 <1>   0.0800 
 25 H        2.0950    -0.4530     0.9540 H     1 <1>   0.0800 
 26 H        3.1610    -1.7790     1.2850 H     1 <1>   0.0800 
 27 H        1.6430    -1.6620     2.1380 H     1 <1>   0.0800 
 28 H       -1.8640     1.8200    -0.7340 H     1 <1>   0.1500 
 29 H       -3.8820     3.8220    -0.2160 H     1 <1>   0.0800 
 30 H       -5.3930     3.3060    -0.9480 H     1 <1>   0.0800 
 31 H       -3.9430     3.4290    -1.9320 H     1 <1>   0.0800 
@<TRIPOS>BOND
  1   1   2  2   
  2   2   3  1   
  3   2   4  am  
  4   3   5  1   
  5   4   6  1   
  6   4  18  1   
  7   5   7  1   
  8   5   8  1   
  9   5   9  1   
 10   6  10  1   
 11   6  11  2   
 12   7  19  1   
 13   7  20  1   
 14   7  21  1   
 15   8  22  1   
 16   8  23  1   
 17   8  24  1   
 18   9  25  1   
 19   9  26  1   
 20   9  27  1   
 21  10  12  2   
 22  10  13  1   
 23  11  14  1   
 24  11  28  1   
 25  12  14  1   
 26  13  15  ar  
 27  13  16  ar  
 28  14  17  1   
 29  17  29  1   
 30  17  30  1   
 31  17  31  1   
@<TRIPOS>SUBSTRUCTURE
  1 ****   4 GROUP 4 **** **** 0

# MOE 2024.06 (io_trps.svl 2023.06)
