@<TRIPOS>MOLECULE
NONAME
48 51 1 0 0 
SMALL
USER_CHARGES


@<TRIPOS>ATOM
  1 S       -1.5530    -1.1870     1.2210 S.3   1 <1>  -0.0800 
  2 C       -1.3510    -1.9940    -0.3280 C.2   1 <1>  -0.1400 
  3 C       -2.5980     0.0250     0.5030 C.2   1 <1>  -0.1100 
  4 C       -2.0400    -1.3500    -1.2890 C.2   1 <1>  -0.1500 
  5 C       -0.4670    -3.2230    -0.3530 C.3   1 <1>   0.5230 
  6 C       -2.7520    -0.2020    -0.8140 C.2   1 <1>  -0.1500 
  7 N       -1.3090    -4.4450    -0.2860 N.4   1 <1>  -0.9590 
  8 C       -2.1570    -4.5460     0.9370 C.3   1 <1>   0.3430 
  9 C       -0.5660    -5.6950    -0.5530 C.3   1 <1>   0.3430 
 10 C       -3.3270    -5.5230     0.7020 C.3   1 <1>   0.1100 
 11 C       -1.3240    -6.4830    -1.6190 C.3   1 <1>  -0.1600 
 12 N       -3.5640    -5.8210    -0.7430 N.3   1 <1>  -0.8100 
 13 C       -2.7280    -6.9460    -1.2120 C.3   1 <1>   0.1100 
 14 C       -5.0030    -6.0990    -0.9960 C.3   1 <1>   0.2900 
 15 C       -5.4880    -7.3890    -0.3450 C.2   1 <1>  -0.0400 
 16 O       -5.5670    -7.4860     0.9530 O.3   1 <1>  -0.0190 
 17 C       -5.8990    -8.5550    -0.8620 C.2   1 <1>  -0.1500 
 18 N       -5.9940    -8.6500     1.3330 N.2   1 <1>  -0.4100 
 19 C       -6.2140    -9.3400     0.2550 C.2   1 <1>   0.2350 
 20 C       -6.7110   -10.7010     0.2290 C.ar  1 <1>   0.0540 
 21 C       -7.3460   -11.2540     1.3420 C.ar  1 <1>   0.1600 
 22 C       -6.5830   -11.5180    -0.8880 C.ar  1 <1>  -0.1500 
 23 N       -7.8440   -12.4790     1.4270 N.ar  1 <1>  -0.6200 
 24 C       -7.0920   -12.7970    -0.8210 C.ar  1 <1>  -0.1500 
 25 C       -7.7050   -13.2240     0.3430 C.ar  1 <1>   0.1600 
 26 H       -2.9900     0.7910     1.1500 H     1 <1>   0.1500 
 27 H       -2.0890    -1.6200    -2.3310 H     1 <1>   0.1500 
 28 H        0.2270    -3.1930     0.4710 H     1 <1>   0.0800 
 29 H        0.0950    -3.2250    -1.2730 H     1 <1>   0.0800 
 30 H       -3.3430     0.4000    -1.4840 H     1 <1>   0.1500 
 31 H       -2.0280    -4.3970    -1.0300 H     1 <1>   0.4500 
 32 H       -2.5830    -3.5830     1.1610 H     1 <1>   0.0800 
 33 H       -1.5750    -4.8540     1.7890 H     1 <1>   0.0800 
 34 H       -0.4740    -6.2800     0.3480 H     1 <1>   0.0800 
 35 H        0.4230    -5.4700    -0.9170 H     1 <1>   0.0800 
 36 H       -4.2060    -5.0740     1.1350 H     1 <1>   0.0800 
 37 H       -3.1490    -6.4340     1.2490 H     1 <1>   0.0800 
 38 H       -0.7470    -7.3590    -1.8600 H     1 <1>   0.0800 
 39 H       -1.3890    -5.9010    -2.5210 H     1 <1>   0.0800 
 40 H       -2.6690    -7.7100    -0.4530 H     1 <1>   0.0800 
 41 H       -3.1830    -7.3960    -2.0800 H     1 <1>   0.0800 
 42 H       -5.1600    -6.1680    -2.0590 H     1 <1>   0.0800 
 43 H       -5.6000    -5.2770    -0.6390 H     1 <1>   0.0800 
 44 H       -5.9850    -8.8500    -1.8900 H     1 <1>   0.1500 
 45 H       -7.4510   -10.6370     2.2180 H     1 <1>   0.1500 
 46 H       -6.0980   -11.1750    -1.7830 H     1 <1>   0.1500 
 47 H       -7.0150   -13.4630    -1.6610 H     1 <1>   0.1500 
 48 H       -8.1010   -14.2250     0.3870 H     1 <1>   0.1500 
@<TRIPOS>BOND
  1   1   2  1   
  2   1   3  1   
  3   2   4  2   
  4   2   5  1   
  5   3   6  2   
  6   3  26  1   
  7   4   6  1   
  8   4  27  1   
  9   5   7  1   
 10   5  28  1   
 11   5  29  1   
 12   6  30  1   
 13   7   8  1   
 14   7   9  1   
 15   7  31  1   
 16   8  10  1   
 17   8  32  1   
 18   8  33  1   
 19   9  11  1   
 20   9  34  1   
 21   9  35  1   
 22  10  12  1   
 23  10  36  1   
 24  10  37  1   
 25  11  13  1   
 26  11  38  1   
 27  11  39  1   
 28  12  13  1   
 29  12  14  1   
 30  13  40  1   
 31  13  41  1   
 32  14  15  1   
 33  14  42  1   
 34  14  43  1   
 35  15  16  1   
 36  15  17  2   
 37  16  18  1   
 38  17  19  1   
 39  17  44  1   
 40  18  19  2   
 41  19  20  1   
 42  20  21  ar  
 43  20  22  ar  
 44  21  23  ar  
 45  21  45  1   
 46  22  24  ar  
 47  22  46  1   
 48  23  25  ar  
 49  24  25  ar  
 50  24  47  1   
 51  25  48  1   
@<TRIPOS>SUBSTRUCTURE
  1 ****  12 GROUP 4 **** **** 0

# MOE 2024.06 (io_trps.svl 2023.06)
