@<TRIPOS>MOLECULE
NONAME
45 48 1 0 0 
SMALL
USER_CHARGES


@<TRIPOS>ATOM
  1 O       -1.7840     0.0190    -0.6510 O.2   1 <1>  -0.5700 
  2 C       -2.1380     0.7630     0.2570 C.2   1 <1>   0.5650 
  3 N       -1.9290     2.1680     0.1770 N.pl3 1 <1>   0.5610 
  4 C       -2.7760     0.2660     1.4400 C.2   1 <1>   0.0290 
  5 N       -1.4000     2.9240    -0.8420 N.2   1 <1>  -0.7070 
  6 C       -2.2960     2.9950     1.2080 C.2   1 <1>  -0.0680 
  7 C       -3.0390    -1.1350     1.5630 C.2   1 <1>   0.6160 
  8 C       -3.1040     1.1280     2.4570 C.2   1 <1>  -0.0500 
  9 C       -1.4430     4.1470    -0.4250 C.2   1 <1>   0.1080 
 10 N       -2.8800     2.4700     2.3680 N.pl3 1 <1>  -0.5840 
 11 C       -1.9900     4.2610     0.8480 C.2   1 <1>  -0.1500 
 12 O       -2.6120    -1.7310     2.5360 O.2   1 <1>  -0.5700 
 13 N       -3.8210    -1.8420     0.6750 N.am  1 <1>  -0.6600 
 14 C       -0.9410     5.3000    -1.2630 C.3   1 <1>  -0.0590 
 15 C       -4.5760    -1.2970    -0.4840 C.3   1 <1>   0.1400 
 16 C       -3.9780    -3.3160     0.7410 C.3   1 <1>   0.1400 
 17 C       -5.5680    -2.4030    -0.8370 C.3   1 <1>   0.2000 
 18 C       -4.8040    -3.6880    -0.4970 C.3   1 <1>  -0.0800 
 19 O       -6.6670    -2.2810     0.0010 O.3   1 <1>  -0.6800 
 20 C       -5.6850    -4.9380    -0.3090 C.3   1 <1>   0.0200 
 21 C       -4.8770    -6.2110    -0.1210 C.2   1 <1>  -0.0400 
 22 O       -5.5080    -7.3170     0.1740 O.3   1 <1>  -0.0190 
 23 C       -3.5660    -6.4980    -0.1950 C.2   1 <1>  -0.1500 
 24 N       -4.6930    -8.3240     0.3050 N.2   1 <1>  -0.4100 
 25 C       -3.5160    -7.8600     0.0890 C.2   1 <1>   0.1080 
 26 C       -2.2520    -8.6880     0.1390 C.3   1 <1>  -0.0590 
 27 H       -3.5520     0.7540     3.3660 H     1 <1>   0.1500 
 28 H       -3.1180     3.1110     3.1390 H     1 <1>   0.4000 
 29 H       -2.1320     5.1700     1.4020 H     1 <1>   0.1500 
 30 H       -1.0530     6.2290    -0.7360 H     1 <1>   0.0800 
 31 H       -1.4970     5.3450    -2.1810 H     1 <1>   0.0800 
 32 H        0.0980     5.1490    -1.4940 H     1 <1>   0.0800 
 33 H       -5.0740    -0.3720    -0.2490 H     1 <1>   0.0800 
 34 H       -3.9010    -1.1490    -1.3090 H     1 <1>   0.0800 
 35 H       -3.0140    -3.7960     0.7390 H     1 <1>   0.0800 
 36 H       -4.4990    -3.5740     1.6480 H     1 <1>   0.0800 
 37 H       -5.9060    -2.3600    -1.8580 H     1 <1>   0.0800 
 38 H       -4.1170    -3.8740    -1.3040 H     1 <1>   0.0800 
 39 H       -6.3520    -2.1910     0.9230 H     1 <1>   0.4000 
 40 H       -6.3170    -5.0620    -1.1710 H     1 <1>   0.0800 
 41 H       -6.3250    -4.8130     0.5470 H     1 <1>   0.0800 
 42 H       -2.7240    -5.8700    -0.4180 H     1 <1>   0.1500 
 43 H       -1.7360    -8.6250    -0.8010 H     1 <1>   0.0800 
 44 H       -2.4950    -9.7170     0.3340 H     1 <1>   0.0800 
 45 H       -1.6110    -8.3270     0.9220 H     1 <1>   0.0800 
@<TRIPOS>BOND
  1   1   2  2   
  2   2   3  1   
  3   2   4  1   
  4   3   5  1   
  5   3   6  1   
  6   4   7  1   
  7   4   8  2   
  8   5   9  2   
  9   6  10  1   
 10   6  11  2   
 11   7  12  2   
 12   7  13  am  
 13   8  10  1   
 14   8  27  1   
 15   9  11  1   
 16   9  14  1   
 17  10  28  1   
 18  11  29  1   
 19  13  15  1   
 20  13  16  1   
 21  14  30  1   
 22  14  31  1   
 23  14  32  1   
 24  15  17  1   
 25  15  33  1   
 26  15  34  1   
 27  16  18  1   
 28  16  35  1   
 29  16  36  1   
 30  17  18  1   
 31  17  19  1   
 32  17  37  1   
 33  18  20  1   
 34  18  38  1   
 35  19  39  1   
 36  20  21  1   
 37  20  40  1   
 38  20  41  1   
 39  21  22  1   
 40  21  23  2   
 41  22  24  1   
 42  23  25  1   
 43  23  42  1   
 44  24  25  2   
 45  25  26  1   
 46  26  43  1   
 47  26  44  1   
 48  26  45  1   
@<TRIPOS>SUBSTRUCTURE
  1 ****  13 GROUP 4 **** **** 0

# MOE 2024.06 (io_trps.svl 2023.06)
