@<TRIPOS>MOLECULE
NONAME
60 63 1 0 0 
SMALL
USER_CHARGES


@<TRIPOS>ATOM
  1 O       -0.4140     0.1790     1.2030 O.2   1 <1>  -0.5700 
  2 C       -1.2410     0.7430     0.5260 C.2   1 <1>   0.5690 
  3 N       -2.2120     0.0490    -0.1390 N.am  1 <1>  -0.6600 
  4 C       -1.1840     2.2640     0.4270 C.3   1 <1>  -0.0990 
  5 C       -3.3820     0.6200    -0.8550 C.3   1 <1>   0.1400 
  6 C       -2.3170    -1.4290    -0.0750 C.3   1 <1>   0.1400 
  7 C        0.2140     2.8580     0.7110 C.3   1 <1>  -0.0800 
  8 C       -4.2580    -0.5810    -1.2200 C.3   1 <1>   0.2000 
  9 C       -3.7940    -1.7310    -0.3270 C.3   1 <1>  -0.0800 
 10 C        0.1730     4.3940     0.7420 C.3   1 <1>  -0.1600 
 11 C        1.2550     2.3960    -0.3240 C.3   1 <1>  -0.1600 
 12 O       -5.5990    -0.3190    -0.9920 O.3   1 <1>  -0.6800 
 13 C       -4.0590    -3.1100    -0.9570 C.3   1 <1>  -0.0170 
 14 C        1.5610     4.9830     1.0020 C.3   1 <1>   0.3430 
 15 C        2.6270     3.0020    -0.0380 C.3   1 <1>   0.3430 
 16 C       -3.5990    -4.2430    -0.0520 C.ar  1 <1>   0.1660 
 17 N        2.5240     4.4880    -0.0270 N.4   1 <1>  -0.9590 
 18 N       -2.3150    -4.5570    -0.1060 N.ar  1 <1>  -0.6200 
 19 C       -4.5150    -4.8890     0.7760 C.ar  1 <1>   0.1600 
 20 C        3.8600     5.1220     0.1260 C.3   1 <1>   0.4860 
 21 C       -2.0090    -5.5440     0.7200 C.ar  1 <1>   0.1600 
 22 N       -4.2120    -5.8770     1.6020 N.ar  1 <1>  -0.6200 
 23 C        3.7180     6.6100    -0.1260 C.ar  1 <1>  -0.1440 
 24 C       -2.9270    -6.1820     1.5450 C.ar  1 <1>   0.1600 
 25 C        3.7750     7.5060     0.9330 C.ar  1 <1>  -0.1500 
 26 C        3.5230     7.0870    -1.4150 C.ar  1 <1>  -0.1500 
 27 C        3.6240     8.8620     0.7060 C.ar  1 <1>  -0.1500 
 28 C        3.3720     8.4440    -1.6390 C.ar  1 <1>  -0.1500 
 29 C        3.4210     9.3310    -0.5790 C.ar  1 <1>  -0.1500 
 30 H       -1.5010     2.5680    -0.5520 H     1 <1>   0.0800 
 31 H       -1.8870     2.6540     1.1400 H     1 <1>   0.0800 
 32 H       -3.9080     1.2970    -0.2040 H     1 <1>   0.0800 
 33 H       -3.0600     1.1300    -1.7460 H     1 <1>   0.0800 
 34 H       -1.7000    -1.8590    -0.8460 H     1 <1>   0.0800 
 35 H       -1.9960    -1.8050     0.8830 H     1 <1>   0.0800 
 36 H        0.5260     2.5150     1.6860 H     1 <1>   0.0800 
 37 H       -4.1310    -0.8180    -2.2630 H     1 <1>   0.0800 
 38 H       -4.2940    -1.6720     0.6240 H     1 <1>   0.0800 
 39 H       -0.4890     4.7200     1.5260 H     1 <1>   0.0800 
 40 H       -0.2110     4.7800    -0.1860 H     1 <1>   0.0800 
 41 H        0.9430     2.6600    -1.3190 H     1 <1>   0.0800 
 42 H        1.3540     1.3250    -0.2930 H     1 <1>   0.0800 
 43 H       -5.7570    -0.1400    -0.0450 H     1 <1>   0.4000 
 44 H       -3.5460    -3.1890    -1.9000 H     1 <1>   0.0800 
 45 H       -5.1110    -3.2120    -1.1530 H     1 <1>   0.0800 
 46 H        1.8960     4.6930     1.9850 H     1 <1>   0.0800 
 47 H        1.5020     6.0600     0.9670 H     1 <1>   0.0800 
 48 H        3.3250     2.6810    -0.7960 H     1 <1>   0.0800 
 49 H        2.9780     2.6500     0.9190 H     1 <1>   0.0800 
 50 H        2.1610     4.7940    -0.9370 H     1 <1>   0.4500 
 51 H       -5.5430    -4.5740     0.7580 H     1 <1>   0.1500 
 52 H        4.2460     4.9480     1.1170 H     1 <1>   0.0800 
 53 H        4.5530     4.7080    -0.5890 H     1 <1>   0.0800 
 54 H       -0.9830    -5.8630     0.7450 H     1 <1>   0.1500 
 55 H       -2.5820    -6.9760     2.1840 H     1 <1>   0.1500 
 56 H        3.9390     7.1660     1.9420 H     1 <1>   0.1500 
 57 H        3.4900     6.4180    -2.2580 H     1 <1>   0.1500 
 58 H        3.6680     9.5590     1.5270 H     1 <1>   0.1500 
 59 H        3.2200     8.8150    -2.6390 H     1 <1>   0.1500 
 60 H        3.3040    10.3870    -0.7550 H     1 <1>   0.1500 
@<TRIPOS>BOND
  1   1   2  2   
  2   2   3  am  
  3   2   4  1   
  4   3   5  1   
  5   3   6  1   
  6   4   7  1   
  7   4  30  1   
  8   4  31  1   
  9   5   8  1   
 10   5  32  1   
 11   5  33  1   
 12   6   9  1   
 13   6  34  1   
 14   6  35  1   
 15   7  10  1   
 16   7  11  1   
 17   7  36  1   
 18   8   9  1   
 19   8  12  1   
 20   8  37  1   
 21   9  13  1   
 22   9  38  1   
 23  10  14  1   
 24  10  39  1   
 25  10  40  1   
 26  11  15  1   
 27  11  41  1   
 28  11  42  1   
 29  12  43  1   
 30  13  16  1   
 31  13  44  1   
 32  13  45  1   
 33  14  17  1   
 34  14  46  1   
 35  14  47  1   
 36  15  17  1   
 37  15  48  1   
 38  15  49  1   
 39  16  18  ar  
 40  16  19  ar  
 41  17  20  1   
 42  17  50  1   
 43  18  21  ar  
 44  19  22  ar  
 45  19  51  1   
 46  20  23  1   
 47  20  52  1   
 48  20  53  1   
 49  21  24  ar  
 50  21  54  1   
 51  22  24  ar  
 52  23  25  ar  
 53  23  26  ar  
 54  24  55  1   
 55  25  27  ar  
 56  25  56  1   
 57  26  28  ar  
 58  26  57  1   
 59  27  29  ar  
 60  27  58  1   
 61  28  29  ar  
 62  28  59  1   
 63  29  60  1   
@<TRIPOS>SUBSTRUCTURE
  1 ****   2 GROUP 4 **** **** 0

# MOE 2024.06 (io_trps.svl 2023.06)
