@<TRIPOS>MOLECULE
NONAME
41 42 1 0 0 
SMALL
USER_CHARGES


@<TRIPOS>ATOM
  1 S        1.3320     0.7540    -0.7900 S.3   1 <1>  -0.3320 
  2 C        0.5580     2.2050    -0.0640 C.ar  1 <1>   0.1020 
  3 C        0.0030    -0.5130    -0.9970 C.3   1 <1>  -0.0100 
  4 C        1.3930     3.2670     0.2280 C.ar  1 <1>  -0.1500 
  5 C       -0.8010     2.2770     0.1920 C.ar  1 <1>  -0.1500 
  6 C        0.8690     4.4300     0.7740 C.ar  1 <1>  -0.1430 
  7 C       -1.3220     3.4330     0.7480 C.ar  1 <1>  -0.1500 
  8 C       -0.4930     4.5040     1.0380 C.ar  1 <1>  -0.1500 
  9 C        1.7820     5.6030     1.0640 C.3   1 <1>   0.4860 
 10 N        2.2060     6.1890    -0.2390 N.4   1 <1>  -0.9590 
 11 C        3.3670     7.1170    -0.0300 C.3   1 <1>   0.3430 
 12 C        1.0470     6.8470    -0.9270 C.3   1 <1>   0.2630 
 13 C        4.0430     7.5550    -1.3350 C.3   1 <1>   0.0960 
 14 N        5.1870     8.4170    -1.0090 N.pl3 1 <1>   0.3140 
 15 N        5.3630     8.9270     0.2240 N.2   1 <1>  -0.7070 
 16 C        6.1690     8.8040    -1.8440 C.2   1 <1>  -0.3020 
 17 C        6.4510     9.6270     0.1430 C.2   1 <1>   0.1080 
 18 C        7.0040     9.5880    -1.1310 C.2   1 <1>  -0.1500 
 19 C        7.0240    10.3860     1.3170 C.3   1 <1>  -0.0590 
 20 H        0.4570    -1.3960    -1.4070 H     1 <1>   0.0800 
 21 H       -0.7350    -0.1160    -1.6710 H     1 <1>   0.0800 
 22 H       -0.4170    -0.7160    -0.0280 H     1 <1>   0.0800 
 23 H        2.4440     3.1570     0.0250 H     1 <1>   0.1500 
 24 H       -1.4550     1.4560    -0.0310 H     1 <1>   0.1500 
 25 H       -2.3780     3.4950     0.9560 H     1 <1>   0.1500 
 26 H       -0.9250     5.3890     1.4730 H     1 <1>   0.1500 
 27 H        2.6410     5.2530     1.6140 H     1 <1>   0.0800 
 28 H        1.2700     6.3400     1.6620 H     1 <1>   0.0800 
 29 H        2.5030     5.3840    -0.8100 H     1 <1>   0.4500 
 30 H        4.1110     6.6300     0.5800 H     1 <1>   0.0800 
 31 H        3.0360     7.9980     0.4990 H     1 <1>   0.0800 
 32 H        0.6850     7.6780    -0.3430 H     1 <1>   0.0800 
 33 H        0.2410     6.1410    -1.0570 H     1 <1>   0.0800 
 34 H        1.3390     7.2080    -1.8990 H     1 <1>   0.0800 
 35 H        3.3680     8.1220    -1.9470 H     1 <1>   0.0800 
 36 H        4.4090     6.7030    -1.8770 H     1 <1>   0.0800 
 37 H        6.2270     8.5130    -2.8770 H     1 <1>   0.1500 
 38 H        7.9040    10.0850    -1.4510 H     1 <1>   0.1500 
 39 H        6.3060    11.1050     1.6660 H     1 <1>   0.0800 
 40 H        7.9240    10.8990     1.0310 H     1 <1>   0.0800 
 41 H        7.2490     9.7020     2.1140 H     1 <1>   0.0800 
@<TRIPOS>BOND
  1   1   2  1   
  2   1   3  1   
  3   2   4  ar  
  4   2   5  ar  
  5   3  20  1   
  6   3  21  1   
  7   3  22  1   
  8   4   6  ar  
  9   4  23  1   
 10   5   7  ar  
 11   5  24  1   
 12   6   8  ar  
 13   6   9  1   
 14   7   8  ar  
 15   7  25  1   
 16   8  26  1   
 17   9  10  1   
 18   9  27  1   
 19   9  28  1   
 20  10  11  1   
 21  10  12  1   
 22  10  29  1   
 23  11  13  1   
 24  11  30  1   
 25  11  31  1   
 26  12  32  1   
 27  12  33  1   
 28  12  34  1   
 29  13  14  1   
 30  13  35  1   
 31  13  36  1   
 32  14  15  1   
 33  14  16  1   
 34  15  17  2   
 35  16  18  2   
 36  16  37  1   
 37  17  18  1   
 38  17  19  1   
 39  18  38  1   
 40  19  39  1   
 41  19  40  1   
 42  19  41  1   
@<TRIPOS>SUBSTRUCTURE
  1 ****  10 GROUP 4 **** **** 0

# MOE 2024.06 (io_trps.svl 2023.06)
