@<TRIPOS>MOLECULE
NONAME
42 43 1 0 0 
SMALL
USER_CHARGES


@<TRIPOS>ATOM
  1 S       -0.1750     0.3700     1.4530 S.o2  1 <1>   1.4470 
  2 O        0.4110    -0.6000     2.3530 O.2   1 <1>  -0.6500 
  3 O       -0.8840     1.5070     2.0010 O.2   1 <1>  -0.6500 
  4 N       -1.2430    -0.4450     0.4200 N.am  1 <1>  -0.8490 
  5 C        1.0940     0.9900     0.3100 C.ar  1 <1>  -0.0090 
  6 C       -0.6700    -1.6800    -0.2080 C.3   1 <1>   0.1960 
  7 C       -2.5490    -0.6920     1.0530 C.3   1 <1>   0.1960 
  8 C        2.4480     0.7410     0.5330 C.ar  1 <1>  -0.1500 
  9 C        0.7350     1.7340    -0.8120 C.ar  1 <1>  -0.1500 
 10 C       -1.6080    -2.9730    -0.1140 C.3   1 <1>  -0.1060 
 11 C       -3.5200    -1.2770     0.0230 C.3   1 <1>  -0.1600 
 12 C        3.4190     1.2180    -0.3340 C.ar  1 <1>  -0.1500 
 13 C        1.6900     2.2200    -1.6910 C.ar  1 <1>  -0.1500 
 14 C       -2.5550    -4.1890     0.0280 C.2   1 <1>   0.9060 
 15 C       -2.7400    -2.1710    -0.9400 C.3   1 <1>   0.2000 
 16 C       -0.4650    -3.7960     0.6620 C.3   1 <1>  -0.1600 
 17 C        3.0190     1.9510    -1.4340 C.ar  1 <1>   0.1900 
 18 O       -2.6130    -5.0390    -0.8770 O.co2 1 <1>  -0.9000 
 19 O       -3.2640    -4.2840     1.0400 O.co2 1 <1>  -0.9000 
 20 O       -3.6450    -2.8460    -1.7640 O.3   1 <1>  -0.6800 
 21 C        0.6050    -4.3640    -0.2960 C.3   1 <1>  -0.1600 
 22 F        3.9260     2.4020    -2.2560 F     1 <1>  -0.1900 
 23 C        1.7220    -5.0680     0.4800 C.3   1 <1>  -0.2400 
 24 H       -0.4560    -1.4660    -1.2430 H     1 <1>   0.0800 
 25 H        0.3300    -1.7870     0.1740 H     1 <1>   0.0800 
 26 H       -2.4240    -1.3880     1.8690 H     1 <1>   0.0800 
 27 H       -2.9590     0.2210     1.4510 H     1 <1>   0.0800 
 28 H        2.7450     0.1690     1.3970 H     1 <1>   0.1500 
 29 H       -0.3090     1.9340    -0.9930 H     1 <1>   0.1500 
 30 H       -3.9940    -0.4840    -0.5240 H     1 <1>   0.0800 
 31 H       -4.2730    -1.8470     0.5370 H     1 <1>   0.0800 
 32 H        4.4640     1.0290    -0.1630 H     1 <1>   0.1500 
 33 H        1.4130     2.7960    -2.5560 H     1 <1>   0.1500 
 34 H       -2.3160    -1.4970    -1.6650 H     1 <1>   0.0800 
 35 H       -0.0100    -3.2210     1.4540 H     1 <1>   0.0800 
 36 H       -0.8070    -4.6500     1.2350 H     1 <1>   0.0800 
 37 H       -3.5040    -3.8300    -1.6130 H     1 <1>   0.4000 
 38 H        0.1330    -5.0730    -0.9570 H     1 <1>   0.0800 
 39 H        1.0400    -3.5950    -0.9080 H     1 <1>   0.0800 
 40 H        1.3150    -5.8780     1.0600 H     1 <1>   0.0800 
 41 H        2.2130    -4.3780     1.1420 H     1 <1>   0.0800 
 42 H        2.4480    -5.4700    -0.2040 H     1 <1>   0.0800 
@<TRIPOS>BOND
  1   1   2  2   
  2   1   3  2   
  3   1   4  am  
  4   1   5  1   
  5   4   6  1   
  6   4   7  1   
  7   5   8  ar  
  8   5   9  ar  
  9   6  10  1   
 10   6  24  1   
 11   6  25  1   
 12   7  11  1   
 13   7  26  1   
 14   7  27  1   
 15   8  12  ar  
 16   8  28  1   
 17   9  13  ar  
 18   9  29  1   
 19  10  14  1   
 20  10  15  1   
 21  10  16  1   
 22  11  15  1   
 23  11  30  1   
 24  11  31  1   
 25  12  17  ar  
 26  12  32  1   
 27  13  17  ar  
 28  13  33  1   
 29  14  18  ar  
 30  14  19  ar  
 31  15  20  1   
 32  15  34  1   
 33  16  21  1   
 34  16  35  1   
 35  16  36  1   
 36  17  22  1   
 37  20  37  1   
 38  21  23  1   
 39  21  38  1   
 40  21  39  1   
 41  23  40  1   
 42  23  41  1   
 43  23  42  1   
@<TRIPOS>SUBSTRUCTURE
  1 ****   6 GROUP 4 **** **** 0

# MOE 2024.06 (io_trps.svl 2023.06)
