@<TRIPOS>MOLECULE
NONAME
33 35 1 0 0 
SMALL
USER_CHARGES


@<TRIPOS>ATOM
  1 O        0.6240     0.5900    -0.9020 O.3   1 <1>  -0.8500 
  2 C        1.7330     1.0440    -0.5780 C.2   1 <1>  -0.1500 
  3 C        1.9250     2.3770    -0.2580 C.2   1 <1>  -0.1360 
  4 C        2.8680     0.1920    -0.5260 C.2   1 <1>  -0.1500 
  5 C        3.1760     2.8710     0.1000 C.2   1 <1>   0.6160 
  6 C        4.0960     0.6530    -0.1750 C.2   1 <1>  -0.0290 
  7 O        3.3540     4.0760     0.3710 O.2   1 <1>  -0.5700 
  8 N        4.2820     2.0030     0.1500 N.am  1 <1>  -0.4690 
  9 C        5.2810    -0.3000    -0.1360 C.3   1 <1>  -0.1020 
 10 C        5.6130     2.5680     0.5180 C.3   1 <1>   0.1400 
 11 C        6.2950     3.1570    -0.7170 C.3   1 <1>   0.0210 
 12 C        7.7180     3.5640    -0.3960 C.2   1 <1>   0.3350 
 13 N        8.1600     4.7580    -0.4080 N.2   1 <1>  -0.4100 
 14 N        8.6350     2.6630    -0.0710 N.2   1 <1>  -0.5650 
 15 O        9.4170     4.7020    -0.0860 O.3   1 <1>  -0.0190 
 16 C        9.6400     3.4250     0.1020 C.2   1 <1>   0.3930 
 17 C       11.0410     2.9870     0.5000 C.3   1 <1>  -0.0150 
 18 C       12.1130     2.8400    -0.5370 C.3   1 <1>  -0.2000 
 19 C       11.5670     1.6260     0.1550 C.3   1 <1>  -0.2000 
 20 H        1.0870     3.0390    -0.2930 H     1 <1>   0.1500 
 21 H        2.6740    -0.8320    -0.7820 H     1 <1>   0.1500 
 22 H        6.0620     0.0450    -0.7860 H     1 <1>   0.0800 
 23 H        4.9800    -1.2790    -0.4620 H     1 <1>   0.0800 
 24 H        5.6550    -0.3810     0.8680 H     1 <1>   0.0800 
 25 H        6.2310     1.8050     0.9530 H     1 <1>   0.0800 
 26 H        5.4890     3.3350     1.2620 H     1 <1>   0.0800 
 27 H        5.7440     4.0160    -1.0540 H     1 <1>   0.0800 
 28 H        6.3160     2.4280    -1.5050 H     1 <1>   0.0800 
 29 H       11.3270     3.3960     1.4520 H     1 <1>   0.1000 
 30 H       13.1090     3.1720    -0.3000 H     1 <1>   0.1000 
 31 H       11.8580     3.0000    -1.5710 H     1 <1>   0.1000 
 32 H       10.9330     0.9550    -0.3990 H     1 <1>   0.1000 
 33 H       12.1820     1.1150     0.8740 H     1 <1>   0.1000 
@<TRIPOS>BOND
  1   1   2  1   
  2   2   3  2   
  3   2   4  1   
  4   3   5  1   
  5   3  20  1   
  6   4   6  2   
  7   4  21  1   
  8   5   7  2   
  9   5   8  am  
 10   6   8  1   
 11   6   9  1   
 12   8  10  1   
 13   9  22  1   
 14   9  23  1   
 15   9  24  1   
 16  10  11  1   
 17  10  25  1   
 18  10  26  1   
 19  11  12  1   
 20  11  27  1   
 21  11  28  1   
 22  12  13  2   
 23  12  14  1   
 24  13  15  1   
 25  14  16  2   
 26  15  16  1   
 27  16  17  1   
 28  17  18  1   
 29  17  19  1   
 30  17  29  1   
 31  18  19  1   
 32  18  30  1   
 33  18  31  1   
 34  19  32  1   
 35  19  33  1   
@<TRIPOS>SUBSTRUCTURE
  1 ****  10 GROUP 4 **** **** 0

# MOE 2024.06 (io_trps.svl 2023.06)
