@<TRIPOS>MOLECULE
NONAME
56 58 1 0 0 
SMALL
USER_CHARGES


@<TRIPOS>ATOM
  1 O        0.4140     2.6840    -2.2160 O.2   1 <1>  -0.5700 
  2 C       -0.2400     3.6640    -1.9470 C.2   1 <1>   0.5690 
  3 N       -0.7980     3.9000    -0.7170 N.am  1 <1>  -0.6600 
  4 C       -0.4610     4.7000    -3.0430 C.3   1 <1>   0.1810 
  5 C       -1.6030     5.1460    -0.4880 C.3   1 <1>   0.3640 
  6 C       -0.6400     3.0280     0.4780 C.3   1 <1>   0.2200 
  7 O       -0.4050     6.0010    -2.5210 O.3   1 <1>  -0.5600 
  8 C       -3.0920     4.8030    -0.4090 C.ar  1 <1>  -0.1440 
  9 C       -1.3830     6.2870    -1.5270 C.3   1 <1>   0.2610 
 10 C        0.8190     3.0250     0.9300 C.3   1 <1>  -0.2400 
 11 C       -1.1620     1.6150     0.2140 C.3   1 <1>  -0.2400 
 12 C       -3.6760     3.8440    -1.2290 C.ar  1 <1>  -0.1500 
 13 C       -3.8930     5.4820     0.4990 C.ar  1 <1>  -0.1500 
 14 C       -0.9970     7.5560    -0.7660 C.2   1 <1>   0.5690 
 15 C       -5.0290     3.5670    -1.1370 C.ar  1 <1>  -0.1500 
 16 C       -5.2460     5.2070     0.5920 C.ar  1 <1>  -0.1500 
 17 O       -1.7700     8.0120     0.0470 O.2   1 <1>  -0.5700 
 18 N        0.2320     8.0920    -0.9910 N.am  1 <1>  -0.5790 
 19 C       -5.8150     4.2480    -0.2270 C.ar  1 <1>  -0.1500 
 20 C        0.9110     9.1160    -0.1890 C.3   1 <1>   0.0540 
 21 C        1.7200    10.1120    -0.9530 C.3   1 <1>  -0.2000 
 22 C        0.4140    10.5150    -0.3380 C.3   1 <1>  -0.2000 
 23 C        1.3630     8.5990     1.1860 C.3   1 <1>  -0.0650 
 24 C        2.2020     7.3040     1.1460 C.3   1 <1>  -0.0800 
 25 C        2.5030     6.8300     2.5730 C.3   1 <1>  -0.2400 
 26 C        3.5170     7.4900     0.3780 C.3   1 <1>  -0.2400 
 27 H       -1.4170     4.5500    -3.5100 H     1 <1>   0.0800 
 28 H        0.3130     4.6080    -3.7840 H     1 <1>   0.0800 
 29 H       -1.3140     5.5270     0.4770 H     1 <1>   0.0800 
 30 H       -1.2310     3.4360     1.2820 H     1 <1>   0.0800 
 31 H       -2.3070     6.4850    -2.0390 H     1 <1>   0.0800 
 32 H        1.4480     2.5730     0.1850 H     1 <1>   0.0800 
 33 H        0.9180     2.4620     1.8400 H     1 <1>   0.0800 
 34 H        1.1540     4.0290     1.1140 H     1 <1>   0.0800 
 35 H       -0.5640     1.1080    -0.5200 H     1 <1>   0.0800 
 36 H       -2.1820     1.6520    -0.1200 H     1 <1>   0.0800 
 37 H       -1.1280     1.0420     1.1220 H     1 <1>   0.0800 
 38 H       -3.0840     3.2980    -1.9420 H     1 <1>   0.1500 
 39 H       -3.4710     6.2390     1.1410 H     1 <1>   0.1500 
 40 H       -5.4690     2.8200    -1.7740 H     1 <1>   0.1500 
 41 H       -5.8560     5.7410     1.3000 H     1 <1>   0.1500 
 42 H        0.8120     7.6240    -1.6940 H     1 <1>   0.3700 
 43 H       -6.8670     4.0340    -0.1550 H     1 <1>   0.1500 
 44 H        2.6230    10.5030    -0.5170 H     1 <1>   0.1000 
 45 H        1.7780    10.0330    -2.0240 H     1 <1>   0.1000 
 46 H       -0.4450    10.6800    -0.9650 H     1 <1>   0.1000 
 47 H        0.4320    11.1690     0.5150 H     1 <1>   0.1000 
 48 H        1.9230     9.3710     1.6840 H     1 <1>   0.0800 
 49 H        0.4780     8.4270     1.7740 H     1 <1>   0.0800 
 50 H        1.6300     6.5320     0.6600 H     1 <1>   0.0800 
 51 H        3.0830     7.5650     3.1030 H     1 <1>   0.0800 
 52 H        3.0560     5.9070     2.5510 H     1 <1>   0.0800 
 53 H        1.5870     6.6600     3.1120 H     1 <1>   0.0800 
 54 H        4.1040     8.2770     0.8180 H     1 <1>   0.0800 
 55 H        3.3240     7.7380    -0.6490 H     1 <1>   0.0800 
 56 H        4.0920     6.5810     0.3970 H     1 <1>   0.0800 
@<TRIPOS>BOND
  1   1   2  2   
  2   2   3  am  
  3   2   4  1   
  4   3   5  1   
  5   3   6  1   
  6   4   7  1   
  7   4  27  1   
  8   4  28  1   
  9   5   8  1   
 10   5   9  1   
 11   5  29  1   
 12   6  10  1   
 13   6  11  1   
 14   6  30  1   
 15   7   9  1   
 16   8  12  ar  
 17   8  13  ar  
 18   9  14  1   
 19   9  31  1   
 20  10  32  1   
 21  10  33  1   
 22  10  34  1   
 23  11  35  1   
 24  11  36  1   
 25  11  37  1   
 26  12  15  ar  
 27  12  38  1   
 28  13  16  ar  
 29  13  39  1   
 30  14  17  2   
 31  14  18  am  
 32  15  19  ar  
 33  15  40  1   
 34  16  19  ar  
 35  16  41  1   
 36  18  20  1   
 37  18  42  1   
 38  19  43  1   
 39  20  21  1   
 40  20  22  1   
 41  20  23  1   
 42  21  22  1   
 43  21  44  1   
 44  21  45  1   
 45  22  46  1   
 46  22  47  1   
 47  23  24  1   
 48  23  48  1   
 49  23  49  1   
 50  24  25  1   
 51  24  26  1   
 52  24  50  1   
 53  25  51  1   
 54  25  52  1   
 55  25  53  1   
 56  26  54  1   
 57  26  55  1   
 58  26  56  1   
@<TRIPOS>SUBSTRUCTURE
  1 ****   5 GROUP 4 **** **** 0

# MOE 2024.06 (io_trps.svl 2023.06)
