@<TRIPOS>MOLECULE
NONAME
46 49 1 0 0 
SMALL
USER_CHARGES


@<TRIPOS>ATOM
  1 S        0.4300    -0.2150    -0.1100 S.3   1 <1>  -0.0800 
  2 C        0.0470    -1.9330    -0.2130 C.ar  1 <1>   0.2970 
  3 C       -1.0600     0.1170     0.7770 C.2   1 <1>  -0.1100 
  4 N        0.8290    -2.8180    -0.7920 N.ar  1 <1>  -0.5670 
  5 C       -1.1580    -2.1900     0.3910 C.ar  1 <1>   0.0000 
  6 C       -1.7670    -1.0130     0.9560 C.2   1 <1>  -0.1500 
  7 C        0.3380    -4.0410    -0.7400 C.ar  1 <1>   0.4770 
  8 C       -1.5630    -3.5220     0.3560 C.ar  1 <1>   0.4100 
  9 N       -0.8040    -4.4490    -0.2030 N.ar  1 <1>  -0.6200 
 10 C        1.1780    -5.1250    -1.3730 C.3   1 <1>  -0.0960 
 11 N       -2.7730    -3.9220     0.8800 N.pl3 1 <1>  -0.8380 
 12 C       -2.8960    -5.2630     1.5360 C.3   1 <1>   0.2090 
 13 C       -4.0310    -3.4760     0.2090 C.3   1 <1>   0.2090 
 14 C       -3.4600    -6.3320     0.5770 C.3   1 <1>   0.2090 
 15 C       -4.5760    -4.5530    -0.7510 C.3   1 <1>   0.2090 
 16 N       -4.7450    -5.8820    -0.0660 N.pl3 1 <1>  -0.8380 
 17 C       -5.8990    -6.6010    -0.0540 C.ar  1 <1>   0.1000 
 18 C       -7.1540    -5.9830     0.0210 C.ar  1 <1>  -0.1500 
 19 C       -5.8920    -8.0010    -0.1160 C.ar  1 <1>  -0.1500 
 20 C       -8.3110    -6.7200     0.0300 C.ar  1 <1>   0.2180 
 21 C       -7.0590    -8.7200    -0.1050 C.ar  1 <1>   0.2180 
 22 N       -8.2470    -8.0720    -0.0330 N.ar  1 <1>  -0.1790 
 23 C       -9.6790    -6.0660     0.1130 C.3   1 <1>  -0.0970 
 24 C       -7.0680   -10.2380    -0.1770 C.3   1 <1>  -0.0970 
 25 H       -1.2370     1.1370     1.0730 H     1 <1>   0.1500 
 26 H       -2.7060    -1.0930     1.4740 H     1 <1>   0.1500 
 27 H        2.0750    -4.7120    -1.7960 H     1 <1>   0.0800 
 28 H        0.6140    -5.6050    -2.1500 H     1 <1>   0.0800 
 29 H        1.4440    -5.8510    -0.6290 H     1 <1>   0.0800 
 30 H       -3.5480    -5.1770     2.3870 H     1 <1>   0.0800 
 31 H       -1.9320    -5.5810     1.8950 H     1 <1>   0.0800 
 32 H       -3.8470    -2.5740    -0.3480 H     1 <1>   0.0800 
 33 H       -4.7720    -3.2600     0.9580 H     1 <1>   0.0800 
 34 H       -3.6160    -7.2390     1.1320 H     1 <1>   0.0800 
 35 H       -2.7290    -6.5280    -0.1890 H     1 <1>   0.0800 
 36 H       -3.8740    -4.6690    -1.5600 H     1 <1>   0.0800 
 37 H       -5.5050    -4.2230    -1.1770 H     1 <1>   0.0800 
 38 H       -7.1920    -4.9120     0.0860 H     1 <1>   0.1500 
 39 H       -4.9450    -8.5030    -0.1890 H     1 <1>   0.1500 
 40 H       -9.1140    -8.6160    -0.0270 H     1 <1>   0.4570 
 41 H       -9.5840    -4.9950     0.1600 H     1 <1>   0.0800 
 42 H      -10.2000    -6.3930     0.9960 H     1 <1>   0.0800 
 43 H      -10.2670    -6.3110    -0.7540 H     1 <1>   0.0800 
 44 H       -6.0630   -10.6190    -0.2320 H     1 <1>   0.0800 
 45 H       -7.5980   -10.5690    -1.0530 H     1 <1>   0.0800 
 46 H       -7.5360   -10.6530     0.6980 H     1 <1>   0.0800 
@<TRIPOS>BOND
  1   1   2  1   
  2   1   3  1   
  3   2   4  ar  
  4   2   5  ar  
  5   3   6  2   
  6   3  25  1   
  7   4   7  ar  
  8   5   6  1   
  9   5   8  ar  
 10   6  26  1   
 11   7   9  ar  
 12   7  10  1   
 13   8   9  ar  
 14   8  11  1   
 15  10  27  1   
 16  10  28  1   
 17  10  29  1   
 18  11  12  1   
 19  11  13  1   
 20  12  14  1   
 21  12  30  1   
 22  12  31  1   
 23  13  15  1   
 24  13  32  1   
 25  13  33  1   
 26  14  16  1   
 27  14  34  1   
 28  14  35  1   
 29  15  16  1   
 30  15  36  1   
 31  15  37  1   
 32  16  17  1   
 33  17  18  ar  
 34  17  19  ar  
 35  18  20  ar  
 36  18  38  1   
 37  19  21  ar  
 38  19  39  1   
 39  20  22  ar  
 40  20  23  1   
 41  21  22  ar  
 42  21  24  1   
 43  22  40  1   
 44  23  41  1   
 45  23  42  1   
 46  23  43  1   
 47  24  44  1   
 48  24  45  1   
 49  24  46  1   
@<TRIPOS>SUBSTRUCTURE
  1 ****  15 GROUP 4 **** **** 0

# MOE 2024.06 (io_trps.svl 2023.06)
