@<TRIPOS>MOLECULE
NONAME
51 54 1 0 0 
SMALL
USER_CHARGES


@<TRIPOS>ATOM
  1 O       -2.3470    -1.4110     2.3200 O.2   1 <1>  -0.5700 
  2 C       -2.7790    -0.7820     1.3720 C.2   1 <1>   0.5440 
  3 N       -1.9740     0.1690     0.7890 N.am  1 <1>  -0.6600 
  4 C       -4.1260    -1.0370     0.8940 C.ar  1 <1>   0.0860 
  5 C       -2.4490     1.2600    -0.0910 C.3   1 <1>   0.1400 
  6 C       -0.6020     0.4400     1.2710 C.3   1 <1>   0.1400 
  7 C       -4.3970    -1.2620    -0.4560 C.ar  1 <1>  -0.1500 
  8 C       -5.2030    -1.0710     1.7780 C.ar  1 <1>  -0.1500 
  9 C       -1.4340     2.3800     0.1000 C.3   1 <1>  -0.1600 
 10 C       -0.1430     1.6650     0.4880 C.3   1 <1>  -0.1600 
 11 C       -5.6850    -1.4900    -0.9040 C.ar  1 <1>  -0.1500 
 12 C       -6.4940    -1.2990     1.3370 C.ar  1 <1>  -0.1500 
 13 C       -6.7440    -1.5050    -0.0110 C.ar  1 <1>  -0.1430 
 14 C       -8.1550    -1.7620    -0.5090 C.3   1 <1>   0.2840 
 15 N       -8.3000    -3.2070    -0.7340 N.am  1 <1>  -0.7300 
 16 C       -8.8570    -3.7790    -1.8270 C.2   1 <1>   0.6300 
 17 O       -9.3800    -3.1230    -2.6960 O.2   1 <1>  -0.5700 
 18 C       -8.8220    -5.2920    -1.9510 C.3   1 <1>  -0.0200 
 19 C       -8.2850    -6.1320    -0.8500 C.2   1 <1>  -0.0680 
 20 C       -7.5420    -6.0440    -1.9640 C.2   1 <1>  -0.1780 
 21 C       -8.5140    -6.6180     0.4840 C.ar  1 <1>   0.0280 
 22 C       -6.3080    -6.3910    -2.7680 C.3   1 <1>  -0.1020 
 23 C       -9.6760    -6.2880     1.1740 C.ar  1 <1>  -0.1500 
 24 C       -7.5740    -7.4200     1.1220 C.ar  1 <1>  -0.1500 
 25 C       -9.8930    -6.7450     2.4610 C.ar  1 <1>  -0.1500 
 26 C       -7.7860    -7.8790     2.4090 C.ar  1 <1>  -0.1500 
 27 C       -8.9470    -7.5420     3.0810 C.ar  1 <1>  -0.1500 
 28 H       -3.4420     1.5770     0.1780 H     1 <1>   0.0800 
 29 H       -2.4370     0.9190    -1.1120 H     1 <1>   0.0800 
 30 H        0.0360    -0.4100     1.0980 H     1 <1>   0.0800 
 31 H       -0.6360     0.6540     2.3260 H     1 <1>   0.0800 
 32 H       -3.5810    -1.2640    -1.1570 H     1 <1>   0.1500 
 33 H       -5.0120    -0.9180     2.8270 H     1 <1>   0.1500 
 34 H       -1.7580     3.0110     0.9090 H     1 <1>   0.0800 
 35 H       -1.3230     2.9770    -0.7880 H     1 <1>   0.0800 
 36 H        0.3760     1.3380    -0.3970 H     1 <1>   0.0800 
 37 H        0.5140     2.2870     1.0700 H     1 <1>   0.0800 
 38 H       -5.8660    -1.6630    -1.9520 H     1 <1>   0.1500 
 39 H       -7.3000    -1.3190     2.0490 H     1 <1>   0.1500 
 40 H       -8.3300    -1.2220    -1.4250 H     1 <1>   0.0800 
 41 H       -8.8780    -1.4400     0.2200 H     1 <1>   0.0800 
 42 H       -7.8130    -3.8040    -0.0620 H     1 <1>   0.3700 
 43 H       -9.6440    -5.6610    -2.5360 H     1 <1>   0.1000 
 44 H       -6.5900    -6.8940    -3.6750 H     1 <1>   0.0800 
 45 H       -5.6660    -7.0350    -2.1950 H     1 <1>   0.0800 
 46 H       -5.7710    -5.4940    -3.0180 H     1 <1>   0.0800 
 47 H      -10.4140    -5.6700     0.6950 H     1 <1>   0.1500 
 48 H       -6.6710    -7.6830     0.6010 H     1 <1>   0.1500 
 49 H      -10.7990    -6.4820     2.9810 H     1 <1>   0.1500 
 50 H       -7.0480    -8.4990     2.8880 H     1 <1>   0.1500 
 51 H       -9.1140    -7.8990     4.0830 H     1 <1>   0.1500 
@<TRIPOS>BOND
  1   1   2  2   
  2   2   3  am  
  3   2   4  1   
  4   3   5  1   
  5   3   6  1   
  6   4   7  ar  
  7   4   8  ar  
  8   5   9  1   
  9   5  28  1   
 10   5  29  1   
 11   6  10  1   
 12   6  30  1   
 13   6  31  1   
 14   7  11  ar  
 15   7  32  1   
 16   8  12  ar  
 17   8  33  1   
 18   9  10  1   
 19   9  34  1   
 20   9  35  1   
 21  10  36  1   
 22  10  37  1   
 23  11  13  ar  
 24  11  38  1   
 25  12  13  ar  
 26  12  39  1   
 27  13  14  1   
 28  14  15  1   
 29  14  40  1   
 30  14  41  1   
 31  15  16  am  
 32  15  42  1   
 33  16  17  2   
 34  16  18  1   
 35  18  19  1   
 36  18  20  1   
 37  18  43  1   
 38  19  20  2   
 39  19  21  1   
 40  20  22  1   
 41  21  23  ar  
 42  21  24  ar  
 43  22  44  1   
 44  22  45  1   
 45  22  46  1   
 46  23  25  ar  
 47  23  47  1   
 48  24  26  ar  
 49  24  48  1   
 50  25  27  ar  
 51  25  49  1   
 52  26  27  ar  
 53  26  50  1   
 54  27  51  1   
@<TRIPOS>SUBSTRUCTURE
  1 ****  13 GROUP 4 **** **** 0

# MOE 2024.06 (io_trps.svl 2023.06)
