@<TRIPOS>MOLECULE
NONAME
51 54 1 0 0 
SMALL
USER_CHARGES


@<TRIPOS>ATOM
  1 O       -1.4700     0.3340     0.1560 O.2   1 <1>  -0.5700 
  2 C       -2.3280     1.1540     0.4350 C.2   1 <1>   0.5440 
  3 N       -3.5430     0.6800     0.8790 N.am  1 <1>  -0.6600 
  4 C       -2.0640     2.5730     0.2720 C.ar  1 <1>   0.0860 
  5 C       -3.6590    -0.7200     1.3780 C.3   1 <1>   0.1400 
  6 C       -4.8340     1.2270     0.3720 C.3   1 <1>   0.1400 
  7 C       -2.6170     3.5300     1.1250 C.ar  1 <1>  -0.1500 
  8 C       -1.2290     3.0390    -0.7440 C.ar  1 <1>  -0.1500 
  9 C       -4.0900    -1.6270     0.2020 C.3   1 <1>   0.4230 
 10 C       -5.3330     0.3290    -0.7700 C.3   1 <1>  -0.1600 
 11 C       -2.3620     4.8790     0.9640 C.ar  1 <1>  -0.1500 
 12 C       -0.9690     4.3860    -0.9110 C.ar  1 <1>  -0.1500 
 13 N       -4.1260    -3.0940     0.5270 N.4   1 <1>  -0.9590 
 14 C       -5.4600    -1.1620    -0.3400 C.3   1 <1>  -0.1060 
 15 C       -1.5340     5.3290    -0.0590 C.ar  1 <1>  -0.0230 
 16 C       -4.4250    -3.9180    -0.6700 C.3   1 <1>   0.3430 
 17 C       -2.9480    -3.5970     1.2830 C.3   1 <1>   0.2630 
 18 C       -6.5100    -1.3210     0.7770 C.2   1 <1>   0.9060 
 19 C       -5.8420    -2.0060    -1.5790 C.3   1 <1>  -0.1600 
 20 N       -1.2700     6.7110    -0.2250 N.pl3 1 <1>   0.3260 
 21 C       -5.7690    -3.5110    -1.2790 C.3   1 <1>  -0.1600 
 22 O       -6.3860    -2.2530     1.5890 O.co2 1 <1>  -0.9000 
 23 O       -7.4380    -0.5180     0.8570 O.co2 1 <1>  -0.9000 
 24 C       -0.0840     7.3220    -0.4920 C.2   1 <1>   0.0360 
 25 C       -2.1430     7.7430    -0.1610 C.2   1 <1>  -0.3020 
 26 N       -0.1460     8.6090    -0.5970 N.2   1 <1>  -0.5650 
 27 C       -1.4490     8.8770    -0.3880 C.2   1 <1>   0.0770 
 28 H       -2.7070    -1.0300     1.7660 H     1 <1>   0.0800 
 29 H       -4.3780    -0.7540     2.1790 H     1 <1>   0.0800 
 30 H       -5.5560     1.2490     1.1730 H     1 <1>   0.0800 
 31 H       -4.7100     2.2320     0.0090 H     1 <1>   0.0800 
 32 H       -3.2540     3.2040     1.9300 H     1 <1>   0.1500 
 33 H       -0.7780     2.3230    -1.4110 H     1 <1>   0.1500 
 34 H       -3.3580    -1.4820    -0.5740 H     1 <1>   0.0800 
 35 H       -6.2940     0.6920    -1.0960 H     1 <1>   0.0800 
 36 H       -4.6560     0.4250    -1.6010 H     1 <1>   0.0800 
 37 H       -2.8070     5.5860     1.6440 H     1 <1>   0.1500 
 38 H       -0.3240     4.7030    -1.7130 H     1 <1>   0.1500 
 39 H       -4.9850    -3.1370     1.1400 H     1 <1>   0.4500 
 40 H       -3.6440    -3.7860    -1.4010 H     1 <1>   0.0800 
 41 H       -4.4640    -4.9590    -0.3950 H     1 <1>   0.0800 
 42 H       -2.0460    -3.4390     0.7150 H     1 <1>   0.0800 
 43 H       -3.0590    -4.6500     1.4820 H     1 <1>   0.0800 
 44 H       -2.8640    -3.0820     2.2250 H     1 <1>   0.0800 
 45 H       -6.8430    -1.7510    -1.8890 H     1 <1>   0.0800 
 46 H       -5.1770    -1.7800    -2.3940 H     1 <1>   0.0800 
 47 H       -5.9280    -4.0650    -2.1870 H     1 <1>   0.0800 
 48 H       -6.5580    -3.7860    -0.5990 H     1 <1>   0.0800 
 49 H        0.8210     6.7510    -0.5960 H     1 <1>   0.1500 
 50 H       -3.1900     7.6050     0.0350 H     1 <1>   0.1500 
 51 H       -1.8190     9.8900    -0.4150 H     1 <1>   0.1500 
@<TRIPOS>BOND
  1   1   2  2   
  2   2   3  am  
  3   2   4  1   
  4   3   5  1   
  5   3   6  1   
  6   4   7  ar  
  7   4   8  ar  
  8   5   9  1   
  9   5  28  1   
 10   5  29  1   
 11   6  10  1   
 12   6  30  1   
 13   6  31  1   
 14   7  11  ar  
 15   7  32  1   
 16   8  12  ar  
 17   8  33  1   
 18   9  13  1   
 19   9  14  1   
 20   9  34  1   
 21  10  14  1   
 22  10  35  1   
 23  10  36  1   
 24  11  15  ar  
 25  11  37  1   
 26  12  15  ar  
 27  12  38  1   
 28  13  16  1   
 29  13  17  1   
 30  13  39  1   
 31  14  18  1   
 32  14  19  1   
 33  15  20  1   
 34  16  21  1   
 35  16  40  1   
 36  16  41  1   
 37  17  42  1   
 38  17  43  1   
 39  17  44  1   
 40  18  22  ar  
 41  18  23  ar  
 42  19  21  1   
 43  19  45  1   
 44  19  46  1   
 45  20  24  1   
 46  20  25  1   
 47  21  47  1   
 48  21  48  1   
 49  24  26  2   
 50  24  49  1   
 51  25  27  2   
 52  25  50  1   
 53  26  27  1   
 54  27  51  1   
@<TRIPOS>SUBSTRUCTURE
  1 ****   2 GROUP 4 **** **** 0

# MOE 2024.06 (io_trps.svl 2023.06)
