@<TRIPOS>MOLECULE
NONAME
51 52 1 0 0 
SMALL
USER_CHARGES


@<TRIPOS>ATOM
  1 O       -2.0650     0.9330    -0.6080 O.co2 1 <1>  -0.9000 
  2 C       -1.1460     1.2380     0.1600 C.2   1 <1>   0.9060 
  3 O       -0.7980     0.4790     1.0790 O.co2 1 <1>  -0.9000 
  4 C       -0.4210     2.5840     0.0140 C.3   1 <1>  -0.1060 
  5 C       -0.4810     3.2360     1.4180 C.3   1 <1>   0.2000 
  6 C       -1.2310     3.4620    -0.9750 C.3   1 <1>   0.1400 
  7 C        1.0060     2.2650    -0.5480 C.3   1 <1>  -0.1600 
  8 O        0.3730     2.5830     2.2820 O.3   1 <1>  -0.6800 
  9 C       -0.1960     4.7390     1.4780 C.3   1 <1>  -0.1600 
 10 N       -0.8880     4.9190    -0.8790 N.am  1 <1>  -0.6600 
 11 C        2.0700     3.3740    -0.5550 C.3   1 <1>  -0.1600 
 12 C       -1.0820     5.4830     0.4840 C.3   1 <1>   0.1400 
 13 C       -0.4270     5.6260    -1.9670 C.2   1 <1>   0.5690 
 14 C        3.3250     2.9260    -1.3090 C.3   1 <1>  -0.2400 
 15 O       -0.4020     5.1510    -3.0800 O.2   1 <1>  -0.5700 
 16 C        0.0510     7.0700    -1.8330 C.3   1 <1>   0.1810 
 17 O        1.1180     7.1800    -0.9020 O.3   1 <1>  -0.3630 
 18 C        1.5220     8.3880    -0.4420 C.ar  1 <1>   0.0820 
 19 C        2.3220     8.3890     0.6870 C.ar  1 <1>  -0.1500 
 20 C        1.1730     9.5950    -1.0350 C.ar  1 <1>  -0.1500 
 21 C        2.7730     9.5770     1.2410 C.ar  1 <1>  -0.1440 
 22 C        1.6210    10.7830    -0.4850 C.ar  1 <1>  -0.1500 
 23 C        2.4180    10.7860     0.6500 C.ar  1 <1>  -0.1440 
 24 C        3.6490     9.5230     2.4850 C.3   1 <1>  -0.0970 
 25 C        2.8880    12.1160     1.2220 C.3   1 <1>  -0.0970 
 26 H       -1.4750     3.0820     1.8050 H     1 <1>   0.0800 
 27 H       -2.2810     3.3610    -0.7590 H     1 <1>   0.0800 
 28 H       -1.0830     3.0980    -1.9770 H     1 <1>   0.0800 
 29 H        1.4120     1.4440     0.0190 H     1 <1>   0.0800 
 30 H        0.8830     1.9030    -1.5540 H     1 <1>   0.0800 
 31 H        0.1860     1.6130     2.1350 H     1 <1>   0.4000 
 32 H       -0.4070     5.0940     2.4690 H     1 <1>   0.0800 
 33 H        0.8300     4.9550     1.2610 H     1 <1>   0.0800 
 34 H        1.6890     4.2620    -1.0200 H     1 <1>   0.0800 
 35 H        2.3470     3.6050     0.4580 H     1 <1>   0.0800 
 36 H       -0.8550     6.5320     0.5160 H     1 <1>   0.0800 
 37 H       -2.1150     5.3610     0.7630 H     1 <1>   0.0800 
 38 H        3.0850     2.7120    -2.3350 H     1 <1>   0.0800 
 39 H        3.7370     2.0420    -0.8540 H     1 <1>   0.0800 
 40 H        4.0650     3.7050    -1.2840 H     1 <1>   0.0800 
 41 H       -0.7640     7.6820    -1.4980 H     1 <1>   0.0800 
 42 H        0.4040     7.4200    -2.7850 H     1 <1>   0.0800 
 43 H        2.5850     7.4430     1.1250 H     1 <1>   0.1500 
 44 H        0.5660     9.6320    -1.9190 H     1 <1>   0.1500 
 45 H        1.3450    11.7120    -0.9520 H     1 <1>   0.1500 
 46 H        3.8160     8.5070     2.7950 H     1 <1>   0.0800 
 47 H        3.1730    10.0480     3.2930 H     1 <1>   0.0800 
 48 H        4.6030     9.9740     2.2830 H     1 <1>   0.0800 
 49 H        2.5170    12.9400     0.6390 H     1 <1>   0.0800 
 50 H        3.9620    12.1590     1.2200 H     1 <1>   0.0800 
 51 H        2.5330    12.2300     2.2300 H     1 <1>   0.0800 
@<TRIPOS>BOND
  1   1   2  ar  
  2   2   3  ar  
  3   2   4  1   
  4   4   5  1   
  5   4   6  1   
  6   4   7  1   
  7   5   8  1   
  8   5   9  1   
  9   5  26  1   
 10   6  10  1   
 11   6  27  1   
 12   6  28  1   
 13   7  11  1   
 14   7  29  1   
 15   7  30  1   
 16   8  31  1   
 17   9  12  1   
 18   9  32  1   
 19   9  33  1   
 20  10  12  1   
 21  10  13  am  
 22  11  14  1   
 23  11  34  1   
 24  11  35  1   
 25  12  36  1   
 26  12  37  1   
 27  13  15  2   
 28  13  16  1   
 29  14  38  1   
 30  14  39  1   
 31  14  40  1   
 32  16  17  1   
 33  16  41  1   
 34  16  42  1   
 35  17  18  1   
 36  18  19  ar  
 37  18  20  ar  
 38  19  21  ar  
 39  19  43  1   
 40  20  22  ar  
 41  20  44  1   
 42  21  23  ar  
 43  21  24  1   
 44  22  23  ar  
 45  22  45  1   
 46  23  25  1   
 47  24  46  1   
 48  24  47  1   
 49  24  48  1   
 50  25  49  1   
 51  25  50  1   
 52  25  51  1   
@<TRIPOS>SUBSTRUCTURE
  1 ****  17 GROUP 4 **** **** 0

# MOE 2024.06 (io_trps.svl 2023.06)
