@<TRIPOS>MOLECULE
NONAME
42 44 1 0 0 
SMALL
USER_CHARGES


@<TRIPOS>ATOM
  1 O       -2.1320     0.6170    -2.2580 O.2   1 <1>  -0.5700 
  2 C       -1.6620     0.5820    -1.1330 C.2   1 <1>   0.7160 
  3 N       -1.5610    -0.6450    -0.5350 N.am  1 <1>  -0.7300 
  4 C       -1.2290     1.7750    -0.4160 C.2   1 <1>   0.2030 
  5 C       -1.9980    -1.9310    -1.1240 C.3   1 <1>   0.2200 
  6 N       -1.7480     2.9860    -0.5050 N.2   1 <1>  -0.7070 
  7 C       -0.1760     1.7810     0.5110 C.2   1 <1>  -0.1500 
  8 C       -3.3630    -2.3500    -0.5920 C.3   1 <1>  -0.0800 
  9 C       -1.1290    -3.0440    -0.5560 C.3   1 <1>   0.1200 
 10 N       -1.0440     3.7530     0.3340 N.pl3 1 <1>   0.3140 
 11 C       -0.0890     3.0450     0.9650 C.2   1 <1>  -0.3020 
 12 C       -3.0200    -3.0360     0.7360 C.3   1 <1>   0.1200 
 13 C       -4.4210    -1.2350    -0.4760 C.3   1 <1>  -0.0160 
 14 O       -1.6430    -3.2850     0.7180 O.3   1 <1>  -0.5600 
 15 C       -1.3290     5.1920     0.5050 C.3   1 <1>   0.0960 
 16 C       -5.7500    -1.7990     0.0010 C.ar  1 <1>  -0.1430 
 17 C       -0.3020     6.0540    -0.2410 C.3   1 <1>  -0.2400 
 18 C       -6.1630    -1.6940     1.3130 C.ar  1 <1>  -0.1500 
 19 C       -6.6130    -2.4480    -0.8590 C.ar  1 <1>  -0.1500 
 20 C       -7.3810    -2.2340     1.6930 C.ar  1 <1>   0.1600 
 21 C       -7.8090    -2.9530    -0.3770 C.ar  1 <1>   0.1600 
 22 N       -8.2130    -2.8650     0.8800 N.ar  1 <1>  -0.6200 
 23 H       -1.2970    -0.7040     0.4500 H     1 <1>   0.3700 
 24 H       -1.9620    -1.8910    -2.2000 H     1 <1>   0.0800 
 25 H        0.4300     0.9350     0.7810 H     1 <1>   0.1500 
 26 H       -3.7500    -3.1070    -1.2510 H     1 <1>   0.0800 
 27 H       -0.0910    -2.7710    -0.4860 H     1 <1>   0.0800 
 28 H       -1.2350    -3.9460    -1.1330 H     1 <1>   0.0800 
 29 H        0.5850     3.4770     1.6810 H     1 <1>   0.1500 
 30 H       -3.5450    -3.9700     0.8480 H     1 <1>   0.0800 
 31 H       -3.2250    -2.4000     1.5790 H     1 <1>   0.0800 
 32 H       -4.5550    -0.7680    -1.4360 H     1 <1>   0.0800 
 33 H       -4.0940    -0.4730     0.2090 H     1 <1>   0.0800 
 34 H       -2.3150     5.3860     0.1220 H     1 <1>   0.0800 
 35 H       -1.3180     5.4200     1.5550 H     1 <1>   0.0800 
 36 H       -0.3210     5.8200    -1.2910 H     1 <1>   0.0800 
 37 H        0.6870     5.8810     0.1450 H     1 <1>   0.0800 
 38 H       -0.5410     7.0940    -0.1190 H     1 <1>   0.0800 
 39 H       -5.5530    -1.1960     2.0440 H     1 <1>   0.1500 
 40 H       -6.3660    -2.5650    -1.8980 H     1 <1>   0.1500 
 41 H       -7.6860    -2.1420     2.7210 H     1 <1>   0.1500 
 42 H       -8.4690    -3.4570    -1.0620 H     1 <1>   0.1500 
@<TRIPOS>BOND
  1   1   2  2   
  2   2   3  am  
  3   2   4  1   
  4   3   5  1   
  5   3  23  1   
  6   4   6  2   
  7   4   7  1   
  8   5   8  1   
  9   5   9  1   
 10   5  24  1   
 11   6  10  1   
 12   7  11  2   
 13   7  25  1   
 14   8  12  1   
 15   8  13  1   
 16   8  26  1   
 17   9  14  1   
 18   9  27  1   
 19   9  28  1   
 20  10  11  1   
 21  10  15  1   
 22  11  29  1   
 23  12  14  1   
 24  12  30  1   
 25  12  31  1   
 26  13  16  1   
 27  13  32  1   
 28  13  33  1   
 29  15  17  1   
 30  15  34  1   
 31  15  35  1   
 32  16  18  ar  
 33  16  19  ar  
 34  17  36  1   
 35  17  37  1   
 36  17  38  1   
 37  18  20  ar  
 38  18  39  1   
 39  19  21  ar  
 40  19  40  1   
 41  20  22  ar  
 42  20  41  1   
 43  21  22  ar  
 44  21  42  1   
@<TRIPOS>SUBSTRUCTURE
  1 ****   3 GROUP 4 **** **** 0

# MOE 2024.06 (io_trps.svl 2023.06)
