@<TRIPOS>MOLECULE
NONAME
47 49 1 0 0 
SMALL
USER_CHARGES


@<TRIPOS>ATOM
  1 O        1.3170    -0.2720     2.7550 O.2   1 <1>  -0.5700 
  2 C        1.8300     0.2160     1.7610 C.2   1 <1>   0.8410 
  3 N        1.9740     1.5760     1.7040 N.2   1 <1>  -0.6610 
  4 N        2.2380    -0.5980     0.7090 N.am  1 <1>  -0.4690 
  5 C        2.4710     2.0840     0.6400 C.2   1 <1>   0.3750 
  6 C        2.7540    -0.0330    -0.4390 C.2   1 <1>  -0.0290 
  7 C        2.0690    -2.0750     0.8610 C.3   1 <1>   0.1400 
  8 C        2.8740     1.3150    -0.4740 C.2   1 <1>  -0.1360 
  9 C        2.6340     3.5860     0.5650 C.3   1 <1>  -0.1790 
 10 C        3.1660    -0.9010    -1.6210 C.3   1 <1>  -0.1020 
 11 C        0.6500    -2.4900     0.4580 C.3   1 <1>   0.1400 
 12 N        0.5440    -3.9670     0.3810 N.am  1 <1>  -0.7300 
 13 C        1.0140    -4.7300    -0.6460 C.2   1 <1>   0.5690 
 14 O        1.6270    -4.2320    -1.5620 O.2   1 <1>  -0.5700 
 15 C        0.7810    -6.2490    -0.6430 C.3   1 <1>   0.2610 
 16 O       -0.2700    -6.5820     0.2610 O.3   1 <1>  -0.3630 
 17 C        2.0440    -7.0120    -0.2140 C.3   1 <1>  -0.2400 
 18 C       -0.9710    -7.7450     0.1800 C.ar  1 <1>   0.0820 
 19 C       -0.8030    -8.6870    -0.8370 C.ar  1 <1>  -0.1500 
 20 C       -1.9040    -7.9700     1.1920 C.ar  1 <1>  -0.1500 
 21 C       -1.5820    -9.8260    -0.7950 C.ar  1 <1>   0.0820 
 22 C       -2.6780    -9.1230     1.2140 C.ar  1 <1>  -0.1500 
 23 O       -1.5890   -10.8520    -1.6530 O.3   1 <1>  -0.3620 
 24 C       -2.4920   -10.0400     0.1990 C.ar  1 <1>   0.0820 
 25 C       -2.5660   -11.7760    -1.1770 C.3   1 <1>   0.4000 
 26 O       -3.1140   -11.2100     0.0120 O.3   1 <1>  -0.3630 
 27 H        2.2480    -2.3580     1.8840 H     1 <1>   0.0800 
 28 H        2.7860    -2.5940     0.2530 H     1 <1>   0.0800 
 29 H        3.2680     1.8290    -1.3290 H     1 <1>   0.1500 
 30 H        3.6690     3.8330     0.4200 H     1 <1>   0.0800 
 31 H        2.2940     4.0430     1.4770 H     1 <1>   0.0800 
 32 H        2.0560     3.9760    -0.2520 H     1 <1>   0.0800 
 33 H        2.3410    -1.5080    -1.9490 H     1 <1>   0.0800 
 34 H        3.9840    -1.5420    -1.3460 H     1 <1>   0.0800 
 35 H        3.4820    -0.2920    -2.4490 H     1 <1>   0.0800 
 36 H        0.4190    -2.0760    -0.5080 H     1 <1>   0.0800 
 37 H       -0.0580    -2.1140     1.1770 H     1 <1>   0.0800 
 38 H       -0.0010    -4.4330     1.1130 H     1 <1>   0.3700 
 39 H        0.4810    -6.5240    -1.6360 H     1 <1>   0.0800 
 40 H        2.3320    -6.7200     0.7800 H     1 <1>   0.0800 
 41 H        2.8510    -6.7750    -0.8840 H     1 <1>   0.0800 
 42 H        1.8820    -8.0740    -0.2420 H     1 <1>   0.0800 
 43 H       -0.1050    -8.5730    -1.6420 H     1 <1>   0.1500 
 44 H       -2.0220    -7.2350     1.9670 H     1 <1>   0.1500 
 45 H       -3.4000    -9.3090     1.9890 H     1 <1>   0.1500 
 46 H       -2.0940   -12.7140    -0.9460 H     1 <1>   0.0800 
 47 H       -3.3430   -11.8910    -1.9120 H     1 <1>   0.0800 
@<TRIPOS>BOND
  1   1   2  2   
  2   2   3  1   
  3   2   4  am  
  4   3   5  2   
  5   4   6  1   
  6   4   7  1   
  7   5   8  1   
  8   5   9  1   
  9   6   8  2   
 10   6  10  1   
 11   7  11  1   
 12   7  27  1   
 13   7  28  1   
 14   8  29  1   
 15   9  30  1   
 16   9  31  1   
 17   9  32  1   
 18  10  33  1   
 19  10  34  1   
 20  10  35  1   
 21  11  12  1   
 22  11  36  1   
 23  11  37  1   
 24  12  13  am  
 25  12  38  1   
 26  13  14  2   
 27  13  15  1   
 28  15  16  1   
 29  15  17  1   
 30  15  39  1   
 31  16  18  1   
 32  17  40  1   
 33  17  41  1   
 34  17  42  1   
 35  18  19  ar  
 36  18  20  ar  
 37  19  21  ar  
 38  19  43  1   
 39  20  22  ar  
 40  20  44  1   
 41  21  23  1   
 42  21  24  ar  
 43  22  24  ar  
 44  22  45  1   
 45  23  25  1   
 46  24  26  1   
 47  25  26  1   
 48  25  46  1   
 49  25  47  1   
@<TRIPOS>SUBSTRUCTURE
  1 ****  12 GROUP 4 **** **** 0

# MOE 2024.06 (io_trps.svl 2023.06)
