@<TRIPOS>MOLECULE
NONAME
51 53 1 0 0 
SMALL
USER_CHARGES


@<TRIPOS>ATOM
  1 O       -4.1380     2.4910    -2.5790 O.2   1 <1>  -0.5700 
  2 C       -2.9870     2.2440    -2.3150 C.2   1 <1>   0.5690 
  3 N       -2.4780     0.9930    -2.4270 N.am  1 <1>  -0.7300 
  4 C       -2.0770     3.3510    -1.8090 C.3   1 <1>   0.0440 
  5 C       -3.2490    -0.2420    -2.6830 C.3   1 <1>   0.2200 
  6 C       -1.1640     2.8510    -0.6930 C.ar  1 <1>  -0.1440 
  7 C       -3.3800    -1.0620    -1.4060 C.3   1 <1>  -0.0800 
  8 C       -2.3950    -1.1810    -3.5250 C.3   1 <1>   0.1200 
  9 C        0.1080     2.3810    -0.9780 C.ar  1 <1>  -0.1500 
 10 C       -1.6100     2.8360     0.6180 C.ar  1 <1>  -0.1500 
 11 C       -2.0320    -1.7870    -1.3370 C.3   1 <1>   0.1200 
 12 C       -3.7450    -0.2760    -0.1320 C.3   1 <1>  -0.0160 
 13 O       -1.4980    -1.7710    -2.6300 O.3   1 <1>  -0.5600 
 14 C        0.9170     1.8940     0.0340 C.ar  1 <1>  -0.1500 
 15 C       -0.7990     2.3500     1.6290 C.ar  1 <1>  -0.1500 
 16 C       -3.7360    -1.1730     1.0950 C.ar  1 <1>  -0.1440 
 17 C        0.4730     1.8730     1.3480 C.ar  1 <1>  -0.1440 
 18 C       -2.6830    -1.1580     1.9870 C.ar  1 <1>  -0.1500 
 19 C       -4.7670    -2.0430     1.3810 C.ar  1 <1>  -0.1500 
 20 C        1.3850     1.3380     2.4510 C.3   1 <1>   0.0630 
 21 C       -2.7080    -1.9950     3.0890 C.ar  1 <1>   0.1600 
 22 C       -4.6940    -2.8390     2.5130 C.ar  1 <1>   0.1600 
 23 C        0.7820     0.0930     3.1090 C.3   1 <1>  -0.2400 
 24 C        1.6710     2.4200     3.4970 C.3   1 <1>  -0.2400 
 25 N       -3.6890    -2.8370     3.3730 N.ar  1 <1>  -0.6200 
 26 H       -1.5200     0.8200    -2.1080 H     1 <1>   0.3700 
 27 H       -1.4950     3.7190    -2.6320 H     1 <1>   0.0800 
 28 H       -2.6830     4.1610    -1.4470 H     1 <1>   0.0800 
 29 H       -4.1970    -0.0150    -3.1420 H     1 <1>   0.0800 
 30 H       -4.1370    -1.8100    -1.5650 H     1 <1>   0.0800 
 31 H       -1.8530    -0.6680    -4.3000 H     1 <1>   0.0800 
 32 H       -2.9970    -1.9630    -3.9520 H     1 <1>   0.0800 
 33 H        0.4790     2.3880    -1.9890 H     1 <1>   0.1500 
 34 H       -2.5950     3.1980     0.8600 H     1 <1>   0.1500 
 35 H       -2.1390    -2.8070    -1.0100 H     1 <1>   0.0800 
 36 H       -1.3390    -1.2700    -0.6950 H     1 <1>   0.0800 
 37 H       -4.7180     0.1680    -0.2500 H     1 <1>   0.0800 
 38 H       -3.0470     0.5230     0.0310 H     1 <1>   0.0800 
 39 H        1.9010     1.5340    -0.2100 H     1 <1>   0.1500 
 40 H       -1.1670     2.3470     2.6400 H     1 <1>   0.1500 
 41 H       -1.8460    -0.5010     1.8320 H     1 <1>   0.1500 
 42 H       -5.6240    -2.1100     0.7360 H     1 <1>   0.1500 
 43 H        2.3260     1.0530     2.0120 H     1 <1>   0.0800 
 44 H       -1.8780    -1.9700     3.7740 H     1 <1>   0.1500 
 45 H       -5.5080    -3.5130     2.7210 H     1 <1>   0.1500 
 46 H       -0.1450     0.3310     3.5980 H     1 <1>   0.0800 
 47 H        1.4620    -0.3070     3.8390 H     1 <1>   0.0800 
 48 H        0.6000    -0.6610     2.3640 H     1 <1>   0.0800 
 49 H        0.7720     2.7050     4.0110 H     1 <1>   0.0800 
 50 H        2.0820     3.2900     3.0170 H     1 <1>   0.0800 
 51 H        2.3810     2.0610     4.2200 H     1 <1>   0.0800 
@<TRIPOS>BOND
  1   1   2  2   
  2   2   3  am  
  3   2   4  1   
  4   3   5  1   
  5   3  26  1   
  6   4   6  1   
  7   4  27  1   
  8   4  28  1   
  9   5   7  1   
 10   5   8  1   
 11   5  29  1   
 12   6   9  ar  
 13   6  10  ar  
 14   7  11  1   
 15   7  12  1   
 16   7  30  1   
 17   8  13  1   
 18   8  31  1   
 19   8  32  1   
 20   9  14  ar  
 21   9  33  1   
 22  10  15  ar  
 23  10  34  1   
 24  11  13  1   
 25  11  35  1   
 26  11  36  1   
 27  12  16  1   
 28  12  37  1   
 29  12  38  1   
 30  14  17  ar  
 31  14  39  1   
 32  15  17  ar  
 33  15  40  1   
 34  16  18  ar  
 35  16  19  ar  
 36  17  20  1   
 37  18  21  ar  
 38  18  41  1   
 39  19  22  ar  
 40  19  42  1   
 41  20  23  1   
 42  20  24  1   
 43  20  43  1   
 44  21  25  ar  
 45  21  44  1   
 46  22  25  ar  
 47  22  45  1   
 48  23  46  1   
 49  23  47  1   
 50  23  48  1   
 51  24  49  1   
 52  24  50  1   
 53  24  51  1   
@<TRIPOS>SUBSTRUCTURE
  1 ****  12 GROUP 4 **** **** 0

# MOE 2024.06 (io_trps.svl 2023.06)
