@<TRIPOS>MOLECULE
NONAME
43 45 1 0 0 
SMALL
USER_CHARGES


@<TRIPOS>ATOM
  1 O       -0.2860    -0.7370    -0.3000 O.3   1 <1>  -0.3630 
  2 C       -1.4780    -1.1780     0.1530 C.ar  1 <1>   0.0830 
  3 C        0.0340     0.6370    -0.3220 C.3   1 <1>   0.0400 
  4 C       -1.6980    -2.5380     0.1710 C.ar  1 <1>  -0.1500 
  5 C       -2.5050    -0.3690     0.6040 C.ar  1 <1>  -0.1500 
  6 C       -2.9090    -3.0300     0.6240 C.ar  1 <1>   0.1670 
  7 C       -3.6780    -0.9580     1.0380 C.ar  1 <1>   0.1600 
  8 N       -3.9060    -2.2650     1.0540 N.ar  1 <1>  -0.6200 
  9 C       -3.1390    -4.5400     0.6390 C.3   1 <1>   0.4870 
 10 N       -4.0840    -4.9740    -0.4460 N.4   1 <1>  -0.9590 
 11 C       -5.4860    -4.4900    -0.1950 C.3   1 <1>   0.3430 
 12 C       -4.1390    -6.4580    -0.5810 C.3   1 <1>   0.3430 
 13 C       -6.3780    -5.7360    -0.1710 C.3   1 <1>   0.2000 
 14 C       -5.4330    -6.8990     0.1010 C.3   1 <1>  -0.0800 
 15 O       -7.3500    -5.6720     0.8140 O.3   1 <1>  -0.6800 
 16 C       -5.9750    -8.2470    -0.4100 C.3   1 <1>  -0.0170 
 17 C       -5.0230    -9.3950    -0.1040 C.ar  1 <1>   0.1670 
 18 N       -3.8410    -9.3580    -0.7030 N.ar  1 <1>  -0.6200 
 19 C       -5.4150   -10.4140     0.7640 C.ar  1 <1>   0.1600 
 20 C       -3.0950   -10.4080    -0.3930 C.ar  1 <1>   0.1600 
 21 N       -4.6610   -11.4490     1.0870 N.ar  1 <1>  -0.6200 
 22 C       -3.4910   -11.4190     0.4750 C.ar  1 <1>   0.1600 
 23 H        1.0320     0.7420    -0.7090 H     1 <1>   0.0800 
 24 H       -0.0110     1.0230     0.6810 H     1 <1>   0.0800 
 25 H       -0.6610     1.1490    -0.9640 H     1 <1>   0.0800 
 26 H       -0.9120    -3.1870    -0.1690 H     1 <1>   0.1500 
 27 H       -2.4130     0.7000     0.6270 H     1 <1>   0.1500 
 28 H       -4.4710    -0.3190     1.3910 H     1 <1>   0.1500 
 29 H       -3.5310    -4.8200     1.6030 H     1 <1>   0.0800 
 30 H       -2.1890    -5.0310     0.5090 H     1 <1>   0.0800 
 31 H       -3.7460    -4.5530    -1.3230 H     1 <1>   0.4500 
 32 H       -5.5460    -3.9870     0.7570 H     1 <1>   0.0800 
 33 H       -5.8030    -3.8130    -0.9710 H     1 <1>   0.0800 
 34 H       -4.1830    -6.7280    -1.6250 H     1 <1>   0.0800 
 35 H       -3.2810    -6.9410    -0.1400 H     1 <1>   0.0800 
 36 H       -6.8740    -5.8430    -1.1220 H     1 <1>   0.0800 
 37 H       -5.2380    -6.9730     1.1560 H     1 <1>   0.0800 
 38 H       -6.9780    -5.6100     1.7170 H     1 <1>   0.4000 
 39 H       -6.1320    -8.2070    -1.4740 H     1 <1>   0.0800 
 40 H       -6.9310    -8.4380     0.0470 H     1 <1>   0.0800 
 41 H       -6.3920   -10.3750     1.2130 H     1 <1>   0.1500 
 42 H       -2.1210   -10.4760    -0.8450 H     1 <1>   0.1500 
 43 H       -2.8130   -12.2320     0.6680 H     1 <1>   0.1500 
@<TRIPOS>BOND
  1   1   2  1   
  2   1   3  1   
  3   2   4  ar  
  4   2   5  ar  
  5   3  23  1   
  6   3  24  1   
  7   3  25  1   
  8   4   6  ar  
  9   4  26  1   
 10   5   7  ar  
 11   5  27  1   
 12   6   8  ar  
 13   6   9  1   
 14   7   8  ar  
 15   7  28  1   
 16   9  10  1   
 17   9  29  1   
 18   9  30  1   
 19  10  11  1   
 20  10  12  1   
 21  10  31  1   
 22  11  13  1   
 23  11  32  1   
 24  11  33  1   
 25  12  14  1   
 26  12  34  1   
 27  12  35  1   
 28  13  14  1   
 29  13  15  1   
 30  13  36  1   
 31  14  16  1   
 32  14  37  1   
 33  15  38  1   
 34  16  17  1   
 35  16  39  1   
 36  16  40  1   
 37  17  18  ar  
 38  17  19  ar  
 39  18  20  ar  
 40  19  21  ar  
 41  19  41  1   
 42  20  22  ar  
 43  20  42  1   
 44  21  22  ar  
 45  22  43  1   
@<TRIPOS>SUBSTRUCTURE
  1 ****  10 GROUP 4 **** **** 0

# MOE 2024.06 (io_trps.svl 2023.06)
