@<TRIPOS>MOLECULE
NONAME
55 59 1 0 0 
SMALL
USER_CHARGES


@<TRIPOS>ATOM
  1 O        0.5130     0.6480     2.4850 O.2   1 <1>  -0.5700 
  2 C       -0.2160     1.5950     2.2890 C.2   1 <1>   0.5690 
  3 N       -1.4240     1.4440     1.6480 N.am  1 <1>  -0.6600 
  4 C        0.2490     2.9350     2.8330 C.3   1 <1>   0.0820 
  5 C       -2.3570     2.5680     1.2960 C.3   1 <1>   0.1400 
  6 C       -1.9530     0.0890     1.3160 C.3   1 <1>   0.1400 
  7 C        0.7140     3.9030     1.7610 C.2   1 <1>   0.1080 
  8 C       -2.7690     2.5180    -0.1890 C.3   1 <1>   0.1440 
  9 C       -2.3440     0.0120    -0.1630 C.3   1 <1>  -0.1600 
 10 N        0.3090     5.1300     1.7220 N.2   1 <1>  -0.7070 
 11 C        1.6360     3.6020     0.7380 C.ar  1 <1>   0.0000 
 12 C       -3.7820     3.6190    -0.4440 C.ar  1 <1>   0.1670 
 13 C       -3.3350     1.1250    -0.5380 C.3   1 <1>  -0.1600 
 14 C       -1.5980     2.9120    -1.1290 C.3   1 <1>  -0.1600 
 15 N        0.9680     5.6840     0.6800 N.pl3 1 <1>   0.3000 
 16 C        1.7730     4.7870     0.0460 C.ar  1 <1>  -0.1520 
 17 C        2.3630     2.4770     0.3180 C.ar  1 <1>  -0.1500 
 18 N       -5.0200     3.6230    -0.0140 N.ar  1 <1>  -0.6200 
 19 C       -3.2480     4.6360    -1.1740 C.ar  1 <1>  -0.1440 
 20 C       -1.8010     4.3870    -1.5150 C.3   1 <1>  -0.0170 
 21 C        2.6130     4.8940    -1.0670 C.ar  1 <1>  -0.1500 
 22 C        3.1890     2.5730    -0.7750 C.ar  1 <1>  -0.1500 
 23 C       -5.7370     4.6980    -0.3500 C.ar  1 <1>   0.7200 
 24 C       -4.0590     5.7000    -1.4730 C.ar  1 <1>   0.1600 
 25 C        3.3150     3.7840    -1.4710 C.ar  1 <1>  -0.1500 
 26 N       -5.3060     5.7420    -1.0670 N.ar  1 <1>  -0.6200 
 27 N       -7.0460     4.7360     0.0870 N.pl3 1 <1>  -0.8380 
 28 C       -7.8540     5.9860     0.0570 C.3   1 <1>   0.1290 
 29 C       -7.7450     3.5260     0.6010 C.3   1 <1>   0.1290 
 30 H        1.0660     2.7690     3.5090 H     1 <1>   0.0800 
 31 H       -0.5480     3.3780     3.3980 H     1 <1>   0.0800 
 32 H       -1.9160     3.5250     1.5040 H     1 <1>   0.0800 
 33 H       -3.2420     2.4810     1.9040 H     1 <1>   0.0800 
 34 H       -2.8160    -0.1050     1.9300 H     1 <1>   0.0800 
 35 H       -1.2200    -0.6710     1.5290 H     1 <1>   0.0800 
 36 H       -2.7910    -0.9470    -0.3580 H     1 <1>   0.0800 
 37 H       -1.4540     0.0840    -0.7630 H     1 <1>   0.0800 
 38 H       -3.5750     1.0740    -1.5850 H     1 <1>   0.0800 
 39 H       -4.2500     0.9740     0.0090 H     1 <1>   0.0800 
 40 H       -1.6420     2.3250    -2.0290 H     1 <1>   0.0800 
 41 H       -0.6370     2.7490    -0.6760 H     1 <1>   0.0800 
 42 H        0.8690     6.6730     0.4270 H     1 <1>   0.2700 
 43 H        2.2670     1.5510     0.8570 H     1 <1>   0.1500 
 44 H       -1.6000     4.5540    -2.5580 H     1 <1>   0.0800 
 45 H       -1.1790     5.0230    -0.9140 H     1 <1>   0.0800 
 46 H        2.7060     5.8290    -1.5910 H     1 <1>   0.1500 
 47 H        3.7510     1.7180    -1.1070 H     1 <1>   0.1500 
 48 H       -3.6830     6.5270    -2.0490 H     1 <1>   0.1500 
 49 H        3.9720     3.8300    -2.3220 H     1 <1>   0.1500 
 50 H       -7.2170     6.8490     0.1520 H     1 <1>   0.0800 
 51 H       -8.5560     5.9940     0.8710 H     1 <1>   0.0800 
 52 H       -8.3860     6.0470    -0.8760 H     1 <1>   0.0800 
 53 H       -7.3330     2.6350     0.1590 H     1 <1>   0.0800 
 54 H       -8.7910     3.5710     0.3580 H     1 <1>   0.0800 
 55 H       -7.6290     3.4710     1.6700 H     1 <1>   0.0800 
@<TRIPOS>BOND
  1   1   2  2   
  2   2   3  am  
  3   2   4  1   
  4   3   5  1   
  5   3   6  1   
  6   4   7  1   
  7   4  30  1   
  8   4  31  1   
  9   5   8  1   
 10   5  32  1   
 11   5  33  1   
 12   6   9  1   
 13   6  34  1   
 14   6  35  1   
 15   7  10  2   
 16   7  11  1   
 17   8  12  1   
 18   8  13  1   
 19   8  14  1   
 20   9  13  1   
 21   9  36  1   
 22   9  37  1   
 23  10  15  1   
 24  11  16  ar  
 25  11  17  ar  
 26  12  18  ar  
 27  12  19  ar  
 28  13  38  1   
 29  13  39  1   
 30  14  20  1   
 31  14  40  1   
 32  14  41  1   
 33  15  16  1   
 34  15  42  1   
 35  16  21  ar  
 36  17  22  ar  
 37  17  43  1   
 38  18  23  ar  
 39  19  20  1   
 40  19  24  ar  
 41  20  44  1   
 42  20  45  1   
 43  21  25  ar  
 44  21  46  1   
 45  22  25  ar  
 46  22  47  1   
 47  23  26  ar  
 48  23  27  1   
 49  24  26  ar  
 50  24  48  1   
 51  25  49  1   
 52  27  28  1   
 53  27  29  1   
 54  28  50  1   
 55  28  51  1   
 56  28  52  1   
 57  29  53  1   
 58  29  54  1   
 59  29  55  1   
@<TRIPOS>SUBSTRUCTURE
  1 ****   8 GROUP 4 **** **** 0

# MOE 2024.06 (io_trps.svl 2023.06)
