@<TRIPOS>MOLECULE
NONAME
52 54 1 0 0 
SMALL
USER_CHARGES


@<TRIPOS>ATOM
  1 O        0.0820     1.2540    -1.4240 O.2   1 <1>  -0.5700 
  2 C       -0.2890     2.3920    -1.2500 C.2   1 <1>   0.5690 
  3 N       -1.0700     2.7860    -0.1980 N.am  1 <1>  -0.5090 
  4 C        0.1430     3.4600    -2.2460 C.3   1 <1>   0.1810 
  5 C       -1.4930     4.2180    -0.0630 C.3   1 <1>   0.3640 
  6 C       -1.3650     1.8940     0.9500 C.3   1 <1>   0.0490 
  7 O        0.4690     4.6500    -1.5760 O.3   1 <1>  -0.5600 
  8 C       -2.9490     4.3980    -0.5080 C.ar  1 <1>  -0.1440 
  9 C       -0.6010     5.2350    -0.8390 C.3   1 <1>   0.2610 
 10 C       -2.0860     0.6090     0.6900 C.3   1 <1>  -0.2000 
 11 C       -2.7730     1.7100     1.4290 C.3   1 <1>  -0.2000 
 12 C       -3.5170     3.6460    -1.5310 C.ar  1 <1>  -0.1500 
 13 C       -3.7280     5.3580     0.1260 C.ar  1 <1>  -0.1500 
 14 C       -0.0650     6.2870     0.1380 C.2   1 <1>   0.5690 
 15 C       -4.8320     3.8530    -1.9070 C.ar  1 <1>  -0.1500 
 16 C       -5.0440     5.5670    -0.2500 C.ar  1 <1>  -0.1500 
 17 O       -0.8470     6.9170     0.8100 O.2   1 <1>  -0.5700 
 18 N        1.2780     6.4850     0.2330 N.am  1 <1>  -0.7300 
 19 C       -5.6050     4.8110    -1.2740 C.ar  1 <1>   0.0830 
 20 C        1.9600     7.4490     1.1200 C.3   1 <1>   0.1400 
 21 O       -6.8830     4.9510    -1.7060 O.3   1 <1>  -0.3630 
 22 C        2.7100     8.4710     0.2660 C.3   1 <1>  -0.1600 
 23 C       -7.7510     5.9010    -1.1280 C.3   1 <1>   0.0400 
 24 C        3.4180     9.5130     1.1440 C.3   1 <1>  -0.1600 
 25 C        4.1680    10.5360     0.2900 C.3   1 <1>   0.1200 
 26 O        4.7930    11.4300     1.1360 O.3   1 <1>  -0.6800 
 27 H       -0.6430     3.6570    -2.9510 H     1 <1>   0.0800 
 28 H        1.0190     3.1270    -2.7730 H     1 <1>   0.0800 
 29 H       -1.4470     4.4600     0.9850 H     1 <1>   0.0800 
 30 H       -0.5680     1.8830     1.6750 H     1 <1>   0.1000 
 31 H       -1.2130     5.7580    -1.5510 H     1 <1>   0.0800 
 32 H       -2.3860     0.3870    -0.3190 H     1 <1>   0.1000 
 33 H       -1.7820    -0.2680     1.2330 H     1 <1>   0.1000 
 34 H       -2.9490     1.5750     2.4820 H     1 <1>   0.1000 
 35 H       -3.5930     2.2000     0.9360 H     1 <1>   0.1000 
 36 H       -2.9520     2.8870    -2.0410 H     1 <1>   0.1500 
 37 H       -3.3140     5.9570     0.9200 H     1 <1>   0.1500 
 38 H       -5.2710     3.2690    -2.6960 H     1 <1>   0.1500 
 39 H       -5.6110     6.3190     0.2640 H     1 <1>   0.1500 
 40 H        1.8720     5.9230    -0.3860 H     1 <1>   0.3700 
 41 H        1.2350     7.9500     1.7410 H     1 <1>   0.0800 
 42 H        2.6460     6.9190     1.7590 H     1 <1>   0.0800 
 43 H        3.4370     7.9620    -0.3420 H     1 <1>   0.0800 
 44 H        2.0070     8.9690    -0.3800 H     1 <1>   0.0800 
 45 H       -8.7010     5.8320    -1.6270 H     1 <1>   0.0800 
 46 H       -7.3350     6.8830    -1.2660 H     1 <1>   0.0800 
 47 H       -7.8690     5.6750    -0.0830 H     1 <1>   0.0800 
 48 H        4.1220     9.0150     1.7900 H     1 <1>   0.0800 
 49 H        2.6880    10.0200     1.7500 H     1 <1>   0.0800 
 50 H        3.4970    11.0840    -0.3490 H     1 <1>   0.0800 
 51 H        4.9270    10.0610    -0.3080 H     1 <1>   0.0800 
 52 H        4.1370    11.8900     1.6940 H     1 <1>   0.4000 
@<TRIPOS>BOND
  1   1   2  2   
  2   2   3  am  
  3   2   4  1   
  4   3   5  1   
  5   3   6  1   
  6   4   7  1   
  7   4  27  1   
  8   4  28  1   
  9   5   8  1   
 10   5   9  1   
 11   5  29  1   
 12   6  10  1   
 13   6  11  1   
 14   6  30  1   
 15   7   9  1   
 16   8  12  ar  
 17   8  13  ar  
 18   9  14  1   
 19   9  31  1   
 20  10  11  1   
 21  10  32  1   
 22  10  33  1   
 23  11  34  1   
 24  11  35  1   
 25  12  15  ar  
 26  12  36  1   
 27  13  16  ar  
 28  13  37  1   
 29  14  17  2   
 30  14  18  am  
 31  15  19  ar  
 32  15  38  1   
 33  16  19  ar  
 34  16  39  1   
 35  18  20  1   
 36  18  40  1   
 37  19  21  1   
 38  20  22  1   
 39  20  41  1   
 40  20  42  1   
 41  21  23  1   
 42  22  24  1   
 43  22  43  1   
 44  22  44  1   
 45  23  45  1   
 46  23  46  1   
 47  23  47  1   
 48  24  25  1   
 49  24  48  1   
 50  24  49  1   
 51  25  26  1   
 52  25  50  1   
 53  25  51  1   
 54  26  52  1   
@<TRIPOS>SUBSTRUCTURE
  1 ****   9 GROUP 4 **** **** 0

# MOE 2024.06 (io_trps.svl 2023.06)
