@<TRIPOS>MOLECULE
NONAME
49 51 1 0 0 
SMALL
USER_CHARGES


@<TRIPOS>ATOM
  1 O       -0.1270     0.7550    -0.5570 O.co2 1 <1>  -0.9000 
  2 C       -0.8760     1.2240     0.3030 C.2   1 <1>   0.9060 
  3 O       -1.5680     0.5490     1.0640 O.co2 1 <1>  -0.9000 
  4 C       -0.9540     2.7100     0.4310 C.3   1 <1>  -0.1860 
  5 C       -2.4120     3.1610     0.3510 C.3   1 <1>   0.2000 
  6 C       -0.1460     3.3450    -0.6810 C.3   1 <1>   0.3430 
  7 O       -2.8810     3.1780     1.6420 O.3   1 <1>  -0.6800 
  8 C       -2.5640     4.5680    -0.2330 C.3   1 <1>  -0.1600 
  9 N       -0.0880     4.8480    -0.5120 N.4   1 <1>  -0.9590 
 10 C       -1.3400     5.4000     0.1300 C.3   1 <1>   0.3430 
 11 C        1.1710     5.2550     0.1940 C.3   1 <1>   0.4230 
 12 C        1.1390     6.7460     0.5810 C.3   1 <1>  -0.1600 
 13 C        2.3810     4.9500    -0.7070 C.3   1 <1>  -0.1600 
 14 C        2.4660     7.1840     1.1930 C.3   1 <1>   0.2090 
 15 C        3.6800     5.4250    -0.0650 C.3   1 <1>   0.2090 
 16 N        3.5360     6.8630     0.2320 N.pl3 1 <1>  -0.8380 
 17 C        4.7190     7.5780     0.3740 C.ar  1 <1>   0.1000 
 18 C        5.0710     8.5240    -0.5800 C.ar  1 <1>  -0.1500 
 19 C        5.5670     7.3710     1.4560 C.ar  1 <1>  -0.1500 
 20 C        6.2420     9.2530    -0.4660 C.ar  1 <1>  -0.1430 
 21 C        6.7390     8.0940     1.5790 C.ar  1 <1>  -0.1500 
 22 C        7.0760     9.0350     0.6200 C.ar  1 <1>  -0.1500 
 23 C        6.6210    10.2860    -1.5110 C.3   1 <1>  -0.0970 
 24 H       -0.5100     2.9670     1.3740 H     1 <1>   0.0800 
 25 H       -3.0130     2.4590    -0.2070 H     1 <1>   0.0800 
 26 H       -0.6130     3.0940    -1.6190 H     1 <1>   0.0800 
 27 H        0.8370     2.9060    -0.6890 H     1 <1>   0.0800 
 28 H       -2.7970     2.2530     1.9840 H     1 <1>   0.4000 
 29 H       -2.6560     4.5150    -1.3020 H     1 <1>   0.0800 
 30 H       -3.4600     5.0260     0.1490 H     1 <1>   0.0800 
 31 H       -0.0260     5.2420    -1.4570 H     1 <1>   0.4500 
 32 H       -1.2360     5.3730     1.2040 H     1 <1>   0.0800 
 33 H       -1.4880     6.4240    -0.1700 H     1 <1>   0.0800 
 34 H        1.2650     4.6780     1.1000 H     1 <1>   0.0800 
 35 H        0.9550     7.3540    -0.2870 H     1 <1>   0.0800 
 36 H        0.3790     6.9400     1.3140 H     1 <1>   0.0800 
 37 H        2.4860     3.8970    -0.8840 H     1 <1>   0.0800 
 38 H        2.2770     5.4490    -1.6530 H     1 <1>   0.0800 
 39 H        2.6480     6.6740     2.1240 H     1 <1>   0.0800 
 40 H        2.4580     8.2460     1.3800 H     1 <1>   0.0800 
 41 H        4.5050     5.2780    -0.7430 H     1 <1>   0.0800 
 42 H        3.8810     4.8820     0.8430 H     1 <1>   0.0800 
 43 H        4.4100     8.6770    -1.4110 H     1 <1>   0.1500 
 44 H        5.3070     6.6430     2.2000 H     1 <1>   0.1500 
 45 H        7.3900     7.9290     2.4190 H     1 <1>   0.1500 
 46 H        7.9890     9.5950     0.7200 H     1 <1>   0.1500 
 47 H        6.6480    11.2640    -1.0650 H     1 <1>   0.0800 
 48 H        5.9090    10.2950    -2.3170 H     1 <1>   0.0800 
 49 H        7.5910    10.0590    -1.9150 H     1 <1>   0.0800 
@<TRIPOS>BOND
  1   1   2  ar  
  2   2   3  ar  
  3   2   4  1   
  4   4   5  1   
  5   4   6  1   
  6   4  24  1   
  7   5   7  1   
  8   5   8  1   
  9   5  25  1   
 10   6   9  1   
 11   6  26  1   
 12   6  27  1   
 13   7  28  1   
 14   8  10  1   
 15   8  29  1   
 16   8  30  1   
 17   9  10  1   
 18   9  11  1   
 19   9  31  1   
 20  10  32  1   
 21  10  33  1   
 22  11  12  1   
 23  11  13  1   
 24  11  34  1   
 25  12  14  1   
 26  12  35  1   
 27  12  36  1   
 28  13  15  1   
 29  13  37  1   
 30  13  38  1   
 31  14  16  1   
 32  14  39  1   
 33  14  40  1   
 34  15  16  1   
 35  15  41  1   
 36  15  42  1   
 37  16  17  1   
 38  17  18  ar  
 39  17  19  ar  
 40  18  20  ar  
 41  18  43  1   
 42  19  21  ar  
 43  19  44  1   
 44  20  22  ar  
 45  20  23  1   
 46  21  22  ar  
 47  21  45  1   
 48  22  46  1   
 49  23  47  1   
 50  23  48  1   
 51  23  49  1   
@<TRIPOS>SUBSTRUCTURE
  1 ****  11 GROUP 4 **** **** 0

# MOE 2024.06 (io_trps.svl 2023.06)
