@<TRIPOS>MOLECULE
NONAME
47 49 1 0 0 
SMALL
USER_CHARGES


@<TRIPOS>ATOM
  1 O        0.6670    -0.0050    -0.1760 O.2   1 <1>  -0.5700 
  2 C        1.6960    -0.6380    -0.0050 C.2   1 <1>   0.5440 
  3 N        2.8250     0.0740     0.3910 N.am  1 <1>  -0.6600 
  4 C        1.6480    -2.0910    -0.1960 C.ar  1 <1>   0.3960 
  5 C        4.0520    -0.5910     0.9360 C.3   1 <1>   0.1400 
  6 C        2.7840     1.5690     0.4570 C.3   1 <1>   0.1400 
  7 N        2.6910    -2.7740    -0.7030 N.ar  1 <1>  -0.6200 
  8 C        0.4650    -2.7540     0.1580 C.ar  1 <1>   0.1600 
  9 C        5.1430    -0.7370    -0.1360 C.3   1 <1>   0.1400 
 10 C        4.1090     2.2660     0.1140 C.3   1 <1>  -0.1600 
 11 C        2.4700    -4.0700    -0.8140 C.ar  1 <1>   0.1600 
 12 N        0.2440    -4.0560     0.0560 N.ar  1 <1>  -0.6200 
 13 N        5.8040     0.5690    -0.4400 N.am  1 <1>  -0.6600 
 14 C        4.8980     1.6000    -1.0170 C.3   1 <1>   0.1400 
 15 C        1.2850    -4.6930    -0.4450 C.ar  1 <1>   0.1600 
 16 C        7.1290     0.7700    -0.1410 C.2   1 <1>   0.5690 
 17 O        7.8010    -0.0990     0.3650 O.2   1 <1>  -0.5700 
 18 C        7.7890     2.1160    -0.4360 C.3   1 <1>  -0.0990 
 19 C        9.2230     2.2540     0.1110 C.3   1 <1>  -0.1600 
 20 C        9.8290     3.6300    -0.2000 C.3   1 <1>   0.0210 
 21 C       11.2400     3.7740     0.3460 C.2   1 <1>  -0.1810 
 22 C       12.0350     4.9120     0.2370 C.2   1 <1>   0.1390 
 23 C       12.0070     2.8910     1.0220 C.2   1 <1>  -0.3020 
 24 N       13.1980     4.7600     0.7940 N.2   1 <1>  -0.7070 
 25 N       13.1780     3.5050     1.2800 N.pl3 1 <1>   0.3000 
 26 H        3.7980    -1.5680     1.3050 H     1 <1>   0.0800 
 27 H        4.4390    -0.0320     1.7690 H     1 <1>   0.0800 
 28 H        2.4650     1.8650     1.4410 H     1 <1>   0.0800 
 29 H        2.0420     1.9260    -0.2390 H     1 <1>   0.0800 
 30 H       -0.3420    -2.1580     0.5480 H     1 <1>   0.1500 
 31 H        4.7200    -1.1420    -1.0380 H     1 <1>   0.0800 
 32 H        5.8700    -1.4450     0.2190 H     1 <1>   0.0800 
 33 H        4.7200     2.3430     0.9960 H     1 <1>   0.0800 
 34 H        3.8690     3.2710    -0.1840 H     1 <1>   0.0800 
 35 H        3.2640    -4.6750    -1.2170 H     1 <1>   0.1500 
 36 H        5.4700     2.3410    -1.5450 H     1 <1>   0.0800 
 37 H        4.2280     1.1450    -1.7280 H     1 <1>   0.0800 
 38 H        1.1970    -5.7580    -0.5710 H     1 <1>   0.1500 
 39 H        7.1820     2.8900    -0.0040 H     1 <1>   0.0800 
 40 H        7.8070     2.2490    -1.5020 H     1 <1>   0.0800 
 41 H        9.8430     1.4880    -0.3240 H     1 <1>   0.0800 
 42 H        9.2100     2.1040     1.1770 H     1 <1>   0.0800 
 43 H        9.2140     4.4000     0.2320 H     1 <1>   0.0800 
 44 H        9.8550     3.7790    -1.2650 H     1 <1>   0.0800 
 45 H       11.7310     5.8220    -0.2520 H     1 <1>   0.1500 
 46 H       11.7940     1.8830     1.3280 H     1 <1>   0.1500 
 47 H       13.9770     3.0990     1.7810 H     1 <1>   0.2700 
@<TRIPOS>BOND
  1   1   2  2   
  2   2   3  am  
  3   2   4  1   
  4   3   5  1   
  5   3   6  1   
  6   4   7  ar  
  7   4   8  ar  
  8   5   9  1   
  9   5  26  1   
 10   5  27  1   
 11   6  10  1   
 12   6  28  1   
 13   6  29  1   
 14   7  11  ar  
 15   8  12  ar  
 16   8  30  1   
 17   9  13  1   
 18   9  31  1   
 19   9  32  1   
 20  10  14  1   
 21  10  33  1   
 22  10  34  1   
 23  11  15  ar  
 24  11  35  1   
 25  12  15  ar  
 26  13  14  1   
 27  13  16  am  
 28  14  36  1   
 29  14  37  1   
 30  15  38  1   
 31  16  17  2   
 32  16  18  1   
 33  18  19  1   
 34  18  39  1   
 35  18  40  1   
 36  19  20  1   
 37  19  41  1   
 38  19  42  1   
 39  20  21  1   
 40  20  43  1   
 41  20  44  1   
 42  21  22  1   
 43  21  23  2   
 44  22  24  2   
 45  22  45  1   
 46  23  25  1   
 47  23  46  1   
 48  24  25  1   
 49  25  47  1   
@<TRIPOS>SUBSTRUCTURE
  1 ****  13 GROUP 4 **** **** 0

# MOE 2024.06 (io_trps.svl 2023.06)
