@<TRIPOS>MOLECULE
NONAME
55 57 1 0 0 
SMALL
USER_CHARGES


@<TRIPOS>ATOM
  1 CL      -2.2150     0.5340     2.0350 Cl    1 <1>  -0.1770 
  2 C       -2.2960     1.5070     0.5760 C.ar  1 <1>   0.1770 
  3 C       -1.6980     2.7610     0.5500 C.ar  1 <1>   0.0830 
  4 C       -2.9690     1.0110    -0.5310 C.ar  1 <1>  -0.1440 
  5 O       -1.0590     3.2400     1.6330 O.3   1 <1>  -0.5320 
  6 C       -1.7640     3.5270    -0.6030 C.ar  1 <1>  -0.1500 
  7 C       -3.0280     1.7860    -1.6820 C.ar  1 <1>  -0.1500 
  8 C       -3.6260    -0.3540    -0.4800 C.3   1 <1>   0.4860 
  9 C       -2.4280     3.0360    -1.7150 C.ar  1 <1>  -0.1500 
 10 N       -4.7400    -0.3260     0.5080 N.4   1 <1>  -0.9590 
 11 C       -5.1710    -1.7270     0.8500 C.3   1 <1>   0.3430 
 12 C       -5.8380     0.5900     0.0550 C.3   1 <1>   0.3430 
 13 C       -6.3050    -1.8180     1.8930 C.3   1 <1>   0.1400 
 14 C       -6.5920     1.1410     1.2680 C.3   1 <1>  -0.1600 
 15 N       -7.5390    -1.1750     1.3670 N.am  1 <1>  -0.6600 
 16 C       -7.7430     0.2490     1.7470 C.3   1 <1>   0.1400 
 17 C       -8.2680    -1.7190     0.3410 C.2   1 <1>   0.5690 
 18 O       -8.7170    -1.0150    -0.5300 O.2   1 <1>  -0.5700 
 19 C       -8.4530    -3.2290     0.2480 C.3   1 <1>  -0.0990 
 20 C       -9.7680    -3.6410    -0.4410 C.3   1 <1>  -0.1600 
 21 C       -9.9890    -5.1620    -0.4280 C.3   1 <1>  -0.0800 
 22 C       -8.9460    -5.9550    -1.2150 C.3   1 <1>  -0.1600 
 23 C      -11.3060    -5.5630    -1.0850 C.3   1 <1>  -0.1600 
 24 C       -9.6280    -7.2810    -1.5620 C.3   1 <1>  -0.1600 
 25 C      -11.1360    -7.0420    -1.4320 C.3   1 <1>  -0.1600 
 26 H       -0.6420     4.1110     1.4980 H     1 <1>   0.4500 
 27 H       -1.3040     4.4990    -0.6420 H     1 <1>   0.1500 
 28 H       -3.5350     1.4320    -2.5650 H     1 <1>   0.1500 
 29 H       -2.8890    -1.0830    -0.1840 H     1 <1>   0.0800 
 30 H       -4.0000    -0.6240    -1.4550 H     1 <1>   0.0800 
 31 H       -2.4760     3.6320    -2.6120 H     1 <1>   0.1500 
 32 H       -4.3340     0.0980     1.3550 H     1 <1>   0.4500 
 33 H       -4.3220    -2.2710     1.2320 H     1 <1>   0.0800 
 34 H       -5.5000    -2.2270    -0.0450 H     1 <1>   0.0800 
 35 H       -6.5170     0.0830    -0.6130 H     1 <1>   0.0800 
 36 H       -5.4120     1.4270    -0.4760 H     1 <1>   0.0800 
 37 H       -6.0030    -1.3460     2.8130 H     1 <1>   0.0800 
 38 H       -6.5020    -2.8520     2.1130 H     1 <1>   0.0800 
 39 H       -7.0220     2.0870     0.9920 H     1 <1>   0.0800 
 40 H       -5.9130     1.3400     2.0770 H     1 <1>   0.0800 
 41 H       -8.6650     0.6000     1.3100 H     1 <1>   0.0800 
 42 H       -7.8530     0.3250     2.8150 H     1 <1>   0.0800 
 43 H       -8.4530    -3.6400     1.2400 H     1 <1>   0.0800 
 44 H       -7.6230    -3.6390    -0.2950 H     1 <1>   0.0800 
 45 H       -9.7670    -3.2840    -1.4580 H     1 <1>   0.0800 
 46 H      -10.5910    -3.1660     0.0660 H     1 <1>   0.0800 
 47 H      -10.0000    -5.5190     0.5890 H     1 <1>   0.0800 
 48 H       -8.0440    -6.1100    -0.6510 H     1 <1>   0.0800 
 49 H       -8.7100    -5.4360    -2.1290 H     1 <1>   0.0800 
 50 H      -11.4460    -5.0020    -1.9940 H     1 <1>   0.0800 
 51 H      -12.1490    -5.3960    -0.4360 H     1 <1>   0.0800 
 52 H       -9.3230    -8.0450    -0.8670 H     1 <1>   0.0800 
 53 H       -9.3660    -7.5930    -2.5580 H     1 <1>   0.0800 
 54 H      -11.6560    -7.2870    -2.3430 H     1 <1>   0.0800 
 55 H      -11.5280    -7.6490    -0.6340 H     1 <1>   0.0800 
@<TRIPOS>BOND
  1   1   2  1   
  2   2   3  ar  
  3   2   4  ar  
  4   3   5  1   
  5   3   6  ar  
  6   4   7  ar  
  7   4   8  1   
  8   5  26  1   
  9   6   9  ar  
 10   6  27  1   
 11   7   9  ar  
 12   7  28  1   
 13   8  10  1   
 14   8  29  1   
 15   8  30  1   
 16   9  31  1   
 17  10  11  1   
 18  10  12  1   
 19  10  32  1   
 20  11  13  1   
 21  11  33  1   
 22  11  34  1   
 23  12  14  1   
 24  12  35  1   
 25  12  36  1   
 26  13  15  1   
 27  13  37  1   
 28  13  38  1   
 29  14  16  1   
 30  14  39  1   
 31  14  40  1   
 32  15  16  1   
 33  15  17  am  
 34  16  41  1   
 35  16  42  1   
 36  17  18  2   
 37  17  19  1   
 38  19  20  1   
 39  19  43  1   
 40  19  44  1   
 41  20  21  1   
 42  20  45  1   
 43  20  46  1   
 44  21  22  1   
 45  21  23  1   
 46  21  47  1   
 47  22  24  1   
 48  22  48  1   
 49  22  49  1   
 50  23  25  1   
 51  23  50  1   
 52  23  51  1   
 53  24  25  1   
 54  24  52  1   
 55  24  53  1   
 56  25  54  1   
 57  25  55  1   
@<TRIPOS>SUBSTRUCTURE
  1 ****  11 GROUP 4 **** **** 0

# MOE 2024.06 (io_trps.svl 2023.06)
