@<TRIPOS>MOLECULE
NONAME
54 57 1 0 0 
SMALL
USER_CHARGES


@<TRIPOS>ATOM
  1 O       -3.5200     3.3590     0.8700 O.2   1 <1>  -0.5700 
  2 C       -3.2850     2.7330    -0.1410 C.2   1 <1>   0.5690 
  3 N       -4.1820     1.7990    -0.6140 N.am  1 <1>  -0.6600 
  4 C       -1.9550     2.9960    -0.8540 C.3   1 <1>   0.2370 
  5 C       -5.3610     1.3890     0.1940 C.3   1 <1>   0.1400 
  6 C       -3.9790     0.9180    -1.8010 C.3   1 <1>   0.1400 
  7 N       -1.0850     1.8150    -0.6630 N.pl3 1 <1>   0.3140 
  8 C       -1.2170     4.2750    -0.4050 C.3   1 <1>  -0.2400 
  9 C       -5.0970    -0.0150     0.7410 C.3   1 <1>  -0.1600 
 10 C       -3.7070    -0.5070    -1.3160 C.3   1 <1>  -0.1600 
 11 N       -0.4940     1.1940    -1.7060 N.2   1 <1>  -0.7070 
 12 C       -0.8020     1.1830     0.4970 C.2   1 <1>  -0.3020 
 13 C       -4.8140    -1.0270    -0.3860 C.3   1 <1>   0.4240 
 14 C        0.1430     0.1910    -1.1820 C.2   1 <1>   0.1390 
 15 C       -0.0170     0.1290     0.1980 C.2   1 <1>  -0.1810 
 16 O       -5.9640    -1.1040    -1.1960 O.3   1 <1>  -0.5600 
 17 C       -4.4180    -2.4030     0.1910 C.ar  1 <1>  -0.1430 
 18 C        0.5700    -0.9080     1.1330 C.3   1 <1>  -0.0590 
 19 C       -6.9820    -1.9650    -0.7870 C.3   1 <1>   0.1200 
 20 C       -5.2020    -3.5310    -0.0300 C.ar  1 <1>  -0.1430 
 21 C       -3.2620    -2.5380     0.9540 C.ar  1 <1>  -0.1500 
 22 C       -6.4710    -3.4010    -0.8490 C.3   1 <1>  -0.0170 
 23 C       -4.8350    -4.7610     0.4900 C.ar  1 <1>  -0.1500 
 24 C       -2.8970    -3.7650     1.4760 C.ar  1 <1>  -0.1500 
 25 C       -3.6760    -4.8850     1.2490 C.ar  1 <1>   0.0830 
 26 O       -3.2470    -6.0500     1.7960 O.3   1 <1>  -0.3630 
 27 C       -3.9660    -7.2500     1.6200 C.3   1 <1>   0.0400 
 28 H       -2.1550     3.0870    -1.9040 H     1 <1>   0.0800 
 29 H       -6.2400     1.3880    -0.4290 H     1 <1>   0.0800 
 30 H       -5.5290     2.0730     1.0080 H     1 <1>   0.0800 
 31 H       -3.1620     1.2530    -2.4140 H     1 <1>   0.0800 
 32 H       -4.8700     0.9320    -2.4060 H     1 <1>   0.0800 
 33 H       -0.9760     4.2230     0.6420 H     1 <1>   0.0800 
 34 H       -1.8460     5.1320    -0.5660 H     1 <1>   0.0800 
 35 H       -0.3130     4.3990    -0.9750 H     1 <1>   0.0800 
 36 H       -5.9290    -0.3430     1.3340 H     1 <1>   0.0800 
 37 H       -4.2480     0.0410     1.3970 H     1 <1>   0.0800 
 38 H       -2.7640    -0.5140    -0.8070 H     1 <1>   0.0800 
 39 H       -3.6160    -1.1680    -2.1580 H     1 <1>   0.0800 
 40 H       -1.1790     1.5140     1.4490 H     1 <1>   0.1500 
 41 H        0.7230    -0.5080    -1.7600 H     1 <1>   0.1500 
 42 H        0.2710    -0.7050     2.1450 H     1 <1>   0.0800 
 43 H        1.6430    -0.8870     1.0760 H     1 <1>   0.0800 
 44 H        0.2230    -1.8880     0.8580 H     1 <1>   0.0800 
 45 H       -7.8140    -1.8320    -1.4560 H     1 <1>   0.0800 
 46 H       -7.2880    -1.7060     0.2110 H     1 <1>   0.0800 
 47 H       -2.6340    -1.6860     1.1490 H     1 <1>   0.1500 
 48 H       -6.2700    -3.6650    -1.8720 H     1 <1>   0.0800 
 49 H       -7.2290    -4.0620    -0.4700 H     1 <1>   0.0800 
 50 H       -5.4580    -5.6130     0.2970 H     1 <1>   0.1500 
 51 H       -2.0030    -3.8620     2.0650 H     1 <1>   0.1500 
 52 H       -3.4390    -8.0330     2.1350 H     1 <1>   0.0800 
 53 H       -4.0180    -7.4750     0.5700 H     1 <1>   0.0800 
 54 H       -4.9490    -7.1330     2.0400 H     1 <1>   0.0800 
@<TRIPOS>BOND
  1   1   2  2   
  2   2   3  am  
  3   2   4  1   
  4   3   5  1   
  5   3   6  1   
  6   4   7  1   
  7   4   8  1   
  8   4  28  1   
  9   5   9  1   
 10   5  29  1   
 11   5  30  1   
 12   6  10  1   
 13   6  31  1   
 14   6  32  1   
 15   7  11  1   
 16   7  12  1   
 17   8  33  1   
 18   8  34  1   
 19   8  35  1   
 20   9  13  1   
 21   9  36  1   
 22   9  37  1   
 23  10  13  1   
 24  10  38  1   
 25  10  39  1   
 26  11  14  2   
 27  12  15  2   
 28  12  40  1   
 29  13  16  1   
 30  13  17  1   
 31  14  15  1   
 32  14  41  1   
 33  15  18  1   
 34  16  19  1   
 35  17  20  ar  
 36  17  21  ar  
 37  18  42  1   
 38  18  43  1   
 39  18  44  1   
 40  19  22  1   
 41  19  45  1   
 42  19  46  1   
 43  20  22  1   
 44  20  23  ar  
 45  21  24  ar  
 46  21  47  1   
 47  22  48  1   
 48  22  49  1   
 49  23  25  ar  
 50  23  50  1   
 51  24  25  ar  
 52  24  51  1   
 53  25  26  1   
 54  26  27  1   
 55  27  52  1   
 56  27  53  1   
 57  27  54  1   
@<TRIPOS>SUBSTRUCTURE
  1 ****  10 GROUP 4 **** **** 0

# MOE 2024.06 (io_trps.svl 2023.06)
