@<TRIPOS>MOLECULE
NONAME
43 45 1 0 0 
SMALL
USER_CHARGES


@<TRIPOS>ATOM
  1 CL       1.3050     1.1500    -2.9130 Cl    1 <1>  -0.1770 
  2 C        2.4460     1.5780    -1.6570 C.ar  1 <1>   0.1770 
  3 C        2.7520     0.6890    -0.6330 C.ar  1 <1>   0.0830 
  4 C        3.0460     2.8210    -1.7070 C.ar  1 <1>  -0.1500 
  5 O        2.1910    -0.5360    -0.5520 O.3   1 <1>  -0.3630 
  6 C        3.6800     1.0540     0.3290 C.ar  1 <1>  -0.1500 
  7 C        3.9630     3.1750    -0.7300 C.ar  1 <1>  -0.1500 
  8 C        0.8750    -0.5980    -0.0520 C.3   1 <1>   0.1200 
  9 C        4.3010     2.2980     0.2990 C.ar  1 <1>  -0.0090 
 10 C        0.4540    -2.0640    -0.0130 C.3   1 <1>  -0.2400 
 11 S        5.5030     2.7670     1.5780 S.o2  1 <1>   1.4470 
 12 O        6.1890     1.5930     2.0720 O.2   1 <1>  -0.6500 
 13 O        4.8590     3.6590     2.5160 O.2   1 <1>  -0.6500 
 14 N        6.6490     3.6760     0.7180 N.am  1 <1>  -0.8490 
 15 C        7.4410     4.5560     1.6110 C.3   1 <1>   0.1960 
 16 C        7.4810     2.8300    -0.1620 C.3   1 <1>   0.1960 
 17 C        8.3070     5.6360     0.9010 C.3   1 <1>   0.2200 
 18 C        8.2960     3.6130    -1.2110 C.3   1 <1>  -0.0190 
 19 N        7.8380     5.9340    -0.4810 N.am  1 <1>  -0.7300 
 20 C        9.8020     5.2570     0.8880 C.3   1 <1>   0.1200 
 21 C        7.7440     5.0040    -1.4530 C.2   1 <1>   0.5690 
 22 C        9.7960     3.6710    -0.8820 C.3   1 <1>   0.1200 
 23 O       10.0220     3.9400     0.4690 O.3   1 <1>  -0.5600 
 24 O        7.2300     5.2710    -2.5100 O.2   1 <1>  -0.5700 
 25 H        2.8000     3.5030    -2.5020 H     1 <1>   0.1500 
 26 H        3.9210     0.3530     1.1110 H     1 <1>   0.1500 
 27 H        4.4290     4.1480    -0.7720 H     1 <1>   0.1500 
 28 H        0.8660    -0.1700     0.9360 H     1 <1>   0.0800 
 29 H        0.2290    -0.0330    -0.7000 H     1 <1>   0.0800 
 30 H        1.1120    -2.6210     0.6290 H     1 <1>   0.0800 
 31 H        0.4800    -2.4800    -1.0040 H     1 <1>   0.0800 
 32 H       -0.5480    -2.1440     0.3670 H     1 <1>   0.0800 
 33 H        6.7630     5.0940     2.2500 H     1 <1>   0.0800 
 34 H        8.0590     3.9550     2.2570 H     1 <1>   0.0800 
 35 H        8.1340     2.2130     0.4350 H     1 <1>   0.0800 
 36 H        6.8300     2.1640    -0.7030 H     1 <1>   0.0800 
 37 H        8.2270     6.5440     1.4720 H     1 <1>   0.0800 
 38 H        8.2160     3.0830    -2.1430 H     1 <1>   0.0800 
 39 H        7.3530     6.8170    -0.6450 H     1 <1>   0.3700 
 40 H       10.1890     5.3250     1.8890 H     1 <1>   0.0800 
 41 H       10.3660     5.9280     0.2640 H     1 <1>   0.0800 
 42 H       10.3030     4.4080    -1.4820 H     1 <1>   0.0800 
 43 H       10.2400     2.7110    -1.0810 H     1 <1>   0.0800 
@<TRIPOS>BOND
  1   1   2  1   
  2   2   3  ar  
  3   2   4  ar  
  4   3   5  1   
  5   3   6  ar  
  6   4   7  ar  
  7   4  25  1   
  8   5   8  1   
  9   6   9  ar  
 10   6  26  1   
 11   7   9  ar  
 12   7  27  1   
 13   8  10  1   
 14   8  28  1   
 15   8  29  1   
 16   9  11  1   
 17  10  30  1   
 18  10  31  1   
 19  10  32  1   
 20  11  12  2   
 21  11  13  2   
 22  11  14  am  
 23  14  15  1   
 24  14  16  1   
 25  15  17  1   
 26  15  33  1   
 27  15  34  1   
 28  16  18  1   
 29  16  35  1   
 30  16  36  1   
 31  17  19  1   
 32  17  20  1   
 33  17  37  1   
 34  18  21  1   
 35  18  22  1   
 36  18  38  1   
 37  19  21  am  
 38  19  39  1   
 39  20  23  1   
 40  20  40  1   
 41  20  41  1   
 42  21  24  2   
 43  22  23  1   
 44  22  42  1   
 45  22  43  1   
@<TRIPOS>SUBSTRUCTURE
  1 ****   9 GROUP 4 **** **** 0

# MOE 2024.06 (io_trps.svl 2023.06)
