@<TRIPOS>MOLECULE
NONAME
49 51 1 0 0 
SMALL
USER_CHARGES


@<TRIPOS>ATOM
  1 O        0.7950     0.0480    -0.4180 O.2   1 <1>  -0.5700 
  2 C        1.4490    -0.9160    -0.1020 C.2   1 <1>   0.5690 
  3 N        0.9760    -1.9240     0.6930 N.am  1 <1>  -0.6600 
  4 C        2.8710    -1.0410    -0.6070 C.3   1 <1>  -0.0990 
  5 C        1.8520    -3.0630     1.0550 C.3   1 <1>   0.1400 
  6 C       -0.3820    -1.8960     1.3000 C.3   1 <1>   0.0600 
  7 C        3.1260    -2.4660    -1.1360 C.3   1 <1>  -0.0800 
  8 C        2.5890    -3.5760    -0.2000 C.3   1 <1>  -0.0800 
  9 C        4.6120    -2.7600    -1.3780 C.3   1 <1>  -0.1600 
 10 C        3.7880    -4.4730     0.1380 C.3   1 <1>  -0.1600 
 11 C        4.7860    -4.2240    -0.9940 C.3   1 <1>   0.4230 
 12 N        6.2120    -4.5990    -0.7110 N.4   1 <1>  -0.9590 
 13 C        6.7460    -4.2930     0.6900 C.3   1 <1>   0.4040 
 14 C        6.4060    -6.0510    -1.0120 C.3   1 <1>   0.2630 
 15 C        6.7900    -2.8140     1.1030 C.2   1 <1>   0.5690 
 16 O        5.8770    -2.4070     1.7760 O.2   1 <1>  -0.5700 
 17 N        7.8280    -2.0270     0.6670 N.am  1 <1>  -0.5470 
 18 C        8.0060    -0.6370     0.7590 C.ar  1 <1>   0.1170 
 19 C        6.9550     0.2580     0.9440 C.ar  1 <1>  -0.1500 
 20 C        9.2930    -0.1240     0.6340 C.ar  1 <1>  -0.1500 
 21 C        7.1840     1.6200     1.0020 C.ar  1 <1>  -0.1500 
 22 C        9.5250     1.2380     0.6910 C.ar  1 <1>  -0.1500 
 23 C        8.4700     2.1130     0.8750 C.ar  1 <1>  -0.1500 
 24 H        3.0400    -0.3180    -1.3850 H     1 <1>   0.0800 
 25 H        3.5270    -0.8140     0.2140 H     1 <1>   0.0800 
 26 H        2.5590    -2.7190     1.7930 H     1 <1>   0.0800 
 27 H        1.2690    -3.8570     1.4890 H     1 <1>   0.0800 
 28 H       -0.9400    -2.7590     0.9860 H     1 <1>   0.0800 
 29 H       -0.9140    -1.0120     0.9930 H     1 <1>   0.0800 
 30 H       -0.3010    -1.8920     2.3730 H     1 <1>   0.0800 
 31 H        2.5990    -2.5570    -2.0730 H     1 <1>   0.0800 
 32 H        1.8820    -4.1610    -0.7660 H     1 <1>   0.0800 
 33 H        5.2050    -2.1110    -0.7650 H     1 <1>   0.0800 
 34 H        4.8650    -2.5920    -2.4100 H     1 <1>   0.0800 
 35 H        3.4930    -5.5060     0.1870 H     1 <1>   0.0800 
 36 H        4.1780    -4.1690     1.0900 H     1 <1>   0.0800 
 37 H        4.4430    -4.7960    -1.8430 H     1 <1>   0.0800 
 38 H        6.7720    -4.0560    -1.3840 H     1 <1>   0.4500 
 39 H        6.1450    -4.8100     1.4180 H     1 <1>   0.0800 
 40 H        7.7460    -4.6800     0.7770 H     1 <1>   0.0800 
 41 H        5.8160    -6.6550    -0.3410 H     1 <1>   0.0800 
 42 H        7.4430    -6.3250    -0.9020 H     1 <1>   0.0800 
 43 H        6.1030    -6.2680    -2.0240 H     1 <1>   0.0800 
 44 H        8.6410    -2.4980     0.2730 H     1 <1>   0.3700 
 45 H        5.9460    -0.0950     1.0450 H     1 <1>   0.1500 
 46 H       10.1290    -0.7850     0.4940 H     1 <1>   0.1500 
 47 H        6.3610     2.2990     1.1480 H     1 <1>   0.1500 
 48 H       10.5270     1.6220     0.5940 H     1 <1>   0.1500 
 49 H        8.6480     3.1740     0.9210 H     1 <1>   0.1500 
@<TRIPOS>BOND
  1   1   2  2   
  2   2   3  am  
  3   2   4  1   
  4   3   5  1   
  5   3   6  1   
  6   4   7  1   
  7   4  24  1   
  8   4  25  1   
  9   5   8  1   
 10   5  26  1   
 11   5  27  1   
 12   6  28  1   
 13   6  29  1   
 14   6  30  1   
 15   7   8  1   
 16   7   9  1   
 17   7  31  1   
 18   8  10  1   
 19   8  32  1   
 20   9  11  1   
 21   9  33  1   
 22   9  34  1   
 23  10  11  1   
 24  10  35  1   
 25  10  36  1   
 26  11  12  1   
 27  11  37  1   
 28  12  13  1   
 29  12  14  1   
 30  12  38  1   
 31  13  15  1   
 32  13  39  1   
 33  13  40  1   
 34  14  41  1   
 35  14  42  1   
 36  14  43  1   
 37  15  16  2   
 38  15  17  am  
 39  17  18  1   
 40  17  44  1   
 41  18  19  ar  
 42  18  20  ar  
 43  19  21  ar  
 44  19  45  1   
 45  20  22  ar  
 46  20  46  1   
 47  21  23  ar  
 48  21  47  1   
 49  22  23  ar  
 50  22  48  1   
 51  23  49  1   
@<TRIPOS>SUBSTRUCTURE
  1 ****  16 GROUP 4 **** **** 0

# MOE 2024.06 (io_trps.svl 2023.06)
