@<TRIPOS>MOLECULE
NONAME
41 43 1 0 0 
SMALL
USER_CHARGES


@<TRIPOS>ATOM
  1 S       -0.0100    -0.1370     1.3790 S.o2  1 <1>   1.4470 
  2 O       -0.5850    -1.2480     2.1050 O.2   1 <1>  -0.6500 
  3 O        0.4490     1.0280     2.1040 O.2   1 <1>  -0.6500 
  4 N       -1.1720     0.3950     0.2650 N.am  1 <1>  -0.8490 
  5 C        1.3180    -0.7670     0.3120 C.ar  1 <1>  -0.0090 
  6 C       -2.4900     0.5550     0.9030 C.3   1 <1>   0.1960 
  7 C       -0.7760     1.6410    -0.3980 C.3   1 <1>   0.1960 
  8 C        2.6370    -0.3550     0.4900 C.ar  1 <1>  -0.1500 
  9 C        1.0390    -1.6840    -0.7040 C.ar  1 <1>  -0.1500 
 10 C       -3.5980     0.8620    -0.1360 C.3   1 <1>   0.0000 
 11 C       -1.7820     2.0010    -1.4960 C.3   1 <1>  -0.1600 
 12 C        3.6300    -0.8520    -0.3340 C.ar  1 <1>   0.1900 
 13 C        2.0340    -2.1840    -1.5330 C.ar  1 <1>  -0.1500 
 14 C       -4.9860     1.0180     0.5180 C.3   1 <1>   0.2000 
 15 C       -3.2070     2.1230    -0.9340 C.3   1 <1>  -0.1600 
 16 C       -3.8240    -0.3560    -1.0500 C.3   1 <1>  -0.1600 
 17 F        4.8600    -0.4480    -0.1500 F     1 <1>  -0.1900 
 18 C        3.3330    -1.7580    -1.3370 C.ar  1 <1>   0.1900 
 19 O       -4.9390     1.6490     1.7490 O.3   1 <1>  -0.6800 
 20 C       -5.5680    -0.3890     0.6680 C.3   1 <1>  -0.1600 
 21 C       -4.7500    -1.2900    -0.2670 C.3   1 <1>  -0.1600 
 22 F        4.2760    -2.2230    -2.1140 F     1 <1>  -0.1900 
 23 H       -2.7490    -0.3460     1.4310 H     1 <1>   0.0800 
 24 H       -2.4320     1.3530     1.6250 H     1 <1>   0.0800 
 25 H       -0.7250     2.4430     0.3220 H     1 <1>   0.0800 
 26 H        0.1990     1.5260    -0.8420 H     1 <1>   0.0800 
 27 H        2.8920     0.3470     1.2660 H     1 <1>   0.1500 
 28 H        0.0200    -2.0090    -0.8440 H     1 <1>   0.1500 
 29 H       -1.4950     2.9340    -1.9470 H     1 <1>   0.0800 
 30 H       -1.7500     1.2450    -2.2610 H     1 <1>   0.0800 
 31 H        1.8090    -2.8910    -2.3130 H     1 <1>   0.1500 
 32 H       -5.6230     1.6020    -0.1250 H     1 <1>   0.0800 
 33 H       -3.9040     2.2940    -1.7360 H     1 <1>   0.0800 
 34 H       -3.2510     2.9750    -0.2770 H     1 <1>   0.0800 
 35 H       -4.3290    -0.0460    -1.9490 H     1 <1>   0.0800 
 36 H       -2.9070    -0.8480    -1.3290 H     1 <1>   0.0800 
 37 H       -4.6220     1.0310     2.4340 H     1 <1>   0.4000 
 38 H       -5.4910    -0.7500     1.6790 H     1 <1>   0.0800 
 39 H       -6.6020    -0.3850     0.3710 H     1 <1>   0.0800 
 40 H       -4.1590    -1.9750     0.3180 H     1 <1>   0.0800 
 41 H       -5.3820    -1.8580    -0.9280 H     1 <1>   0.0800 
@<TRIPOS>BOND
  1   1   2  2   
  2   1   3  2   
  3   1   4  am  
  4   1   5  1   
  5   4   6  1   
  6   4   7  1   
  7   5   8  ar  
  8   5   9  ar  
  9   6  10  1   
 10   6  23  1   
 11   6  24  1   
 12   7  11  1   
 13   7  25  1   
 14   7  26  1   
 15   8  12  ar  
 16   8  27  1   
 17   9  13  ar  
 18   9  28  1   
 19  10  14  1   
 20  10  15  1   
 21  10  16  1   
 22  11  15  1   
 23  11  29  1   
 24  11  30  1   
 25  12  17  1   
 26  12  18  ar  
 27  13  18  ar  
 28  13  31  1   
 29  14  19  1   
 30  14  20  1   
 31  14  32  1   
 32  15  33  1   
 33  15  34  1   
 34  16  21  1   
 35  16  35  1   
 36  16  36  1   
 37  18  22  1   
 38  19  37  1   
 39  20  21  1   
 40  20  38  1   
 41  20  39  1   
 42  21  40  1   
 43  21  41  1   
@<TRIPOS>SUBSTRUCTURE
  1 ****   4 GROUP 4 **** **** 0

# MOE 2024.06 (io_trps.svl 2023.06)
