@<TRIPOS>MOLECULE
NONAME
48 49 1 0 0 
SMALL
USER_CHARGES


@<TRIPOS>ATOM
  1 S       -1.2580     1.1080     0.9890 S.o2  1 <1>   1.4470 
  2 O       -1.2150     0.3980     2.2480 O.2   1 <1>  -0.6500 
  3 O       -2.0990     2.2840     0.8910 O.2   1 <1>  -0.6500 
  4 N       -1.7600     0.0500    -0.2420 N.am  1 <1>  -0.8490 
  5 C        0.4250     1.5790     0.4930 C.ar  1 <1>  -0.0090 
  6 C       -0.9990    -1.2110    -0.3740 C.3   1 <1>   0.1960 
  7 C       -3.2100    -0.1460    -0.3360 C.3   1 <1>   0.1960 
  8 C        1.5380     0.9100     0.9910 C.ar  1 <1>  -0.1500 
  9 C        0.6450     2.6070    -0.4160 C.ar  1 <1>  -0.1500 
 10 C       -1.4660    -2.3110     0.5880 C.3   1 <1>  -0.1860 
 11 C       -3.7150    -1.1820     0.6700 C.3   1 <1>  -0.1600 
 12 C        2.8200     1.2570     0.6020 C.ar  1 <1>  -0.1500 
 13 C        1.9250     2.9620    -0.8080 C.ar  1 <1>  -0.1500 
 14 C       -0.7440    -3.6080     0.2920 C.2   1 <1>   0.9060 
 15 C       -2.9750    -2.4980     0.4650 C.3   1 <1>   0.2000 
 16 C        3.0220     2.2870    -0.3010 C.ar  1 <1>  -0.1440 
 17 O        0.2010    -3.6080    -0.5020 O.co2 1 <1>  -0.9000 
 18 O       -1.1350    -4.6400     0.8510 O.co2 1 <1>  -0.9000 
 19 O       -3.3950    -3.3930     1.4220 O.3   1 <1>  -0.6800 
 20 C        4.4300     2.6700    -0.7290 C.3   1 <1>  -0.0170 
 21 C        5.0090     3.7320     0.2120 C.3   1 <1>  -0.1600 
 22 C        6.4310     4.1360    -0.1990 C.3   1 <1>  -0.1600 
 23 C        6.9990     5.1990     0.7490 C.3   1 <1>  -0.1600 
 24 C        8.4170     5.6020     0.3380 C.3   1 <1>  -0.2400 
 25 H       -1.1190    -1.5720    -1.3830 H     1 <1>   0.0800 
 26 H        0.0540    -1.0340    -0.2360 H     1 <1>   0.0800 
 27 H       -3.7230     0.7890    -0.1890 H     1 <1>   0.0800 
 28 H       -3.4420    -0.4870    -1.3300 H     1 <1>   0.0800 
 29 H        1.3970     0.1030     1.6920 H     1 <1>   0.1500 
 30 H       -0.2000     3.1370    -0.8200 H     1 <1>   0.1500 
 31 H       -1.2150    -2.0350     1.5930 H     1 <1>   0.0800 
 32 H       -4.7680    -1.3390     0.5210 H     1 <1>   0.0800 
 33 H       -3.5610    -0.8240     1.6720 H     1 <1>   0.0800 
 34 H        3.6590     0.7170     1.0060 H     1 <1>   0.1500 
 35 H        2.0620     3.7660    -1.5100 H     1 <1>   0.1500 
 36 H       -3.2120    -2.9190    -0.4990 H     1 <1>   0.0800 
 37 H       -2.7050    -4.1190     1.4250 H     1 <1>   0.4000 
 38 H        5.0580     1.7960    -0.7220 H     1 <1>   0.0800 
 39 H        4.4090     3.0480    -1.7360 H     1 <1>   0.0800 
 40 H        4.3690     4.5980     0.2000 H     1 <1>   0.0800 
 41 H        5.0200     3.3430     1.2160 H     1 <1>   0.0800 
 42 H        7.0690     3.2690    -0.1860 H     1 <1>   0.0800 
 43 H        6.4170     4.5260    -1.2030 H     1 <1>   0.0800 
 44 H        6.3660     6.0700     0.7380 H     1 <1>   0.0800 
 45 H        7.0180     4.8140     1.7550 H     1 <1>   0.0800 
 46 H        8.4190     6.0110    -0.6570 H     1 <1>   0.0800 
 47 H        9.0730     4.7500     0.3640 H     1 <1>   0.0800 
 48 H        8.7980     6.3470     1.0140 H     1 <1>   0.0800 
@<TRIPOS>BOND
  1   1   2  2   
  2   1   3  2   
  3   1   4  am  
  4   1   5  1   
  5   4   6  1   
  6   4   7  1   
  7   5   8  ar  
  8   5   9  ar  
  9   6  10  1   
 10   6  25  1   
 11   6  26  1   
 12   7  11  1   
 13   7  27  1   
 14   7  28  1   
 15   8  12  ar  
 16   8  29  1   
 17   9  13  ar  
 18   9  30  1   
 19  10  14  1   
 20  10  15  1   
 21  10  31  1   
 22  11  15  1   
 23  11  32  1   
 24  11  33  1   
 25  12  16  ar  
 26  12  34  1   
 27  13  16  ar  
 28  13  35  1   
 29  14  17  ar  
 30  14  18  ar  
 31  15  19  1   
 32  15  36  1   
 33  16  20  1   
 34  19  37  1   
 35  20  21  1   
 36  20  38  1   
 37  20  39  1   
 38  21  22  1   
 39  21  40  1   
 40  21  41  1   
 41  22  23  1   
 42  22  42  1   
 43  22  43  1   
 44  23  24  1   
 45  23  44  1   
 46  23  45  1   
 47  24  46  1   
 48  24  47  1   
 49  24  48  1   
@<TRIPOS>SUBSTRUCTURE
  1 ****   5 GROUP 4 **** **** 0

# MOE 2024.06 (io_trps.svl 2023.06)
