@<TRIPOS>MOLECULE
NONAME
38 40 1 0 0 
SMALL
USER_CHARGES


@<TRIPOS>ATOM
  1 O        3.7790    -1.3920     0.2440 O.2   1 <1>  -0.5700 
  2 C        2.5800    -1.3450     0.0350 C.2   1 <1>   0.7150 
  3 N        2.0210    -0.1380    -0.2460 N.am  1 <1>  -0.7300 
  4 C        1.7650    -2.5210     0.0840 C.2   1 <1>  -0.2370 
  5 C        2.7950     1.1170    -0.4620 C.3   1 <1>   0.2200 
  6 N        2.2990    -3.7590     0.3180 N.pl3 1 <1>   0.0330 
  7 C        0.4100    -2.6830    -0.0700 C.2   1 <1>  -0.1500 
  8 C        3.6250     1.4960     0.7860 C.3   1 <1>   0.4230 
  9 C        1.8700     2.3250    -0.6740 C.3   1 <1>   0.1200 
 10 C        1.2990    -4.6700     0.3080 C.2   1 <1>  -0.3020 
 11 C        0.1200    -4.0370     0.0710 C.2   1 <1>  -0.1500 
 12 N        5.0610     1.8660     0.4840 N.4   1 <1>  -0.9590 
 13 C        2.8350     2.6830     1.3380 C.3   1 <1>   0.1200 
 14 O        2.3030     3.3070     0.2160 O.3   1 <1>  -0.5600 
 15 C        5.2520     2.9860    -0.4750 C.3   1 <1>   0.3430 
 16 C        5.8620     0.7270    -0.0330 C.3   1 <1>   0.3430 
 17 C        6.6960     2.8420    -0.9320 C.3   1 <1>  -0.1600 
 18 C        7.0810     1.3810    -0.6710 C.3   1 <1>  -0.1600 
 19 H        1.0410    -0.1450    -0.5370 H     1 <1>   0.3700 
 20 H        3.4220     0.9840    -1.3250 H     1 <1>   0.0800 
 21 H        3.2980    -3.9440     0.4730 H     1 <1>   0.2700 
 22 H       -0.3320    -1.9280    -0.2640 H     1 <1>   0.1500 
 23 H        3.6140     0.6880     1.4980 H     1 <1>   0.0800 
 24 H        0.8450     2.0940    -0.4380 H     1 <1>   0.0800 
 25 H        1.9390     2.7190    -1.6740 H     1 <1>   0.0800 
 26 H        1.4700    -5.7210     0.4690 H     1 <1>   0.1500 
 27 H       -0.8600    -4.4800     0.0020 H     1 <1>   0.1500 
 28 H        5.5060     2.1530     1.3640 H     1 <1>   0.4500 
 29 H        3.4370     3.3800     1.8930 H     1 <1>   0.0800 
 30 H        2.0130     2.3430     1.9460 H     1 <1>   0.0800 
 31 H        4.5930     2.8670    -1.3200 H     1 <1>   0.0800 
 32 H        5.0650     3.9440    -0.0150 H     1 <1>   0.0800 
 33 H        6.1350     0.0400     0.7520 H     1 <1>   0.0800 
 34 H        5.3060     0.1920    -0.7860 H     1 <1>   0.0800 
 35 H        6.7890     3.1020    -1.9720 H     1 <1>   0.0800 
 36 H        7.3250     3.5030    -0.3590 H     1 <1>   0.0800 
 37 H        7.9190     1.3260     0.0020 H     1 <1>   0.0800 
 38 H        7.3420     0.8690    -1.5810 H     1 <1>   0.0800 
@<TRIPOS>BOND
  1   1   2  2   
  2   2   3  am  
  3   2   4  1   
  4   3   5  1   
  5   3  19  1   
  6   4   6  1   
  7   4   7  2   
  8   5   8  1   
  9   5   9  1   
 10   5  20  1   
 11   6  10  1   
 12   6  21  1   
 13   7  11  1   
 14   7  22  1   
 15   8  12  1   
 16   8  13  1   
 17   8  23  1   
 18   9  14  1   
 19   9  24  1   
 20   9  25  1   
 21  10  11  2   
 22  10  26  1   
 23  11  27  1   
 24  12  15  1   
 25  12  16  1   
 26  12  28  1   
 27  13  14  1   
 28  13  29  1   
 29  13  30  1   
 30  15  17  1   
 31  15  31  1   
 32  15  32  1   
 33  16  18  1   
 34  16  33  1   
 35  16  34  1   
 36  17  18  1   
 37  17  35  1   
 38  17  36  1   
 39  18  37  1   
 40  18  38  1   
@<TRIPOS>SUBSTRUCTURE
  1 ****   3 GROUP 4 **** **** 0

# MOE 2024.06 (io_trps.svl 2023.06)
