@<TRIPOS>MOLECULE
NONAME
42 43 1 0 0 
SMALL
USER_CHARGES


@<TRIPOS>ATOM
  1 O       -0.1450     0.1750     1.2660 O.3   1 <1>  -0.5600 
  2 C       -1.4320     0.1400     0.7220 C.3   1 <1>   0.1200 
  3 C        0.4850     1.3970     0.9770 C.3   1 <1>   0.1200 
  4 C       -1.8090     1.5900     0.4470 C.3   1 <1>   0.2000 
  5 C       -0.4680     2.2070     0.0950 C.3   1 <1>   0.2890 
  6 O       -2.7180     1.7270    -0.6110 O.3   1 <1>  -0.5600 
  7 N       -0.4500     3.6750     0.3600 N.pl3 1 <1>  -0.8690 
  8 C       -4.0330     1.4110    -0.2950 C.3   1 <1>   0.1200 
  9 C        0.6120     4.4830     0.0320 C.ar  1 <1>   0.4100 
 10 C       -4.8720     1.6590    -1.5420 C.3   1 <1>  -0.2400 
 11 N        1.7530     3.8930    -0.2560 N.ar  1 <1>  -0.6200 
 12 C        0.4800     5.8670     0.0000 C.ar  1 <1>  -0.1430 
 13 C        2.7520     4.6870    -0.5730 C.ar  1 <1>   0.4770 
 14 C        1.6030     6.5780    -0.3490 C.ar  1 <1>   0.1600 
 15 C       -0.8620     6.5210     0.3460 C.3   1 <1>  -0.0170 
 16 N        2.7520     6.0030    -0.6400 N.ar  1 <1>  -0.6200 
 17 C        4.0550     3.9980    -0.8990 C.3   1 <1>  -0.0970 
 18 C       -0.8620     8.0570     0.3610 C.3   1 <1>  -0.1600 
 19 C       -2.2400     8.6110     0.7400 C.3   1 <1>  -0.2400 
 20 H       -1.3850    -0.4240    -0.1930 H     1 <1>   0.0800 
 21 H       -2.0930    -0.3290     1.4280 H     1 <1>   0.0800 
 22 H        0.6670     1.9050     1.9070 H     1 <1>   0.0800 
 23 H        1.4140     1.2010     0.4730 H     1 <1>   0.0800 
 24 H       -2.2080     2.0470     1.3360 H     1 <1>   0.0800 
 25 H       -0.2340     2.0150    -0.9390 H     1 <1>   0.0800 
 26 H       -1.3670     4.0870     0.1880 H     1 <1>   0.4000 
 27 H       -4.0880     0.3770    -0.0020 H     1 <1>   0.0800 
 28 H       -4.3610     2.0430     0.5130 H     1 <1>   0.0800 
 29 H       -4.5310     1.0320    -2.3460 H     1 <1>   0.0800 
 30 H       -4.8010     2.6900    -1.8370 H     1 <1>   0.0800 
 31 H       -5.9030     1.4290    -1.3400 H     1 <1>   0.0800 
 32 H        1.5860     7.6520    -0.3970 H     1 <1>   0.1500 
 33 H       -1.5960     6.1850    -0.3660 H     1 <1>   0.0800 
 34 H       -1.1650     6.1710     1.3190 H     1 <1>   0.0800 
 35 H        4.8110     4.7190    -1.1530 H     1 <1>   0.0800 
 36 H        3.9100     3.3350    -1.7300 H     1 <1>   0.0800 
 37 H        4.3820     3.4320    -0.0470 H     1 <1>   0.0800 
 38 H       -0.1360     8.4110     1.0730 H     1 <1>   0.0800 
 39 H       -0.5950     8.4290    -0.6140 H     1 <1>   0.0800 
 40 H       -2.5250     8.2750     1.7220 H     1 <1>   0.0800 
 41 H       -2.9840     8.2890     0.0330 H     1 <1>   0.0800 
 42 H       -2.2150     9.6860     0.7430 H     1 <1>   0.0800 
@<TRIPOS>BOND
  1   1   2  1   
  2   1   3  1   
  3   2   4  1   
  4   2  20  1   
  5   2  21  1   
  6   3   5  1   
  7   3  22  1   
  8   3  23  1   
  9   4   5  1   
 10   4   6  1   
 11   4  24  1   
 12   5   7  1   
 13   5  25  1   
 14   6   8  1   
 15   7   9  1   
 16   7  26  1   
 17   8  10  1   
 18   8  27  1   
 19   8  28  1   
 20   9  11  ar  
 21   9  12  ar  
 22  10  29  1   
 23  10  30  1   
 24  10  31  1   
 25  11  13  ar  
 26  12  14  ar  
 27  12  15  1   
 28  13  16  ar  
 29  13  17  1   
 30  14  16  ar  
 31  14  32  1   
 32  15  18  1   
 33  15  33  1   
 34  15  34  1   
 35  17  35  1   
 36  17  36  1   
 37  17  37  1   
 38  18  19  1   
 39  18  38  1   
 40  18  39  1   
 41  19  40  1   
 42  19  41  1   
 43  19  42  1   
@<TRIPOS>SUBSTRUCTURE
  1 ****   7 GROUP 4 **** **** 0

# MOE 2024.06 (io_trps.svl 2023.06)
