@<TRIPOS>MOLECULE
NONAME
52 54 1 0 0 
SMALL
USER_CHARGES


@<TRIPOS>ATOM
  1 F       -2.4140     0.5520     1.4250 F     1 <1>  -0.1900 
  2 C       -2.1960     1.2870     0.3640 C.ar  1 <1>   0.1900 
  3 C       -2.4760     0.7360    -0.8750 C.ar  1 <1>  -0.1440 
  4 C       -1.7140     2.5800     0.5240 C.ar  1 <1>  -0.1440 
  5 C       -2.2570     1.5420    -1.9750 C.ar  1 <1>   0.1900 
  6 C       -2.9920    -0.6780    -1.0230 C.3   1 <1>   0.4860 
  7 C       -1.5060     3.3520    -0.6120 C.ar  1 <1>  -0.1500 
  8 C       -1.4140     3.1490     1.9050 C.3   1 <1>  -0.0960 
  9 F       -2.5240     1.0670    -3.1620 F     1 <1>  -0.1900 
 10 C       -1.7780     2.8350    -1.8700 C.ar  1 <1>  -0.1500 
 11 N       -4.3360    -0.7730    -0.3890 N.4   1 <1>  -0.9590 
 12 C       -4.7640    -2.2040    -0.2170 C.3   1 <1>   0.3430 
 13 C       -5.3480     0.0240    -1.1490 C.3   1 <1>   0.3430 
 14 C       -5.9580    -2.3990     0.7480 C.3   1 <1>   0.1400 
 15 C       -6.2710     0.7790    -0.1940 C.3   1 <1>  -0.1600 
 16 N       -7.0980    -1.4760     0.4450 N.am  1 <1>  -0.6600 
 17 C       -6.8930    -0.0760     0.9140 C.3   1 <1>   0.1400 
 18 C       -8.2760    -1.8130    -0.1840 C.2   1 <1>   0.5690 
 19 O       -9.0260    -0.9470    -0.5660 O.2   1 <1>  -0.5700 
 20 C       -8.6670    -3.2730    -0.4370 C.3   1 <1>  -0.0190 
 21 C       -9.7520    -3.3860    -1.5260 C.3   1 <1>   0.1400 
 22 C       -9.1600    -3.9590     0.8540 C.3   1 <1>  -0.1600 
 23 N      -10.2230    -4.7870    -1.6540 N.am  1 <1>  -0.7300 
 24 C       -9.4370    -5.4550     0.6090 C.3   1 <1>  -0.0990 
 25 C      -10.1840    -5.7300    -0.6850 C.2   1 <1>   0.5690 
 26 O      -10.7230    -6.7930    -0.8440 O.2   1 <1>  -0.5700 
 27 H       -2.3060    -1.3500    -0.5330 H     1 <1>   0.0800 
 28 H       -3.0490    -0.9500    -2.0650 H     1 <1>   0.0800 
 29 H       -1.1300     4.3590    -0.5250 H     1 <1>   0.1500 
 30 H       -0.6740     2.5450     2.4000 H     1 <1>   0.0800 
 31 H       -2.3080     3.1600     2.5030 H     1 <1>   0.0800 
 32 H       -1.0380     4.1540     1.8360 H     1 <1>   0.0800 
 33 H       -1.6200     3.4270    -2.7550 H     1 <1>   0.1500 
 34 H       -4.2360    -0.3380     0.5390 H     1 <1>   0.4500 
 35 H       -3.9370    -2.7820     0.1610 H     1 <1>   0.0800 
 36 H       -5.0300    -2.6140    -1.1770 H     1 <1>   0.0800 
 37 H       -5.9390    -0.6320    -1.7690 H     1 <1>   0.0800 
 38 H       -4.8620     0.7390    -1.7940 H     1 <1>   0.0800 
 39 H       -5.6270    -2.2300     1.7580 H     1 <1>   0.0800 
 40 H       -6.2760    -3.4240     0.7010 H     1 <1>   0.0800 
 41 H       -7.0740     1.1950    -0.7790 H     1 <1>   0.0800 
 42 H       -5.7490     1.6110     0.2440 H     1 <1>   0.0800 
 43 H       -7.8370     0.3530     1.2120 H     1 <1>   0.0800 
 44 H       -6.2570    -0.0750     1.7830 H     1 <1>   0.0800 
 45 H       -7.8040    -3.7900    -0.8100 H     1 <1>   0.0800 
 46 H       -9.3590    -3.0510    -2.4700 H     1 <1>   0.0800 
 47 H      -10.5960    -2.7660    -1.2730 H     1 <1>   0.0800 
 48 H      -10.0720    -3.4820     1.1740 H     1 <1>   0.0800 
 49 H       -8.4410    -3.8530     1.6470 H     1 <1>   0.0800 
 50 H      -10.7870    -5.0180    -2.4760 H     1 <1>   0.3700 
 51 H      -10.0070    -5.8570     1.4270 H     1 <1>   0.0800 
 52 H       -8.5080    -5.9930     0.5620 H     1 <1>   0.0800 
@<TRIPOS>BOND
  1   1   2  1   
  2   2   3  ar  
  3   2   4  ar  
  4   3   5  ar  
  5   3   6  1   
  6   4   7  ar  
  7   4   8  1   
  8   5   9  1   
  9   5  10  ar  
 10   6  11  1   
 11   6  27  1   
 12   6  28  1   
 13   7  10  ar  
 14   7  29  1   
 15   8  30  1   
 16   8  31  1   
 17   8  32  1   
 18  10  33  1   
 19  11  12  1   
 20  11  13  1   
 21  11  34  1   
 22  12  14  1   
 23  12  35  1   
 24  12  36  1   
 25  13  15  1   
 26  13  37  1   
 27  13  38  1   
 28  14  16  1   
 29  14  39  1   
 30  14  40  1   
 31  15  17  1   
 32  15  41  1   
 33  15  42  1   
 34  16  17  1   
 35  16  18  am  
 36  17  43  1   
 37  17  44  1   
 38  18  19  2   
 39  18  20  1   
 40  20  21  1   
 41  20  22  1   
 42  20  45  1   
 43  21  23  1   
 44  21  46  1   
 45  21  47  1   
 46  22  24  1   
 47  22  48  1   
 48  22  49  1   
 49  23  25  am  
 50  23  50  1   
 51  24  25  1   
 52  24  51  1   
 53  24  52  1   
 54  25  26  2   
@<TRIPOS>SUBSTRUCTURE
  1 ****  13 GROUP 4 **** **** 0

# MOE 2024.06 (io_trps.svl 2023.06)
