@<TRIPOS>MOLECULE
NONAME
18 18 1 0 0 
SMALL
USER_CHARGES


@<TRIPOS>ATOM
  1 O        6.5310     2.1830    -0.0060 O.2   1 <1>  -0.5700 
  2 C        5.4910     1.5450     0.0030 C.2   1 <1>   0.8060 
  3 O        4.3340     2.2250     0.0090 O.3   1 <1>  -0.4300 
  4 C        5.4510     0.0910     0.0070 C.2   1 <1>   0.2030 
  5 C        4.2900     3.6370     0.0050 C.3   1 <1>   0.0400 
  6 N        4.3750    -0.6810     0.0160 N.2   1 <1>  -0.7070 
  7 C        6.6040    -0.7090     0.0010 C.2   1 <1>  -0.1500 
  8 N        4.8330    -1.9390     0.0170 N.pl3 1 <1>   0.3000 
  9 C        6.1800    -1.9860     0.0080 C.2   1 <1>  -0.3320 
 10 C        6.9870    -3.2720     0.0060 C.3   1 <1>  -0.0600 
 11 H        3.2590     3.9440     0.0110 H     1 <1>   0.0800 
 12 H        4.7790     3.9990    -0.8820 H     1 <1>   0.0800 
 13 H        4.7910     4.0040     0.8840 H     1 <1>   0.0800 
 14 H        7.6120    -0.3310    -0.0060 H     1 <1>   0.1500 
 15 H        4.2040    -2.7510     0.0230 H     1 <1>   0.2700 
 16 H        8.0390    -3.0470    -0.0020 H     1 <1>   0.0800 
 17 H        6.7560    -3.8560    -0.8670 H     1 <1>   0.0800 
 18 H        6.7680    -3.8510     0.8850 H     1 <1>   0.0800 
@<TRIPOS>BOND
  1   1   2  2   
  2   2   3  1   
  3   2   4  1   
  4   3   5  1   
  5   4   6  2   
  6   4   7  1   
  7   5  11  1   
  8   5  12  1   
  9   5  13  1   
 10   6   8  1   
 11   7   9  2   
 12   7  14  1   
 13   8   9  1   
 14   8  15  1   
 15   9  10  1   
 16  10  16  1   
 17  10  17  1   
 18  10  18  1   
@<TRIPOS>SUBSTRUCTURE
  1 ****   4 GROUP 4 **** **** 0

# MOE 2024.06 (io_trps.svl 2023.06)
