@<TRIPOS>MOLECULE
NONAME
42 44 1 0 0 
SMALL
USER_CHARGES


@<TRIPOS>ATOM
  1 O       -0.6810    -3.1790    -0.9110 O.co2 1 <1>  -0.9000 
  2 C        0.2730    -3.8780    -1.2730 C.2   1 <1>   1.0330 
  3 O       -0.0200    -4.9430    -1.8550 O.co2 1 <1>  -0.9000 
  4 C        1.5810    -3.6740    -0.7490 C.2   1 <1>  -0.2330 
  5 C        2.3320    -4.7230    -0.2300 C.2   1 <1>   0.3720 
  6 C        2.3430    -2.5770    -0.4920 C.2   1 <1>   0.0870 
  7 N        3.4090    -4.3090     0.3250 N.2   1 <1>  -0.4100 
  8 N        1.9360    -6.0530    -0.2740 N.pl3 1 <1>  -0.8520 
  9 O        3.4090    -3.0130     0.1440 O.3   1 <1>  -0.0190 
 10 C        2.1910    -1.1630    -0.7580 C.ar  1 <1>   0.0530 
 11 C        1.4250    -6.5970     1.0120 C.3   1 <1>   0.2090 
 12 C        3.0430    -0.2260    -0.1670 C.ar  1 <1>  -0.1500 
 13 C        1.2040    -0.6660    -1.6120 C.ar  1 <1>  -0.1500 
 14 C        0.0780    -5.9720     1.4510 C.3   1 <1>   0.3430 
 15 C        2.9180     1.1290    -0.4110 C.ar  1 <1>  -0.1500 
 16 C        1.0720     0.6880    -1.8600 C.ar  1 <1>  -0.1500 
 17 N       -1.0060    -6.0610     0.4210 N.4   1 <1>  -0.9590 
 18 C        1.9290     1.5910    -1.2600 C.ar  1 <1>  -0.1500 
 19 C       -2.1660    -5.1610     0.7190 C.3   1 <1>   0.3430 
 20 C       -1.4390    -7.4290     0.0080 C.3   1 <1>   0.3430 
 21 C       -3.2040    -5.2140    -0.4170 C.3   1 <1>   0.1200 
 22 C       -2.5160    -7.3460    -1.0910 C.3   1 <1>   0.1200 
 23 O       -3.5810    -6.5430    -0.6660 O.3   1 <1>  -0.5600 
 24 H        1.2350    -6.1210    -1.0370 H     1 <1>   0.4000 
 25 H        2.1600    -6.4120     1.7780 H     1 <1>   0.0800 
 26 H        1.3190    -7.6640     0.9230 H     1 <1>   0.0800 
 27 H        3.8180    -0.5630     0.4980 H     1 <1>   0.1500 
 28 H        0.5230    -1.3430    -2.0940 H     1 <1>   0.1500 
 29 H        0.2610    -4.9320     1.6730 H     1 <1>   0.0800 
 30 H       -0.2500    -6.4450     2.3610 H     1 <1>   0.0800 
 31 H        3.5900     1.8260     0.0600 H     1 <1>   0.1500 
 32 H        0.2970     1.0360    -2.5210 H     1 <1>   0.1500 
 33 H       -0.6300    -5.6330    -0.4610 H     1 <1>   0.4500 
 34 H        1.8270     2.6450    -1.4520 H     1 <1>   0.1500 
 35 H       -1.8220    -4.1440     0.8230 H     1 <1>   0.0800 
 36 H       -2.6400    -5.4550     1.6400 H     1 <1>   0.0800 
 37 H       -1.8440    -7.9590     0.8540 H     1 <1>   0.0800 
 38 H       -0.5950    -7.9800    -0.3700 H     1 <1>   0.0800 
 39 H       -2.7960    -4.7860    -1.3190 H     1 <1>   0.0800 
 40 H       -4.0840    -4.6610    -0.1440 H     1 <1>   0.0800 
 41 H       -2.9070    -8.3250    -1.3080 H     1 <1>   0.0800 
 42 H       -2.1050    -6.9280    -1.9950 H     1 <1>   0.0800 
@<TRIPOS>BOND
  1   1   2  ar  
  2   2   3  ar  
  3   2   4  1   
  4   4   5  1   
  5   4   6  2   
  6   5   7  2   
  7   5   8  1   
  8   6   9  1   
  9   6  10  1   
 10   7   9  1   
 11   8  11  1   
 12   8  24  1   
 13  10  12  ar  
 14  10  13  ar  
 15  11  14  1   
 16  11  25  1   
 17  11  26  1   
 18  12  15  ar  
 19  12  27  1   
 20  13  16  ar  
 21  13  28  1   
 22  14  17  1   
 23  14  29  1   
 24  14  30  1   
 25  15  18  ar  
 26  15  31  1   
 27  16  18  ar  
 28  16  32  1   
 29  17  19  1   
 30  17  20  1   
 31  17  33  1   
 32  18  34  1   
 33  19  21  1   
 34  19  35  1   
 35  19  36  1   
 36  20  22  1   
 37  20  37  1   
 38  20  38  1   
 39  21  23  1   
 40  21  39  1   
 41  21  40  1   
 42  22  23  1   
 43  22  41  1   
 44  22  42  1   
@<TRIPOS>SUBSTRUCTURE
  1 ****   2 GROUP 4 **** **** 0

# MOE 2024.06 (io_trps.svl 2023.06)
