@<TRIPOS>MOLECULE
NONAME
46 48 1 0 0 
SMALL
USER_CHARGES


@<TRIPOS>ATOM
  1 O       -0.9230    -2.0340    -1.6710 O.2   1 <1>  -0.5700 
  2 C       -1.8110    -2.0650    -0.8170 C.2   1 <1>   0.5410 
  3 C       -2.1590    -3.2830    -0.1520 C.2   1 <1>  -0.1240 
  4 C       -2.5220    -0.8780    -0.4640 C.2   1 <1>  -0.1240 
  5 C       -3.1420    -3.2870     0.7990 C.2   1 <1>  -0.0380 
  6 C       -1.3890    -4.5380    -0.5700 C.3   1 <1>  -0.1020 
  7 C       -3.4950    -0.9300     0.4820 C.2   1 <1>  -0.0500 
  8 C       -2.1710     0.4300    -1.1620 C.3   1 <1>  -0.1020 
  9 N       -3.8010    -2.1140     1.1050 N.pl3 1 <1>  -0.6000 
 10 C       -3.5810    -4.5300     1.5750 C.3   1 <1>   0.2480 
 11 N       -4.3840    -5.4220     0.7250 N.3   1 <1>  -0.8100 
 12 C       -5.6400    -4.8360     0.2170 C.3   1 <1>   0.1100 
 13 C       -4.7010    -6.7120     1.3380 C.3   1 <1>   0.1100 
 14 C       -6.7220    -5.9120     0.3710 C.3   1 <1>   0.2000 
 15 C       -5.9410    -7.2060     0.5890 C.3   1 <1>  -0.0800 
 16 O       -7.4540    -5.6500     1.5200 O.3   1 <1>  -0.6800 
 17 C       -5.5810    -7.8610    -0.7590 C.3   1 <1>  -0.0170 
 18 C       -4.7210    -9.1020    -0.5760 C.ar  1 <1>  -0.1440 
 19 C       -3.3650    -9.0880    -0.8310 C.ar  1 <1>  -0.1500 
 20 C       -5.2490   -10.3020    -0.1440 C.ar  1 <1>  -0.1500 
 21 C       -2.6210   -10.2410    -0.6450 C.ar  1 <1>   0.1600 
 22 C       -4.4160   -11.3990     0.0100 C.ar  1 <1>   0.1600 
 23 N       -3.1140   -11.3970    -0.2280 N.ar  1 <1>  -0.6200 
 24 H       -1.4730    -4.6710    -1.6340 H     1 <1>   0.0800 
 25 H       -1.7560    -5.4290    -0.0990 H     1 <1>   0.0800 
 26 H       -0.3490    -4.4220    -0.3250 H     1 <1>   0.0800 
 27 H       -4.0540    -0.0560     0.7750 H     1 <1>   0.1500 
 28 H       -1.1370     0.6700    -0.9860 H     1 <1>   0.0800 
 29 H       -2.7800     1.2390    -0.8020 H     1 <1>   0.0800 
 30 H       -2.3220     0.3280    -2.2220 H     1 <1>   0.0800 
 31 H       -4.5480    -2.1260     1.8090 H     1 <1>   0.4000 
 32 H       -4.1460    -4.2450     2.4450 H     1 <1>   0.0800 
 33 H       -2.7060    -5.0580     1.9130 H     1 <1>   0.0800 
 34 H       -5.9140    -3.9370     0.7420 H     1 <1>   0.0800 
 35 H       -5.5030    -4.5990    -0.8230 H     1 <1>   0.0800 
 36 H       -3.8690    -7.3900     1.2620 H     1 <1>   0.0800 
 37 H       -4.9420    -6.5750     2.3790 H     1 <1>   0.0800 
 38 H       -7.4040    -5.9470    -0.4610 H     1 <1>   0.0800 
 39 H       -6.4990    -7.9100     1.1810 H     1 <1>   0.0800 
 40 H       -6.8430    -5.5600     2.2740 H     1 <1>   0.4000 
 41 H       -5.0580    -7.1560    -1.3820 H     1 <1>   0.0800 
 42 H       -6.4850    -8.1370    -1.2740 H     1 <1>   0.0800 
 43 H       -2.8820    -8.1900    -1.1700 H     1 <1>   0.1500 
 44 H       -6.2970   -10.3950     0.0730 H     1 <1>   0.1500 
 45 H       -1.5650   -10.2110    -0.8490 H     1 <1>   0.1500 
 46 H       -4.8440   -12.3270     0.3480 H     1 <1>   0.1500 
@<TRIPOS>BOND
  1   1   2  2   
  2   2   3  1   
  3   2   4  1   
  4   3   5  2   
  5   3   6  1   
  6   4   7  2   
  7   4   8  1   
  8   5   9  1   
  9   5  10  1   
 10   6  24  1   
 11   6  25  1   
 12   6  26  1   
 13   7   9  1   
 14   7  27  1   
 15   8  28  1   
 16   8  29  1   
 17   8  30  1   
 18   9  31  1   
 19  10  11  1   
 20  10  32  1   
 21  10  33  1   
 22  11  12  1   
 23  11  13  1   
 24  12  14  1   
 25  12  34  1   
 26  12  35  1   
 27  13  15  1   
 28  13  36  1   
 29  13  37  1   
 30  14  15  1   
 31  14  16  1   
 32  14  38  1   
 33  15  17  1   
 34  15  39  1   
 35  16  40  1   
 36  17  18  1   
 37  17  41  1   
 38  17  42  1   
 39  18  19  ar  
 40  18  20  ar  
 41  19  21  ar  
 42  19  43  1   
 43  20  22  ar  
 44  20  44  1   
 45  21  23  ar  
 46  21  45  1   
 47  22  23  ar  
 48  22  46  1   
@<TRIPOS>SUBSTRUCTURE
  1 ****  11 GROUP 4 **** **** 0

# MOE 2024.06 (io_trps.svl 2023.06)
