@<TRIPOS>MOLECULE
NONAME
47 49 1 0 0 
SMALL
USER_CHARGES


@<TRIPOS>ATOM
  1 O        0.1920    -0.9080    -0.5500 O.2   1 <1>  -0.5700 
  2 C        1.1460    -1.5900    -0.2410 C.2   1 <1>   0.6900 
  3 N        1.1000    -2.4940     0.8060 N.am  1 <1>  -0.4690 
  4 N        2.2910    -1.4930    -0.9640 N.am  1 <1>  -0.4900 
  5 C        2.1950    -3.3100     1.0770 C.2   1 <1>  -0.0410 
  6 C       -0.1650    -2.6990     1.5840 C.3   1 <1>   0.2010 
  7 C        3.3820    -2.2750    -0.7420 C.2   1 <1>   0.6160 
  8 C        3.3210    -3.2220     0.3320 C.2   1 <1>  -0.1240 
  9 C       -0.6400    -4.1480     1.4980 C.2   1 <1>   0.5690 
 10 O        4.3420    -2.1350    -1.4730 O.2   1 <1>  -0.5700 
 11 C        4.5270    -4.1130     0.5970 C.3   1 <1>  -0.1020 
 12 O       -0.4810    -4.8390     2.4780 O.2   1 <1>  -0.5700 
 13 N       -1.1730    -4.6480     0.3390 N.am  1 <1>  -0.6600 
 14 C       -1.1270    -6.1320     0.1150 C.3   1 <1>   0.3640 
 15 C       -1.7320    -3.7780    -0.7450 C.3   1 <1>   0.1400 
 16 C        0.3070    -6.5360    -0.2540 C.ar  1 <1>  -0.1430 
 17 C       -2.1300    -6.6760    -0.9470 C.3   1 <1>   0.2000 
 18 C       -2.2810    -4.5650    -1.9420 C.3   1 <1>   0.1200 
 19 C        0.8720    -7.6460     0.3580 C.ar  1 <1>  -0.1500 
 20 C        1.0640    -5.8270    -1.1790 C.ar  1 <1>  -0.1500 
 21 O       -2.9650    -5.6890    -1.4940 O.3   1 <1>  -0.5600 
 22 C       -3.0450    -7.7640    -0.3690 C.3   1 <1>   0.1200 
 23 C        2.1620    -8.0440     0.0500 C.ar  1 <1>  -0.1500 
 24 C        2.3530    -6.2220    -1.4890 C.ar  1 <1>  -0.1500 
 25 O       -2.2990    -8.8620     0.0530 O.3   1 <1>  -0.6800 
 26 C        2.9040    -7.3320    -0.8750 C.ar  1 <1>  -0.1500 
 27 H        2.3310    -0.8190    -1.7180 H     1 <1>   0.3700 
 28 H        2.0990    -4.0140     1.8910 H     1 <1>   0.1500 
 29 H        0.0250    -2.4610     2.6150 H     1 <1>   0.0800 
 30 H       -0.9440    -2.0470     1.2370 H     1 <1>   0.0800 
 31 H        4.7640    -4.6800    -0.2860 H     1 <1>   0.0800 
 32 H        4.3300    -4.7990     1.4010 H     1 <1>   0.0800 
 33 H        5.3790    -3.5100     0.8550 H     1 <1>   0.0800 
 34 H       -1.3620    -6.6080     1.0520 H     1 <1>   0.0800 
 35 H       -2.5320    -3.1870    -0.3330 H     1 <1>   0.0800 
 36 H       -0.9760    -3.1040    -1.1010 H     1 <1>   0.0800 
 37 H       -1.5810    -7.1030    -1.7670 H     1 <1>   0.0800 
 38 H       -1.4890    -4.8760    -2.6020 H     1 <1>   0.0800 
 39 H       -2.9700    -3.9550    -2.5000 H     1 <1>   0.0800 
 40 H        0.3070    -8.2090     1.0830 H     1 <1>   0.1500 
 41 H        0.6610    -4.9580    -1.6620 H     1 <1>   0.1500 
 42 H       -3.7460    -8.1020    -1.1130 H     1 <1>   0.0800 
 43 H       -3.5810    -7.3830     0.4830 H     1 <1>   0.0800 
 44 H        2.5860    -8.9060     0.5330 H     1 <1>   0.1500 
 45 H        2.9300    -5.6640    -2.2070 H     1 <1>   0.1500 
 46 H       -1.9190    -9.3410    -0.7100 H     1 <1>   0.4000 
 47 H        3.9060    -7.6410    -1.1150 H     1 <1>   0.1500 
@<TRIPOS>BOND
  1   1   2  2   
  2   2   3  am  
  3   2   4  am  
  4   3   5  1   
  5   3   6  1   
  6   4   7  am  
  7   4  27  1   
  8   5   8  2   
  9   5  28  1   
 10   6   9  1   
 11   6  29  1   
 12   6  30  1   
 13   7   8  1   
 14   7  10  2   
 15   8  11  1   
 16   9  12  2   
 17   9  13  am  
 18  11  31  1   
 19  11  32  1   
 20  11  33  1   
 21  13  14  1   
 22  13  15  1   
 23  14  16  1   
 24  14  17  1   
 25  14  34  1   
 26  15  18  1   
 27  15  35  1   
 28  15  36  1   
 29  16  19  ar  
 30  16  20  ar  
 31  17  21  1   
 32  17  22  1   
 33  17  37  1   
 34  18  21  1   
 35  18  38  1   
 36  18  39  1   
 37  19  23  ar  
 38  19  40  1   
 39  20  24  ar  
 40  20  41  1   
 41  22  25  1   
 42  22  42  1   
 43  22  43  1   
 44  23  26  ar  
 45  23  44  1   
 46  24  26  ar  
 47  24  45  1   
 48  25  46  1   
 49  26  47  1   
@<TRIPOS>SUBSTRUCTURE
  1 ****  20 GROUP 4 **** **** 0

# MOE 2024.06 (io_trps.svl 2023.06)
