@<TRIPOS>MOLECULE
NONAME
23 23 1 0 0 
SMALL
USER_CHARGES


@<TRIPOS>ATOM
  1 O        2.8440     2.4740    -0.8190 O.co2 1 <1>  -0.9000 
  2 C        1.6770     2.8310    -0.6190 C.2   1 <1>   0.9060 
  3 O        0.7140     2.3000    -1.1950 O.co2 1 <1>  -0.9000 
  4 C        1.3840     3.9860     0.3480 C.3   1 <1>   0.0940 
  5 O       -0.0030     4.0510     0.5990 O.3   1 <1>  -0.6800 
  6 C        1.8900     5.3000    -0.2710 C.3   1 <1>   0.2000 
  7 O        1.6550     6.3930     0.5520 O.3   1 <1>  -0.5600 
  8 C        3.3940     5.3580    -0.4750 C.3   1 <1>   0.1200 
  9 C        2.6350     7.3370     0.3240 C.3   1 <1>   0.5600 
 10 O        3.7570     6.6460    -0.1030 O.3   1 <1>  -0.5600 
 11 C        2.9580     8.0240     1.6390 C.3   1 <1>  -0.2400 
 12 C        2.1850     8.3030    -0.7650 C.3   1 <1>  -0.2400 
 13 H        1.8850     3.7940     1.2770 H     1 <1>   0.0800 
 14 H       -0.3890     3.3910    -0.0320 H     1 <1>   0.4000 
 15 H        1.3920     5.4670    -1.2090 H     1 <1>   0.0800 
 16 H        3.6670     5.1770    -1.5000 H     1 <1>   0.0800 
 17 H        3.9070     4.6610     0.1640 H     1 <1>   0.0800 
 18 H        3.7470     8.7370     1.4940 H     1 <1>   0.0800 
 19 H        3.2660     7.2910     2.3610 H     1 <1>   0.0800 
 20 H        2.0870     8.5360     2.0030 H     1 <1>   0.0800 
 21 H        2.9490     9.0380    -0.9330 H     1 <1>   0.0800 
 22 H        1.2880     8.8040    -0.4530 H     1 <1>   0.0800 
 23 H        1.9960     7.7770    -1.6820 H     1 <1>   0.0800 
@<TRIPOS>BOND
  1   1   2  ar  
  2   2   3  ar  
  3   2   4  1   
  4   4   5  1   
  5   4   6  1   
  6   4  13  1   
  7   5  14  1   
  8   6   7  1   
  9   6   8  1   
 10   6  15  1   
 11   7   9  1   
 12   8  10  1   
 13   8  16  1   
 14   8  17  1   
 15   9  10  1   
 16   9  11  1   
 17   9  12  1   
 18  11  18  1   
 19  11  19  1   
 20  11  20  1   
 21  12  21  1   
 22  12  22  1   
 23  12  23  1   
@<TRIPOS>SUBSTRUCTURE
  1 ****   6 GROUP 4 **** **** 0

# MOE 2024.06 (io_trps.svl 2023.06)
