@<TRIPOS>MOLECULE
NONAME
49 51 1 0 0 
SMALL
USER_CHARGES


@<TRIPOS>ATOM
  1 CL      -1.3850    -1.1500     0.9410 Cl    1 <1>  -0.1770 
  2 C       -2.1750     0.3440     0.4730 C.ar  1 <1>   0.1770 
  3 C       -1.8060     1.5310     1.0940 C.ar  1 <1>   0.0830 
  4 C       -3.1680     0.3180    -0.4950 C.ar  1 <1>  -0.1440 
  5 O       -0.8430     1.5630     2.0340 O.3   1 <1>  -0.5320 
  6 C       -2.4400     2.7090     0.7430 C.ar  1 <1>  -0.1500 
  7 C       -3.7940     1.5090    -0.8430 C.ar  1 <1>  -0.1500 
  8 C       -3.5610    -0.9850    -1.1640 C.3   1 <1>   0.4860 
  9 C       -3.4310     2.6950    -0.2240 C.ar  1 <1>  -0.1500 
 10 N       -4.2230    -1.8720    -0.1610 N.4   1 <1>  -0.9590 
 11 C       -4.4020    -3.2700    -0.6990 C.3   1 <1>   0.3430 
 12 C       -5.5130    -1.2730     0.2990 C.3   1 <1>   0.3430 
 13 C       -5.1280    -4.2360     0.2930 C.3   1 <1>   0.4230 
 14 C       -6.1540    -2.1790     1.3550 C.3   1 <1>  -0.1600 
 15 N       -5.2890    -5.6790    -0.1880 N.4   1 <1>  -0.9590 
 16 C       -6.4420    -3.6240     0.8620 C.3   1 <1>   0.0000 
 17 C       -6.2770    -6.4790     0.6160 C.3   1 <1>   0.3430 
 18 C       -5.6180    -5.8320    -1.6470 C.3   1 <1>   0.2630 
 19 C       -6.8880    -4.4740     2.0870 C.3   1 <1>  -0.1600 
 20 C       -7.6160    -3.5940    -0.1600 C.3   1 <1>   0.1200 
 21 C       -6.4010    -5.9380     2.0400 C.3   1 <1>  -0.1600 
 22 O       -7.2200    -3.0650    -1.3810 O.3   1 <1>  -0.6800 
 23 H       -0.4070     0.7020     2.1840 H     1 <1>   0.4500 
 24 H       -2.1540     3.6290     1.2250 H     1 <1>   0.1500 
 25 H       -4.5630     1.5360    -1.5970 H     1 <1>   0.1500 
 26 H       -2.6720    -1.4580    -1.5500 H     1 <1>   0.0800 
 27 H       -4.2270    -0.7890    -1.9890 H     1 <1>   0.0800 
 28 H       -3.9180     3.6180    -0.4960 H     1 <1>   0.1500 
 29 H       -3.5800    -1.8820     0.6460 H     1 <1>   0.4500 
 30 H       -4.9730    -3.2170    -1.6100 H     1 <1>   0.0800 
 31 H       -3.4350    -3.6810    -0.9350 H     1 <1>   0.0800 
 32 H       -5.3360    -0.2970     0.7270 H     1 <1>   0.0800 
 33 H       -6.1850    -1.1510    -0.5360 H     1 <1>   0.0800 
 34 H       -4.4690    -4.2910     1.1430 H     1 <1>   0.0800 
 35 H       -5.5020    -2.1950     2.2120 H     1 <1>   0.0800 
 36 H       -7.0730    -1.7200     1.6800 H     1 <1>   0.0800 
 37 H       -4.3810    -6.1460    -0.0360 H     1 <1>   0.4500 
 38 H       -7.2480    -6.4370     0.1490 H     1 <1>   0.0800 
 39 H       -5.9740    -7.5150     0.6450 H     1 <1>   0.0800 
 40 H       -6.5590    -5.3590    -1.8750 H     1 <1>   0.0800 
 41 H       -5.6950    -6.8770    -1.9040 H     1 <1>   0.0800 
 42 H       -4.8520    -5.3910    -2.2630 H     1 <1>   0.0800 
 43 H       -6.5230    -4.0490     3.0070 H     1 <1>   0.0800 
 44 H       -7.9640    -4.4620     2.1660 H     1 <1>   0.0800 
 45 H       -8.4260    -2.9900     0.2170 H     1 <1>   0.0800 
 46 H       -8.0040    -4.5800    -0.3450 H     1 <1>   0.0800 
 47 H       -7.0920    -6.5540     2.5910 H     1 <1>   0.0800 
 48 H       -5.4480    -6.0280     2.5330 H     1 <1>   0.0800 
 49 H       -8.0090    -2.9060    -1.9520 H     1 <1>   0.4000 
@<TRIPOS>BOND
  1   1   2  1   
  2   2   3  ar  
  3   2   4  ar  
  4   3   5  1   
  5   3   6  ar  
  6   4   7  ar  
  7   4   8  1   
  8   5  23  1   
  9   6   9  ar  
 10   6  24  1   
 11   7   9  ar  
 12   7  25  1   
 13   8  10  1   
 14   8  26  1   
 15   8  27  1   
 16   9  28  1   
 17  10  11  1   
 18  10  12  1   
 19  10  29  1   
 20  11  13  1   
 21  11  30  1   
 22  11  31  1   
 23  12  14  1   
 24  12  32  1   
 25  12  33  1   
 26  13  15  1   
 27  13  16  1   
 28  13  34  1   
 29  14  16  1   
 30  14  35  1   
 31  14  36  1   
 32  15  17  1   
 33  15  18  1   
 34  15  37  1   
 35  16  19  1   
 36  16  20  1   
 37  17  21  1   
 38  17  38  1   
 39  17  39  1   
 40  18  40  1   
 41  18  41  1   
 42  18  42  1   
 43  19  21  1   
 44  19  43  1   
 45  19  44  1   
 46  20  22  1   
 47  20  45  1   
 48  20  46  1   
 49  21  47  1   
 50  21  48  1   
 51  22  49  1   
@<TRIPOS>SUBSTRUCTURE
  1 ****  10 GROUP 4 **** **** 0

# MOE 2024.06 (io_trps.svl 2023.06)
