@<TRIPOS>MOLECULE
NONAME
53 55 1 0 0 
SMALL
USER_CHARGES


@<TRIPOS>ATOM
  1 S       -4.8660    -1.6300     1.4210 S.3   1 <1>  -0.2860 
  2 C       -4.2310    -2.7630     0.1790 C.2   1 <1>   0.2420 
  3 C       -6.1950    -0.7220     0.5180 C.3   1 <1>  -0.0100 
  4 N       -4.6970    -2.8110    -1.0240 N.2   1 <1>  -0.5650 
  5 N       -3.2260    -3.6230     0.4560 N.pl3 1 <1>   0.0480 
  6 C       -3.9470    -3.7790    -1.5860 C.2   1 <1>   0.0770 
  7 C       -3.0480    -4.2880    -0.7100 C.2   1 <1>  -0.3320 
  8 C       -2.5170    -3.7860     1.7430 C.3   1 <1>   0.0160 
  9 C       -2.0450    -5.3980    -0.9380 C.3   1 <1>   0.3200 
 10 N       -2.5180    -6.5390    -0.1570 N.am  1 <1>  -0.7300 
 11 C       -2.8140    -7.7560    -0.6580 C.2   1 <1>   0.5690 
 12 O       -2.3300    -8.1150    -1.7070 O.2   1 <1>  -0.5700 
 13 C       -3.7840    -8.6620     0.1320 C.3   1 <1>  -0.0190 
 14 C       -5.1740    -7.9990     0.3820 C.3   1 <1>  -0.0190 
 15 C       -4.0170   -10.0410    -0.5450 C.3   1 <1>  -0.1600 
 16 C       -5.1750    -6.8520     1.4180 C.2   1 <1>   0.5690 
 17 C       -5.8190    -7.6460    -0.9870 C.3   1 <1>  -0.1600 
 18 C       -5.1940   -10.0600    -1.5440 C.3   1 <1>  -0.1600 
 19 O       -4.1560    -6.6310     2.0360 O.2   1 <1>  -0.5700 
 20 N       -6.2970    -6.1150     1.6990 N.am  1 <1>  -0.6600 
 21 C       -5.5170    -8.6670    -2.1030 C.3   1 <1>  -0.1600 
 22 C       -6.2610    -4.9920     2.6650 C.3   1 <1>   0.1400 
 23 C       -7.6860    -6.3530     1.2490 C.3   1 <1>   0.1400 
 24 C       -7.6710    -4.4160     2.6690 C.3   1 <1>  -0.1600 
 25 C       -8.5550    -5.5760     2.2290 C.3   1 <1>  -0.1600 
 26 H       -6.6370    -0.0170     1.1970 H     1 <1>   0.0800 
 27 H       -6.9150    -1.4470     0.1820 H     1 <1>   0.0800 
 28 H       -5.7380    -0.2250    -0.3190 H     1 <1>   0.0800 
 29 H       -4.0990    -4.0720    -2.6130 H     1 <1>   0.1500 
 30 H       -1.6590    -4.4180     1.6160 H     1 <1>   0.0800 
 31 H       -3.1820    -4.2290     2.4600 H     1 <1>   0.0800 
 32 H       -2.2000    -2.8220     2.0970 H     1 <1>   0.0800 
 33 H       -1.0630    -5.1060    -0.6080 H     1 <1>   0.0800 
 34 H       -2.0000    -5.6550    -1.9830 H     1 <1>   0.0800 
 35 H       -2.9660    -6.2810     0.7320 H     1 <1>   0.3700 
 36 H       -3.3130    -8.8550     1.0790 H     1 <1>   0.0800 
 37 H       -5.7890    -8.7570     0.8330 H     1 <1>   0.0800 
 38 H       -3.1170   -10.3600    -1.0430 H     1 <1>   0.0800 
 39 H       -4.2160   -10.7730     0.2170 H     1 <1>   0.0800 
 40 H       -6.8840    -7.6090    -0.8790 H     1 <1>   0.0800 
 41 H       -5.4880    -6.6710    -1.3040 H     1 <1>   0.0800 
 42 H       -4.9660   -10.7320    -2.3540 H     1 <1>   0.0800 
 43 H       -6.0710   -10.4400    -1.0480 H     1 <1>   0.0800 
 44 H       -6.3570    -8.7290    -2.7730 H     1 <1>   0.0800 
 45 H       -4.6800    -8.3250    -2.6870 H     1 <1>   0.0800 
 46 H       -6.0050    -5.3750     3.6390 H     1 <1>   0.0800 
 47 H       -5.5370    -4.2570     2.3660 H     1 <1>   0.0800 
 48 H       -7.8090    -5.9430     0.2610 H     1 <1>   0.0800 
 49 H       -7.9280    -7.4020     1.2530 H     1 <1>   0.0800 
 50 H       -7.9430    -4.0310     3.6360 H     1 <1>   0.0800 
 51 H       -7.7210    -3.6190     1.9470 H     1 <1>   0.0800 
 52 H       -9.4730    -5.2450     1.7760 H     1 <1>   0.0800 
 53 H       -8.7830    -6.2050     3.0720 H     1 <1>   0.0800 
@<TRIPOS>BOND
  1   1   2  1   
  2   1   3  1   
  3   2   4  2   
  4   2   5  1   
  5   3  26  1   
  6   3  27  1   
  7   3  28  1   
  8   4   6  1   
  9   5   7  1   
 10   5   8  1   
 11   6   7  2   
 12   6  29  1   
 13   7   9  1   
 14   8  30  1   
 15   8  31  1   
 16   8  32  1   
 17   9  10  1   
 18   9  33  1   
 19   9  34  1   
 20  10  11  am  
 21  10  35  1   
 22  11  12  2   
 23  11  13  1   
 24  13  14  1   
 25  13  15  1   
 26  13  36  1   
 27  14  16  1   
 28  14  17  1   
 29  14  37  1   
 30  15  18  1   
 31  15  38  1   
 32  15  39  1   
 33  16  19  2   
 34  16  20  am  
 35  17  21  1   
 36  17  40  1   
 37  17  41  1   
 38  18  21  1   
 39  18  42  1   
 40  18  43  1   
 41  20  22  1   
 42  20  23  1   
 43  21  44  1   
 44  21  45  1   
 45  22  24  1   
 46  22  46  1   
 47  22  47  1   
 48  23  25  1   
 49  23  48  1   
 50  23  49  1   
 51  24  25  1   
 52  24  50  1   
 53  24  51  1   
 54  25  52  1   
 55  25  53  1   
@<TRIPOS>SUBSTRUCTURE
  1 ****  16 GROUP 4 **** **** 0

# MOE 2024.06 (io_trps.svl 2023.06)
