@<TRIPOS>MOLECULE
NONAME
30 31 1 0 0 
SMALL
USER_CHARGES


@<TRIPOS>ATOM
  1 F        0.3860     1.0740    -0.6440 F     1 <1>  -0.1900 
  2 C       -0.8130     1.3880    -0.2080 C.ar  1 <1>   0.1900 
  3 C       -1.3240     2.6540    -0.4720 C.ar  1 <1>   0.1000 
  4 C       -1.5320     0.4520     0.5070 C.ar  1 <1>   0.1600 
  5 N       -0.6340     3.6290    -1.1870 N.pl3 1 <1>  -0.8690 
  6 C       -2.5980     2.8680     0.0290 C.ar  1 <1>  -0.1500 
  7 N       -2.7510     0.6670     0.9940 N.ar  1 <1>  -0.6200 
  8 C       -0.4950     5.0120    -0.6380 C.3   1 <1>   0.3900 
  9 C       -3.2490     1.8700     0.7360 C.ar  1 <1>   0.1600 
 10 C        0.9470     5.5240    -0.6830 C.2   1 <1>   0.3350 
 11 N        1.9510     4.8870    -1.1470 N.2   1 <1>  -0.4100 
 12 N        1.2600     6.7270    -0.2170 N.2   1 <1>  -0.5650 
 13 O        2.9890     5.6520    -1.0060 O.3   1 <1>  -0.0190 
 14 C        2.5150     6.7380    -0.4440 C.2   1 <1>   0.2980 
 15 C        3.4980     7.8680    -0.1320 C.3   1 <1>   0.1000 
 16 C        4.4090     7.4830     1.0420 C.3   1 <1>  -0.2400 
 17 C        2.7910     9.1980     0.1730 C.3   1 <1>  -0.2400 
 18 H       -1.0890    -0.5110     0.6860 H     1 <1>   0.1500 
 19 H        0.2910     3.3180    -1.5280 H     1 <1>   0.4000 
 20 H       -3.0860     3.8090    -0.1410 H     1 <1>   0.1500 
 21 H       -0.8310     5.0340     0.3840 H     1 <1>   0.0800 
 22 H       -1.1130     5.6790    -1.2120 H     1 <1>   0.0800 
 23 H       -4.2390     2.0700     1.1110 H     1 <1>   0.1500 
 24 H        4.1110     8.0110    -1.0050 H     1 <1>   0.0800 
 25 H        3.8230     7.3190     1.9300 H     1 <1>   0.0800 
 26 H        5.1230     8.2630     1.2370 H     1 <1>   0.0800 
 27 H        4.9460     6.5780     0.8160 H     1 <1>   0.0800 
 28 H        2.1750     9.1040     1.0500 H     1 <1>   0.0800 
 29 H        2.1630     9.4790    -0.6550 H     1 <1>   0.0800 
 30 H        3.5110     9.9790     0.3360 H     1 <1>   0.0800 
@<TRIPOS>BOND
  1   1   2  1   
  2   2   3  ar  
  3   2   4  ar  
  4   3   5  1   
  5   3   6  ar  
  6   4   7  ar  
  7   4  18  1   
  8   5   8  1   
  9   5  19  1   
 10   6   9  ar  
 11   6  20  1   
 12   7   9  ar  
 13   8  10  1   
 14   8  21  1   
 15   8  22  1   
 16   9  23  1   
 17  10  11  2   
 18  10  12  1   
 19  11  13  1   
 20  12  14  2   
 21  13  14  1   
 22  14  15  1   
 23  15  16  1   
 24  15  17  1   
 25  15  24  1   
 26  16  25  1   
 27  16  26  1   
 28  16  27  1   
 29  17  28  1   
 30  17  29  1   
 31  17  30  1   
@<TRIPOS>SUBSTRUCTURE
  1 ****   8 GROUP 4 **** **** 0

# MOE 2024.06 (io_trps.svl 2023.06)
