@<TRIPOS>MOLECULE
NONAME
52 55 1 0 0 
SMALL
USER_CHARGES


@<TRIPOS>ATOM
  1 O       -0.8790    -0.0070    -1.8390 O.2   1 <1>  -0.5700 
  2 C       -1.6830     0.8840    -1.6310 C.2   1 <1>   0.5440 
  3 N       -3.0220     0.5480    -1.6000 N.am  1 <1>  -0.6600 
  4 C       -1.2270     2.2410    -1.4380 C.ar  1 <1>   0.0860 
  5 C       -3.4490    -0.8270    -1.9560 C.3   1 <1>   0.1400 
  6 C       -4.0050     1.2790    -0.7560 C.3   1 <1>   0.1400 
  7 C       -0.8860     2.7310    -0.1750 C.ar  1 <1>   0.0820 
  8 C       -1.1180     3.1060    -2.5290 C.ar  1 <1>  -0.1500 
  9 C       -3.5750    -1.6430    -0.6530 C.3   1 <1>   0.4230 
 10 C       -4.1940     0.4910     0.5490 C.3   1 <1>  -0.1600 
 11 O       -1.0170     1.9250     0.9110 O.3   1 <1>  -0.3630 
 12 C       -0.4250     4.0430    -0.0290 C.ar  1 <1>   0.0820 
 13 C       -0.6820     4.4090    -2.3790 C.ar  1 <1>  -0.1500 
 14 N       -3.7720    -3.1360    -0.8740 N.4   1 <1>  -0.9590 
 15 C       -4.5940    -1.0010     0.3390 C.3   1 <1>   0.0000 
 16 C       -0.8890     2.5050     2.1970 C.3   1 <1>   0.1200 
 17 O       -0.0510     4.5260     1.1820 O.3   1 <1>  -0.3630 
 18 C       -0.3340     4.8800    -1.1250 C.ar  1 <1>  -0.1500 
 19 C       -4.3030    -3.8670     0.3220 C.3   1 <1>   0.3430 
 20 C       -4.5540    -3.5110    -2.0980 C.3   1 <1>   0.2630 
 21 C       -4.5080    -1.7410     1.7080 C.3   1 <1>  -0.1600 
 22 C       -6.0350    -1.0930    -0.2390 C.3   1 <1>   0.1200 
 23 C        0.2100     3.5740     2.1930 C.3   1 <1>   0.1200 
 24 C       -3.9080    -3.1570     1.6160 C.3   1 <1>  -0.1600 
 25 O       -6.9450    -0.3850     0.5290 O.3   1 <1>  -0.6800 
 26 H       -4.3810    -0.7740    -2.4880 H     1 <1>   0.0800 
 27 H       -2.7190    -1.2800    -2.6040 H     1 <1>   0.0800 
 28 H       -3.6540     2.2730    -0.5340 H     1 <1>   0.0800 
 29 H       -4.9390     1.3720    -1.2830 H     1 <1>   0.0800 
 30 H       -1.3770     2.7400    -3.5080 H     1 <1>   0.1500 
 31 H       -2.6140    -1.5370    -0.1750 H     1 <1>   0.0800 
 32 H       -3.2620     0.5400     1.0840 H     1 <1>   0.0800 
 33 H       -4.9210     1.0000     1.1580 H     1 <1>   0.0800 
 34 H       -0.6080     5.0590    -3.2350 H     1 <1>   0.1500 
 35 H       -2.8130    -3.4880    -1.0190 H     1 <1>   0.4500 
 36 H       -1.8340     2.9460     2.4620 H     1 <1>   0.0800 
 37 H       -0.6550     1.7210     2.8930 H     1 <1>   0.0800 
 38 H        0.0140     5.8890    -0.9940 H     1 <1>   0.1500 
 39 H       -5.3790    -3.9140     0.2730 H     1 <1>   0.0800 
 40 H       -3.9270    -4.8780     0.3300 H     1 <1>   0.0800 
 41 H       -5.5590    -3.1280    -2.0370 H     1 <1>   0.0800 
 42 H       -4.6020    -4.5840    -2.1950 H     1 <1>   0.0800 
 43 H       -4.0850    -3.1140    -2.9830 H     1 <1>   0.0800 
 44 H       -3.9010    -1.1830     2.4020 H     1 <1>   0.0800 
 45 H       -5.4840    -1.8050     2.1570 H     1 <1>   0.0800 
 46 H       -6.3790    -2.1110    -0.2830 H     1 <1>   0.0800 
 47 H       -6.0890    -0.6740    -1.2280 H     1 <1>   0.0800 
 48 H        1.1680     3.1270     1.9950 H     1 <1>   0.0800 
 49 H        0.2470     4.0910     3.1350 H     1 <1>   0.0800 
 50 H       -4.2470    -3.7390     2.4560 H     1 <1>   0.0800 
 51 H       -2.8340    -3.1110     1.6780 H     1 <1>   0.0800 
 52 H       -7.0070    -0.7300     1.4420 H     1 <1>   0.4000 
@<TRIPOS>BOND
  1   1   2  2   
  2   2   3  am  
  3   2   4  1   
  4   3   5  1   
  5   3   6  1   
  6   4   7  ar  
  7   4   8  ar  
  8   5   9  1   
  9   5  26  1   
 10   5  27  1   
 11   6  10  1   
 12   6  28  1   
 13   6  29  1   
 14   7  11  1   
 15   7  12  ar  
 16   8  13  ar  
 17   8  30  1   
 18   9  14  1   
 19   9  15  1   
 20   9  31  1   
 21  10  15  1   
 22  10  32  1   
 23  10  33  1   
 24  11  16  1   
 25  12  17  1   
 26  12  18  ar  
 27  13  18  ar  
 28  13  34  1   
 29  14  19  1   
 30  14  20  1   
 31  14  35  1   
 32  15  21  1   
 33  15  22  1   
 34  16  23  1   
 35  16  36  1   
 36  16  37  1   
 37  17  23  1   
 38  18  38  1   
 39  19  24  1   
 40  19  39  1   
 41  19  40  1   
 42  20  41  1   
 43  20  42  1   
 44  20  43  1   
 45  21  24  1   
 46  21  44  1   
 47  21  45  1   
 48  22  25  1   
 49  22  46  1   
 50  22  47  1   
 51  23  48  1   
 52  23  49  1   
 53  24  50  1   
 54  24  51  1   
 55  25  52  1   
@<TRIPOS>SUBSTRUCTURE
  1 ****   3 GROUP 4 **** **** 0

# MOE 2024.06 (io_trps.svl 2023.06)
