@<TRIPOS>MOLECULE
NONAME
43 45 1 0 0 
SMALL
USER_CHARGES


@<TRIPOS>ATOM
  1 O        1.5270    -0.3600     2.1060 O.2   1 <1>  -0.5700 
  2 C        1.2340    -1.0810     1.1830 C.2   1 <1>   0.5690 
  3 N        2.1230    -1.6910     0.3720 N.am  1 <1>  -0.6600 
  4 C       -0.1780    -1.3300     0.7350 C.3   1 <1>  -0.0990 
  5 C        3.5960    -1.4360     0.4520 C.3   1 <1>   0.2810 
  6 C        1.4780    -2.2900    -0.8120 C.3   1 <1>   0.1400 
  7 C       -0.0200    -2.2660    -0.4760 C.3   1 <1>  -0.1600 
  8 C        3.9640    -0.0520    -0.1210 C.2   1 <1>   0.5690 
  9 C        4.3770    -2.6080    -0.1640 C.3   1 <1>  -0.2400 
 10 O        4.6130     0.0320    -1.1400 O.2   1 <1>  -0.5700 
 11 N        3.5140     1.0440     0.5650 N.am  1 <1>  -0.4940 
 12 C        3.6120     2.4280     0.2830 C.2   1 <1>  -0.0880 
 13 N        4.6870     3.1370    -0.1820 N.pl3 1 <1>   0.3140 
 14 C        2.6090     3.3180     0.4560 C.2   1 <1>  -0.1500 
 15 N        4.3620     4.4540    -0.3180 N.2   1 <1>  -0.7070 
 16 C        6.0730     2.6320    -0.4540 C.3   1 <1>   0.1760 
 17 C        3.1290     4.5420     0.0660 C.2   1 <1>   0.1390 
 18 C        6.7050     1.9190     0.7550 C.3   1 <1>  -0.1600 
 19 C        7.0890     3.7210    -0.8240 C.3   1 <1>  -0.1600 
 20 C        8.1960     2.2840     0.7620 C.3   1 <1>  -0.1600 
 21 C        8.4420     3.0930    -0.5100 C.3   1 <1>  -0.1600 
 22 H       -0.6270    -0.3960     0.4500 H     1 <1>   0.0800 
 23 H       -0.7470    -1.7880     1.5230 H     1 <1>   0.0800 
 24 H        3.8550    -1.4070     1.4960 H     1 <1>   0.0800 
 25 H        1.8220    -3.2980    -0.9710 H     1 <1>   0.0800 
 26 H        1.6900    -1.6880    -1.6810 H     1 <1>   0.0800 
 27 H       -0.6000    -1.9330    -1.3190 H     1 <1>   0.0800 
 28 H       -0.3360    -3.2600    -0.2120 H     1 <1>   0.0800 
 29 H        4.2160    -2.6590    -1.2260 H     1 <1>   0.0800 
 30 H        4.0850    -3.5350     0.2960 H     1 <1>   0.0800 
 31 H        5.4290    -2.4620     0.0030 H     1 <1>   0.0800 
 32 H        2.8340     0.8020     1.3040 H     1 <1>   0.3700 
 33 H        1.6120     3.1390     0.8150 H     1 <1>   0.1500 
 34 H        6.0230     1.9490    -1.2810 H     1 <1>   0.0800 
 35 H        2.5790     5.4680     0.0760 H     1 <1>   0.1500 
 36 H        6.5820     0.8560     0.6600 H     1 <1>   0.0800 
 37 H        6.2490     2.2520     1.6720 H     1 <1>   0.0800 
 38 H        6.9560     4.5850    -0.1960 H     1 <1>   0.0800 
 39 H        7.0050     4.0080    -1.8570 H     1 <1>   0.0800 
 40 H        8.8220     1.4090     0.7950 H     1 <1>   0.0800 
 41 H        8.4080     2.8970     1.6220 H     1 <1>   0.0800 
 42 H        9.2110     3.8350    -0.3770 H     1 <1>   0.0800 
 43 H        8.7230     2.4300    -1.3110 H     1 <1>   0.0800 
@<TRIPOS>BOND
  1   1   2  2   
  2   2   3  am  
  3   2   4  1   
  4   3   5  1   
  5   3   6  1   
  6   4   7  1   
  7   4  22  1   
  8   4  23  1   
  9   5   8  1   
 10   5   9  1   
 11   5  24  1   
 12   6   7  1   
 13   6  25  1   
 14   6  26  1   
 15   7  27  1   
 16   7  28  1   
 17   8  10  2   
 18   8  11  am  
 19   9  29  1   
 20   9  30  1   
 21   9  31  1   
 22  11  12  1   
 23  11  32  1   
 24  12  13  1   
 25  12  14  2   
 26  13  15  1   
 27  13  16  1   
 28  14  17  1   
 29  14  33  1   
 30  15  17  2   
 31  16  18  1   
 32  16  19  1   
 33  16  34  1   
 34  17  35  1   
 35  18  20  1   
 36  18  36  1   
 37  18  37  1   
 38  19  21  1   
 39  19  38  1   
 40  19  39  1   
 41  20  21  1   
 42  20  40  1   
 43  20  41  1   
 44  21  42  1   
 45  21  43  1   
@<TRIPOS>SUBSTRUCTURE
  1 ****  11 GROUP 4 **** **** 0

# MOE 2024.06 (io_trps.svl 2023.06)
