@<TRIPOS>MOLECULE
NONAME
58 61 1 0 0 
SMALL
USER_CHARGES


@<TRIPOS>ATOM
  1 O       -0.4240    -2.2620    -1.4020 O.3   1 <1>  -0.6800 
  2 C        0.1910    -1.2470    -0.6840 C.3   1 <1>   0.1200 
  3 C        1.1830    -1.7920     0.3880 C.3   1 <1>   0.0000 
  4 C        2.4320    -2.5230    -0.1950 C.3   1 <1>   0.4230 
  5 C        1.7170    -0.5640     1.1700 C.3   1 <1>  -0.1600 
  6 C        0.4390    -2.7140     1.4010 C.3   1 <1>  -0.1600 
  7 N        2.1780    -3.9040    -0.7910 N.4   1 <1>  -0.9590 
  8 C        3.2890    -1.5800    -1.0760 C.3   1 <1>   0.2090 
  9 C        2.5860     0.3870     0.3340 C.3   1 <1>   0.2090 
 10 C        0.8290    -4.1980     1.2880 C.3   1 <1>  -0.1600 
 11 C        1.0110    -4.6120    -0.1700 C.3   1 <1>   0.3430 
 12 C        2.0100    -3.9280    -2.2810 C.3   1 <1>   0.2630 
 13 N        3.7140    -0.3640    -0.3060 N.pl3 1 <1>  -0.8380 
 14 C        4.9550     0.1940    -0.3900 C.ar  1 <1>   0.4100 
 15 N        5.0290     1.5110    -0.3850 N.ar  1 <1>  -0.6200 
 16 C        6.1190    -0.5960    -0.4740 C.ar  1 <1>  -0.1500 
 17 C        6.2220     2.0830    -0.4760 C.ar  1 <1>   0.7710 
 18 C        7.3300     0.0060    -0.5680 C.ar  1 <1>   0.2170 
 19 N        7.3490     1.3590    -0.5710 N.ar  1 <1>  -0.1790 
 20 N        6.3100     3.4350    -0.4750 N.pl3 1 <1>  -0.8380 
 21 C        8.6470    -0.7460    -0.6610 C.3   1 <1>  -0.0960 
 22 C        7.5300     4.2890    -0.5000 C.3   1 <1>   0.2090 
 23 C        5.0930     4.2930    -0.4160 C.3   1 <1>   0.2090 
 24 C        7.0390     5.6900    -0.1610 C.3   1 <1>  -0.1600 
 25 C        5.5930     5.7140    -0.6390 C.3   1 <1>  -0.1600 
 26 H       -1.2100    -1.9140    -1.8790 H     1 <1>   0.4000 
 27 H        0.6770    -0.5990    -1.3920 H     1 <1>   0.0800 
 28 H       -0.5880    -0.6840    -0.1980 H     1 <1>   0.0800 
 29 H        3.0490    -2.7050     0.6690 H     1 <1>   0.0800 
 30 H        2.3140    -0.8910     2.0040 H     1 <1>   0.0800 
 31 H        0.8940    -0.0020     1.5790 H     1 <1>   0.0800 
 32 H        0.6210    -2.4060     2.4170 H     1 <1>   0.0800 
 33 H       -0.6250    -2.6270     1.2530 H     1 <1>   0.0800 
 34 H        3.0040    -4.4710    -0.5620 H     1 <1>   0.4500 
 35 H        2.7210    -1.2580    -1.9310 H     1 <1>   0.0800 
 36 H        4.1520    -2.1110    -1.4310 H     1 <1>   0.0800 
 37 H        2.9720     1.1540     0.9860 H     1 <1>   0.0800 
 38 H        2.0040     0.8760    -0.4290 H     1 <1>   0.0800 
 39 H        0.0500    -4.7970     1.7280 H     1 <1>   0.0800 
 40 H        1.7330    -4.3970     1.8370 H     1 <1>   0.0800 
 41 H        0.1080    -4.3710    -0.7080 H     1 <1>   0.0800 
 42 H        1.1560    -5.6780    -0.2320 H     1 <1>   0.0800 
 43 H        1.1770    -3.3150    -2.5790 H     1 <1>   0.0800 
 44 H        1.8270    -4.9350    -2.6190 H     1 <1>   0.0800 
 45 H        2.8980    -3.5630    -2.7710 H     1 <1>   0.0800 
 46 H        6.0290    -1.6640    -0.4450 H     1 <1>   0.1500 
 47 H        8.2040     1.8950    -0.6440 H     1 <1>   0.4570 
 48 H        8.4770    -1.8090    -0.6450 H     1 <1>   0.0800 
 49 H        9.2820    -0.4970     0.1700 H     1 <1>   0.0800 
 50 H        9.1560    -0.5030    -1.5770 H     1 <1>   0.0800 
 51 H        8.2640     3.9640     0.2190 H     1 <1>   0.0800 
 52 H        7.9520     4.2870    -1.4920 H     1 <1>   0.0800 
 53 H        4.3760     4.0100    -1.1700 H     1 <1>   0.0800 
 54 H        4.6410     4.2050     0.5580 H     1 <1>   0.0800 
 55 H        7.0720     5.8280     0.9060 H     1 <1>   0.0800 
 56 H        7.6370     6.4510    -0.6300 H     1 <1>   0.0800 
 57 H        5.5550     5.9390    -1.6910 H     1 <1>   0.0800 
 58 H        4.9960     6.4340    -0.1070 H     1 <1>   0.0800 
@<TRIPOS>BOND
  1   1   2  1   
  2   1  26  1   
  3   2   3  1   
  4   2  27  1   
  5   2  28  1   
  6   3   4  1   
  7   3   5  1   
  8   3   6  1   
  9   4   7  1   
 10   4   8  1   
 11   4  29  1   
 12   5   9  1   
 13   5  30  1   
 14   5  31  1   
 15   6  10  1   
 16   6  32  1   
 17   6  33  1   
 18   7  11  1   
 19   7  12  1   
 20   7  34  1   
 21   8  13  1   
 22   8  35  1   
 23   8  36  1   
 24   9  13  1   
 25   9  37  1   
 26   9  38  1   
 27  10  11  1   
 28  10  39  1   
 29  10  40  1   
 30  11  41  1   
 31  11  42  1   
 32  12  43  1   
 33  12  44  1   
 34  12  45  1   
 35  13  14  1   
 36  14  15  ar  
 37  14  16  ar  
 38  15  17  ar  
 39  16  18  ar  
 40  16  46  1   
 41  17  19  ar  
 42  17  20  1   
 43  18  19  ar  
 44  18  21  1   
 45  19  47  1   
 46  20  22  1   
 47  20  23  1   
 48  21  48  1   
 49  21  49  1   
 50  21  50  1   
 51  22  24  1   
 52  22  51  1   
 53  22  52  1   
 54  23  25  1   
 55  23  53  1   
 56  23  54  1   
 57  24  25  1   
 58  24  55  1   
 59  24  56  1   
 60  25  57  1   
 61  25  58  1   
@<TRIPOS>SUBSTRUCTURE
  1 ****  13 GROUP 4 **** **** 0

# MOE 2024.06 (io_trps.svl 2023.06)
