@<TRIPOS>MOLECULE
NONAME
42 44 1 0 0 
SMALL
USER_CHARGES


@<TRIPOS>ATOM
  1 F        1.3000    -2.0200     1.6930 F     1 <1>  -0.3400 
  2 C        0.1260    -2.5920     1.9440 C.3   1 <1>   1.2010 
  3 F        0.3770    -3.5610     2.8220 F     1 <1>  -0.3400 
  4 F       -0.5990    -1.6900     2.5990 F     1 <1>  -0.3400 
  5 C       -0.5690    -3.1310     0.6610 C.2   1 <1>   0.1080 
  6 N       -1.0920    -2.4040    -0.3000 N.2   1 <1>  -0.7070 
  7 C       -0.7170    -4.4830     0.3800 C.2   1 <1>  -0.1500 
  8 N       -1.5780    -3.2770    -1.1940 N.pl3 1 <1>   0.3140 
  9 C       -1.3680    -4.5650    -0.8150 C.2   1 <1>  -0.2370 
 10 C       -2.2370    -2.7810    -2.4150 C.3   1 <1>   0.0160 
 11 C       -1.7760    -5.7230    -1.5570 C.2   1 <1>   0.7150 
 12 O       -2.4760    -5.6470    -2.5480 O.2   1 <1>  -0.5700 
 13 N       -1.3850    -6.9530    -1.1340 N.am  1 <1>  -0.7300 
 14 C       -1.7180    -8.2450    -1.7770 C.3   1 <1>   0.2200 
 15 C       -2.7340    -9.0240    -0.9510 C.3   1 <1>  -0.0800 
 16 C       -0.5110    -9.1650    -1.6700 C.3   1 <1>   0.1200 
 17 C       -1.8620    -9.7460     0.0830 C.3   1 <1>   0.1200 
 18 C       -3.8860    -8.2000    -0.3440 C.3   1 <1>  -0.0160 
 19 O       -0.5390    -9.6350    -0.3570 O.3   1 <1>  -0.5600 
 20 C       -4.8620    -9.0970     0.4000 C.ar  1 <1>  -0.1440 
 21 C       -4.8390    -9.2260     1.7740 C.ar  1 <1>  -0.1500 
 22 C       -5.8220    -9.8330    -0.2640 C.ar  1 <1>  -0.1500 
 23 C       -5.7470   -10.0650     2.3990 C.ar  1 <1>   0.1600 
 24 C       -6.6840   -10.6440     0.4560 C.ar  1 <1>   0.1600 
 25 N       -6.6670   -10.7790     1.7730 N.ar  1 <1>  -0.6200 
 26 H       -0.3760    -5.2930     1.0020 H     1 <1>   0.1500 
 27 H       -1.7320    -3.1770    -3.2760 H     1 <1>   0.0800 
 28 H       -2.1930    -1.7080    -2.4330 H     1 <1>   0.0800 
 29 H       -3.2620    -3.1000    -2.4180 H     1 <1>   0.0800 
 30 H       -0.7820    -7.0380    -0.3160 H     1 <1>   0.3700 
 31 H       -2.0320    -8.0990    -2.7980 H     1 <1>   0.0800 
 32 H       -3.1640    -9.7780    -1.5870 H     1 <1>   0.0800 
 33 H        0.4200    -8.6600    -1.8580 H     1 <1>   0.0800 
 34 H       -0.6110   -10.0110    -2.3280 H     1 <1>   0.0800 
 35 H       -2.1180   -10.7890     0.1620 H     1 <1>   0.0800 
 36 H       -1.9220    -9.2830     1.0530 H     1 <1>   0.0800 
 37 H       -4.4070    -7.6800    -1.1300 H     1 <1>   0.0800 
 38 H       -3.5030    -7.4570     0.3340 H     1 <1>   0.0800 
 39 H       -4.1260    -8.6830     2.3670 H     1 <1>   0.1500 
 40 H       -5.9090    -9.7840    -1.3340 H     1 <1>   0.1500 
 41 H       -5.7130   -10.1530     3.4720 H     1 <1>   0.1500 
 42 H       -7.4270   -11.2100    -0.0790 H     1 <1>   0.1500 
@<TRIPOS>BOND
  1   1   2  1   
  2   2   3  1   
  3   2   4  1   
  4   2   5  1   
  5   5   6  2   
  6   5   7  1   
  7   6   8  1   
  8   7   9  2   
  9   7  26  1   
 10   8   9  1   
 11   8  10  1   
 12   9  11  1   
 13  10  27  1   
 14  10  28  1   
 15  10  29  1   
 16  11  12  2   
 17  11  13  am  
 18  13  14  1   
 19  13  30  1   
 20  14  15  1   
 21  14  16  1   
 22  14  31  1   
 23  15  17  1   
 24  15  18  1   
 25  15  32  1   
 26  16  19  1   
 27  16  33  1   
 28  16  34  1   
 29  17  19  1   
 30  17  35  1   
 31  17  36  1   
 32  18  20  1   
 33  18  37  1   
 34  18  38  1   
 35  20  21  ar  
 36  20  22  ar  
 37  21  23  ar  
 38  21  39  1   
 39  22  24  ar  
 40  22  40  1   
 41  23  25  ar  
 42  23  41  1   
 43  24  25  ar  
 44  24  42  1   
@<TRIPOS>SUBSTRUCTURE
  1 ****  13 GROUP 4 **** **** 0

# MOE 2024.06 (io_trps.svl 2023.06)
