@<TRIPOS>MOLECULE
NONAME
23 23 1 0 0 
SMALL
USER_CHARGES


@<TRIPOS>ATOM
  1 O       -4.7270     0.1440     1.3050 O.3   1 <1>  -0.6800 
  2 C       -4.9790    -0.0350    -0.0510 C.3   1 <1>   0.2000 
  3 C       -6.3080     0.6540    -0.4200 C.3   1 <1>  -0.0800 
  4 C       -5.0680    -1.5560    -0.3260 C.3   1 <1>   0.3430 
  5 C       -7.4970     0.0340     0.3650 C.3   1 <1>  -0.1600 
  6 C       -6.2380     2.1810    -0.2480 C.3   1 <1>   0.1200 
  7 N       -6.4200    -2.1600    -0.0240 N.4   1 <1>  -0.9060 
  8 C       -7.2200    -1.3600     0.9430 C.3   1 <1>   0.3430 
  9 O       -7.4430     2.7330    -0.6430 O.3   1 <1>  -0.6800 
 10 H       -4.5110     1.0770     1.5130 H     1 <1>   0.4000 
 11 H       -4.1500     0.3870    -0.5950 H     1 <1>   0.0800 
 12 H       -6.4670     0.4660    -1.4680 H     1 <1>   0.0800 
 13 H       -4.3080    -2.0430     0.2640 H     1 <1>   0.0800 
 14 H       -4.8360    -1.7320    -1.3630 H     1 <1>   0.0800 
 15 H       -8.3650     0.0010    -0.2700 H     1 <1>   0.0800 
 16 H       -7.7530     0.6720     1.1940 H     1 <1>   0.0800 
 17 H       -5.4530     2.6180    -0.8420 H     1 <1>   0.0800 
 18 H       -6.0890     2.4440     0.7850 H     1 <1>   0.0800 
 19 H       -6.9610    -2.2460    -0.8910 H     1 <1>   0.4500 
 20 H       -6.2900    -3.1090     0.3490 H     1 <1>   0.4500 
 21 H       -8.1520    -1.8540     1.1710 H     1 <1>   0.0800 
 22 H       -6.6620    -1.2540     1.8610 H     1 <1>   0.0800 
 23 H       -7.4790     2.8730    -1.6110 H     1 <1>   0.4000 
@<TRIPOS>BOND
  1   1   2  1   
  2   1  10  1   
  3   2   3  1   
  4   2   4  1   
  5   2  11  1   
  6   3   5  1   
  7   3   6  1   
  8   3  12  1   
  9   4   7  1   
 10   4  13  1   
 11   4  14  1   
 12   5   8  1   
 13   5  15  1   
 14   5  16  1   
 15   6   9  1   
 16   6  17  1   
 17   6  18  1   
 18   7   8  1   
 19   7  19  1   
 20   7  20  1   
 21   8  21  1   
 22   8  22  1   
 23   9  23  1   
@<TRIPOS>SUBSTRUCTURE
  1 ****   3 GROUP 4 **** **** 0

# MOE 2024.06 (io_trps.svl 2023.06)
