@<TRIPOS>MOLECULE
NONAME
39 41 1 0 0 
SMALL
USER_CHARGES


@<TRIPOS>ATOM
  1 O       -1.0530    -1.7740     0.2600 O.2   1 <1>  -0.5700 
  2 C       -0.0840    -2.4170    -0.0460 C.2   1 <1>   0.5690 
  3 N       -0.0780    -3.2160    -1.1330 N.am  1 <1>  -0.7300 
  4 C        1.1770    -2.3640     0.7890 C.3   1 <1>  -0.0990 
  5 C        1.0790    -4.0470    -1.5210 C.3   1 <1>   0.1400 
  6 C        2.4200    -2.2820    -0.1190 C.3   1 <1>  -0.0800 
  7 C        2.3880    -3.2520    -1.3270 C.3   1 <1>  -0.0800 
  8 C        3.7300    -2.5560     0.6330 C.3   1 <1>  -0.1600 
  9 C        3.6150    -4.1570    -1.1680 C.3   1 <1>  -0.1600 
 10 C        4.6010    -3.3110    -0.3650 C.3   1 <1>   0.2200 
 11 N        5.6870    -4.1040     0.2890 N.am  1 <1>  -0.6600 
 12 C        7.0230    -3.8490     0.0480 C.2   1 <1>   0.5440 
 13 C        5.3070    -5.3270     1.0640 C.3   1 <1>   0.0600 
 14 O        7.8390    -4.7220     0.2710 O.2   1 <1>  -0.5700 
 15 C        7.4870    -2.5830    -0.4760 C.ar  1 <1>   0.0860 
 16 C        8.2530    -2.5470    -1.6380 C.ar  1 <1>   0.1600 
 17 C        7.2030    -1.3700     0.1360 C.ar  1 <1>  -0.1500 
 18 N        8.7090    -1.4530    -2.2310 N.ar  1 <1>  -0.6200 
 19 C        7.6750    -0.2190    -0.4580 C.ar  1 <1>  -0.1500 
 20 C        8.4110    -0.3140    -1.6270 C.ar  1 <1>   0.1600 
 21 H       -0.9430    -3.2810    -1.6750 H     1 <1>   0.3700 
 22 H        1.1380    -1.5130     1.4440 H     1 <1>   0.0800 
 23 H        1.2060    -3.2540     1.3900 H     1 <1>   0.0800 
 24 H        1.0810    -4.9290    -0.9020 H     1 <1>   0.0800 
 25 H        0.9830    -4.3530    -2.5490 H     1 <1>   0.0800 
 26 H        2.4600    -1.2810    -0.5190 H     1 <1>   0.0800 
 27 H        2.5340    -2.6590    -2.2140 H     1 <1>   0.0800 
 28 H        3.5400    -3.1660     1.4970 H     1 <1>   0.0800 
 29 H        4.1970    -1.6390     0.9460 H     1 <1>   0.0800 
 30 H        4.0270    -4.4410    -2.1200 H     1 <1>   0.0800 
 31 H        3.3370    -5.0370    -0.6190 H     1 <1>   0.0800 
 32 H        5.0260    -2.5930    -1.0460 H     1 <1>   0.0800 
 33 H        4.3690    -5.1900     1.5700 H     1 <1>   0.0800 
 34 H        6.0610    -5.5440     1.8020 H     1 <1>   0.0800 
 35 H        5.2320    -6.1670     0.3960 H     1 <1>   0.0800 
 36 H        8.4970    -3.4880    -2.1010 H     1 <1>   0.1500 
 37 H        6.6350    -1.3390     1.0490 H     1 <1>   0.1500 
 38 H        7.4790     0.7440    -0.0220 H     1 <1>   0.1500 
 39 H        8.7750     0.5900    -2.0860 H     1 <1>   0.1500 
@<TRIPOS>BOND
  1   1   2  2   
  2   2   3  am  
  3   2   4  1   
  4   3   5  1   
  5   3  21  1   
  6   4   6  1   
  7   4  22  1   
  8   4  23  1   
  9   5   7  1   
 10   5  24  1   
 11   5  25  1   
 12   6   7  1   
 13   6   8  1   
 14   6  26  1   
 15   7   9  1   
 16   7  27  1   
 17   8  10  1   
 18   8  28  1   
 19   8  29  1   
 20   9  10  1   
 21   9  30  1   
 22   9  31  1   
 23  10  11  1   
 24  10  32  1   
 25  11  12  am  
 26  11  13  1   
 27  12  14  2   
 28  12  15  1   
 29  13  33  1   
 30  13  34  1   
 31  13  35  1   
 32  15  16  ar  
 33  15  17  ar  
 34  16  18  ar  
 35  16  36  1   
 36  17  19  ar  
 37  17  37  1   
 38  18  20  ar  
 39  19  20  ar  
 40  19  38  1   
 41  20  39  1   
@<TRIPOS>SUBSTRUCTURE
  1 ****  10 GROUP 4 **** **** 0

# MOE 2024.06 (io_trps.svl 2023.06)
