@<TRIPOS>MOLECULE
NONAME
52 55 1 0 0 
SMALL
USER_CHARGES


@<TRIPOS>ATOM
  1 S        1.9430    -0.2330    -2.1440 S.3   1 <1>  -0.0800 
  2 C        1.2380    -0.7160    -0.6070 C.2   1 <1>   0.3250 
  3 C        1.1970    -1.5860    -2.9170 C.2   1 <1>  -0.1100 
  4 N        0.5250    -1.7820    -0.7160 N.2   1 <1>  -0.5650 
  5 C        1.4940     0.0770     0.5800 C.ar  1 <1>   0.0530 
  6 C        0.4790    -2.2950    -2.0200 C.2   1 <1>   0.1410 
  7 C        0.8210    -0.2140     1.7690 C.ar  1 <1>  -0.1500 
  8 C        2.3970     1.1450     0.6110 C.ar  1 <1>  -0.1500 
  9 C       -0.2580    -3.5140    -2.3430 C.2   1 <1>   0.7160 
 10 C        1.0300     0.5160     2.9240 C.ar  1 <1>  -0.1500 
 11 C        2.6110     1.8800     1.7630 C.ar  1 <1>  -0.1500 
 12 O        0.1870    -4.2630    -3.1940 O.2   1 <1>  -0.5700 
 13 N       -1.4370    -3.8960    -1.7200 N.am  1 <1>  -0.6600 
 14 C        1.9270     1.5680     2.9240 C.ar  1 <1>  -0.1500 
 15 C       -1.8900    -5.3130    -1.7210 C.3   1 <1>   0.1400 
 16 C       -2.3010    -2.9830    -0.9200 C.3   1 <1>   0.1400 
 17 C       -1.9290    -5.8400    -0.2670 C.3   1 <1>   0.4230 
 18 C       -2.3160    -3.4800     0.5300 C.3   1 <1>  -0.1600 
 19 N       -2.2270    -7.3310    -0.1620 N.4   1 <1>  -0.9590 
 20 C       -2.8050    -4.9520     0.6680 C.3   1 <1>   0.0000 
 21 C       -2.6670    -7.7730     1.2030 C.3   1 <1>   0.3430 
 22 C       -3.1630    -7.8790    -1.2000 C.3   1 <1>   0.2630 
 23 C       -2.6010    -5.4060     2.1430 C.3   1 <1>  -0.1600 
 24 C       -4.3030    -5.0660     0.2660 C.3   1 <1>   0.1200 
 25 C       -2.1000    -6.8570     2.2850 C.3   1 <1>  -0.1600 
 26 O       -5.0840    -4.1310     0.9230 O.3   1 <1>  -0.6800 
 27 H        1.3650    -1.7360    -3.9680 H     1 <1>   0.1500 
 28 H        0.1190    -1.0290     1.7870 H     1 <1>   0.1500 
 29 H        2.9490     1.4160    -0.2700 H     1 <1>   0.1500 
 30 H        0.4960     0.2680     3.8250 H     1 <1>   0.1500 
 31 H        3.3110     2.6970     1.7590 H     1 <1>   0.1500 
 32 H        2.0930     2.1390     3.8210 H     1 <1>   0.1500 
 33 H       -2.8590    -5.3580    -2.1830 H     1 <1>   0.0800 
 34 H       -1.2120    -5.9200    -2.2940 H     1 <1>   0.0800 
 35 H       -1.9450    -1.9690    -0.9640 H     1 <1>   0.0800 
 36 H       -3.2980    -2.9830    -1.3270 H     1 <1>   0.0800 
 37 H       -0.9220    -5.7120     0.0960 H     1 <1>   0.0800 
 38 H       -1.3130    -3.3840     0.9110 H     1 <1>   0.0800 
 39 H       -2.9300    -2.8170     1.1150 H     1 <1>   0.0800 
 40 H       -1.3150    -7.7860    -0.3220 H     1 <1>   0.4500 
 41 H       -3.7430    -7.7480     1.2650 H     1 <1>   0.0800 
 42 H       -2.3490    -8.7880     1.3800 H     1 <1>   0.0800 
 43 H       -4.1320    -7.4160    -1.1180 H     1 <1>   0.0800 
 44 H       -3.2800    -8.9430    -1.0720 H     1 <1>   0.0800 
 45 H       -2.7770    -7.7010    -2.1910 H     1 <1>   0.0800 
 46 H       -1.8850    -4.7710     2.6400 H     1 <1>   0.0800 
 47 H       -3.5210    -5.2990     2.6920 H     1 <1>   0.0800 
 48 H       -4.7030    -6.0370     0.4980 H     1 <1>   0.0800 
 49 H       -4.4420    -4.8870    -0.7860 H     1 <1>   0.0800 
 50 H       -2.3840    -7.2340     3.2530 H     1 <1>   0.0800 
 51 H       -1.0240    -6.8840     2.2420 H     1 <1>   0.0800 
 52 H       -5.0710    -4.2520     1.8940 H     1 <1>   0.4000 
@<TRIPOS>BOND
  1   1   2  1   
  2   1   3  1   
  3   2   4  2   
  4   2   5  1   
  5   3   6  2   
  6   3  27  1   
  7   4   6  1   
  8   5   7  ar  
  9   5   8  ar  
 10   6   9  1   
 11   7  10  ar  
 12   7  28  1   
 13   8  11  ar  
 14   8  29  1   
 15   9  12  2   
 16   9  13  am  
 17  10  14  ar  
 18  10  30  1   
 19  11  14  ar  
 20  11  31  1   
 21  13  15  1   
 22  13  16  1   
 23  14  32  1   
 24  15  17  1   
 25  15  33  1   
 26  15  34  1   
 27  16  18  1   
 28  16  35  1   
 29  16  36  1   
 30  17  19  1   
 31  17  20  1   
 32  17  37  1   
 33  18  20  1   
 34  18  38  1   
 35  18  39  1   
 36  19  21  1   
 37  19  22  1   
 38  19  40  1   
 39  20  23  1   
 40  20  24  1   
 41  21  25  1   
 42  21  41  1   
 43  21  42  1   
 44  22  43  1   
 45  22  44  1   
 46  22  45  1   
 47  23  25  1   
 48  23  46  1   
 49  23  47  1   
 50  24  26  1   
 51  24  48  1   
 52  24  49  1   
 53  25  50  1   
 54  25  51  1   
 55  26  52  1   
@<TRIPOS>SUBSTRUCTURE
  1 ****  18 GROUP 4 **** **** 0

# MOE 2024.06 (io_trps.svl 2023.06)
