@<TRIPOS>MOLECULE
NONAME
52 55 1 0 0 
SMALL
USER_CHARGES


@<TRIPOS>ATOM
  1 O       -0.4220    -0.6940    -1.5560 O.2   1 <1>  -0.5700 
  2 C       -0.8890     0.4220    -1.5950 C.2   1 <1>   0.5690 
  3 N       -2.1570     0.6760    -1.1340 N.am  1 <1>  -0.6600 
  4 C       -0.0190     1.5130    -2.2100 C.3   1 <1>   0.0440 
  5 C       -2.7860     2.0340    -1.0500 C.3   1 <1>   0.1400 
  6 C       -3.0200    -0.4670    -0.7050 C.3   1 <1>   0.1400 
  7 C        0.5820     2.4740    -1.1870 C.ar  1 <1>  -0.1440 
  8 C       -3.3510     2.3260     0.3590 C.3   1 <1>   0.1440 
  9 C       -4.3340    -0.0040    -0.0560 C.3   1 <1>  -0.1600 
 10 C        1.2180     1.9820    -0.0570 C.ar  1 <1>  -0.1500 
 11 C        0.5120     3.8450    -1.3830 C.ar  1 <1>  -0.1500 
 12 C       -4.2740     3.5260     0.2220 C.ar  1 <1>   0.1660 
 13 C       -4.0650     1.0950     0.9810 C.3   1 <1>  -0.1600 
 14 C       -2.2540     2.8730     1.3110 C.3   1 <1>  -0.1600 
 15 C        1.7660     2.8490     0.8720 C.ar  1 <1>  -0.1500 
 16 C        1.0640     4.7140    -0.4570 C.ar  1 <1>  -0.1500 
 17 N       -5.4720     3.5050    -0.3090 N.ar  1 <1>  -0.6200 
 18 C       -3.6960     4.6620     0.7010 C.ar  1 <1>  -0.1430 
 19 C       -2.3090     4.4080     1.2310 C.3   1 <1>  -0.0170 
 20 C        1.6890     4.2160     0.6730 C.ar  1 <1>  -0.1500 
 21 C       -6.1050     4.6800    -0.3370 C.ar  1 <1>   0.7200 
 22 C       -4.4200     5.8250     0.6280 C.ar  1 <1>   0.1600 
 23 N       -5.6260     5.8450     0.1110 N.ar  1 <1>  -0.6200 
 24 N       -7.3740     4.6920    -0.8840 N.pl3 1 <1>  -0.8380 
 25 C       -8.1460     3.4400    -1.1170 C.3   1 <1>   0.1290 
 26 C       -8.0760     5.9590    -1.2270 C.3   1 <1>   0.1290 
 27 H       -0.6020     2.0470    -2.9350 H     1 <1>   0.0800 
 28 H        0.7870     1.0410    -2.7410 H     1 <1>   0.0800 
 29 H       -3.5930     2.0690    -1.7630 H     1 <1>   0.0800 
 30 H       -2.0930     2.8080    -1.3200 H     1 <1>   0.0800 
 31 H       -2.4670    -1.0610     0.0040 H     1 <1>   0.0800 
 32 H       -3.2330    -1.0880    -1.5590 H     1 <1>   0.0800 
 33 H       -4.8090    -0.8450     0.4180 H     1 <1>   0.0800 
 34 H       -5.0050     0.3620    -0.8140 H     1 <1>   0.0800 
 35 H        1.2890     0.9190     0.1050 H     1 <1>   0.1500 
 36 H        0.0320     4.2470    -2.2580 H     1 <1>   0.1500 
 37 H       -4.9900     1.3970     1.4420 H     1 <1>   0.0800 
 38 H       -3.4480     0.6640     1.7490 H     1 <1>   0.0800 
 39 H       -1.2790     2.4920     1.0700 H     1 <1>   0.0800 
 40 H       -2.4810     2.5960     2.3250 H     1 <1>   0.0800 
 41 H        2.2560     2.4580     1.7460 H     1 <1>   0.1500 
 42 H        1.0100     5.7770    -0.6170 H     1 <1>   0.1500 
 43 H       -1.5810     4.7790     0.5330 H     1 <1>   0.0800 
 44 H       -2.1570     4.8600     2.1960 H     1 <1>   0.0800 
 45 H        2.1210     4.8900     1.3930 H     1 <1>   0.1500 
 46 H       -4.0070     6.7480     0.9960 H     1 <1>   0.1500 
 47 H       -7.8490     2.6770    -0.4180 H     1 <1>   0.0800 
 48 H       -7.9650     3.0870    -2.1170 H     1 <1>   0.0800 
 49 H       -9.1980     3.6240    -0.9880 H     1 <1>   0.0800 
 50 H       -7.3670     6.7240    -1.4930 H     1 <1>   0.0800 
 51 H       -8.6480     6.2930    -0.3790 H     1 <1>   0.0800 
 52 H       -8.7340     5.8040    -2.0630 H     1 <1>   0.0800 
@<TRIPOS>BOND
  1   1   2  2   
  2   2   3  am  
  3   2   4  1   
  4   3   5  1   
  5   3   6  1   
  6   4   7  1   
  7   4  27  1   
  8   4  28  1   
  9   5   8  1   
 10   5  29  1   
 11   5  30  1   
 12   6   9  1   
 13   6  31  1   
 14   6  32  1   
 15   7  10  ar  
 16   7  11  ar  
 17   8  12  1   
 18   8  13  1   
 19   8  14  1   
 20   9  13  1   
 21   9  33  1   
 22   9  34  1   
 23  10  15  ar  
 24  10  35  1   
 25  11  16  ar  
 26  11  36  1   
 27  12  17  ar  
 28  12  18  ar  
 29  13  37  1   
 30  13  38  1   
 31  14  19  1   
 32  14  39  1   
 33  14  40  1   
 34  15  20  ar  
 35  15  41  1   
 36  16  20  ar  
 37  16  42  1   
 38  17  21  ar  
 39  18  19  1   
 40  18  22  ar  
 41  19  43  1   
 42  19  44  1   
 43  20  45  1   
 44  21  23  ar  
 45  21  24  1   
 46  22  23  ar  
 47  22  46  1   
 48  24  25  1   
 49  24  26  1   
 50  25  47  1   
 51  25  48  1   
 52  25  49  1   
 53  26  50  1   
 54  26  51  1   
 55  26  52  1   
@<TRIPOS>SUBSTRUCTURE
  1 ****   8 GROUP 4 **** **** 0

# MOE 2024.06 (io_trps.svl 2023.06)
