@<TRIPOS>MOLECULE
NONAME
47 49 1 0 0 
SMALL
USER_CHARGES


@<TRIPOS>ATOM
  1 O       -0.2400    -1.8720    -1.4910 O.2   1 <1>  -0.5700 
  2 C        0.8180    -2.2180    -1.0130 C.2   1 <1>   0.6900 
  3 N        0.9860    -2.7410     0.2300 N.am  1 <1>  -0.6600 
  4 N        1.9910    -2.1400    -1.6750 N.am  1 <1>  -0.4900 
  5 C        2.4250    -3.1250     0.3870 C.3   1 <1>   0.2010 
  6 C       -0.1050    -3.5030     0.9170 C.3   1 <1>   0.2010 
  7 C        2.9980    -2.6540    -0.9400 C.2   1 <1>   0.5690 
  8 C       -0.3520    -4.9210     0.3720 C.2   1 <1>   0.5690 
  9 O        4.1530    -2.7130    -1.2760 O.2   1 <1>  -0.5700 
 10 O        0.5550    -5.4770    -0.2090 O.2   1 <1>  -0.5700 
 11 N       -1.5630    -5.5420     0.5610 N.am  1 <1>  -0.6600 
 12 C       -1.8830    -6.8520    -0.0910 C.3   1 <1>   0.1400 
 13 C       -2.7100    -5.0030     1.3490 C.3   1 <1>   0.1400 
 14 C       -3.0860    -6.6720    -1.0280 C.3   1 <1>   0.2000 
 15 C       -3.9280    -4.8240     0.4320 C.3   1 <1>  -0.1600 
 16 O       -3.3660    -7.8780    -1.6490 O.3   1 <1>  -0.6800 
 17 C       -4.3390    -6.1490    -0.2780 C.3   1 <1>  -0.1060 
 18 C       -4.8000    -7.2200     0.7320 C.2   1 <1>   0.9060 
 19 C       -5.4730    -5.8840    -1.3050 C.3   1 <1>  -0.0170 
 20 O       -4.9300    -8.3880     0.3360 O.co2 1 <1>  -0.9000 
 21 O       -5.0170    -6.9260     1.9130 O.co2 1 <1>  -0.9000 
 22 C       -6.6220    -5.0150    -0.7970 C.ar  1 <1>  -0.1440 
 23 C       -6.7980    -3.7280    -1.2850 C.ar  1 <1>  -0.1500 
 24 C       -7.5060    -5.5010     0.1540 C.ar  1 <1>  -0.1500 
 25 C       -7.8410    -2.9400    -0.8300 C.ar  1 <1>  -0.1500 
 26 C       -8.5480    -4.7150     0.6130 C.ar  1 <1>  -0.1500 
 27 C       -8.7180    -3.4330     0.1200 C.ar  1 <1>  -0.1500 
 28 H        2.0720    -1.8010    -2.6250 H     1 <1>   0.3700 
 29 H        2.8770    -2.6000     1.2070 H     1 <1>   0.0800 
 30 H        2.5470    -4.1880     0.4930 H     1 <1>   0.0800 
 31 H        0.1200    -3.5750     1.9650 H     1 <1>   0.0800 
 32 H       -1.0100    -2.9350     0.8070 H     1 <1>   0.0800 
 33 H       -1.0440    -7.2070    -0.6630 H     1 <1>   0.0800 
 34 H       -2.1130    -7.5790     0.6690 H     1 <1>   0.0800 
 35 H       -2.9430    -5.6970     2.1400 H     1 <1>   0.0800 
 36 H       -2.4710    -4.0660     1.8140 H     1 <1>   0.0800 
 37 H       -2.8030    -5.9830    -1.8040 H     1 <1>   0.0800 
 38 H       -4.7480    -4.4710     1.0330 H     1 <1>   0.0800 
 39 H       -3.7080    -4.0660    -0.2980 H     1 <1>   0.0800 
 40 H       -3.9670    -8.3760    -1.0130 H     1 <1>   0.4000 
 41 H       -5.0510    -5.4140    -2.1750 H     1 <1>   0.0800 
 42 H       -5.8780    -6.8260    -1.6340 H     1 <1>   0.0800 
 43 H       -6.1200    -3.3350    -2.0210 H     1 <1>   0.1500 
 44 H       -7.3790    -6.4960     0.5500 H     1 <1>   0.1500 
 45 H       -7.9690    -1.9440    -1.2150 H     1 <1>   0.1500 
 46 H       -9.2190    -5.1070     1.3550 H     1 <1>   0.1500 
 47 H       -9.5270    -2.8230     0.4780 H     1 <1>   0.1500 
@<TRIPOS>BOND
  1   1   2  2   
  2   2   3  am  
  3   2   4  am  
  4   3   5  1   
  5   3   6  1   
  6   4   7  am  
  7   4  28  1   
  8   5   7  1   
  9   5  29  1   
 10   5  30  1   
 11   6   8  1   
 12   6  31  1   
 13   6  32  1   
 14   7   9  2   
 15   8  10  2   
 16   8  11  am  
 17  11  12  1   
 18  11  13  1   
 19  12  14  1   
 20  12  33  1   
 21  12  34  1   
 22  13  15  1   
 23  13  35  1   
 24  13  36  1   
 25  14  16  1   
 26  14  17  1   
 27  14  37  1   
 28  15  17  1   
 29  15  38  1   
 30  15  39  1   
 31  16  40  1   
 32  17  18  1   
 33  17  19  1   
 34  18  20  ar  
 35  18  21  ar  
 36  19  22  1   
 37  19  41  1   
 38  19  42  1   
 39  22  23  ar  
 40  22  24  ar  
 41  23  25  ar  
 42  23  43  1   
 43  24  26  ar  
 44  24  44  1   
 45  25  27  ar  
 46  25  45  1   
 47  26  27  ar  
 48  26  46  1   
 49  27  47  1   
@<TRIPOS>SUBSTRUCTURE
  1 ****  15 GROUP 4 **** **** 0

# MOE 2024.06 (io_trps.svl 2023.06)
