@<TRIPOS>MOLECULE
NONAME
39 41 1 0 0 
SMALL
USER_CHARGES


@<TRIPOS>ATOM
  1 O       -0.4660     1.1130     1.1690 O.2   1 <1>  -0.5700 
  2 C       -0.2530     2.2220     0.7100 C.2   1 <1>   0.7150 
  3 N       -1.3130     3.0990     0.5730 N.am  1 <1>  -0.6600 
  4 C        1.0910     2.5960     0.3370 C.2   1 <1>   0.0550 
  5 C       -2.6650     2.7650     1.1130 C.3   1 <1>   0.1400 
  6 C       -1.2870     4.2570    -0.3720 C.3   1 <1>   0.1400 
  7 O        1.9270     1.7090    -0.1550 O.3   1 <1>  -0.0190 
  8 C        1.7740     3.7650     0.3780 C.2   1 <1>  -0.1500 
  9 C       -3.6240     2.3560    -0.0270 C.3   1 <1>   0.0000 
 10 C       -2.6740     4.5470    -0.9700 C.3   1 <1>  -0.1600 
 11 N        3.0910     2.2080    -0.4460 N.2   1 <1>  -0.4100 
 12 C        3.0250     3.4520    -0.1290 C.2   1 <1>   0.1390 
 13 C       -5.0750     2.3720     0.4890 C.3   1 <1>   0.2000 
 14 C       -3.4240     3.2470    -1.2940 C.3   1 <1>  -0.1600 
 15 C       -3.4670     0.8750    -0.4120 C.3   1 <1>  -0.1600 
 16 O       -5.6070     3.6640     0.4840 O.3   1 <1>  -0.5600 
 17 C       -5.8530     1.4270    -0.4340 C.3   1 <1>  -0.1600 
 18 C       -4.8080     0.4750    -1.0350 C.3   1 <1>  -0.1600 
 19 C       -6.8010     3.8120     1.1860 C.3   1 <1>   0.0400 
 20 H       -2.6030     1.9840     1.8520 H     1 <1>   0.0800 
 21 H       -3.0550     3.6380     1.6080 H     1 <1>   0.0800 
 22 H       -0.9290     5.1320     0.1420 H     1 <1>   0.0800 
 23 H       -0.6100     4.0340    -1.1790 H     1 <1>   0.0800 
 24 H        1.4490     4.7270     0.7270 H     1 <1>   0.1500 
 25 H       -3.2540     5.1300    -0.2750 H     1 <1>   0.0800 
 26 H       -2.5610     5.1370    -1.8630 H     1 <1>   0.0800 
 27 H        3.8410     4.1450    -0.2450 H     1 <1>   0.1500 
 28 H       -5.0940     1.9910     1.4970 H     1 <1>   0.0800 
 29 H       -2.8440     2.7170    -2.0300 H     1 <1>   0.0800 
 30 H       -4.3690     3.4810    -1.7520 H     1 <1>   0.0800 
 31 H       -2.6360     0.6970    -1.0730 H     1 <1>   0.0800 
 32 H       -3.3100     0.2860     0.4770 H     1 <1>   0.0800 
 33 H       -6.5920     0.8810     0.1250 H     1 <1>   0.0800 
 34 H       -6.3300     1.9830    -1.2220 H     1 <1>   0.0800 
 35 H       -5.0390    -0.5550    -0.8260 H     1 <1>   0.0800 
 36 H       -4.7680     0.6130    -2.1020 H     1 <1>   0.0800 
 37 H       -7.0930     4.8450     1.1310 H     1 <1>   0.0800 
 38 H       -6.6470     3.5330     2.2130 H     1 <1>   0.0800 
 39 H       -7.5610     3.1980     0.7350 H     1 <1>   0.0800 
@<TRIPOS>BOND
  1   1   2  2   
  2   2   3  am  
  3   2   4  1   
  4   3   5  1   
  5   3   6  1   
  6   4   7  1   
  7   4   8  2   
  8   5   9  1   
  9   5  20  1   
 10   5  21  1   
 11   6  10  1   
 12   6  22  1   
 13   6  23  1   
 14   7  11  1   
 15   8  12  1   
 16   8  24  1   
 17   9  13  1   
 18   9  14  1   
 19   9  15  1   
 20  10  14  1   
 21  10  25  1   
 22  10  26  1   
 23  11  12  2   
 24  12  27  1   
 25  13  16  1   
 26  13  17  1   
 27  13  28  1   
 28  14  29  1   
 29  14  30  1   
 30  15  18  1   
 31  15  31  1   
 32  15  32  1   
 33  16  19  1   
 34  17  18  1   
 35  17  33  1   
 36  17  34  1   
 37  18  35  1   
 38  18  36  1   
 39  19  37  1   
 40  19  38  1   
 41  19  39  1   
@<TRIPOS>SUBSTRUCTURE
  1 ****   3 GROUP 4 **** **** 0

# MOE 2024.06 (io_trps.svl 2023.06)
