@<TRIPOS>MOLECULE
NONAME
41 42 1 0 0 
SMALL
USER_CHARGES


@<TRIPOS>ATOM
  1 CL      -0.8640    -0.3430    -1.3900 Cl    1 <1>  -0.1770 
  2 C       -1.5950     0.9670    -0.4790 C.ar  1 <1>   0.1770 
  3 C       -1.0200     2.2440    -0.5160 C.ar  1 <1>   0.4100 
  4 C       -2.7270     0.7270     0.2550 C.ar  1 <1>  -0.1500 
  5 N       -1.5300     3.2780     0.1470 N.ar  1 <1>  -0.6200 
  6 N        0.1230     2.4940    -1.2560 N.pl3 1 <1>  -0.8690 
  7 C       -3.2740     1.8000     0.9540 C.ar  1 <1>  -0.1790 
  8 C       -2.6250     3.0260     0.8530 C.ar  1 <1>   0.1600 
  9 C        0.5020     3.8570    -1.7050 C.3   1 <1>   0.2090 
 10 C       -4.4660     1.6840     1.7620 C.2   1 <1>   0.9790 
 11 C        1.0820     4.6580    -0.5180 C.3   1 <1>   0.3430 
 12 O       -5.0560     0.5970     1.8650 O.co2 1 <1>  -0.9000 
 13 O       -4.9090     2.6810     2.3570 O.co2 1 <1>  -0.9000 
 14 N        0.6630     6.1080    -0.4800 N.4   1 <1>  -0.9590 
 15 C        1.4480     6.9120     0.5240 C.3   1 <1>   0.4230 
 16 C       -0.8030     6.1640    -0.1620 C.3   1 <1>   0.3430 
 17 C        0.9660     8.3760     0.4780 C.3   1 <1>  -0.1600 
 18 C        2.9790     6.8360     0.2860 C.3   1 <1>   0.1200 
 19 C       -1.3120     7.6000    -0.2420 C.3   1 <1>  -0.1600 
 20 C       -0.5420     8.5100     0.7160 C.3   1 <1>  -0.1600 
 21 O        3.6490     7.5580     1.2650 O.3   1 <1>  -0.6800 
 22 H       -3.1890    -0.2450     0.2990 H     1 <1>   0.1500 
 23 H        0.3780     1.7260    -1.8910 H     1 <1>   0.4000 
 24 H       -3.0550     3.8500     1.4020 H     1 <1>   0.1500 
 25 H       -0.3710     4.3360    -2.1100 H     1 <1>   0.0800 
 26 H        1.2410     3.7790    -2.4840 H     1 <1>   0.0800 
 27 H        2.1530     4.5780    -0.5660 H     1 <1>   0.0800 
 28 H        0.7590     4.1820     0.3940 H     1 <1>   0.0800 
 29 H        0.7960     6.5420    -1.3990 H     1 <1>   0.4500 
 30 H        1.2500     6.5170     1.5070 H     1 <1>   0.0800 
 31 H       -0.9760     5.7720     0.8280 H     1 <1>   0.0800 
 32 H       -1.3630     5.5540    -0.8530 H     1 <1>   0.0800 
 33 H        1.2260     8.8120    -0.4700 H     1 <1>   0.0800 
 34 H        1.4760     8.9420     1.2380 H     1 <1>   0.0800 
 35 H        3.2370     7.2580    -0.6700 H     1 <1>   0.0800 
 36 H        3.3360     5.8250     0.3510 H     1 <1>   0.0800 
 37 H       -2.3570     7.6130     0.0180 H     1 <1>   0.0800 
 38 H       -1.2250     7.9600    -1.2520 H     1 <1>   0.0800 
 39 H       -0.8470     9.5340     0.5780 H     1 <1>   0.0800 
 40 H       -0.7700     8.2350     1.7330 H     1 <1>   0.0800 
 41 H        4.6210     7.5470     1.1290 H     1 <1>   0.4000 
@<TRIPOS>BOND
  1   1   2  1   
  2   2   3  ar  
  3   2   4  ar  
  4   3   5  ar  
  5   3   6  1   
  6   4   7  ar  
  7   4  22  1   
  8   5   8  ar  
  9   6   9  1   
 10   6  23  1   
 11   7   8  ar  
 12   7  10  1   
 13   8  24  1   
 14   9  11  1   
 15   9  25  1   
 16   9  26  1   
 17  10  12  ar  
 18  10  13  ar  
 19  11  14  1   
 20  11  27  1   
 21  11  28  1   
 22  14  15  1   
 23  14  16  1   
 24  14  29  1   
 25  15  17  1   
 26  15  18  1   
 27  15  30  1   
 28  16  19  1   
 29  16  31  1   
 30  16  32  1   
 31  17  20  1   
 32  17  33  1   
 33  17  34  1   
 34  18  21  1   
 35  18  35  1   
 36  18  36  1   
 37  19  20  1   
 38  19  37  1   
 39  19  38  1   
 40  20  39  1   
 41  20  40  1   
 42  21  41  1   
@<TRIPOS>SUBSTRUCTURE
  1 ****   5 GROUP 4 **** **** 0

# MOE 2024.06 (io_trps.svl 2023.06)
