@<TRIPOS>MOLECULE
NONAME
61 64 1 0 0 
SMALL
USER_CHARGES


@<TRIPOS>ATOM
  1 O       -0.6550    -1.6360     0.2950 O.3   1 <1>  -0.6800 
  2 C        0.4870    -2.0850    -0.3510 C.3   1 <1>   0.1200 
  3 C        1.7000    -2.1090     0.6260 C.3   1 <1>   0.0000 
  4 C        3.0030    -2.5120    -0.1250 C.3   1 <1>   0.4230 
  5 C        1.9200    -0.6970     1.2370 C.3   1 <1>  -0.1600 
  6 C        1.4520    -3.1110     1.7930 C.3   1 <1>  -0.1600 
  7 N        2.9830    -3.9370    -0.6780 N.4   1 <1>  -0.9590 
  8 C        3.4410    -1.4360    -1.1500 C.3   1 <1>   0.2090 
  9 C        2.3400     0.3640     0.2150 C.3   1 <1>   0.2090 
 10 C        2.1330    -4.4780     1.6010 C.3   1 <1>  -0.1600 
 11 C        2.1590    -4.8930     0.1330 C.3   1 <1>   0.3430 
 12 C        2.6230    -4.0680    -2.1280 C.3   1 <1>   0.2630 
 13 N        3.5670    -0.1030    -0.4930 N.pl3 1 <1>  -0.8380 
 14 C        4.7840     0.4370    -0.2250 C.ar  1 <1>   0.4100 
 15 N        5.6720    -0.3940     0.2860 N.ar  1 <1>  -0.6200 
 16 C        5.0700     1.8070    -0.4690 C.ar  1 <1>  -0.1440 
 17 C        6.8480     0.1050     0.6400 C.ar  1 <1>   0.7710 
 18 C        6.2830     2.2850    -0.0720 C.ar  1 <1>   0.2170 
 19 C        4.0420     2.6910    -1.1890 C.3   1 <1>  -0.0970 
 20 N        7.1460     1.4030     0.4810 N.ar  1 <1>  -0.1790 
 21 N        7.7800    -0.7140     1.1850 N.pl3 1 <1>  -0.8380 
 22 C        6.7700     3.7240    -0.1980 C.3   1 <1>  -0.0960 
 23 C        9.1810    -0.3840     1.5760 C.3   1 <1>   0.2090 
 24 C        7.5010    -2.1460     1.4770 C.3   1 <1>   0.2090 
 25 C        9.8390    -1.7270     1.8610 C.3   1 <1>  -0.1600 
 26 C        8.6920    -2.6310     2.2910 C.3   1 <1>  -0.1600 
 27 H       -1.4320    -1.6080    -0.3020 H     1 <1>   0.4000 
 28 H        0.2720    -3.0680    -0.7280 H     1 <1>   0.0800 
 29 H        0.6600    -1.4240    -1.1830 H     1 <1>   0.0800 
 30 H        3.7710    -2.4930     0.6290 H     1 <1>   0.0800 
 31 H        2.6910    -0.7380     1.9870 H     1 <1>   0.0800 
 32 H        1.0250    -0.3630     1.7340 H     1 <1>   0.0800 
 33 H        1.8060    -2.7050     2.7260 H     1 <1>   0.0800 
 34 H        0.3940    -3.2630     1.9260 H     1 <1>   0.0800 
 35 H        3.9550    -4.2640    -0.5840 H     1 <1>   0.4500 
 36 H        2.7270    -1.3520    -1.9490 H     1 <1>   0.0800 
 37 H        4.3910    -1.7110    -1.5730 H     1 <1>   0.0800 
 38 H        2.5370     1.2870     0.7330 H     1 <1>   0.0800 
 39 H        1.5510     0.5450    -0.4960 H     1 <1>   0.0800 
 40 H        1.5970    -5.2190     2.1700 H     1 <1>   0.0800 
 41 H        3.1380    -4.4530     1.9830 H     1 <1>   0.0800 
 42 H        1.1460    -4.9070    -0.2340 H     1 <1>   0.0800 
 43 H        2.5590    -5.8910     0.0430 H     1 <1>   0.0800 
 44 H        1.6220    -3.7090    -2.3030 H     1 <1>   0.0800 
 45 H        2.6740    -5.1010    -2.4330 H     1 <1>   0.0800 
 46 H        3.3060    -3.5030    -2.7420 H     1 <1>   0.0800 
 47 H        4.5170     3.4520    -1.7790 H     1 <1>   0.0800 
 48 H        3.3890     3.1620    -0.4770 H     1 <1>   0.0800 
 49 H        3.4460     2.1080    -1.8680 H     1 <1>   0.0800 
 50 H        8.0650     1.6770     0.8030 H     1 <1>   0.4570 
 51 H        5.9570     4.4060    -0.3660 H     1 <1>   0.0800 
 52 H        7.4610     3.8110    -1.0180 H     1 <1>   0.0800 
 53 H        7.2630     4.0370     0.7060 H     1 <1>   0.0800 
 54 H        9.7060     0.1320     0.7900 H     1 <1>   0.0800 
 55 H        9.1740     0.2100     2.4750 H     1 <1>   0.0800 
 56 H        6.5820    -2.2620     2.0280 H     1 <1>   0.0800 
 57 H        7.4400    -2.6910     0.5500 H     1 <1>   0.0800 
 58 H       10.2830    -2.1030     0.9550 H     1 <1>   0.0800 
 59 H       10.6030    -1.6490     2.6150 H     1 <1>   0.0800 
 60 H        8.4850    -2.4900     3.3380 H     1 <1>   0.0800 
 61 H        8.9030    -3.6710     2.1150 H     1 <1>   0.0800 
@<TRIPOS>BOND
  1   1   2  1   
  2   1  27  1   
  3   2   3  1   
  4   2  28  1   
  5   2  29  1   
  6   3   4  1   
  7   3   5  1   
  8   3   6  1   
  9   4   7  1   
 10   4   8  1   
 11   4  30  1   
 12   5   9  1   
 13   5  31  1   
 14   5  32  1   
 15   6  10  1   
 16   6  33  1   
 17   6  34  1   
 18   7  11  1   
 19   7  12  1   
 20   7  35  1   
 21   8  13  1   
 22   8  36  1   
 23   8  37  1   
 24   9  13  1   
 25   9  38  1   
 26   9  39  1   
 27  10  11  1   
 28  10  40  1   
 29  10  41  1   
 30  11  42  1   
 31  11  43  1   
 32  12  44  1   
 33  12  45  1   
 34  12  46  1   
 35  13  14  1   
 36  14  15  ar  
 37  14  16  ar  
 38  15  17  ar  
 39  16  18  ar  
 40  16  19  1   
 41  17  20  ar  
 42  17  21  1   
 43  18  20  ar  
 44  18  22  1   
 45  19  47  1   
 46  19  48  1   
 47  19  49  1   
 48  20  50  1   
 49  21  23  1   
 50  21  24  1   
 51  22  51  1   
 52  22  52  1   
 53  22  53  1   
 54  23  25  1   
 55  23  54  1   
 56  23  55  1   
 57  24  26  1   
 58  24  56  1   
 59  24  57  1   
 60  25  26  1   
 61  25  58  1   
 62  25  59  1   
 63  26  60  1   
 64  26  61  1   
@<TRIPOS>SUBSTRUCTURE
  1 ****  15 GROUP 4 **** **** 0

# MOE 2024.06 (io_trps.svl 2023.06)
