@<TRIPOS>MOLECULE
NONAME
49 51 1 0 0 
SMALL
USER_CHARGES


@<TRIPOS>ATOM
  1 O       -2.6830    -0.3600    -2.8450 O.2   1 <1>  -0.5700 
  2 C       -2.6260    -0.7010    -1.6910 C.2   1 <1>   0.5690 
  3 N       -2.5480     0.1990    -0.6660 N.am  1 <1>  -0.6600 
  4 C       -2.6980    -2.1780    -1.4050 C.3   1 <1>  -0.0190 
  5 C       -2.5400    -0.2050     0.7680 C.3   1 <1>   0.2200 
  6 C       -2.4060     1.6650    -0.9310 C.3   1 <1>   0.0600 
  7 C       -1.4470    -2.6970    -0.6630 C.3   1 <1>   0.1200 
  8 C       -4.0610    -2.4840    -0.7740 C.3   1 <1>   0.3430 
  9 C       -1.3040    -1.0810     1.0890 C.3   1 <1>   0.1200 
 10 C       -3.8970    -0.8460     1.1730 C.3   1 <1>   0.3430 
 11 O       -1.4700    -2.4220     0.7110 O.3   1 <1>  -0.5600 
 12 N       -4.1020    -2.2640     0.7100 N.4   1 <1>  -0.9590 
 13 C       -5.2730    -2.9180     1.3490 C.3   1 <1>   0.5240 
 14 C       -5.2430    -4.3880     1.0020 C.2   1 <1>  -0.1810 
 15 C       -6.0560    -5.1110     0.1960 C.2   1 <1>  -0.3320 
 16 C       -4.2990    -5.2950     1.4640 C.2   1 <1>   0.1390 
 17 N       -5.5820    -6.3810     0.2070 N.pl3 1 <1>   0.3140 
 18 C       -7.2810    -4.6720    -0.5960 C.3   1 <1>  -0.0600 
 19 N       -4.4880    -6.4790     0.9820 N.2   1 <1>  -0.7070 
 20 C       -6.1210    -7.5650    -0.4980 C.3   1 <1>   0.0960 
 21 C       -7.1720    -8.2840     0.3590 C.3   1 <1>  -0.1600 
 22 C       -7.7480    -9.5030    -0.3700 C.3   1 <1>  -0.2400 
 23 H       -2.6960    -2.6600    -2.3660 H     1 <1>   0.0800 
 24 H       -2.4370     0.6960     1.3490 H     1 <1>   0.0800 
 25 H       -3.2320     2.2010    -0.4980 H     1 <1>   0.0800 
 26 H       -2.3910     1.8670    -1.9900 H     1 <1>   0.0800 
 27 H       -1.4850     2.0270    -0.5090 H     1 <1>   0.0800 
 28 H       -0.5480    -2.2800    -1.0870 H     1 <1>   0.0800 
 29 H       -1.3940    -3.7680    -0.7630 H     1 <1>   0.0800 
 30 H       -4.2800    -3.5200    -0.9810 H     1 <1>   0.0800 
 31 H       -4.8200    -1.8910    -1.2580 H     1 <1>   0.0800 
 32 H       -1.1390    -1.0820     2.1530 H     1 <1>   0.0800 
 33 H       -0.4190    -0.6860     0.6190 H     1 <1>   0.0800 
 34 H       -4.6930    -0.2220     0.8040 H     1 <1>   0.0800 
 35 H       -3.9470    -0.8330     2.2490 H     1 <1>   0.0800 
 36 H       -3.2570    -2.7710     1.0390 H     1 <1>   0.4500 
 37 H       -5.2310    -2.8040     2.4200 H     1 <1>   0.0800 
 38 H       -6.1880    -2.4770     0.9900 H     1 <1>   0.0800 
 39 H       -3.4890    -5.0710     2.1390 H     1 <1>   0.1500 
 40 H       -7.4840    -3.6270    -0.4510 H     1 <1>   0.0800 
 41 H       -8.1460    -5.2280    -0.2770 H     1 <1>   0.0800 
 42 H       -7.1290    -4.8460    -1.6460 H     1 <1>   0.0800 
 43 H       -6.5470    -7.2520    -1.4320 H     1 <1>   0.0800 
 44 H       -5.3020    -8.2310    -0.7040 H     1 <1>   0.0800 
 45 H       -6.7140    -8.6070     1.2790 H     1 <1>   0.0800 
 46 H       -7.9730    -7.6060     0.5990 H     1 <1>   0.0800 
 47 H       -6.9690   -10.2080    -0.5990 H     1 <1>   0.0800 
 48 H       -8.2290    -9.2060    -1.2860 H     1 <1>   0.0800 
 49 H       -8.4760    -9.9930     0.2530 H     1 <1>   0.0800 
@<TRIPOS>BOND
  1   1   2  2   
  2   2   3  am  
  3   2   4  1   
  4   3   5  1   
  5   3   6  1   
  6   4   7  1   
  7   4   8  1   
  8   4  23  1   
  9   5   9  1   
 10   5  10  1   
 11   5  24  1   
 12   6  25  1   
 13   6  26  1   
 14   6  27  1   
 15   7  11  1   
 16   7  28  1   
 17   7  29  1   
 18   8  12  1   
 19   8  30  1   
 20   8  31  1   
 21   9  11  1   
 22   9  32  1   
 23   9  33  1   
 24  10  12  1   
 25  10  34  1   
 26  10  35  1   
 27  12  13  1   
 28  12  36  1   
 29  13  14  1   
 30  13  37  1   
 31  13  38  1   
 32  14  15  2   
 33  14  16  1   
 34  15  17  1   
 35  15  18  1   
 36  16  19  2   
 37  16  39  1   
 38  17  19  1   
 39  17  20  1   
 40  18  40  1   
 41  18  41  1   
 42  18  42  1   
 43  20  21  1   
 44  20  43  1   
 45  20  44  1   
 46  21  22  1   
 47  21  45  1   
 48  21  46  1   
 49  22  47  1   
 50  22  48  1   
 51  22  49  1   
@<TRIPOS>SUBSTRUCTURE
  1 ****   8 GROUP 4 **** **** 0

# MOE 2024.06 (io_trps.svl 2023.06)
