@<TRIPOS>MOLECULE
NONAME
17 17 1 0 0 
SMALL
USER_CHARGES


@<TRIPOS>ATOM
  1 BR      -0.0920    -0.1480     0.9570 Br    1 <1>  -0.1110 
  2 C       -0.0730     1.7360     0.5650 C.ar  1 <1>   0.1110 
  3 C        0.6220     2.6060     1.3670 C.ar  1 <1>   0.1600 
  4 C       -0.7540     2.2290    -0.5200 C.ar  1 <1>   0.1600 
  5 N        0.6430     3.8990     1.1090 N.ar  1 <1>  -0.6200 
  6 N       -0.7470     3.5180    -0.7970 N.ar  1 <1>  -0.6200 
  7 C       -0.0460     4.2910     0.0310 C.ar  1 <1>   0.4770 
  8 C       -0.0370     5.8020    -0.2880 C.3   1 <1>   0.3440 
  9 O        1.1730     6.3760     0.0860 O.3   1 <1>  -0.6800 
 10 C       -1.1360     6.5610     0.4550 C.3   1 <1>  -0.2400 
 11 H        1.1620     2.2390     2.2230 H     1 <1>   0.1500 
 12 H       -1.3050     1.5630    -1.1610 H     1 <1>   0.1500 
 13 H       -0.1460     5.9460    -1.3490 H     1 <1>   0.0800 
 14 H        1.5120     5.8450     0.8390 H     1 <1>   0.4000 
 15 H       -1.0220     6.4400     1.5170 H     1 <1>   0.0800 
 16 H       -2.0970     6.1730     0.1680 H     1 <1>   0.0800 
 17 H       -1.0990     7.6050     0.2030 H     1 <1>   0.0800 
@<TRIPOS>BOND
  1   1   2  1   
  2   2   3  ar  
  3   2   4  ar  
  4   3   5  ar  
  5   3  11  1   
  6   4   6  ar  
  7   4  12  1   
  8   5   7  ar  
  9   6   7  ar  
 10   7   8  1   
 11   8   9  1   
 12   8  10  1   
 13   8  13  1   
 14   9  14  1   
 15  10  15  1   
 16  10  16  1   
 17  10  17  1   
@<TRIPOS>SUBSTRUCTURE
  1 ****   7 GROUP 4 **** **** 0

# MOE 2024.06 (io_trps.svl 2023.06)
