@<TRIPOS>MOLECULE
NONAME
35 37 1 0 0 
SMALL
USER_CHARGES


@<TRIPOS>ATOM
  1 CL      -1.4600    -0.1070    -2.0210 Cl    1 <1>  -0.1770 
  2 C       -2.2550    -0.8850    -0.6690 C.ar  1 <1>   0.1770 
  3 C       -2.2890    -2.2740    -0.5760 C.ar  1 <1>   0.0820 
  4 C       -2.8370    -0.0840     0.2910 C.ar  1 <1>  -0.1500 
  5 O       -1.7400    -3.0200    -1.5580 O.3   1 <1>  -0.3630 
  6 C       -2.9260    -2.8890     0.5090 C.ar  1 <1>   0.0860 
  7 C       -3.4660    -0.6950     1.3580 C.ar  1 <1>   0.1770 
  8 C       -0.3900    -3.3990    -1.4040 C.3   1 <1>   0.0400 
  9 C       -2.9860    -4.3240     0.6610 C.2   1 <1>   0.5440 
 10 C       -3.5160    -2.0690     1.4720 C.ar  1 <1>  -0.1500 
 11 CL      -4.2060     0.2980     2.5870 Cl    1 <1>  -0.1770 
 12 O       -1.9980    -4.9320     1.0340 O.2   1 <1>  -0.5700 
 13 N       -4.1570    -4.9950     0.4460 N.am  1 <1>  -0.6600 
 14 C       -5.4170    -4.3780    -0.0510 C.3   1 <1>   0.2350 
 15 C       -4.3680    -6.4330     0.7670 C.3   1 <1>   0.2350 
 16 C       -6.3270    -5.5370    -0.4110 C.3   1 <1>  -0.2420 
 17 C       -5.6830    -6.8050     0.1020 C.3   1 <1>  -0.2420 
 18 C       -7.7870    -5.0740    -0.4650 C.2   1 <1>   0.9470 
 19 C       -5.8650    -6.5970    -1.3790 C.3   1 <1>  -0.2000 
 20 C       -6.2940    -8.0420     0.7620 C.2   1 <1>   0.9470 
 21 O       -8.4600    -5.2790    -1.4840 O.co2 1 <1>  -0.9000 
 22 O       -8.2120    -4.3440     0.4420 O.co2 1 <1>  -0.9000 
 23 O       -6.4790    -8.0390     1.9870 O.co2 1 <1>  -0.9000 
 24 O       -6.4450    -9.0760     0.0960 O.co2 1 <1>  -0.9000 
 25 H       -2.8060     0.9870     0.2110 H     1 <1>   0.1500 
 26 H       -0.1280    -4.0410    -2.2240 H     1 <1>   0.0800 
 27 H       -0.2720    -3.9290    -0.4750 H     1 <1>   0.0800 
 28 H        0.2240    -2.5160    -1.4130 H     1 <1>   0.0800 
 29 H       -4.0190    -2.5200     2.3120 H     1 <1>   0.1500 
 30 H       -5.8580    -3.7910     0.7360 H     1 <1>   0.0800 
 31 H       -5.2370    -3.7610    -0.9130 H     1 <1>   0.0800 
 32 H       -3.5610    -7.0360     0.3890 H     1 <1>   0.0800 
 33 H       -4.4410    -6.5520     1.8340 H     1 <1>   0.0800 
 34 H       -5.0070    -6.4130    -1.9980 H     1 <1>   0.1000 
 35 H       -6.6160    -7.1880    -1.8770 H     1 <1>   0.1000 
@<TRIPOS>BOND
  1   1   2  1   
  2   2   3  ar  
  3   2   4  ar  
  4   3   5  1   
  5   3   6  ar  
  6   4   7  ar  
  7   4  25  1   
  8   5   8  1   
  9   6   9  1   
 10   6  10  ar  
 11   7  10  ar  
 12   7  11  1   
 13   8  26  1   
 14   8  27  1   
 15   8  28  1   
 16   9  12  2   
 17   9  13  am  
 18  10  29  1   
 19  13  14  1   
 20  13  15  1   
 21  14  16  1   
 22  14  30  1   
 23  14  31  1   
 24  15  17  1   
 25  15  32  1   
 26  15  33  1   
 27  16  17  1   
 28  16  18  1   
 29  16  19  1   
 30  17  19  1   
 31  17  20  1   
 32  18  21  ar  
 33  18  22  ar  
 34  19  34  1   
 35  19  35  1   
 36  20  23  ar  
 37  20  24  ar  
@<TRIPOS>SUBSTRUCTURE
  1 ****  13 GROUP 4 **** **** 0

# MOE 2024.06 (io_trps.svl 2023.06)
