@<TRIPOS>MOLECULE
NONAME
48 50 1 0 0 
SMALL
USER_CHARGES


@<TRIPOS>ATOM
  1 O        0.5200    -0.2930     1.4680 O.2   1 <1>  -0.5700 
  2 C        0.7090    -1.2160     0.7140 C.2   1 <1>   0.5690 
  3 N        1.8860    -1.5560     0.1080 N.am  1 <1>  -0.4770 
  4 C       -0.3990    -2.1570     0.3260 C.3   1 <1>  -0.0990 
  5 C        3.1540    -0.9620     0.2710 C.ar  1 <1>   0.1170 
  6 C        1.7070    -2.7410    -0.7550 C.3   1 <1>   0.1400 
  7 C        0.3330    -3.3060    -0.3760 C.3   1 <1>  -0.1600 
  8 C        3.5620    -0.4650     1.5050 C.ar  1 <1>  -0.1500 
  9 C        4.0440    -0.8650    -0.7950 C.ar  1 <1>  -0.1500 
 10 C        4.8140     0.0980     1.6730 C.ar  1 <1>  -0.1500 
 11 C        5.2980    -0.3030    -0.6320 C.ar  1 <1>  -0.1500 
 12 C        5.6950     0.1780     0.6060 C.ar  1 <1>  -0.1430 
 13 C        7.0730     0.7930     0.7910 C.3   1 <1>   0.3530 
 14 N        6.9510     2.2490     0.6130 N.pl3 1 <1>  -0.8690 
 15 C        8.0030     3.0700     0.2990 C.ar  1 <1>   0.4100 
 16 N        9.2110     2.5570     0.4120 N.ar  1 <1>  -0.6200 
 17 C        7.8040     4.3820    -0.1170 C.ar  1 <1>  -0.1430 
 18 C       10.2100     3.3580     0.1090 C.ar  1 <1>   0.4770 
 19 C        8.9350     5.1070    -0.4060 C.ar  1 <1>   0.1600 
 20 C        6.3840     4.9470    -0.2310 C.3   1 <1>  -0.0170 
 21 N       10.1500     4.6090    -0.3000 N.ar  1 <1>  -0.6200 
 22 C       11.5950     2.7710     0.2370 C.3   1 <1>  -0.0970 
 23 C        6.2940     6.4210    -0.6530 C.3   1 <1>  -0.1600 
 24 C        4.8380     6.8930    -0.7240 C.3   1 <1>  -0.2400 
 25 H       -1.0650    -1.6490    -0.3470 H     1 <1>   0.0800 
 26 H       -0.9370    -2.4920     1.1940 H     1 <1>   0.0800 
 27 H        2.4900    -3.4600    -0.5800 H     1 <1>   0.0800 
 28 H        1.7150    -2.4330    -1.7870 H     1 <1>   0.0800 
 29 H       -0.2020    -3.6650    -1.2380 H     1 <1>   0.0800 
 30 H        0.4700    -4.1220     0.3120 H     1 <1>   0.0800 
 31 H        2.8910    -0.5200     2.3440 H     1 <1>   0.1500 
 32 H        3.7560    -1.2230    -1.7650 H     1 <1>   0.1500 
 33 H        5.1000     0.4770     2.6390 H     1 <1>   0.1500 
 34 H        5.9660    -0.2370    -1.4730 H     1 <1>   0.1500 
 35 H        7.7620     0.3900     0.0690 H     1 <1>   0.0800 
 36 H        7.4510     0.5850     1.7780 H     1 <1>   0.0800 
 37 H        6.0050     2.5410     0.3670 H     1 <1>   0.4000 
 38 H        8.8690     6.1280    -0.7350 H     1 <1>   0.1500 
 39 H        5.9010     4.8350     0.7250 H     1 <1>   0.0800 
 40 H        5.8390     4.3520    -0.9430 H     1 <1>   0.0800 
 41 H       11.5930     1.9650     0.9470 H     1 <1>   0.0800 
 42 H       12.2830     3.5260     0.5690 H     1 <1>   0.0800 
 43 H       11.9110     2.4000    -0.7190 H     1 <1>   0.0800 
 44 H        6.7480     6.5490    -1.6210 H     1 <1>   0.0800 
 45 H        6.8240     7.0330     0.0570 H     1 <1>   0.0800 
 46 H        4.2870     6.3130    -1.4430 H     1 <1>   0.0800 
 47 H        4.8010     7.9270    -1.0210 H     1 <1>   0.0800 
 48 H        4.3620     6.7980     0.2370 H     1 <1>   0.0800 
@<TRIPOS>BOND
  1   1   2  2   
  2   2   3  am  
  3   2   4  1   
  4   3   5  1   
  5   3   6  1   
  6   4   7  1   
  7   4  25  1   
  8   4  26  1   
  9   5   8  ar  
 10   5   9  ar  
 11   6   7  1   
 12   6  27  1   
 13   6  28  1   
 14   7  29  1   
 15   7  30  1   
 16   8  10  ar  
 17   8  31  1   
 18   9  11  ar  
 19   9  32  1   
 20  10  12  ar  
 21  10  33  1   
 22  11  12  ar  
 23  11  34  1   
 24  12  13  1   
 25  13  14  1   
 26  13  35  1   
 27  13  36  1   
 28  14  15  1   
 29  14  37  1   
 30  15  16  ar  
 31  15  17  ar  
 32  16  18  ar  
 33  17  19  ar  
 34  17  20  1   
 35  18  21  ar  
 36  18  22  1   
 37  19  21  ar  
 38  19  38  1   
 39  20  23  1   
 40  20  39  1   
 41  20  40  1   
 42  22  41  1   
 43  22  42  1   
 44  22  43  1   
 45  23  24  1   
 46  23  44  1   
 47  23  45  1   
 48  24  46  1   
 49  24  47  1   
 50  24  48  1   
@<TRIPOS>SUBSTRUCTURE
  1 ****  12 GROUP 4 **** **** 0

# MOE 2024.06 (io_trps.svl 2023.06)
