@<TRIPOS>MOLECULE
NONAME
56 59 1 0 0 
SMALL
USER_CHARGES


@<TRIPOS>ATOM
  1 O       -0.4730     0.1450    -0.4480 O.2   1 <1>  -0.5700 
  2 C       -1.0720     1.0570     0.0960 C.2   1 <1>   0.5440 
  3 N       -2.1930     0.7380     0.8440 N.am  1 <1>  -0.6600 
  4 C       -0.5700     2.4100    -0.0510 C.ar  1 <1>   0.0860 
  5 C       -2.7390    -0.6480     0.8300 C.3   1 <1>   0.1400 
  6 C       -2.8900     1.6780     1.7660 C.3   1 <1>   0.1400 
  7 C        0.7820     2.6950     0.2100 C.ar  1 <1>  -0.1520 
  8 C       -1.3560     3.4820    -0.4540 C.ar  1 <1>  -0.1500 
  9 C       -3.7390    -0.8250    -0.3220 C.3   1 <1>   0.1400 
 10 C       -4.4050     1.7420     1.5080 C.3   1 <1>  -0.1600 
 11 N        1.7960     1.8430     0.5590 N.pl3 1 <1>   0.0330 
 12 C        1.3010     3.9830     0.1290 C.ar  1 <1>   0.0000 
 13 C       -0.8470     4.7800    -0.5490 C.ar  1 <1>  -0.1500 
 14 N       -5.0190    -0.0660    -0.1100 N.am  1 <1>  -0.6600 
 15 C       -4.8440     1.4110     0.0740 C.3   1 <1>   0.1400 
 16 C        2.9360     2.5790     0.7210 C.2   1 <1>  -0.3020 
 17 C        0.4720     5.0380    -0.2530 C.ar  1 <1>  -0.1500 
 18 C        2.6680     3.8830     0.4700 C.2   1 <1>  -0.1500 
 19 C       -6.2960    -0.5810    -0.1100 C.2   1 <1>   0.5690 
 20 O       -7.1760     0.0100     0.4750 O.2   1 <1>  -0.5700 
 21 C       -6.6830    -1.9230    -0.7830 C.3   1 <1>   0.0610 
 22 C       -6.3140    -3.0380     0.1940 C.3   1 <1>   0.3430 
 23 C       -8.2090    -2.1110    -0.8800 C.3   1 <1>  -0.1600 
 24 C       -6.0970    -2.1070    -2.2040 C.3   1 <1>  -0.2400 
 25 N       -7.4820    -3.2230     1.1190 N.4   1 <1>  -0.9590 
 26 C       -8.6490    -2.5080     0.5200 C.3   1 <1>   0.3430 
 27 C       -7.1990    -2.6760     2.4820 C.3   1 <1>   0.2630 
 28 H       -3.2120    -0.8720     1.7700 H     1 <1>   0.0800 
 29 H       -1.9320    -1.3490     0.7030 H     1 <1>   0.0800 
 30 H       -2.4760     2.6650     1.6750 H     1 <1>   0.0800 
 31 H       -2.7150     1.3630     2.7810 H     1 <1>   0.0800 
 32 H       -2.3870     3.3150    -0.7020 H     1 <1>   0.1500 
 33 H       -3.9360    -1.8740    -0.4050 H     1 <1>   0.0800 
 34 H       -3.2760    -0.5040    -1.2400 H     1 <1>   0.0800 
 35 H       -4.7250     2.7420     1.7370 H     1 <1>   0.0800 
 36 H       -4.9210     1.0950     2.1940 H     1 <1>   0.0800 
 37 H        1.6950     0.8210     0.6150 H     1 <1>   0.2700 
 38 H       -1.4960     5.5810    -0.8580 H     1 <1>   0.1500 
 39 H       -4.1350     1.7880    -0.6420 H     1 <1>   0.0800 
 40 H       -5.7810     1.9070    -0.1210 H     1 <1>   0.0800 
 41 H        3.8710     2.1260     1.0000 H     1 <1>   0.1500 
 42 H        0.8790     6.0310    -0.3180 H     1 <1>   0.1500 
 43 H        3.3430     4.7200     0.5060 H     1 <1>   0.1500 
 44 H       -5.4160    -2.7970     0.7390 H     1 <1>   0.0800 
 45 H       -6.1520    -3.9470    -0.3610 H     1 <1>   0.0800 
 46 H       -8.4650    -2.9100    -1.5530 H     1 <1>   0.0800 
 47 H       -8.7130    -1.2190    -1.2100 H     1 <1>   0.0800 
 48 H       -5.0260    -2.1280    -2.2180 H     1 <1>   0.0800 
 49 H       -6.4160    -1.2940    -2.8340 H     1 <1>   0.0800 
 50 H       -6.4390    -3.0260    -2.6490 H     1 <1>   0.0800 
 51 H       -7.7040    -4.2270     1.1900 H     1 <1>   0.4500 
 52 H       -9.5310    -3.1270     0.4970 H     1 <1>   0.0800 
 53 H       -8.8600    -1.6120     1.0850 H     1 <1>   0.0800 
 54 H       -6.9860    -1.6190     2.4210 H     1 <1>   0.0800 
 55 H       -6.3510    -3.1760     2.9210 H     1 <1>   0.0800 
 56 H       -8.0530    -2.8150     3.1250 H     1 <1>   0.0800 
@<TRIPOS>BOND
  1   1   2  2   
  2   2   3  am  
  3   2   4  1   
  4   3   5  1   
  5   3   6  1   
  6   4   7  ar  
  7   4   8  ar  
  8   5   9  1   
  9   5  28  1   
 10   5  29  1   
 11   6  10  1   
 12   6  30  1   
 13   6  31  1   
 14   7  11  1   
 15   7  12  ar  
 16   8  13  ar  
 17   8  32  1   
 18   9  14  1   
 19   9  33  1   
 20   9  34  1   
 21  10  15  1   
 22  10  35  1   
 23  10  36  1   
 24  11  16  1   
 25  11  37  1   
 26  12  17  ar  
 27  12  18  1   
 28  13  17  ar  
 29  13  38  1   
 30  14  15  1   
 31  14  19  am  
 32  15  39  1   
 33  15  40  1   
 34  16  18  2   
 35  16  41  1   
 36  17  42  1   
 37  18  43  1   
 38  19  20  2   
 39  19  21  1   
 40  21  22  1   
 41  21  23  1   
 42  21  24  1   
 43  22  25  1   
 44  22  44  1   
 45  22  45  1   
 46  23  26  1   
 47  23  46  1   
 48  23  47  1   
 49  24  48  1   
 50  24  49  1   
 51  24  50  1   
 52  25  26  1   
 53  25  27  1   
 54  25  51  1   
 55  26  52  1   
 56  26  53  1   
 57  27  54  1   
 58  27  55  1   
 59  27  56  1   
@<TRIPOS>SUBSTRUCTURE
  1 ****   3 GROUP 4 **** **** 0

# MOE 2024.06 (io_trps.svl 2023.06)
