@<TRIPOS>MOLECULE
NONAME
48 51 1 0 0 
SMALL
USER_CHARGES


@<TRIPOS>ATOM
  1 O       -0.3220    -1.3490     1.3150 O.3   1 <1>  -0.5600 
  2 C       -1.2220    -2.1630     0.6340 C.3   1 <1>   0.2000 
  3 C        0.4490    -0.6250     0.4100 C.3   1 <1>   0.1200 
  4 C       -1.6270    -1.3280    -0.5750 C.3   1 <1>  -0.1600 
  5 C       -2.3770    -2.5560     1.5700 C.3   1 <1>   0.2090 
  6 C       -0.3670    -0.5340    -0.8780 C.3   1 <1>  -0.1600 
  7 N       -3.4730    -3.2520     0.8380 N.pl3 1 <1>  -0.8690 
  8 C       -3.4090    -4.5090     0.3550 C.ar  1 <1>   0.7200 
  9 N       -2.4510    -5.3130     0.8000 N.ar  1 <1>  -0.6200 
 10 N       -4.3350    -4.8010    -0.5450 N.ar  1 <1>  -0.6200 
 11 C       -2.4440    -6.5240     0.3080 C.ar  1 <1>   0.1600 
 12 C       -4.3070    -6.0180    -1.0230 C.ar  1 <1>   0.1600 
 13 C       -3.3750    -6.9450    -0.6150 C.ar  1 <1>  -0.1440 
 14 C       -3.3730    -8.3560    -1.1540 C.3   1 <1>   0.4860 
 15 N       -3.9870    -9.2600    -0.1480 N.4   1 <1>  -0.8970 
 16 C       -4.2000   -10.6800    -0.6010 C.3   1 <1>   0.4720 
 17 C       -5.4750    -9.1100     0.0440 C.3   1 <1>   0.4720 
 18 C       -5.6890   -10.3550    -0.8410 C.3   1 <1>   0.1080 
 19 C       -6.6170   -11.3680    -0.2050 C.ar  1 <1>   0.2020 
 20 N       -6.3430   -11.7000     1.0480 N.ar  1 <1>  -0.6200 
 21 C       -7.6760   -11.8880    -0.9340 C.ar  1 <1>  -0.1500 
 22 C       -7.1610   -12.5870     1.5990 C.ar  1 <1>   0.1600 
 23 C       -8.5170   -12.8100    -0.3480 C.ar  1 <1>  -0.1500 
 24 C       -8.2420   -13.1620     0.9550 C.ar  1 <1>  -0.1500 
 25 H       -0.6870    -3.0430     0.3220 H     1 <1>   0.0800 
 26 H        1.3720    -1.1570     0.2530 H     1 <1>   0.0800 
 27 H        0.6490     0.3440     0.8340 H     1 <1>   0.0800 
 28 H       -2.4290    -0.6640    -0.3050 H     1 <1>   0.0800 
 29 H       -1.9380    -1.9470    -1.3980 H     1 <1>   0.0800 
 30 H       -2.7760    -1.6700     2.0310 H     1 <1>   0.0800 
 31 H       -1.9970    -3.2000     2.3440 H     1 <1>   0.0800 
 32 H        0.1850    -0.9790    -1.6860 H     1 <1>   0.0800 
 33 H       -0.5920     0.4880    -1.1260 H     1 <1>   0.0800 
 34 H       -4.1370    -2.6590     0.3420 H     1 <1>   0.4000 
 35 H       -1.6710    -7.1890     0.6590 H     1 <1>   0.1500 
 36 H       -5.0550    -6.2690    -1.7570 H     1 <1>   0.1500 
 37 H       -2.3580    -8.6630    -1.3520 H     1 <1>   0.0800 
 38 H       -3.9250    -8.3950    -2.0790 H     1 <1>   0.0800 
 39 H       -3.5200    -9.2300     0.7660 H     1 <1>   0.4500 
 40 H       -4.0310   -11.3690     0.2070 H     1 <1>   0.0000 
 41 H       -3.6520   -10.9060    -1.4970 H     1 <1>   0.0000 
 42 H       -5.8530    -8.1990    -0.3840 H     1 <1>   0.0000 
 43 H       -5.7460    -9.2600     1.0740 H     1 <1>   0.0000 
 44 H       -5.9090   -10.1120    -1.8660 H     1 <1>   0.0000 
 45 H       -7.8540   -11.5850    -1.9510 H     1 <1>   0.1500 
 46 H       -6.9610   -12.8740     2.6190 H     1 <1>   0.1500 
 47 H       -9.3500   -13.2370    -0.8820 H     1 <1>   0.1500 
 48 H       -8.8610   -13.8760     1.4700 H     1 <1>   0.1500 
@<TRIPOS>BOND
  1   1   2  1   
  2   1   3  1   
  3   2   4  1   
  4   2   5  1   
  5   2  25  1   
  6   3   6  1   
  7   3  26  1   
  8   3  27  1   
  9   4   6  1   
 10   4  28  1   
 11   4  29  1   
 12   5   7  1   
 13   5  30  1   
 14   5  31  1   
 15   6  32  1   
 16   6  33  1   
 17   7   8  1   
 18   7  34  1   
 19   8   9  ar  
 20   8  10  ar  
 21   9  11  ar  
 22  10  12  ar  
 23  11  13  ar  
 24  11  35  1   
 25  12  13  ar  
 26  12  36  1   
 27  13  14  1   
 28  14  15  1   
 29  14  37  1   
 30  14  38  1   
 31  15  16  1   
 32  15  17  1   
 33  15  39  1   
 34  16  18  1   
 35  16  40  1   
 36  16  41  1   
 37  17  18  1   
 38  17  42  1   
 39  17  43  1   
 40  18  19  1   
 41  18  44  1   
 42  19  20  ar  
 43  19  21  ar  
 44  20  22  ar  
 45  21  23  ar  
 46  21  45  1   
 47  22  24  ar  
 48  22  46  1   
 49  23  24  ar  
 50  23  47  1   
 51  24  48  1   
@<TRIPOS>SUBSTRUCTURE
  1 ****  13 GROUP 4 **** **** 0

# MOE 2024.06 (io_trps.svl 2023.06)
