@<TRIPOS>MOLECULE
NONAME
58 62 1 0 0 
SMALL
USER_CHARGES


@<TRIPOS>ATOM
  1 O       -2.4580    -2.0010    -0.5460 O.3   1 <1>  -0.3630 
  2 C       -2.6770    -0.7290    -0.1150 C.ar  1 <1>   0.0820 
  3 C       -1.7780    -2.2650    -1.7570 C.3   1 <1>   0.0400 
  4 C       -3.4320    -0.5600     1.0480 C.ar  1 <1>  -0.1440 
  5 C       -2.1930     0.3870    -0.7960 C.ar  1 <1>  -0.1500 
  6 C       -3.7040     0.7160     1.5230 C.ar  1 <1>  -0.1500 
  7 C       -3.9700    -1.7600     1.8040 C.3   1 <1>   0.4870 
  8 C       -2.4770     1.6470    -0.3090 C.ar  1 <1>  -0.1440 
  9 C       -3.2210     1.8100     0.8320 C.ar  1 <1>  -0.1440 
 10 N       -4.8080    -2.5660     0.8870 N.4   1 <1>  -0.9590 
 11 C       -2.0560     2.9770    -0.8840 C.3   1 <1>  -0.0170 
 12 C       -3.3950     3.2710     1.1690 C.3   1 <1>  -0.0170 
 13 C       -5.9110    -1.8270     0.1960 C.3   1 <1>   0.3430 
 14 C       -5.3850    -3.8110     1.4300 C.3   1 <1>   0.3430 
 15 C       -2.9070     3.9910    -0.1000 C.3   1 <1>  -0.1600 
 16 C       -7.0660    -2.8380     0.0570 C.3   1 <1>   0.2000 
 17 C       -6.4360    -4.1940     0.3840 C.3   1 <1>  -0.0800 
 18 O       -8.0510    -2.5620     0.9980 O.3   1 <1>  -0.6800 
 19 C       -5.8240    -4.8150    -0.8990 C.3   1 <1>  -0.0170 
 20 C       -4.6600    -5.7520    -0.6200 C.ar  1 <1>   0.1670 
 21 N       -3.5080    -5.1990    -0.3830 N.ar  1 <1>  -0.6200 
 22 C       -4.8750    -7.1380    -0.6240 C.ar  1 <1>  -0.1500 
 23 C       -2.4570    -6.0200    -0.1170 C.ar  1 <1>   0.3100 
 24 C       -3.8380    -7.9820    -0.3690 C.ar  1 <1>  -0.1500 
 25 C       -2.5760    -7.4270    -0.1030 C.ar  1 <1>   0.0000 
 26 C       -1.2040    -5.4530     0.1700 C.ar  1 <1>  -0.1500 
 27 C       -1.4380    -8.2080     0.1800 C.ar  1 <1>  -0.1500 
 28 C       -0.1110    -6.2300     0.4460 C.ar  1 <1>  -0.1500 
 29 C       -0.2300    -7.6240     0.4490 C.ar  1 <1>  -0.1500 
 30 H       -1.7820    -3.3280    -1.9230 H     1 <1>   0.0800 
 31 H       -0.7640    -1.9130    -1.6730 H     1 <1>   0.0800 
 32 H       -2.2890    -1.7720    -2.5650 H     1 <1>   0.0800 
 33 H       -1.6030     0.3010    -1.6890 H     1 <1>   0.1500 
 34 H       -4.2800     0.8750     2.4180 H     1 <1>   0.1500 
 35 H       -4.5510    -1.4310     2.6490 H     1 <1>   0.0800 
 36 H       -3.1430    -2.3530     2.1600 H     1 <1>   0.0800 
 37 H       -4.1320    -2.8630     0.1520 H     1 <1>   0.4500 
 38 H       -1.0080     3.1340    -0.6940 H     1 <1>   0.0800 
 39 H       -2.2490     3.0330    -1.9410 H     1 <1>   0.0800 
 40 H       -4.4200     3.5110     1.3880 H     1 <1>   0.0800 
 41 H       -2.7710     3.5230     2.0090 H     1 <1>   0.0800 
 42 H       -6.2330    -0.9700     0.7650 H     1 <1>   0.0800 
 43 H       -5.5730    -1.5020    -0.7740 H     1 <1>   0.0800 
 44 H       -4.6380    -4.5750     1.5700 H     1 <1>   0.0800 
 45 H       -5.8660    -3.6130     2.3730 H     1 <1>   0.0800 
 46 H       -2.3510     4.8820     0.1340 H     1 <1>   0.0800 
 47 H       -3.7610     4.2600    -0.6970 H     1 <1>   0.0800 
 48 H       -7.5250    -2.8000    -0.9170 H     1 <1>   0.0800 
 49 H       -7.1510    -4.8840     0.7990 H     1 <1>   0.0800 
 50 H       -7.7340    -2.6160     1.9190 H     1 <1>   0.4000 
 51 H       -5.4560    -4.0440    -1.5540 H     1 <1>   0.0800 
 52 H       -6.5920    -5.3370    -1.4420 H     1 <1>   0.0800 
 53 H       -5.8570    -7.5260    -0.8320 H     1 <1>   0.1500 
 54 H       -3.9600    -9.0520    -0.3670 H     1 <1>   0.1500 
 55 H       -1.1240    -4.3830     0.1680 H     1 <1>   0.1500 
 56 H       -1.5340    -9.2800     0.1830 H     1 <1>   0.1500 
 57 H        0.8460    -5.7860     0.6620 H     1 <1>   0.1500 
 58 H        0.6380    -8.2230     0.6650 H     1 <1>   0.1500 
@<TRIPOS>BOND
  1   1   2  1   
  2   1   3  1   
  3   2   4  ar  
  4   2   5  ar  
  5   3  30  1   
  6   3  31  1   
  7   3  32  1   
  8   4   6  ar  
  9   4   7  1   
 10   5   8  ar  
 11   5  33  1   
 12   6   9  ar  
 13   6  34  1   
 14   7  10  1   
 15   7  35  1   
 16   7  36  1   
 17   8   9  ar  
 18   8  11  1   
 19   9  12  1   
 20  10  13  1   
 21  10  14  1   
 22  10  37  1   
 23  11  15  1   
 24  11  38  1   
 25  11  39  1   
 26  12  15  1   
 27  12  40  1   
 28  12  41  1   
 29  13  16  1   
 30  13  42  1   
 31  13  43  1   
 32  14  17  1   
 33  14  44  1   
 34  14  45  1   
 35  15  46  1   
 36  15  47  1   
 37  16  17  1   
 38  16  18  1   
 39  16  48  1   
 40  17  19  1   
 41  17  49  1   
 42  18  50  1   
 43  19  20  1   
 44  19  51  1   
 45  19  52  1   
 46  20  21  ar  
 47  20  22  ar  
 48  21  23  ar  
 49  22  24  ar  
 50  22  53  1   
 51  23  25  ar  
 52  23  26  ar  
 53  24  25  ar  
 54  24  54  1   
 55  25  27  ar  
 56  26  28  ar  
 57  26  55  1   
 58  27  29  ar  
 59  27  56  1   
 60  28  29  ar  
 61  28  57  1   
 62  29  58  1   
@<TRIPOS>SUBSTRUCTURE
  1 ****  10 GROUP 4 **** **** 0

# MOE 2024.06 (io_trps.svl 2023.06)
