@<TRIPOS>MOLECULE
NONAME
54 56 1 0 0 
SMALL
USER_CHARGES


@<TRIPOS>ATOM
  1 S       -0.3970    -1.3960     0.0560 S.o2  1 <1>   1.3330 
  2 O       -0.0620    -1.0110     1.4070 O.2   1 <1>  -0.6500 
  3 O       -1.4180    -0.6790    -0.6740 O.2   1 <1>  -0.6500 
  4 N        1.0210    -1.4480    -0.8740 N.am  1 <1>  -0.8490 
  5 C       -0.9100    -3.1130     0.0820 C.3   1 <1>  -0.0550 
  6 C        2.2320    -1.6810    -0.0790 C.3   1 <1>   0.1160 
  7 C        1.1930    -0.2480    -1.7010 C.3   1 <1>   0.1160 
  8 C       -2.2410    -3.3140     0.8300 C.3   1 <1>  -0.1600 
  9 C       -2.6980    -4.7660     0.7420 C.3   1 <1>   0.3430 
 10 N       -3.9980    -4.9490     1.4480 N.4   1 <1>  -0.9590 
 11 C       -5.1520    -4.3220     0.7120 C.3   1 <1>   0.3430 
 12 C       -4.3010    -6.4090     1.5690 C.3   1 <1>   0.3430 
 13 C       -6.1970    -5.4280     0.5040 C.3   1 <1>   0.2000 
 14 C       -5.3870    -6.7200     0.5340 C.3   1 <1>  -0.0800 
 15 O       -7.0980    -5.4320     1.5610 O.3   1 <1>  -0.6800 
 16 C       -4.8190    -7.0430    -0.8680 C.3   1 <1>  -0.0170 
 17 C       -3.6300    -7.9870    -0.8100 C.ar  1 <1>   0.1670 
 18 N       -2.4530    -7.4460    -0.7020 N.ar  1 <1>  -0.6200 
 19 C       -3.8530    -9.3710    -0.8600 C.ar  1 <1>  -0.1500 
 20 C       -1.3800    -8.2810    -0.6570 C.ar  1 <1>   0.3100 
 21 C       -2.7970   -10.2280    -0.7920 C.ar  1 <1>  -0.1500 
 22 C       -1.5060    -9.6870    -0.6820 C.ar  1 <1>   0.0000 
 23 C       -0.0910    -7.7270    -0.5740 C.ar  1 <1>  -0.1500 
 24 C       -0.3450   -10.4800    -0.6010 C.ar  1 <1>  -0.1500 
 25 C        1.0250    -8.5170    -0.5000 C.ar  1 <1>  -0.1500 
 26 C        0.8940    -9.9090    -0.5100 C.ar  1 <1>  -0.1500 
 27 H       -1.0170    -3.4490    -0.9320 H     1 <1>   0.0800 
 28 H       -0.1420    -3.7010     0.5470 H     1 <1>   0.0800 
 29 H        3.0850    -1.7940    -0.7270 H     1 <1>   0.0800 
 30 H        2.1270    -2.5800     0.5040 H     1 <1>   0.0800 
 31 H        2.4080    -0.8540     0.5910 H     1 <1>   0.0800 
 32 H        2.0910    -0.3260    -2.2900 H     1 <1>   0.0800 
 33 H        1.2510     0.6300    -1.0790 H     1 <1>   0.0800 
 34 H        0.3590    -0.1400    -2.3740 H     1 <1>   0.0800 
 35 H       -2.1060    -3.0300     1.8590 H     1 <1>   0.0800 
 36 H       -2.9770    -2.6660     0.3860 H     1 <1>   0.0800 
 37 H       -1.9500    -5.4030     1.1890 H     1 <1>   0.0800 
 38 H       -2.7980    -5.0560    -0.2920 H     1 <1>   0.0800 
 39 H       -3.9190    -4.5380     2.3890 H     1 <1>   0.4500 
 40 H       -5.5770    -3.4940     1.2550 H     1 <1>   0.0800 
 41 H       -4.8180    -3.9740    -0.2510 H     1 <1>   0.0800 
 42 H       -3.4200    -7.0160     1.4330 H     1 <1>   0.0800 
 43 H       -4.6940    -6.6070     2.5530 H     1 <1>   0.0800 
 44 H       -6.7600    -5.2920    -0.4050 H     1 <1>   0.0800 
 45 H       -5.9830    -7.5560     0.8580 H     1 <1>   0.0800 
 46 H       -6.6880    -5.6310     2.4240 H     1 <1>   0.4000 
 47 H       -4.5020    -6.1450    -1.3690 H     1 <1>   0.0800 
 48 H       -5.5930    -7.4780    -1.4760 H     1 <1>   0.0800 
 49 H       -4.8570    -9.7470    -0.9520 H     1 <1>   0.1500 
 50 H       -2.9260   -11.2960    -0.8240 H     1 <1>   0.1500 
 51 H       -0.0010    -6.6580    -0.5770 H     1 <1>   0.1500 
 52 H       -0.4490   -11.5510    -0.6150 H     1 <1>   0.1500 
 53 H        2.0100    -8.0850    -0.4370 H     1 <1>   0.1500 
 54 H        1.7800   -10.5190    -0.4490 H     1 <1>   0.1500 
@<TRIPOS>BOND
  1   1   2  2   
  2   1   3  2   
  3   1   4  am  
  4   1   5  1   
  5   4   6  1   
  6   4   7  1   
  7   5   8  1   
  8   5  27  1   
  9   5  28  1   
 10   6  29  1   
 11   6  30  1   
 12   6  31  1   
 13   7  32  1   
 14   7  33  1   
 15   7  34  1   
 16   8   9  1   
 17   8  35  1   
 18   8  36  1   
 19   9  10  1   
 20   9  37  1   
 21   9  38  1   
 22  10  11  1   
 23  10  12  1   
 24  10  39  1   
 25  11  13  1   
 26  11  40  1   
 27  11  41  1   
 28  12  14  1   
 29  12  42  1   
 30  12  43  1   
 31  13  14  1   
 32  13  15  1   
 33  13  44  1   
 34  14  16  1   
 35  14  45  1   
 36  15  46  1   
 37  16  17  1   
 38  16  47  1   
 39  16  48  1   
 40  17  18  ar  
 41  17  19  ar  
 42  18  20  ar  
 43  19  21  ar  
 44  19  49  1   
 45  20  22  ar  
 46  20  23  ar  
 47  21  22  ar  
 48  21  50  1   
 49  22  24  ar  
 50  23  25  ar  
 51  23  51  1   
 52  24  26  ar  
 53  24  52  1   
 54  25  26  ar  
 55  25  53  1   
 56  26  54  1   
@<TRIPOS>SUBSTRUCTURE
  1 ****   9 GROUP 4 **** **** 0

# MOE 2024.06 (io_trps.svl 2023.06)
