@<TRIPOS>MOLECULE
NONAME
42 43 1 0 0 
SMALL
USER_CHARGES


@<TRIPOS>ATOM
  1 O        1.5170    -1.2470     0.6640 O.co2 1 <1>  -0.9000 
  2 C        1.7530    -0.0400     0.8240 C.2   1 <1>   0.9060 
  3 O        1.6190     0.4870     1.9350 O.co2 1 <1>  -0.9000 
  4 C        2.2320     0.7860    -0.3880 C.3   1 <1>  -0.1060 
  5 C        3.3630     0.0110    -1.1150 C.3   1 <1>   0.2000 
  6 C        2.8300     2.1550     0.0510 C.3   1 <1>  -0.1600 
  7 C        1.0480     0.9950    -1.3710 C.3   1 <1>  -0.0160 
  8 O        2.9140    -1.2410    -1.5000 O.3   1 <1>  -0.6800 
  9 C        4.6160    -0.1440    -0.2410 C.3   1 <1>   0.1400 
 10 C        4.0900     1.9980     0.9140 C.3   1 <1>   0.1400 
 11 C        0.0710     2.1050    -0.9910 C.ar  1 <1>  -0.1440 
 12 N        5.1140     1.2090     0.1690 N.am  1 <1>  -0.6600 
 13 C       -0.7560     1.9700     0.1140 C.ar  1 <1>  -0.1500 
 14 C       -0.0030     3.2640    -1.7500 C.ar  1 <1>  -0.1500 
 15 C        6.3740     1.6410    -0.1540 C.2   1 <1>   0.5690 
 16 C       -1.6410     2.9770     0.4570 C.ar  1 <1>  -0.1500 
 17 C       -0.8890     4.2720    -1.4100 C.ar  1 <1>  -0.1500 
 18 O        7.1320     0.9670    -0.8140 O.2   1 <1>  -0.5700 
 19 C        6.8470     3.0120     0.3030 C.3   1 <1>  -0.0990 
 20 C       -1.7090     4.1290    -0.3050 C.ar  1 <1>  -0.1500 
 21 C        8.3180     3.2700    -0.0220 C.3   1 <1>   0.1200 
 22 O        8.6470     4.5510     0.3950 O.3   1 <1>  -0.6800 
 23 H        3.6480     0.5270    -2.0140 H     1 <1>   0.0800 
 24 H        2.1000     2.6970     0.6290 H     1 <1>   0.0800 
 25 H        3.0670     2.7490    -0.8120 H     1 <1>   0.0800 
 26 H        1.4410     1.2110    -2.3480 H     1 <1>   0.0800 
 27 H        0.4990     0.0730    -1.4630 H     1 <1>   0.0800 
 28 H        2.3380    -1.5640    -0.7400 H     1 <1>   0.4000 
 29 H        5.3700    -0.6720    -0.7980 H     1 <1>   0.0800 
 30 H        4.3800    -0.7130     0.6410 H     1 <1>   0.0800 
 31 H        3.8500     1.4840     1.8300 H     1 <1>   0.0800 
 32 H        4.4540     2.9730     1.1790 H     1 <1>   0.0800 
 33 H       -0.7050     1.0790     0.7200 H     1 <1>   0.1500 
 34 H        0.6310     3.3850    -2.6090 H     1 <1>   0.1500 
 35 H       -2.2700     2.8560     1.3210 H     1 <1>   0.1500 
 36 H       -0.9400     5.1670    -2.0050 H     1 <1>   0.1500 
 37 H        6.2380     3.7510    -0.1810 H     1 <1>   0.0800 
 38 H        6.7170     3.0770     1.3670 H     1 <1>   0.0800 
 39 H       -2.3970     4.9100    -0.0370 H     1 <1>   0.1500 
 40 H        8.5060     3.1930    -1.0800 H     1 <1>   0.0800 
 41 H        8.9500     2.5720     0.5020 H     1 <1>   0.0800 
 42 H        8.2010     5.2180    -0.1590 H     1 <1>   0.4000 
@<TRIPOS>BOND
  1   1   2  ar  
  2   2   3  ar  
  3   2   4  1   
  4   4   5  1   
  5   4   6  1   
  6   4   7  1   
  7   5   8  1   
  8   5   9  1   
  9   5  23  1   
 10   6  10  1   
 11   6  24  1   
 12   6  25  1   
 13   7  11  1   
 14   7  26  1   
 15   7  27  1   
 16   8  28  1   
 17   9  12  1   
 18   9  29  1   
 19   9  30  1   
 20  10  12  1   
 21  10  31  1   
 22  10  32  1   
 23  11  13  ar  
 24  11  14  ar  
 25  12  15  am  
 26  13  16  ar  
 27  13  33  1   
 28  14  17  ar  
 29  14  34  1   
 30  15  18  2   
 31  15  19  1   
 32  16  20  ar  
 33  16  35  1   
 34  17  20  ar  
 35  17  36  1   
 36  19  21  1   
 37  19  37  1   
 38  19  38  1   
 39  20  39  1   
 40  21  22  1   
 41  21  40  1   
 42  21  41  1   
 43  22  42  1   
@<TRIPOS>SUBSTRUCTURE
  1 ****   6 GROUP 4 **** **** 0

# MOE 2024.06 (io_trps.svl 2023.06)
