@<TRIPOS>MOLECULE
NONAME
48 50 1 0 0 
SMALL
USER_CHARGES


@<TRIPOS>ATOM
  1 F       -3.0560    -0.5260    -0.1000 F     1 <1>  -0.3400 
  2 C       -3.7210    -0.0920    -1.1700 C.3   1 <1>   0.9600 
  3 F       -4.9730    -0.5070    -0.9850 F     1 <1>  -0.3400 
  4 O       -3.7790     1.3340    -1.1450 O.3   1 <1>  -0.3630 
  5 C       -3.1560    -0.6770    -2.4980 C.3   1 <1>   0.6000 
  6 C       -2.8020     2.0540    -0.5520 C.ar  1 <1>   0.0830 
  7 F       -3.1300    -2.0120    -2.5050 F     1 <1>  -0.3400 
  8 F       -1.8890    -0.3200    -2.7210 F     1 <1>  -0.3400 
  9 C       -2.8760     2.3750     0.8120 C.ar  1 <1>   0.0860 
 10 C       -1.7460     2.5000    -1.3330 C.ar  1 <1>  -0.1500 
 11 C       -3.9790     1.9710     1.6580 C.2   1 <1>   0.5440 
 12 C       -1.8250     3.1140     1.3560 C.ar  1 <1>  -0.1500 
 13 C       -0.7260     3.2410    -0.7680 C.ar  1 <1>  -0.1500 
 14 O       -3.7440     1.2800     2.6320 O.2   1 <1>  -0.5700 
 15 N       -5.2800     2.3710     1.4220 N.am  1 <1>  -0.6600 
 16 C       -0.7640     3.5440     0.5820 C.ar  1 <1>  -0.1500 
 17 C       -6.4240     1.8280     2.2090 C.3   1 <1>   0.1400 
 18 C       -5.6600     3.4780     0.5030 C.3   1 <1>   0.1400 
 19 C       -7.5090     1.3300     1.2520 C.3   1 <1>  -0.1600 
 20 C       -6.7350     2.9870    -0.4690 C.3   1 <1>  -0.1600 
 21 C       -7.9520     2.4210     0.2730 C.3   1 <1>   0.4180 
 22 O       -8.5400     3.4360     1.0520 O.3   1 <1>  -0.5600 
 23 C       -8.9710     1.8460    -0.7080 C.2   1 <1>  -0.2880 
 24 C       -9.3970     4.3340     0.4040 C.3   1 <1>   0.1200 
 25 C      -10.1880     2.3560    -0.9110 C.2   1 <1>  -0.2760 
 26 C      -10.6220     3.6020    -0.1610 C.3   1 <1>  -0.0220 
 27 C      -11.2230     1.7680    -1.8540 C.3   1 <1>  -0.1020 
 28 H       -3.7340    -0.3600    -3.3440 H     1 <1>   0.0800 
 29 H       -1.7140     2.2710    -2.3830 H     1 <1>   0.1500 
 30 H       -1.8510     3.3470     2.4070 H     1 <1>   0.1500 
 31 H        0.0990     3.5800    -1.3730 H     1 <1>   0.1500 
 32 H        0.0340     4.1140     1.0280 H     1 <1>   0.1500 
 33 H       -6.8180     2.6060     2.8400 H     1 <1>   0.0800 
 34 H       -6.1040     1.0160     2.8390 H     1 <1>   0.0800 
 35 H       -4.8080     3.8370    -0.0460 H     1 <1>   0.0800 
 36 H       -6.0470     4.2960     1.0870 H     1 <1>   0.0800 
 37 H       -8.3610     0.9910     1.8120 H     1 <1>   0.0800 
 38 H       -7.1210     0.4890     0.7070 H     1 <1>   0.0800 
 39 H       -6.3140     2.2170    -1.0860 H     1 <1>   0.0800 
 40 H       -7.0350     3.7850    -1.1210 H     1 <1>   0.0800 
 41 H       -8.6070     0.9730    -1.2180 H     1 <1>   0.1500 
 42 H       -8.8540     4.8220    -0.3850 H     1 <1>   0.0800 
 43 H       -9.7030     5.0730     1.1220 H     1 <1>   0.0800 
 44 H      -11.1470     4.2710    -0.8190 H     1 <1>   0.0800 
 45 H      -11.2850     3.3310     0.6420 H     1 <1>   0.0800 
 46 H      -11.4800     2.4820    -2.6160 H     1 <1>   0.0800 
 47 H      -12.1110     1.5040    -1.3090 H     1 <1>   0.0800 
 48 H      -10.8390     0.8840    -2.3300 H     1 <1>   0.0800 
@<TRIPOS>BOND
  1   1   2  1   
  2   2   3  1   
  3   2   4  1   
  4   2   5  1   
  5   4   6  1   
  6   5   7  1   
  7   5   8  1   
  8   5  28  1   
  9   6   9  ar  
 10   6  10  ar  
 11   9  11  1   
 12   9  12  ar  
 13  10  13  ar  
 14  10  29  1   
 15  11  14  2   
 16  11  15  am  
 17  12  16  ar  
 18  12  30  1   
 19  13  16  ar  
 20  13  31  1   
 21  15  17  1   
 22  15  18  1   
 23  16  32  1   
 24  17  19  1   
 25  17  33  1   
 26  17  34  1   
 27  18  20  1   
 28  18  35  1   
 29  18  36  1   
 30  19  21  1   
 31  19  37  1   
 32  19  38  1   
 33  20  21  1   
 34  20  39  1   
 35  20  40  1   
 36  21  22  1   
 37  21  23  1   
 38  22  24  1   
 39  23  25  2   
 40  23  41  1   
 41  24  26  1   
 42  24  42  1   
 43  24  43  1   
 44  25  26  1   
 45  25  27  1   
 46  26  44  1   
 47  26  45  1   
 48  27  46  1   
 49  27  47  1   
 50  27  48  1   
@<TRIPOS>SUBSTRUCTURE
  1 ****  15 GROUP 4 **** **** 0

# MOE 2024.06 (io_trps.svl 2023.06)
