@<TRIPOS>MOLECULE
NONAME
47 48 1 0 0 
SMALL
USER_CHARGES


@<TRIPOS>ATOM
  1 CL       0.4580    -0.0250    -0.5090 Cl    1 <1>  -0.1770 
  2 C        0.1030    -1.7340    -0.5560 C.ar  1 <1>   0.1770 
  3 C       -1.1790    -2.1680    -0.2740 C.ar  1 <1>  -0.1500 
  4 C        1.1090    -2.6260    -0.8750 C.ar  1 <1>  -0.1500 
  5 C       -1.4630    -3.5230    -0.3100 C.ar  1 <1>  -0.1500 
  6 C        0.8230    -3.9800    -0.9110 C.ar  1 <1>  -0.1500 
  7 C       -0.4580    -4.4360    -0.6300 C.ar  1 <1>   0.0830 
  8 O       -0.6480    -5.7780    -0.6890 O.3   1 <1>  -0.3630 
  9 C       -1.8990    -6.3580    -0.4110 C.3   1 <1>   0.1200 
 10 C       -1.7490    -7.8730    -0.5820 C.3   1 <1>   0.3430 
 11 N       -3.0180    -8.6170    -0.3120 N.4   1 <1>  -0.9590 
 12 C       -2.8690   -10.0340    -0.8120 C.3   1 <1>   0.3430 
 13 C       -3.4460    -8.5730     1.1130 C.3   1 <1>   0.3430 
 14 C       -3.8310   -11.0540    -0.1730 C.3   1 <1>  -0.1060 
 15 C       -4.8480    -9.1640     1.2500 C.3   1 <1>  -0.1600 
 16 C       -4.2060   -12.0250    -1.2880 C.2   1 <1>   0.9060 
 17 C       -5.1090   -10.3060     0.2600 C.3   1 <1>   0.2000 
 18 C       -3.1680   -11.8280     1.0130 C.3   1 <1>  -0.1600 
 19 O       -3.5090   -12.0510    -2.3070 O.co2 1 <1>  -0.9000 
 20 O       -5.2180   -12.7210    -1.1560 O.co2 1 <1>  -0.9000 
 21 O       -5.9960   -11.1760     0.8480 O.3   1 <1>  -0.6800 
 22 C       -1.8670   -12.5710     0.6560 C.3   1 <1>  -0.1600 
 23 C       -1.3560   -13.3760     1.8530 C.3   1 <1>  -0.2400 
 24 H       -1.9390    -1.4470    -0.0290 H     1 <1>   0.1500 
 25 H        2.0980    -2.2630    -1.0910 H     1 <1>   0.1500 
 26 H       -2.4650    -3.8370    -0.0880 H     1 <1>   0.1500 
 27 H        1.5950    -4.6880    -1.1580 H     1 <1>   0.1500 
 28 H       -2.1640    -6.1020     0.5980 H     1 <1>   0.0800 
 29 H       -2.6130    -5.9640    -1.1130 H     1 <1>   0.0800 
 30 H       -0.9770    -8.2270     0.0820 H     1 <1>   0.0800 
 31 H       -1.4350    -8.0660    -1.5960 H     1 <1>   0.0800 
 32 H       -3.7750    -8.2100    -0.8770 H     1 <1>   0.4500 
 33 H       -3.0330   -10.0180    -1.8780 H     1 <1>   0.0800 
 34 H       -1.8600   -10.3740    -0.6670 H     1 <1>   0.0800 
 35 H       -2.7540    -9.1460     1.7090 H     1 <1>   0.0800 
 36 H       -3.4490    -7.5610     1.4830 H     1 <1>   0.0800 
 37 H       -5.5820    -8.3950     1.0940 H     1 <1>   0.0800 
 38 H       -4.9590    -9.5190     2.2600 H     1 <1>   0.0800 
 39 H       -5.5970    -9.9180    -0.6210 H     1 <1>   0.0800 
 40 H       -2.9750   -11.1760     1.8420 H     1 <1>   0.0800 
 41 H       -3.8730   -12.5660     1.3600 H     1 <1>   0.0800 
 42 H       -6.0340   -11.9760     0.2450 H     1 <1>   0.4000 
 43 H       -2.0470   -13.2490    -0.1630 H     1 <1>   0.0800 
 44 H       -1.0980   -11.8840     0.3550 H     1 <1>   0.0800 
 45 H       -2.0890   -14.1050     2.1520 H     1 <1>   0.0800 
 46 H       -1.1470   -12.7300     2.6870 H     1 <1>   0.0800 
 47 H       -0.4520   -13.8960     1.5870 H     1 <1>   0.0800 
@<TRIPOS>BOND
  1   1   2  1   
  2   2   3  ar  
  3   2   4  ar  
  4   3   5  ar  
  5   3  24  1   
  6   4   6  ar  
  7   4  25  1   
  8   5   7  ar  
  9   5  26  1   
 10   6   7  ar  
 11   6  27  1   
 12   7   8  1   
 13   8   9  1   
 14   9  10  1   
 15   9  28  1   
 16   9  29  1   
 17  10  11  1   
 18  10  30  1   
 19  10  31  1   
 20  11  12  1   
 21  11  13  1   
 22  11  32  1   
 23  12  14  1   
 24  12  33  1   
 25  12  34  1   
 26  13  15  1   
 27  13  35  1   
 28  13  36  1   
 29  14  16  1   
 30  14  17  1   
 31  14  18  1   
 32  15  17  1   
 33  15  37  1   
 34  15  38  1   
 35  16  19  ar  
 36  16  20  ar  
 37  17  21  1   
 38  17  39  1   
 39  18  22  1   
 40  18  40  1   
 41  18  41  1   
 42  21  42  1   
 43  22  23  1   
 44  22  43  1   
 45  22  44  1   
 46  23  45  1   
 47  23  46  1   
 48  23  47  1   
@<TRIPOS>SUBSTRUCTURE
  1 ****  10 GROUP 4 **** **** 0

# MOE 2024.06 (io_trps.svl 2023.06)
