@<TRIPOS>MOLECULE
NONAME
51 52 1 0 0 
SMALL
USER_CHARGES


@<TRIPOS>ATOM
  1 S       -0.2050     0.3710     0.2880 S.o2  1 <1>   1.3330 
  2 O       -0.4160     0.7340    -1.0910 O.2   1 <1>  -0.6500 
  3 O       -0.1960     1.3540     1.3410 O.2   1 <1>  -0.6500 
  4 N       -1.3930    -0.7350     0.7170 N.am  1 <1>  -0.9140 
  5 C        1.3120    -0.5560     0.4020 C.3   1 <1>  -0.1350 
  6 C       -1.4780    -1.9370    -0.0990 C.3   1 <1>   0.1960 
  7 C       -2.7900    -2.6570     0.2070 C.3   1 <1>  -0.0990 
  8 C       -2.9150    -3.9730    -0.5430 C.2   1 <1>   0.5690 
  9 O       -1.9460    -4.3660    -1.1480 O.2   1 <1>  -0.5700 
 10 N       -4.0870    -4.6910    -0.5100 N.am  1 <1>  -0.6600 
 11 C       -4.2380    -5.9630    -1.2990 C.3   1 <1>   0.1400 
 12 C       -5.3340    -4.2450     0.1750 C.3   1 <1>   0.1400 
 13 C       -4.7400    -7.1380    -0.4230 C.3   1 <1>   0.0000 
 14 C       -5.8480    -5.3580     1.0870 C.3   1 <1>  -0.1600 
 15 C       -6.0320    -6.6470     0.2850 C.3   1 <1>   0.2000 
 16 C       -5.1560    -8.3200    -1.3360 C.3   1 <1>   0.1200 
 17 C       -3.6450    -7.5620     0.6090 C.3   1 <1>  -0.0170 
 18 O       -6.5440    -7.6110     1.1360 O.3   1 <1>  -0.6800 
 19 O       -4.1830    -8.6090    -2.2830 O.3   1 <1>  -0.6800 
 20 C       -2.4910    -8.3830     0.0420 C.ar  1 <1>  -0.1430 
 21 C       -1.3900    -7.7630    -0.5290 C.ar  1 <1>  -0.1500 
 22 C       -2.5340    -9.7690     0.0910 C.ar  1 <1>  -0.1500 
 23 C       -0.3570    -8.5150    -1.0600 C.ar  1 <1>  -0.1500 
 24 C       -1.5010   -10.5230    -0.4380 C.ar  1 <1>  -0.1500 
 25 C       -0.4120    -9.8960    -1.0160 C.ar  1 <1>  -0.1500 
 26 H       -1.2810    -0.9340     1.7080 H     1 <1>   0.4200 
 27 H        1.3260    -1.3480    -0.3190 H     1 <1>   0.0800 
 28 H        1.4270    -0.9690     1.3850 H     1 <1>   0.0800 
 29 H        2.1450     0.0920     0.2070 H     1 <1>   0.0800 
 30 H       -1.4580    -1.6730    -1.1450 H     1 <1>   0.0800 
 31 H       -0.6420    -2.5860     0.1090 H     1 <1>   0.0800 
 32 H       -3.5990    -2.0120    -0.0830 H     1 <1>   0.0800 
 33 H       -2.8530    -2.8620     1.2590 H     1 <1>   0.0800 
 34 H       -4.9420    -5.7870    -2.0940 H     1 <1>   0.0800 
 35 H       -3.3060    -6.2310    -1.7660 H     1 <1>   0.0800 
 36 H       -5.1700    -3.3610     0.7640 H     1 <1>   0.0800 
 37 H       -6.0750    -4.0130    -0.5710 H     1 <1>   0.0800 
 38 H       -6.7950    -5.0560     1.4980 H     1 <1>   0.0800 
 39 H       -5.1550    -5.4990     1.8950 H     1 <1>   0.0800 
 40 H       -6.7880    -6.4710    -0.4630 H     1 <1>   0.0800 
 41 H       -6.0550    -8.0830    -1.8780 H     1 <1>   0.0800 
 42 H       -5.3360    -9.2080    -0.7550 H     1 <1>   0.0800 
 43 H       -3.2360    -6.6900     1.0870 H     1 <1>   0.0800 
 44 H       -4.0910    -8.1520     1.3880 H     1 <1>   0.0800 
 45 H       -5.9940    -7.6860     1.9390 H     1 <1>   0.4000 
 46 H       -3.3270    -8.8020    -1.8310 H     1 <1>   0.4000 
 47 H       -1.3280    -6.6910    -0.5670 H     1 <1>   0.1500 
 48 H       -3.3740   -10.2720     0.5370 H     1 <1>   0.1500 
 49 H        0.4890    -8.0230    -1.5070 H     1 <1>   0.1500 
 50 H       -1.5440   -11.5970    -0.4000 H     1 <1>   0.1500 
 51 H        0.3910   -10.4800    -1.4300 H     1 <1>   0.1500 
@<TRIPOS>BOND
  1   1   2  2   
  2   1   3  2   
  3   1   4  am  
  4   1   5  1   
  5   4   6  1   
  6   4  26  1   
  7   5  27  1   
  8   5  28  1   
  9   5  29  1   
 10   6   7  1   
 11   6  30  1   
 12   6  31  1   
 13   7   8  1   
 14   7  32  1   
 15   7  33  1   
 16   8   9  2   
 17   8  10  am  
 18  10  11  1   
 19  10  12  1   
 20  11  13  1   
 21  11  34  1   
 22  11  35  1   
 23  12  14  1   
 24  12  36  1   
 25  12  37  1   
 26  13  15  1   
 27  13  16  1   
 28  13  17  1   
 29  14  15  1   
 30  14  38  1   
 31  14  39  1   
 32  15  18  1   
 33  15  40  1   
 34  16  19  1   
 35  16  41  1   
 36  16  42  1   
 37  17  20  1   
 38  17  43  1   
 39  17  44  1   
 40  18  45  1   
 41  19  46  1   
 42  20  21  ar  
 43  20  22  ar  
 44  21  23  ar  
 45  21  47  1   
 46  22  24  ar  
 47  22  48  1   
 48  23  25  ar  
 49  23  49  1   
 50  24  25  ar  
 51  24  50  1   
 52  25  51  1   
@<TRIPOS>SUBSTRUCTURE
  1 ****   8 GROUP 4 **** **** 0

# MOE 2024.06 (io_trps.svl 2023.06)
