@<TRIPOS>MOLECULE
NONAME
64 68 1 0 0 
SMALL
USER_CHARGES


@<TRIPOS>ATOM
  1 O        0.1160     5.0470     0.5090 O.2   1 <1>  -0.5700 
  2 C        1.0780     4.4580     0.0390 C.2   1 <1>   0.6900 
  3 N        1.0770     3.5230    -0.9290 N.am  1 <1>  -0.3680 
  4 N        2.3550     4.6680     0.3500 N.am  1 <1>  -0.4900 
  5 N        2.3690     3.1650    -1.2630 N.2   1 <1>  -0.5120 
  6 C        3.0980     3.8720    -0.4850 C.2   1 <1>   0.4490 
  7 C        4.6250     3.9180    -0.4610 C.3   1 <1>   0.2010 
  8 N        5.1440     5.2270    -0.9730 N.am  1 <1>  -0.7300 
  9 C        4.9670     6.4170    -0.3380 C.2   1 <1>   0.5690 
 10 O        4.4940     6.4560     0.7740 O.2   1 <1>  -0.5700 
 11 C        5.3380     7.7280    -1.0400 C.3   1 <1>   0.0610 
 12 C        4.4350     8.8860    -0.5500 C.3   1 <1>   0.4230 
 13 C        5.0290     7.7680    -2.5690 C.3   1 <1>  -0.1600 
 14 C        6.8430     8.0260    -0.7810 C.3   1 <1>  -0.0220 
 15 N        4.6640     9.8650    -1.6360 N.4   1 <1>  -0.9590 
 16 C        2.9270     8.5870    -0.7320 C.3   1 <1>  -0.1600 
 17 C        4.1560     9.0250    -2.7300 C.3   1 <1>   0.4230 
 18 C        7.0820     8.8120     0.5000 C.2   1 <1>  -0.2880 
 19 C        4.0530    11.2090    -1.4270 C.3   1 <1>   0.4860 
 20 C        2.7400     8.6880    -2.2510 C.3   1 <1>  -0.1600 
 21 C        7.3450     8.3430     1.7230 C.2   1 <1>  -0.2760 
 22 C        4.7770    11.8490    -0.2620 C.ar  1 <1>  -0.1440 
 23 C        7.5600     9.2830     2.9000 C.3   1 <1>  -0.1020 
 24 C        7.4650     6.8790     2.1260 C.3   1 <1>  -0.1020 
 25 C        6.0750    12.3870    -0.4150 C.ar  1 <1>   0.0000 
 26 C        4.2090    11.8900     0.9790 C.ar  1 <1>  -0.1500 
 27 C        6.7170    12.8850     0.7450 C.ar  1 <1>   0.3100 
 28 C        6.7740    12.4520    -1.6440 C.ar  1 <1>  -0.1500 
 29 C        4.9220    12.4260     2.0570 C.ar  1 <1>   0.1600 
 30 N        6.1250    12.8960     1.9640 N.ar  1 <1>  -0.6200 
 31 C        8.0230    13.3840     0.6370 C.ar  1 <1>  -0.1500 
 32 C        8.0480    12.9480    -1.7140 C.ar  1 <1>  -0.1500 
 33 C        8.6830    13.4150    -0.5610 C.ar  1 <1>  -0.1500 
 34 H        0.2240     3.1490    -1.3550 H     1 <1>   0.3700 
 35 H        2.7200     5.3710     0.9930 H     1 <1>   0.3700 
 36 H        5.0080     3.1170    -1.0690 H     1 <1>   0.0800 
 37 H        4.9630     3.7670     0.5490 H     1 <1>   0.0800 
 38 H        5.5700     5.1810    -1.9010 H     1 <1>   0.3700 
 39 H        4.6930     9.2390     0.4370 H     1 <1>   0.0800 
 40 H        4.4930     6.8990    -2.9110 H     1 <1>   0.0800 
 41 H        5.9170     7.8560    -3.1690 H     1 <1>   0.0800 
 42 H        7.3940     7.1020    -0.7520 H     1 <1>   0.0800 
 43 H        7.2760     8.6000    -1.5810 H     1 <1>   0.0800 
 44 H        5.6780    10.0000    -1.7140 H     1 <1>   0.4500 
 45 H        2.6270     7.6250    -0.3600 H     1 <1>   0.0800 
 46 H        2.3360     9.3230    -0.2170 H     1 <1>   0.0800 
 47 H        4.2010     9.4770    -3.7090 H     1 <1>   0.0800 
 48 H        7.0250     9.8750     0.3370 H     1 <1>   0.1500 
 49 H        4.1660    11.8190    -2.3080 H     1 <1>   0.0800 
 50 H        3.0020    11.1220    -1.2050 H     1 <1>   0.0800 
 51 H        2.0500     9.4720    -2.5100 H     1 <1>   0.0800 
 52 H        2.3780     7.7670    -2.6770 H     1 <1>   0.0800 
 53 H        6.8290     9.0940     3.6650 H     1 <1>   0.0800 
 54 H        7.4740    10.3120     2.5970 H     1 <1>   0.0800 
 55 H        8.5410     9.1380     3.3160 H     1 <1>   0.0800 
 56 H        8.4340     6.6940     2.5530 H     1 <1>   0.0800 
 57 H        7.3350     6.2150     1.2950 H     1 <1>   0.0800 
 58 H        6.7160     6.6410     2.8610 H     1 <1>   0.0800 
 59 H        3.2200    11.5130     1.1740 H     1 <1>   0.1500 
 60 H        6.3090    12.1190    -2.5520 H     1 <1>   0.1500 
 61 H        4.4470    12.4440     3.0240 H     1 <1>   0.1500 
 62 H        8.4920    13.7460     1.5340 H     1 <1>   0.1500 
 63 H        8.5790    12.9940    -2.6500 H     1 <1>   0.1500 
 64 H        9.6870    13.8020    -0.6290 H     1 <1>   0.1500 
@<TRIPOS>BOND
  1   1   2  2   
  2   2   3  am  
  3   2   4  am  
  4   3   5  1   
  5   3  34  1   
  6   4   6  1   
  7   4  35  1   
  8   5   6  2   
  9   6   7  1   
 10   7   8  1   
 11   7  36  1   
 12   7  37  1   
 13   8   9  am  
 14   8  38  1   
 15   9  10  2   
 16   9  11  1   
 17  11  12  1   
 18  11  13  1   
 19  11  14  1   
 20  12  15  1   
 21  12  16  1   
 22  12  39  1   
 23  13  17  1   
 24  13  40  1   
 25  13  41  1   
 26  14  18  1   
 27  14  42  1   
 28  14  43  1   
 29  15  17  1   
 30  15  19  1   
 31  15  44  1   
 32  16  20  1   
 33  16  45  1   
 34  16  46  1   
 35  17  20  1   
 36  17  47  1   
 37  18  21  2   
 38  18  48  1   
 39  19  22  1   
 40  19  49  1   
 41  19  50  1   
 42  20  51  1   
 43  20  52  1   
 44  21  23  1   
 45  21  24  1   
 46  22  25  ar  
 47  22  26  ar  
 48  23  53  1   
 49  23  54  1   
 50  23  55  1   
 51  24  56  1   
 52  24  57  1   
 53  24  58  1   
 54  25  27  ar  
 55  25  28  ar  
 56  26  29  ar  
 57  26  59  1   
 58  27  30  ar  
 59  27  31  ar  
 60  28  32  ar  
 61  28  60  1   
 62  29  30  ar  
 63  29  61  1   
 64  31  33  ar  
 65  31  62  1   
 66  32  33  ar  
 67  32  63  1   
 68  33  64  1   
@<TRIPOS>SUBSTRUCTURE
  1 ****  12 GROUP 4 **** **** 0

# MOE 2024.06 (io_trps.svl 2023.06)
