@<TRIPOS>MOLECULE
NONAME
59 61 1 0 0 
SMALL
USER_CHARGES


@<TRIPOS>ATOM
  1 O       -0.9600     0.3150    -0.3330 O.2   1 <1>  -0.5700 
  2 C        0.1510    -0.1670    -0.3580 C.2   1 <1>   0.5690 
  3 N        1.1940     0.3850     0.3560 N.am  1 <1>  -0.6600 
  4 C        0.3410    -1.4220    -1.2300 C.3   1 <1>   0.1710 
  5 C        2.5480    -0.2250     0.4720 C.3   1 <1>   0.0600 
  6 C        1.0170     1.6270     1.1580 C.3   1 <1>   0.0600 
  7 N        0.5760    -2.7080    -0.5040 N.3   1 <1>  -0.8100 
  8 C       -0.5150    -2.9300     0.4760 C.3   1 <1>   0.1100 
  9 C        0.6950    -3.8030    -1.4750 C.3   1 <1>   0.1100 
 10 C       -0.4220    -4.2310     1.2990 C.3   1 <1>   0.2090 
 11 C        1.4010    -5.0010    -0.8360 C.3   1 <1>  -0.1600 
 12 N       -0.7040    -5.4710     0.5010 N.pl3 1 <1>  -0.8380 
 13 C        0.4520    -6.0480    -0.2420 C.3   1 <1>   0.2090 
 14 C       -1.9790    -5.9150     0.3260 C.ar  1 <1>   0.4100 
 15 N       -2.8710    -4.9870     0.0500 N.ar  1 <1>  -0.6200 
 16 C       -2.3390    -7.2890     0.4200 C.ar  1 <1>  -0.1430 
 17 C       -4.1040    -5.3540    -0.2350 C.ar  1 <1>   0.7710 
 18 C       -3.6170    -7.6370     0.0930 C.ar  1 <1>   0.2180 
 19 C       -1.3200    -8.3180     0.9230 C.3   1 <1>  -0.0970 
 20 N       -4.4710    -6.6410    -0.2370 N.ar  1 <1>  -0.1790 
 21 N       -5.0210    -4.4040    -0.5400 N.pl3 1 <1>  -0.8380 
 22 C       -4.1870    -9.0510     0.0770 C.3   1 <1>  -0.0970 
 23 C       -6.4730    -4.5640    -0.8240 C.3   1 <1>   0.2090 
 24 C       -4.6480    -2.9600    -0.5960 C.3   1 <1>   0.2090 
 25 C       -7.0430    -3.1530    -0.7720 C.3   1 <1>  -0.1600 
 26 C       -5.8750    -2.2520    -1.1520 C.3   1 <1>  -0.1600 
 27 H        1.1700    -1.2340    -1.8880 H     1 <1>   0.0800 
 28 H       -0.5370    -1.5240    -1.8440 H     1 <1>   0.0800 
 29 H        2.6150    -1.1530    -0.0670 H     1 <1>   0.0800 
 30 H        2.7660    -0.4230     1.5070 H     1 <1>   0.0800 
 31 H        3.2850     0.4530     0.0810 H     1 <1>   0.0800 
 32 H        0.0480     2.0620     0.9850 H     1 <1>   0.0800 
 33 H        1.7680     2.3470     0.8850 H     1 <1>   0.0800 
 34 H        1.1080     1.3970     2.2050 H     1 <1>   0.0800 
 35 H       -1.4650    -2.8900    -0.0250 H     1 <1>   0.0800 
 36 H       -0.4990    -2.1210     1.1850 H     1 <1>   0.0800 
 37 H        1.3010    -3.4700    -2.3010 H     1 <1>   0.0800 
 38 H       -0.2730    -4.0810    -1.8590 H     1 <1>   0.0800 
 39 H       -1.1480    -4.1710     2.0910 H     1 <1>   0.0800 
 40 H        0.5470    -4.2960     1.7610 H     1 <1>   0.0800 
 41 H        2.0940    -4.6600    -0.0880 H     1 <1>   0.0800 
 42 H        1.9820    -5.4940    -1.5930 H     1 <1>   0.0800 
 43 H        1.0140    -6.6870     0.4170 H     1 <1>   0.0800 
 44 H        0.0730    -6.6530    -1.0480 H     1 <1>   0.0800 
 45 H       -0.6670    -7.8700     1.6510 H     1 <1>   0.0800 
 46 H       -0.7260    -8.6890     0.1070 H     1 <1>   0.0800 
 47 H       -1.7940    -9.1490     1.4120 H     1 <1>   0.0800 
 48 H       -5.4340    -6.8120    -0.4910 H     1 <1>   0.4570 
 49 H       -3.4100    -9.7910     0.0240 H     1 <1>   0.0800 
 50 H       -4.8180    -9.1950    -0.7820 H     1 <1>   0.0800 
 51 H       -4.7650    -9.2270     0.9670 H     1 <1>   0.0800 
 52 H       -6.9570    -5.1930    -0.0970 H     1 <1>   0.0800 
 53 H       -6.6030    -4.9680    -1.8150 H     1 <1>   0.0800 
 54 H       -3.7860    -2.7990    -1.2230 H     1 <1>   0.0800 
 55 H       -4.4330    -2.6070     0.4000 H     1 <1>   0.0800 
 56 H       -7.3570    -2.9360     0.2350 H     1 <1>   0.0800 
 57 H       -7.8840    -3.0330    -1.4320 H     1 <1>   0.0800 
 58 H       -5.7880    -2.1900    -2.2230 H     1 <1>   0.0800 
 59 H       -5.9740    -1.2570    -0.7530 H     1 <1>   0.0800 
@<TRIPOS>BOND
  1   1   2  2   
  2   2   3  am  
  3   2   4  1   
  4   3   5  1   
  5   3   6  1   
  6   4   7  1   
  7   4  27  1   
  8   4  28  1   
  9   5  29  1   
 10   5  30  1   
 11   5  31  1   
 12   6  32  1   
 13   6  33  1   
 14   6  34  1   
 15   7   8  1   
 16   7   9  1   
 17   8  10  1   
 18   8  35  1   
 19   8  36  1   
 20   9  11  1   
 21   9  37  1   
 22   9  38  1   
 23  10  12  1   
 24  10  39  1   
 25  10  40  1   
 26  11  13  1   
 27  11  41  1   
 28  11  42  1   
 29  12  13  1   
 30  12  14  1   
 31  13  43  1   
 32  13  44  1   
 33  14  15  ar  
 34  14  16  ar  
 35  15  17  ar  
 36  16  18  ar  
 37  16  19  1   
 38  17  20  ar  
 39  17  21  1   
 40  18  20  ar  
 41  18  22  1   
 42  19  45  1   
 43  19  46  1   
 44  19  47  1   
 45  20  48  1   
 46  21  23  1   
 47  21  24  1   
 48  22  49  1   
 49  22  50  1   
 50  22  51  1   
 51  23  25  1   
 52  23  52  1   
 53  23  53  1   
 54  24  26  1   
 55  24  54  1   
 56  24  55  1   
 57  25  26  1   
 58  25  56  1   
 59  25  57  1   
 60  26  58  1   
 61  26  59  1   
@<TRIPOS>SUBSTRUCTURE
  1 ****  15 GROUP 4 **** **** 0

# MOE 2024.06 (io_trps.svl 2023.06)
