@<TRIPOS>MOLECULE
NONAME
53 55 1 0 0 
SMALL
USER_CHARGES


@<TRIPOS>ATOM
  1 S       -0.5070    -0.1790     0.1020 S.3   1 <1>  -0.0800 
  2 C        0.2150    -0.8570    -1.3460 C.2   1 <1>   0.4620 
  3 C       -1.5680    -1.5600     0.1810 C.2   1 <1>  -0.1100 
  4 N       -0.2870    -1.9750    -1.7110 N.2   1 <1>  -0.5650 
  5 N        1.2150    -0.1800    -1.9590 N.pl3 1 <1>  -0.8840 
  6 C       -1.2940    -2.3760    -0.8520 C.2   1 <1>   0.0460 
  7 C       -1.9660    -3.7000    -1.1880 C.3   1 <1>   0.0210 
  8 C       -3.0810    -4.0880    -0.2010 C.3   1 <1>  -0.0990 
  9 C       -3.7610    -5.4110    -0.5290 C.2   1 <1>   0.5690 
 10 O       -3.3910    -6.0270    -1.5000 O.2   1 <1>  -0.5700 
 11 N       -4.7740    -5.8810     0.2670 N.am  1 <1>  -0.6600 
 12 C       -5.4040    -7.2150     0.0010 C.3   1 <1>   0.1400 
 13 C       -5.3690    -5.1470     1.4210 C.3   1 <1>   0.1400 
 14 C       -6.7750    -7.0950    -0.6840 C.3   1 <1>   0.1400 
 15 C       -6.4970    -4.2040     0.9770 C.3   1 <1>  -0.1600 
 16 N       -7.7060    -6.1770     0.0550 N.am  1 <1>  -0.6600 
 17 C       -7.3940    -4.7360    -0.1470 C.3   1 <1>   0.1400 
 18 C       -8.7850    -6.5630     0.8190 C.2   1 <1>   0.5690 
 19 O       -9.5010    -5.7320     1.3340 O.2   1 <1>  -0.5700 
 20 C       -9.0970    -8.0390     1.0710 C.3   1 <1>   0.2370 
 21 N       -9.7850    -8.5820    -0.1200 N.pl3 1 <1>   0.3140 
 22 C       -9.9110    -8.2980     2.3630 C.3   1 <1>  -0.1600 
 23 N       -9.2840    -9.6280    -0.8130 N.2   1 <1>  -0.7070 
 24 C      -10.9420    -8.1510    -0.6670 C.2   1 <1>  -0.3020 
 25 C      -10.1130    -9.7920     2.6640 C.3   1 <1>  -0.2400 
 26 C      -10.1350    -9.8320    -1.7730 C.2   1 <1>   0.1390 
 27 C      -11.1960    -8.9360    -1.7340 C.2   1 <1>  -0.1500 
 28 H       -2.2710    -1.5980     0.9900 H     1 <1>   0.1500 
 29 H        1.6450    -0.5770    -2.7940 H     1 <1>   0.4000 
 30 H        1.5800     0.7030    -1.6040 H     1 <1>   0.4000 
 31 H       -1.2140    -4.4700    -1.1990 H     1 <1>   0.0800 
 32 H       -2.3750    -3.6310    -2.1810 H     1 <1>   0.0800 
 33 H       -3.8260    -3.3160    -0.2040 H     1 <1>   0.0800 
 34 H       -2.6590    -4.1630     0.7830 H     1 <1>   0.0800 
 35 H       -5.5140    -7.7500     0.9270 H     1 <1>   0.0800 
 36 H       -4.7590    -7.8070    -0.6270 H     1 <1>   0.0800 
 37 H       -4.6120    -4.5920     1.9470 H     1 <1>   0.0800 
 38 H       -5.7730    -5.8640     2.1160 H     1 <1>   0.0800 
 39 H       -7.1990    -8.0770    -0.7830 H     1 <1>   0.0800 
 40 H       -6.6290    -6.7240    -1.6840 H     1 <1>   0.0800 
 41 H       -6.0770    -3.2680     0.6600 H     1 <1>   0.0800 
 42 H       -7.1140    -3.9900     1.8320 H     1 <1>   0.0800 
 43 H       -6.8960    -4.6070    -1.0930 H     1 <1>   0.0800 
 44 H       -8.3070    -4.1640    -0.1840 H     1 <1>   0.0800 
 45 H       -8.1640    -8.5590     1.1690 H     1 <1>   0.0800 
 46 H      -10.8690    -7.8120     2.2880 H     1 <1>   0.0800 
 47 H       -9.3900    -7.8480     3.1900 H     1 <1>   0.0800 
 48 H      -11.5040    -7.3240    -0.2710 H     1 <1>   0.1500 
 49 H      -10.6850   -10.2650     1.8840 H     1 <1>   0.0800 
 50 H      -10.6450    -9.9110     3.5920 H     1 <1>   0.0800 
 51 H       -9.1650   -10.2940     2.7460 H     1 <1>   0.0800 
 52 H      -10.0220   -10.6090    -2.5110 H     1 <1>   0.1500 
 53 H      -12.0230    -8.9010    -2.4200 H     1 <1>   0.1500 
@<TRIPOS>BOND
  1   1   2  1   
  2   1   3  1   
  3   2   4  2   
  4   2   5  1   
  5   3   6  2   
  6   3  28  1   
  7   4   6  1   
  8   5  29  1   
  9   5  30  1   
 10   6   7  1   
 11   7   8  1   
 12   7  31  1   
 13   7  32  1   
 14   8   9  1   
 15   8  33  1   
 16   8  34  1   
 17   9  10  2   
 18   9  11  am  
 19  11  12  1   
 20  11  13  1   
 21  12  14  1   
 22  12  35  1   
 23  12  36  1   
 24  13  15  1   
 25  13  37  1   
 26  13  38  1   
 27  14  16  1   
 28  14  39  1   
 29  14  40  1   
 30  15  17  1   
 31  15  41  1   
 32  15  42  1   
 33  16  17  1   
 34  16  18  am  
 35  17  43  1   
 36  17  44  1   
 37  18  19  2   
 38  18  20  1   
 39  20  21  1   
 40  20  22  1   
 41  20  45  1   
 42  21  23  1   
 43  21  24  1   
 44  22  25  1   
 45  22  46  1   
 46  22  47  1   
 47  23  26  2   
 48  24  27  2   
 49  24  48  1   
 50  25  49  1   
 51  25  50  1   
 52  25  51  1   
 53  26  27  1   
 54  26  52  1   
 55  27  53  1   
@<TRIPOS>SUBSTRUCTURE
  1 ****  11 GROUP 4 **** **** 0

# MOE 2024.06 (io_trps.svl 2023.06)
