@<TRIPOS>MOLECULE
NONAME
43 45 1 0 0 
SMALL
USER_CHARGES


@<TRIPOS>ATOM
  1 CL      -1.9670     1.3830    -1.3310 Cl    1 <1>  -0.1770 
  2 C       -1.1180     2.2090    -0.0420 C.ar  1 <1>   0.1770 
  3 C       -1.8100     2.5500     1.1180 C.ar  1 <1>   0.0860 
  4 C        0.2280     2.5070    -0.2140 C.ar  1 <1>  -0.1440 
  5 C       -3.2130     2.2560     1.2910 C.2   1 <1>   0.5440 
  6 C       -1.0980     3.1990     2.1240 C.ar  1 <1>  -0.1500 
  7 C        0.9040     3.1600     0.8040 C.ar  1 <1>  -0.1500 
  8 C        0.9650     2.1270    -1.4910 C.3   1 <1>  -0.0960 
  9 O       -3.5300     1.3060     1.9820 O.2   1 <1>  -0.5700 
 10 N       -4.1980     3.0470     0.7360 N.am  1 <1>  -0.6600 
 11 C        0.2420     3.5030     1.9710 C.ar  1 <1>  -0.1500 
 12 C       -5.6510     2.7480     0.9210 C.3   1 <1>   0.1400 
 13 C       -3.9370     4.2490    -0.1020 C.3   1 <1>   0.1400 
 14 C       -6.3560     2.5330    -0.4410 C.3   1 <1>   0.0000 
 15 C       -4.6060     4.0830    -1.4720 C.3   1 <1>  -0.1600 
 16 C       -7.8650     2.2530    -0.2790 C.3   1 <1>   0.2000 
 17 C       -6.1050     3.7610    -1.3440 C.3   1 <1>  -0.1600 
 18 C       -5.8710     1.2250    -1.0910 C.3   1 <1>  -0.1600 
 19 O       -8.4480     2.9810     0.7440 O.3   1 <1>  -0.6800 
 20 C       -8.0140     0.7550    -0.0080 C.3   1 <1>  -0.1600 
 21 C       -6.6860     0.1120    -0.4290 C.3   1 <1>  -0.1600 
 22 H       -1.6090     3.4610     3.0350 H     1 <1>   0.1500 
 23 H        1.9480     3.4020     0.6990 H     1 <1>   0.1500 
 24 H        1.9950     2.4310    -1.4500 H     1 <1>   0.0800 
 25 H        0.5040     2.6010    -2.3390 H     1 <1>   0.0800 
 26 H        0.9320     1.0600    -1.6310 H     1 <1>   0.0800 
 27 H        0.7750     4.0050     2.7610 H     1 <1>   0.1500 
 28 H       -5.7830     1.8810     1.5440 H     1 <1>   0.0800 
 29 H       -6.0950     3.5850     1.4310 H     1 <1>   0.0800 
 30 H       -4.3440     5.1130     0.3960 H     1 <1>   0.0800 
 31 H       -2.8820     4.4100    -0.2350 H     1 <1>   0.0800 
 32 H       -4.4820     4.9900    -2.0360 H     1 <1>   0.0800 
 33 H       -4.1080     3.2970    -2.0110 H     1 <1>   0.0800 
 34 H       -8.3790     2.5030    -1.1930 H     1 <1>   0.0800 
 35 H       -6.5220     3.5960    -2.3220 H     1 <1>   0.0800 
 36 H       -6.6090     4.6120    -0.9170 H     1 <1>   0.0800 
 37 H       -6.0920     1.2380    -2.1440 H     1 <1>   0.0800 
 38 H       -4.8150     1.0620    -0.9680 H     1 <1>   0.0800 
 39 H       -8.1380     2.6440     1.6060 H     1 <1>   0.4000 
 40 H       -8.2000     0.5530     1.0320 H     1 <1>   0.0800 
 41 H       -8.8230     0.3600    -0.5970 H     1 <1>   0.0800 
 42 H       -6.1610    -0.2410     0.4440 H     1 <1>   0.0800 
 43 H       -6.8340    -0.7160    -1.1000 H     1 <1>   0.0800 
@<TRIPOS>BOND
  1   1   2  1   
  2   2   3  ar  
  3   2   4  ar  
  4   3   5  1   
  5   3   6  ar  
  6   4   7  ar  
  7   4   8  1   
  8   5   9  2   
  9   5  10  am  
 10   6  11  ar  
 11   6  22  1   
 12   7  11  ar  
 13   7  23  1   
 14   8  24  1   
 15   8  25  1   
 16   8  26  1   
 17  10  12  1   
 18  10  13  1   
 19  11  27  1   
 20  12  14  1   
 21  12  28  1   
 22  12  29  1   
 23  13  15  1   
 24  13  30  1   
 25  13  31  1   
 26  14  16  1   
 27  14  17  1   
 28  14  18  1   
 29  15  17  1   
 30  15  32  1   
 31  15  33  1   
 32  16  19  1   
 33  16  20  1   
 34  16  34  1   
 35  17  35  1   
 36  17  36  1   
 37  18  21  1   
 38  18  37  1   
 39  18  38  1   
 40  19  39  1   
 41  20  21  1   
 42  20  40  1   
 43  20  41  1   
 44  21  42  1   
 45  21  43  1   
@<TRIPOS>SUBSTRUCTURE
  1 ****  10 GROUP 4 **** **** 0

# MOE 2024.06 (io_trps.svl 2023.06)
