@<TRIPOS>MOLECULE
NONAME
47 49 1 0 0 
SMALL
USER_CHARGES


@<TRIPOS>ATOM
  1 O        7.3150     0.5180    -2.1440 O.2   1 <1>  -0.5700 
  2 C        7.4250     1.6560    -1.7010 C.2   1 <1>   0.6160 
  3 N        6.3690     2.2500    -1.0320 N.am  1 <1>  -0.4690 
  4 C        8.6280     2.4000    -1.8570 C.2   1 <1>  -0.1360 
  5 C        6.5060     3.5640    -0.5550 C.2   1 <1>  -0.0290 
  6 C        5.0840     1.4410    -0.7920 C.3   1 <1>   0.1400 
  7 C        8.7540     3.6680    -1.3790 C.2   1 <1>  -0.1500 
  8 C        7.6580     4.2650    -0.7120 C.2   1 <1>  -0.1500 
  9 C        5.2470     4.0630     0.1130 C.3   1 <1>   0.0580 
 10 C        4.1280     2.0010     0.3300 C.3   1 <1>  -0.0800 
 11 C        4.1120     5.0660     0.2710 C.3   1 <1>   0.1400 
 12 C        4.9420     2.9710     1.1580 C.3   1 <1>  -0.1600 
 13 C        2.8330     2.7630    -0.1430 C.3   1 <1>   0.1400 
 14 N        2.7940     4.2830     0.1580 N.am  1 <1>  -0.6600 
 15 C        1.6200     4.9810     0.3320 C.2   1 <1>   0.5690 
 16 O        1.6420     6.1610     0.6110 O.2   1 <1>  -0.5700 
 17 C        0.2470     4.2660     0.2030 C.3   1 <1>   0.2510 
 18 N       -0.1380     3.5590     1.4390 N.3   1 <1>  -0.9900 
 19 C       -0.8920     5.2240    -0.1960 C.3   1 <1>  -0.1600 
 20 C       -2.2600     4.5580    -0.4580 C.3   1 <1>  -0.0800 
 21 C       -2.2080     3.5690    -1.6300 C.3   1 <1>  -0.2400 
 22 C       -3.3110     5.6360    -0.7470 C.3   1 <1>  -0.2400 
 23 H        9.4260     1.9010    -2.3730 H     1 <1>   0.1500 
 24 H        4.5540     1.3530    -1.7230 H     1 <1>   0.0800 
 25 H        5.3810     0.4460    -0.5040 H     1 <1>   0.0800 
 26 H        9.6630     4.2330    -1.4940 H     1 <1>   0.1500 
 27 H        7.7630     5.2710    -0.3440 H     1 <1>   0.1500 
 28 H        4.8160     3.9030    -0.8620 H     1 <1>   0.0800 
 29 H        3.8170     1.1720     0.9410 H     1 <1>   0.0800 
 30 H        4.1530     5.8240    -0.4940 H     1 <1>   0.0800 
 31 H        4.1660     5.5500     1.2320 H     1 <1>   0.0800 
 32 H        5.8360     2.5080     1.5450 H     1 <1>   0.0800 
 33 H        4.3820     3.3340     2.0050 H     1 <1>   0.0800 
 34 H        1.9920     2.2910     0.3310 H     1 <1>   0.0800 
 35 H        2.7150     2.6280    -1.2050 H     1 <1>   0.0800 
 36 H        0.3480     3.5400    -0.5810 H     1 <1>   0.0800 
 37 H       -0.4700     4.2730     2.0980 H     1 <1>   0.3600 
 38 H        0.7100     3.1670     1.8590 H     1 <1>   0.3600 
 39 H       -1.0000     5.9620     0.5800 H     1 <1>   0.0800 
 40 H       -0.5900     5.7510    -1.0840 H     1 <1>   0.0800 
 41 H       -2.5660     4.0240     0.4270 H     1 <1>   0.0800 
 42 H       -1.8430     4.0510    -2.5190 H     1 <1>   0.0800 
 43 H       -3.1910     3.1810    -1.8300 H     1 <1>   0.0800 
 44 H       -1.5710     2.7360    -1.3950 H     1 <1>   0.0800 
 45 H       -3.0510     6.1930    -1.6300 H     1 <1>   0.0800 
 46 H       -3.3820     6.3200     0.0810 H     1 <1>   0.0800 
 47 H       -4.2760     5.1870    -0.8950 H     1 <1>   0.0800 
@<TRIPOS>BOND
  1   1   2  2   
  2   2   3  am  
  3   2   4  1   
  4   3   5  1   
  5   3   6  1   
  6   4   7  2   
  7   4  23  1   
  8   5   8  2   
  9   5   9  1   
 10   6  10  1   
 11   6  24  1   
 12   6  25  1   
 13   7   8  1   
 14   7  26  1   
 15   8  27  1   
 16   9  11  1   
 17   9  12  1   
 18   9  28  1   
 19  10  12  1   
 20  10  13  1   
 21  10  29  1   
 22  11  14  1   
 23  11  30  1   
 24  11  31  1   
 25  12  32  1   
 26  12  33  1   
 27  13  14  1   
 28  13  34  1   
 29  13  35  1   
 30  14  15  am  
 31  15  16  2   
 32  15  17  1   
 33  17  18  1   
 34  17  19  1   
 35  17  36  1   
 36  18  37  1   
 37  18  38  1   
 38  19  20  1   
 39  19  39  1   
 40  19  40  1   
 41  20  21  1   
 42  20  22  1   
 43  20  41  1   
 44  21  42  1   
 45  21  43  1   
 46  21  44  1   
 47  22  45  1   
 48  22  46  1   
 49  22  47  1   
@<TRIPOS>SUBSTRUCTURE
  1 ****  13 GROUP 4 **** **** 0

# MOE 2024.06 (io_trps.svl 2023.06)
