@<TRIPOS>MOLECULE
NONAME
48 49 1 0 0 
SMALL
USER_CHARGES


@<TRIPOS>ATOM
  1 CL      -2.6370    -1.2060     3.1910 Cl    1 <1>  -0.1770 
  2 C       -3.1530    -1.2870     1.5200 C.ar  1 <1>   0.1770 
  3 C       -3.5600    -0.1400     0.8510 C.ar  1 <1>   0.0820 
  4 C       -3.1370    -2.5200     0.8950 C.ar  1 <1>  -0.1500 
  5 O       -3.5260     1.0540     1.4970 O.3   1 <1>  -0.3630 
  6 C       -3.9840    -0.2540    -0.4790 C.ar  1 <1>   0.0830 
  7 C       -3.5350    -2.6300    -0.4280 C.ar  1 <1>  -0.1440 
  8 C       -2.3310     1.7860     1.3450 C.3   1 <1>   0.0400 
  9 O       -4.4340     0.7830    -1.2360 O.3   1 <1>  -0.3630 
 10 C       -3.9530    -1.4920    -1.1030 C.ar  1 <1>  -0.1500 
 11 C       -3.5160    -3.9830    -1.1250 C.3   1 <1>   0.2530 
 12 C       -5.3160     1.7280    -0.6680 C.3   1 <1>   0.0400 
 13 N       -4.3660    -4.9530    -0.4060 N.3   1 <1>  -0.8100 
 14 C       -4.2100    -6.3150    -0.9520 C.3   1 <1>   0.1100 
 15 C       -5.7870    -4.5400    -0.3760 C.3   1 <1>   0.1100 
 16 C       -5.0480    -7.3370    -0.1570 C.3   1 <1>   0.3430 
 17 C       -6.6460    -5.5400     0.4250 C.3   1 <1>   0.3430 
 18 N       -6.4980    -6.9400    -0.0980 N.4   1 <1>  -0.9590 
 19 C       -7.2820    -7.9120     0.6920 C.3   1 <1>   0.4810 
 20 C       -7.4650    -9.2000    -0.1050 C.2   1 <1>  -0.2760 
 21 C       -7.2120    -9.3990    -1.4070 C.2   1 <1>  -0.3000 
 22 C       -8.0170   -10.3280     0.7570 C.3   1 <1>  -0.1020 
 23 H       -2.8140    -3.3880     1.4430 H     1 <1>   0.1500 
 24 H       -2.4320     2.7110     1.8830 H     1 <1>   0.0800 
 25 H       -2.1720     1.9810     0.2980 H     1 <1>   0.0800 
 26 H       -1.5160     1.2110     1.7490 H     1 <1>   0.0800 
 27 H       -4.2670    -1.5490    -2.1300 H     1 <1>   0.1500 
 28 H       -2.5000    -4.3400    -1.1420 H     1 <1>   0.0800 
 29 H       -3.8510    -3.8820    -2.1440 H     1 <1>   0.0800 
 30 H       -5.8710     2.1900    -1.4640 H     1 <1>   0.0800 
 31 H       -4.7440     2.4730    -0.1460 H     1 <1>   0.0800 
 32 H       -5.9880     1.2260     0.0070 H     1 <1>   0.0800 
 33 H       -3.1730    -6.6030    -0.8940 H     1 <1>   0.0800 
 34 H       -4.5010    -6.3350    -1.9890 H     1 <1>   0.0800 
 35 H       -6.1690    -4.4520    -1.3790 H     1 <1>   0.0800 
 36 H       -5.8730    -3.5750     0.0950 H     1 <1>   0.0800 
 37 H       -4.6480    -7.3960     0.8410 H     1 <1>   0.0800 
 38 H       -4.9510    -8.3090    -0.6110 H     1 <1>   0.0800 
 39 H       -7.6780    -5.2350     0.3790 H     1 <1>   0.0800 
 40 H       -6.3310    -5.5010     1.4550 H     1 <1>   0.0800 
 41 H       -6.8770    -6.9760    -1.0490 H     1 <1>   0.4500 
 42 H       -8.2530    -7.5060     0.9260 H     1 <1>   0.0800 
 43 H       -6.7710    -8.1230     1.6180 H     1 <1>   0.0800 
 44 H       -7.3740   -10.3450    -1.9010 H     1 <1>   0.1500 
 45 H       -6.8350    -8.6780    -2.1100 H     1 <1>   0.1500 
 46 H       -8.9760   -10.0590     1.1650 H     1 <1>   0.0800 
 47 H       -7.3450   -10.5510     1.5670 H     1 <1>   0.0800 
 48 H       -8.1460   -11.2260     0.1770 H     1 <1>   0.0800 
@<TRIPOS>BOND
  1   1   2  1   
  2   2   3  ar  
  3   2   4  ar  
  4   3   5  1   
  5   3   6  ar  
  6   4   7  ar  
  7   4  23  1   
  8   5   8  1   
  9   6   9  1   
 10   6  10  ar  
 11   7  10  ar  
 12   7  11  1   
 13   8  24  1   
 14   8  25  1   
 15   8  26  1   
 16   9  12  1   
 17  10  27  1   
 18  11  13  1   
 19  11  28  1   
 20  11  29  1   
 21  12  30  1   
 22  12  31  1   
 23  12  32  1   
 24  13  14  1   
 25  13  15  1   
 26  14  16  1   
 27  14  33  1   
 28  14  34  1   
 29  15  17  1   
 30  15  35  1   
 31  15  36  1   
 32  16  18  1   
 33  16  37  1   
 34  16  38  1   
 35  17  18  1   
 36  17  39  1   
 37  17  40  1   
 38  18  19  1   
 39  18  41  1   
 40  19  20  1   
 41  19  42  1   
 42  19  43  1   
 43  20  21  2   
 44  20  22  1   
 45  21  44  1   
 46  21  45  1   
 47  22  46  1   
 48  22  47  1   
 49  22  48  1   
@<TRIPOS>SUBSTRUCTURE
  1 ****  15 GROUP 4 **** **** 0

# MOE 2024.06 (io_trps.svl 2023.06)
