@<TRIPOS>MOLECULE
NONAME
53 56 1 0 0 
SMALL
USER_CHARGES


@<TRIPOS>ATOM
  1 F       -2.2520    -0.1720    -1.1340 F     1 <1>  -0.1900 
  2 C       -2.9480     0.8930    -0.8440 C.ar  1 <1>   0.1900 
  3 C       -3.3110     1.1170     0.4700 C.ar  1 <1>  -0.1500 
  4 C       -3.2970     1.7610    -1.8600 C.ar  1 <1>  -0.1500 
  5 C       -4.0620     2.2400     0.7690 C.ar  1 <1>  -0.1500 
  6 C       -4.0500     2.8780    -1.5440 C.ar  1 <1>  -0.1500 
  7 C       -4.4660     3.1260    -0.2340 C.ar  1 <1>   0.0540 
  8 C       -5.3080     4.2660     0.0540 C.2   1 <1>   0.2350 
  9 N       -5.0130     5.4820    -0.3170 N.2   1 <1>  -0.7070 
 10 C       -6.5350     4.2430     0.7300 C.2   1 <1>  -0.1810 
 11 N       -6.0030     6.2580     0.1440 N.pl3 1 <1>   0.3000 
 12 C       -6.9430     5.5300     0.7780 C.2   1 <1>  -0.3020 
 13 C       -7.2360     3.0140     1.2820 C.3   1 <1>   0.5240 
 14 N       -8.0340     2.3370     0.2220 N.4   1 <1>  -0.9590 
 15 C       -7.1690     1.6450    -0.7830 C.3   1 <1>   0.3430 
 16 C       -9.0390     3.2310    -0.4200 C.3   1 <1>   0.3430 
 17 C       -7.9440     0.5930    -1.6050 C.3   1 <1>   0.1400 
 18 C      -10.3810     2.5110    -0.6030 C.3   1 <1>  -0.1600 
 19 N       -9.3230     0.3230    -1.0790 N.am  1 <1>  -0.6600 
 20 C      -10.3600     1.2870    -1.5320 C.3   1 <1>   0.1400 
 21 C       -9.5000    -0.4750     0.0250 C.2   1 <1>   0.5690 
 22 O       -8.6870    -0.4050     0.9210 O.2   1 <1>  -0.5700 
 23 C      -10.7150    -1.4180     0.1980 C.3   1 <1>   0.2810 
 24 N      -11.4910    -1.6780    -1.0340 N.am  1 <1>  -0.7300 
 25 C      -11.7840    -0.8690     1.1660 C.3   1 <1>  -0.1600 
 26 C      -12.8080    -1.4930    -0.9030 C.2   1 <1>   0.5690 
 27 C      -13.1550    -1.1490     0.5170 C.3   1 <1>  -0.0990 
 28 O      -13.5980    -1.5490    -1.8060 O.2   1 <1>  -0.5700 
 29 H       -2.9990     0.4280     1.2360 H     1 <1>   0.1500 
 30 H       -2.9760     1.5670    -2.8680 H     1 <1>   0.1500 
 31 H       -4.3230     2.4400     1.7930 H     1 <1>   0.1500 
 32 H       -4.3180     3.5800    -2.3170 H     1 <1>   0.1500 
 33 H       -6.0050     7.2800     0.0110 H     1 <1>   0.2700 
 34 H       -7.8200     5.9770     1.2130 H     1 <1>   0.1500 
 35 H       -7.8910     3.3190     2.0810 H     1 <1>   0.0800 
 36 H       -6.5130     2.3280     1.6920 H     1 <1>   0.0800 
 37 H       -8.5410     1.5490     0.6690 H     1 <1>   0.4500 
 38 H       -6.3700     1.1340    -0.2710 H     1 <1>   0.0800 
 39 H       -6.7180     2.3630    -1.4480 H     1 <1>   0.0800 
 40 H       -8.6690     3.5790    -1.3700 H     1 <1>   0.0800 
 41 H       -9.2010     4.0950     0.2050 H     1 <1>   0.0800 
 42 H       -7.3800    -0.3250    -1.5980 H     1 <1>   0.0800 
 43 H       -8.0030     0.9130    -2.6300 H     1 <1>   0.0800 
 44 H      -11.0800     3.2170    -1.0140 H     1 <1>   0.0800 
 45 H      -10.7670     2.2280     0.3600 H     1 <1>   0.0800 
 46 H      -10.1560     1.5920    -2.5450 H     1 <1>   0.0800 
 47 H      -11.3310     0.8230    -1.5300 H     1 <1>   0.0800 
 48 H      -10.3540    -2.3620     0.5680 H     1 <1>   0.0800 
 49 H      -11.0570    -1.9380    -1.9220 H     1 <1>   0.3700 
 50 H      -11.6570     0.1910     1.2920 H     1 <1>   0.0800 
 51 H      -11.7000    -1.3340     2.1330 H     1 <1>   0.0800 
 52 H      -13.8050    -0.2940     0.5530 H     1 <1>   0.0800 
 53 H      -13.6370    -1.9960     0.9710 H     1 <1>   0.0800 
@<TRIPOS>BOND
  1   1   2  1   
  2   2   3  ar  
  3   2   4  ar  
  4   3   5  ar  
  5   3  29  1   
  6   4   6  ar  
  7   4  30  1   
  8   5   7  ar  
  9   5  31  1   
 10   6   7  ar  
 11   6  32  1   
 12   7   8  1   
 13   8   9  2   
 14   8  10  1   
 15   9  11  1   
 16  10  12  2   
 17  10  13  1   
 18  11  12  1   
 19  11  33  1   
 20  12  34  1   
 21  13  14  1   
 22  13  35  1   
 23  13  36  1   
 24  14  15  1   
 25  14  16  1   
 26  14  37  1   
 27  15  17  1   
 28  15  38  1   
 29  15  39  1   
 30  16  18  1   
 31  16  40  1   
 32  16  41  1   
 33  17  19  1   
 34  17  42  1   
 35  17  43  1   
 36  18  20  1   
 37  18  44  1   
 38  18  45  1   
 39  19  20  1   
 40  19  21  am  
 41  20  46  1   
 42  20  47  1   
 43  21  22  2   
 44  21  23  1   
 45  23  24  1   
 46  23  25  1   
 47  23  48  1   
 48  24  26  am  
 49  24  49  1   
 50  25  27  1   
 51  25  50  1   
 52  25  51  1   
 53  26  27  1   
 54  26  28  2   
 55  27  52  1   
 56  27  53  1   
@<TRIPOS>SUBSTRUCTURE
  1 ****  15 GROUP 4 **** **** 0

# MOE 2024.06 (io_trps.svl 2023.06)
