@<TRIPOS>MOLECULE
NONAME
45 47 1 0 0 
SMALL
USER_CHARGES


@<TRIPOS>ATOM
  1 O        1.3960    -0.6620     1.3010 O.3   1 <1>  -0.6800 
  2 C        1.7460     0.3500     0.4220 C.3   1 <1>   0.2000 
  3 C        2.8880    -0.1120    -0.5270 C.3   1 <1>   0.0000 
  4 C        2.0220     1.6240     1.2270 C.3   1 <1>  -0.1600 
  5 C        3.3600     1.1090    -1.3580 C.3   1 <1>   0.2090 
  6 C        2.2440    -1.1200    -1.5150 C.3   1 <1>   0.1200 
  7 C        4.0850    -0.8500     0.1610 C.3   1 <1>  -0.1600 
  8 C        2.4310     2.7740     0.3120 C.3   1 <1>   0.2090 
  9 N        3.5490     2.3700    -0.5780 N.pl3 1 <1>  -0.8380 
 10 O        3.1410    -1.5660    -2.4830 O.3   1 <1>  -0.6800 
 11 C        4.7080    -0.2440     1.4280 C.3   1 <1>  -0.1600 
 12 C        4.7390     3.0720    -0.6410 C.ar  1 <1>   0.4100 
 13 C        6.0060    -0.9640     1.8040 C.3   1 <1>  -0.2400 
 14 N        5.8290     2.3620    -0.5970 N.ar  1 <1>  -0.6200 
 15 C        4.7880     4.4910    -0.7360 C.ar  1 <1>   0.0000 
 16 C        6.9820     3.0260    -0.5000 C.ar  1 <1>   0.4700 
 17 C        6.0550     5.0690    -0.5970 C.ar  1 <1>   0.3100 
 18 C        3.6960     5.3500    -0.9890 C.ar  1 <1>  -0.1500 
 19 N        7.1600     4.3070    -0.4710 N.ar  1 <1>  -0.6200 
 20 C        6.1870     6.4650    -0.6180 C.ar  1 <1>  -0.1500 
 21 C        3.8460     6.7120    -1.0210 C.ar  1 <1>  -0.1500 
 22 C        5.1040     7.2800    -0.8210 C.ar  1 <1>  -0.1500 
 23 H        0.7630    -0.3350     1.9670 H     1 <1>   0.4000 
 24 H        0.8730     0.5460    -0.1780 H     1 <1>   0.0800 
 25 H        1.1310     1.9160     1.7530 H     1 <1>   0.0800 
 26 H        2.7940     1.4780     1.9540 H     1 <1>   0.0800 
 27 H        2.6240     1.3190    -2.1140 H     1 <1>   0.0800 
 28 H        4.2720     0.8600    -1.8730 H     1 <1>   0.0800 
 29 H        1.4070    -0.6770    -2.0260 H     1 <1>   0.0800 
 30 H        1.8900    -1.9870    -0.9820 H     1 <1>   0.0800 
 31 H        3.7630    -1.8440     0.4220 H     1 <1>   0.0800 
 32 H        4.8680    -0.9670    -0.5680 H     1 <1>   0.0800 
 33 H        2.7280     3.6140     0.9170 H     1 <1>   0.0800 
 34 H        1.5920     3.0690    -0.2940 H     1 <1>   0.0800 
 35 H        3.5590    -0.8230    -2.9560 H     1 <1>   0.4000 
 36 H        4.9210     0.7980     1.2800 H     1 <1>   0.0800 
 37 H        4.0180    -0.3410     2.2470 H     1 <1>   0.0800 
 38 H        6.7320    -0.8560     1.0170 H     1 <1>   0.0800 
 39 H        5.8200    -2.0110     1.9670 H     1 <1>   0.0800 
 40 H        6.4120    -0.5410     2.7050 H     1 <1>   0.0800 
 41 H        7.8600     2.4060    -0.4300 H     1 <1>   0.1500 
 42 H        2.7290     4.9220    -1.1720 H     1 <1>   0.1500 
 43 H        7.1700     6.8770    -0.4780 H     1 <1>   0.1500 
 44 H        3.0020     7.3560    -1.2040 H     1 <1>   0.1500 
 45 H        5.2140     8.3510    -0.8390 H     1 <1>   0.1500 
@<TRIPOS>BOND
  1   1   2  1   
  2   1  23  1   
  3   2   3  1   
  4   2   4  1   
  5   2  24  1   
  6   3   5  1   
  7   3   6  1   
  8   3   7  1   
  9   4   8  1   
 10   4  25  1   
 11   4  26  1   
 12   5   9  1   
 13   5  27  1   
 14   5  28  1   
 15   6  10  1   
 16   6  29  1   
 17   6  30  1   
 18   7  11  1   
 19   7  31  1   
 20   7  32  1   
 21   8   9  1   
 22   8  33  1   
 23   8  34  1   
 24   9  12  1   
 25  10  35  1   
 26  11  13  1   
 27  11  36  1   
 28  11  37  1   
 29  12  14  ar  
 30  12  15  ar  
 31  13  38  1   
 32  13  39  1   
 33  13  40  1   
 34  14  16  ar  
 35  15  17  ar  
 36  15  18  ar  
 37  16  19  ar  
 38  16  41  1   
 39  17  19  ar  
 40  17  20  ar  
 41  18  21  ar  
 42  18  42  1   
 43  20  22  ar  
 44  20  43  1   
 45  21  22  ar  
 46  21  44  1   
 47  22  45  1   
@<TRIPOS>SUBSTRUCTURE
  1 ****   9 GROUP 4 **** **** 0

# MOE 2024.06 (io_trps.svl 2023.06)
