@<TRIPOS>MOLECULE
NONAME
52 54 1 0 0 
SMALL
USER_CHARGES


@<TRIPOS>ATOM
  1 O       -4.0410     1.9630    -1.9650 O.2   1 <1>  -0.5700 
  2 C       -2.8750     1.9560    -1.6140 C.2   1 <1>   0.5440 
  3 N       -2.2090     0.7700    -1.6900 N.am  1 <1>  -0.7300 
  4 C       -2.2230     3.1730    -1.1460 C.ar  1 <1>   0.0860 
  5 C       -2.7890    -0.5350    -2.0630 C.3   1 <1>   0.2200 
  6 C       -1.0500     3.1910    -0.3650 C.ar  1 <1>   0.0820 
  7 C       -2.7800     4.4090    -1.4880 C.ar  1 <1>  -0.1500 
  8 C       -3.3020    -1.2280    -0.8130 C.3   1 <1>  -0.0800 
  9 C       -1.6760    -1.4780    -2.5130 C.3   1 <1>   0.1200 
 10 O       -0.4910     2.0100     0.0060 O.3   1 <1>  -0.3630 
 11 C       -0.4810     4.4030     0.0240 C.ar  1 <1>  -0.1500 
 12 C       -2.2130     5.6060    -1.0970 C.ar  1 <1>  -0.1500 
 13 C       -2.0240    -1.8660    -0.2660 C.3   1 <1>   0.1200 
 14 C       -4.3830    -2.2710    -1.1490 C.3   1 <1>  -0.0170 
 15 O       -1.1880    -2.1050    -1.3610 O.3   1 <1>  -0.5600 
 16 C        0.7540     1.9030     0.6600 C.3   1 <1>   0.1200 
 17 C       -1.0580     5.6030    -0.3400 C.ar  1 <1>  -0.1500 
 18 C       -4.9080    -2.9560     0.1030 C.ar  1 <1>  -0.1430 
 19 C        1.0610     0.4160     0.8400 C.3   1 <1>  -0.1600 
 20 C       -5.7680    -2.3160     0.9720 C.ar  1 <1>  -0.1500 
 21 C       -4.5540    -4.2480     0.4370 C.ar  1 <1>  -0.1500 
 22 C        2.4300     0.2050     1.4990 C.3   1 <1>  -0.1600 
 23 C       -6.2190    -2.9790     2.1010 C.ar  1 <1>   0.1600 
 24 C       -5.0620    -4.8200     1.5920 C.ar  1 <1>   0.1600 
 25 C        2.7240    -1.2870     1.6790 C.3   1 <1>  -0.2400 
 26 N       -5.8860    -4.2160     2.4330 N.ar  1 <1>  -0.6200 
 27 H       -1.2920     0.7270    -1.2300 H     1 <1>   0.3700 
 28 H       -3.5450    -0.3990    -2.8190 H     1 <1>   0.0800 
 29 H       -3.6800     4.4290    -2.0800 H     1 <1>   0.1500 
 30 H       -3.7100    -0.5180    -0.1150 H     1 <1>   0.0800 
 31 H       -0.8740    -0.9620    -3.0110 H     1 <1>   0.0800 
 32 H       -2.0680    -2.2450    -3.1570 H     1 <1>   0.0800 
 33 H        0.4120     4.4370     0.6170 H     1 <1>   0.1500 
 34 H       -2.6690     6.5390    -1.3820 H     1 <1>   0.1500 
 35 H       -2.1970    -2.7910     0.2560 H     1 <1>   0.0800 
 36 H       -1.5140    -1.1790     0.3860 H     1 <1>   0.0800 
 37 H       -3.9910    -3.0100    -1.8270 H     1 <1>   0.0800 
 38 H       -5.2050    -1.7820    -1.6430 H     1 <1>   0.0800 
 39 H        1.5010     2.3770     0.0470 H     1 <1>   0.0800 
 40 H        0.6830     2.3950     1.6140 H     1 <1>   0.0800 
 41 H       -0.6130     6.5350    -0.0340 H     1 <1>   0.1500 
 42 H        0.2990    -0.0250     1.4580 H     1 <1>   0.0800 
 43 H        1.0500    -0.0680    -0.1210 H     1 <1>   0.0800 
 44 H       -6.0910    -1.3090     0.7800 H     1 <1>   0.1500 
 45 H       -3.8890    -4.8150    -0.1880 H     1 <1>   0.1500 
 46 H        3.1990     0.6450     0.8870 H     1 <1>   0.0800 
 47 H        2.4490     0.6870     2.4610 H     1 <1>   0.0800 
 48 H       -6.8900    -2.4630     2.7670 H     1 <1>   0.1500 
 49 H       -4.7740    -5.8280     1.8370 H     1 <1>   0.1500 
 50 H        2.7260    -1.7880     0.7260 H     1 <1>   0.0800 
 51 H        1.9790    -1.7450     2.3070 H     1 <1>   0.0800 
 52 H        3.6870    -1.4210     2.1370 H     1 <1>   0.0800 
@<TRIPOS>BOND
  1   1   2  2   
  2   2   3  am  
  3   2   4  1   
  4   3   5  1   
  5   3  27  1   
  6   4   6  ar  
  7   4   7  ar  
  8   5   8  1   
  9   5   9  1   
 10   5  28  1   
 11   6  10  1   
 12   6  11  ar  
 13   7  12  ar  
 14   7  29  1   
 15   8  13  1   
 16   8  14  1   
 17   8  30  1   
 18   9  15  1   
 19   9  31  1   
 20   9  32  1   
 21  10  16  1   
 22  11  17  ar  
 23  11  33  1   
 24  12  17  ar  
 25  12  34  1   
 26  13  15  1   
 27  13  35  1   
 28  13  36  1   
 29  14  18  1   
 30  14  37  1   
 31  14  38  1   
 32  16  19  1   
 33  16  39  1   
 34  16  40  1   
 35  17  41  1   
 36  18  20  ar  
 37  18  21  ar  
 38  19  22  1   
 39  19  42  1   
 40  19  43  1   
 41  20  23  ar  
 42  20  44  1   
 43  21  24  ar  
 44  21  45  1   
 45  22  25  1   
 46  22  46  1   
 47  22  47  1   
 48  23  26  ar  
 49  23  48  1   
 50  24  26  ar  
 51  24  49  1   
 52  25  50  1   
 53  25  51  1   
 54  25  52  1   
@<TRIPOS>SUBSTRUCTURE
  1 ****   3 GROUP 4 **** **** 0

# MOE 2024.06 (io_trps.svl 2023.06)
