@<TRIPOS>MOLECULE
NONAME
50 53 1 0 0 
SMALL
USER_CHARGES


@<TRIPOS>ATOM
  1 O        4.5230    -2.6730     0.7870 O.2   1 <1>  -0.5700 
  2 C        3.3290    -2.4520     0.7030 C.2   1 <1>   0.7160 
  3 N        2.9270    -1.1480     0.8640 N.am  1 <1>  -0.6600 
  4 C        2.3990    -3.4950     0.3540 C.2   1 <1>  -0.0860 
  5 C        3.6910    -0.2650     1.8200 C.3   1 <1>   0.2200 
  6 C        2.0560    -0.5190    -0.1700 C.3   1 <1>   0.1400 
  7 C        2.7420    -4.7720    -0.0930 C.2   1 <1>   0.1390 
  8 C        1.0370    -3.5260     0.3550 C.2   1 <1>  -0.3020 
  9 C        2.8440     0.8890     2.3810 C.3   1 <1>   0.1200 
 10 C        4.9880     0.2810     1.1720 C.3   1 <1>   0.3430 
 11 C        2.5000     0.8960    -0.5880 C.3   1 <1>  -0.0800 
 12 N        1.7100    -5.5090    -0.3590 N.2   1 <1>  -0.7070 
 13 N        0.6450    -4.7360    -0.0810 N.pl3 1 <1>   0.3140 
 14 O        2.8980     1.9950     1.5300 O.3   1 <1>  -0.5600 
 15 N        4.9720     0.1630    -0.3270 N.4   1 <1>  -0.9590 
 16 C        2.0520     1.9580     0.4310 C.3   1 <1>   0.1200 
 17 C        3.9810     1.0660    -1.0040 C.3   1 <1>   0.3430 
 18 C       -0.7390    -5.2350    -0.2520 C.3   1 <1>   0.2390 
 19 C        6.3430     0.3210    -0.8880 C.3   1 <1>   0.2630 
 20 C       -1.7110    -4.0970    -0.5430 C.ar  1 <1>  -0.1430 
 21 C       -1.7630    -3.5350    -1.8100 C.ar  1 <1>  -0.1500 
 22 C       -2.5430    -3.6080     0.4540 C.ar  1 <1>  -0.1500 
 23 C       -2.6370    -2.4950    -2.0780 C.ar  1 <1>  -0.1500 
 24 C       -3.4160    -2.5680     0.1860 C.ar  1 <1>  -0.1500 
 25 C       -3.4640    -2.0120    -1.0790 C.ar  1 <1>  -0.1500 
 26 H        3.9760    -0.8700     2.6640 H     1 <1>   0.0800 
 27 H        2.0450    -1.1470    -1.0460 H     1 <1>   0.0800 
 28 H        1.0460    -0.4830     0.2040 H     1 <1>   0.0800 
 29 H        3.7580    -5.1130    -0.2070 H     1 <1>   0.1500 
 30 H        0.3400    -2.7600     0.6400 H     1 <1>   0.1500 
 31 H        3.2620     1.2080     3.3200 H     1 <1>   0.0800 
 32 H        1.8220     0.5950     2.5510 H     1 <1>   0.0800 
 33 H        5.8100    -0.2980     1.5590 H     1 <1>   0.0800 
 34 H        5.1420     1.3050     1.4680 H     1 <1>   0.0800 
 35 H        1.9250     1.1240    -1.4680 H     1 <1>   0.0800 
 36 H        4.6660    -0.8160    -0.4770 H     1 <1>   0.4500 
 37 H        1.0430     1.7890     0.7700 H     1 <1>   0.0800 
 38 H        2.0890     2.9350    -0.0210 H     1 <1>   0.0800 
 39 H        4.2660     2.0920    -0.8370 H     1 <1>   0.0800 
 40 H        4.0420     0.8880    -2.0660 H     1 <1>   0.0800 
 41 H       -0.7440    -5.9370    -1.0660 H     1 <1>   0.0800 
 42 H       -1.0210    -5.7550     0.6430 H     1 <1>   0.0800 
 43 H        6.7110     1.3170    -0.7030 H     1 <1>   0.0800 
 44 H        6.3350     0.1470    -1.9520 H     1 <1>   0.0800 
 45 H        7.0150    -0.3880    -0.4320 H     1 <1>   0.0800 
 46 H       -1.1250    -3.9040    -2.5950 H     1 <1>   0.1500 
 47 H       -2.5180    -4.0310     1.4430 H     1 <1>   0.1500 
 48 H       -2.6760    -2.0640    -3.0630 H     1 <1>   0.1500 
 49 H       -4.0620    -2.1940     0.9620 H     1 <1>   0.1500 
 50 H       -4.1470    -1.2060    -1.2880 H     1 <1>   0.1500 
@<TRIPOS>BOND
  1   1   2  2   
  2   2   3  am  
  3   2   4  1   
  4   3   5  1   
  5   3   6  1   
  6   4   7  1   
  7   4   8  2   
  8   5   9  1   
  9   5  10  1   
 10   5  26  1   
 11   6  11  1   
 12   6  27  1   
 13   6  28  1   
 14   7  12  2   
 15   7  29  1   
 16   8  13  1   
 17   8  30  1   
 18   9  14  1   
 19   9  31  1   
 20   9  32  1   
 21  10  15  1   
 22  10  33  1   
 23  10  34  1   
 24  11  16  1   
 25  11  17  1   
 26  11  35  1   
 27  12  13  1   
 28  13  18  1   
 29  14  16  1   
 30  15  17  1   
 31  15  19  1   
 32  15  36  1   
 33  16  37  1   
 34  16  38  1   
 35  17  39  1   
 36  17  40  1   
 37  18  20  1   
 38  18  41  1   
 39  18  42  1   
 40  19  43  1   
 41  19  44  1   
 42  19  45  1   
 43  20  21  ar  
 44  20  22  ar  
 45  21  23  ar  
 46  21  46  1   
 47  22  24  ar  
 48  22  47  1   
 49  23  25  ar  
 50  23  48  1   
 51  24  25  ar  
 52  24  49  1   
 53  25  50  1   
@<TRIPOS>SUBSTRUCTURE
  1 ****   6 GROUP 4 **** **** 0

# MOE 2024.06 (io_trps.svl 2023.06)
