@<TRIPOS>MOLECULE
NONAME
58 60 1 0 0 
SMALL
USER_CHARGES


@<TRIPOS>ATOM
  1 O       -0.6460     0.4690     0.8840 O.2   1 <1>  -0.5700 
  2 C       -1.5830     0.9500     0.2910 C.2   1 <1>   0.5690 
  3 N       -2.6010     0.1670    -0.1740 N.am  1 <1>  -0.6600 
  4 C       -1.6300     2.4520     0.0610 C.3   1 <1>  -0.0990 
  5 C       -3.8640     0.6250    -0.8080 C.3   1 <1>   0.1400 
  6 C       -2.5980    -1.3110    -0.0410 C.3   1 <1>   0.1400 
  7 C       -0.3120     3.1760     0.4080 C.3   1 <1>  -0.0990 
  8 C       -4.8290    -0.5410    -0.6000 C.3   1 <1>   0.2000 
  9 C       -3.9210    -1.7740    -0.6650 C.3   1 <1>  -0.0800 
 10 C       -0.3300     4.6700     0.1120 C.2   1 <1>   0.5690 
 11 O       -5.3680    -0.4320     0.6740 O.3   1 <1>  -0.6800 
 12 C       -4.4930    -3.0530    -0.0270 C.3   1 <1>   0.0200 
 13 O       -1.3900     5.1770    -0.1760 O.2   1 <1>  -0.5700 
 14 N        0.8350     5.3980     0.1730 N.am  1 <1>  -0.6600 
 15 C       -3.5240    -4.2090    -0.1750 C.2   1 <1>  -0.0400 
 16 C        0.8350     6.8430    -0.2170 C.3   1 <1>   0.2200 
 17 C        2.1390     4.8120     0.6170 C.3   1 <1>   0.0600 
 18 O       -3.2050    -4.6490    -1.3630 O.3   1 <1>  -0.0190 
 19 C       -2.8560    -4.9420     0.7290 C.2   1 <1>  -0.1500 
 20 C        1.9410     7.1600    -1.2360 C.3   1 <1>  -0.1600 
 21 C        0.9420     7.7380     1.0260 C.3   1 <1>  -0.1600 
 22 N       -2.3570    -5.6340    -1.3030 N.2   1 <1>  -0.4100 
 23 C       -2.1290    -5.8330    -0.0550 C.2   1 <1>   0.1080 
 24 C        1.9140     8.6450    -1.6270 C.3   1 <1>  -0.1600 
 25 C        0.9240     9.2240     0.6370 C.3   1 <1>  -0.1600 
 26 C       -1.1930    -6.8940     0.4800 C.3   1 <1>  -0.0590 
 27 C        2.0220     9.5450    -0.3870 C.3   1 <1>  -0.1600 
 28 H       -1.8590     2.6330    -0.9730 H     1 <1>   0.0800 
 29 H       -2.4230     2.8620     0.6580 H     1 <1>   0.0800 
 30 H       -4.2380     1.5330    -0.3680 H     1 <1>   0.0800 
 31 H       -3.6920     0.7750    -1.8600 H     1 <1>   0.0800 
 32 H       -1.7510    -1.7390    -0.5500 H     1 <1>   0.0800 
 33 H       -2.5490    -1.5690     1.0040 H     1 <1>   0.0800 
 34 H        0.4840     2.7240    -0.1560 H     1 <1>   0.0800 
 35 H       -0.1060     3.0400     1.4540 H     1 <1>   0.0800 
 36 H       -5.6340    -0.5610    -1.3140 H     1 <1>   0.0800 
 37 H       -3.7260    -1.9760    -1.7040 H     1 <1>   0.0800 
 38 H       -4.6420    -0.2430     1.3040 H     1 <1>   0.4000 
 39 H       -5.4220    -3.3100    -0.5030 H     1 <1>   0.0800 
 40 H       -4.6890    -2.8960     1.0190 H     1 <1>   0.0800 
 41 H       -0.1020     7.0750    -0.6950 H     1 <1>   0.0800 
 42 H        2.7450     5.5580     1.0970 H     1 <1>   0.0800 
 43 H        2.6710     4.4290    -0.2370 H     1 <1>   0.0800 
 44 H        1.9830     4.0140     1.3210 H     1 <1>   0.0800 
 45 H       -2.8550    -4.8840     1.8010 H     1 <1>   0.1500 
 46 H        2.9070     6.9380    -0.8220 H     1 <1>   0.0800 
 47 H        1.7950     6.5580    -2.1150 H     1 <1>   0.0800 
 48 H        0.1110     7.5320     1.6780 H     1 <1>   0.0800 
 49 H        1.8520     7.5300     1.5560 H     1 <1>   0.0800 
 50 H        2.7280     8.8570    -2.2990 H     1 <1>   0.0800 
 51 H        0.9950     8.8610    -2.1440 H     1 <1>   0.0800 
 52 H       -0.0360     9.4690     0.2160 H     1 <1>   0.0800 
 53 H        1.0620     9.8290     1.5170 H     1 <1>   0.0800 
 54 H       -1.7290    -7.5600     1.1310 H     1 <1>   0.0800 
 55 H       -0.3920    -6.4310     1.0250 H     1 <1>   0.0800 
 56 H       -0.7790    -7.4610    -0.3340 H     1 <1>   0.0800 
 57 H        1.9450    10.5770    -0.6840 H     1 <1>   0.0800 
 58 H        2.9870     9.4070     0.0700 H     1 <1>   0.0800 
@<TRIPOS>BOND
  1   1   2  2   
  2   2   3  am  
  3   2   4  1   
  4   3   5  1   
  5   3   6  1   
  6   4   7  1   
  7   4  28  1   
  8   4  29  1   
  9   5   8  1   
 10   5  30  1   
 11   5  31  1   
 12   6   9  1   
 13   6  32  1   
 14   6  33  1   
 15   7  10  1   
 16   7  34  1   
 17   7  35  1   
 18   8   9  1   
 19   8  11  1   
 20   8  36  1   
 21   9  12  1   
 22   9  37  1   
 23  10  13  2   
 24  10  14  am  
 25  11  38  1   
 26  12  15  1   
 27  12  39  1   
 28  12  40  1   
 29  14  16  1   
 30  14  17  1   
 31  15  18  1   
 32  15  19  2   
 33  16  20  1   
 34  16  21  1   
 35  16  41  1   
 36  17  42  1   
 37  17  43  1   
 38  17  44  1   
 39  18  22  1   
 40  19  23  1   
 41  19  45  1   
 42  20  24  1   
 43  20  46  1   
 44  20  47  1   
 45  21  25  1   
 46  21  48  1   
 47  21  49  1   
 48  22  23  2   
 49  23  26  1   
 50  24  27  1   
 51  24  50  1   
 52  24  51  1   
 53  25  27  1   
 54  25  52  1   
 55  25  53  1   
 56  26  54  1   
 57  26  55  1   
 58  26  56  1   
 59  27  57  1   
 60  27  58  1   
@<TRIPOS>SUBSTRUCTURE
  1 ****   2 GROUP 4 **** **** 0

# MOE 2024.06 (io_trps.svl 2023.06)
