@<TRIPOS>MOLECULE
NONAME
47 48 1 0 0 
SMALL
USER_CHARGES


@<TRIPOS>ATOM
  1 S       -1.0140    -0.7720    -1.8100 S.3   1 <1>  -0.0800 
  2 C       -2.0980     0.1070    -0.7670 C.2   1 <1>  -0.1400 
  3 C        0.3360    -0.1190    -0.9120 C.2   1 <1>   0.1980 
  4 C       -1.3700     0.7870     0.1350 C.2   1 <1>   0.0460 
  5 C       -3.5810    -0.0250    -1.0300 C.3   1 <1>   0.3200 
  6 N        0.0080     0.6540     0.0420 N.2   1 <1>  -0.5650 
  7 C        1.7230    -0.5270    -1.3470 C.3   1 <1>  -0.0600 
  8 C       -1.9030     1.6740     1.2480 C.3   1 <1>   0.0210 
  9 N       -4.0070    -1.3760    -0.6290 N.am  1 <1>  -0.7300 
 10 C       -1.6380     3.1540     0.9580 C.3   1 <1>  -0.2400 
 11 C       -5.1470    -1.6570     0.0400 C.2   1 <1>   0.5690 
 12 O       -5.9610    -0.8080     0.3090 O.2   1 <1>  -0.5700 
 13 C       -5.4130    -3.0850     0.4420 C.3   1 <1>  -0.0990 
 14 C       -6.1890    -3.7910    -0.6650 C.3   1 <1>   0.1400 
 15 N       -6.2910    -5.2350    -0.3550 N.am  1 <1>  -0.7300 
 16 C       -5.3250    -6.1590    -0.6490 C.2   1 <1>   0.5440 
 17 O       -4.2940    -5.7670    -1.1610 O.2   1 <1>  -0.5700 
 18 C       -5.5310    -7.5690    -0.3630 C.ar  1 <1>   0.0860 
 19 C       -4.9030    -8.5520    -1.1270 C.ar  1 <1>  -0.1500 
 20 C       -6.3560    -8.0020     0.6770 C.ar  1 <1>  -0.1500 
 21 C       -5.0970    -9.8990    -0.8780 C.ar  1 <1>  -0.1500 
 22 C       -6.5550    -9.3480     0.9300 C.ar  1 <1>  -0.1500 
 23 C       -5.9290   -10.3050     0.1510 C.ar  1 <1>  -0.1430 
 24 C       -6.1430   -11.7830     0.4260 C.3   1 <1>  -0.0970 
 25 H       -3.7840     0.1220    -2.0770 H     1 <1>   0.0800 
 26 H       -4.1280     0.7140    -0.4700 H     1 <1>   0.0800 
 27 H        1.8890    -0.2250    -2.3640 H     1 <1>   0.0800 
 28 H        1.8300    -1.5930    -1.2690 H     1 <1>   0.0800 
 29 H        2.4530    -0.0540    -0.7160 H     1 <1>   0.0800 
 30 H       -1.4250     1.3940     2.1710 H     1 <1>   0.0800 
 31 H       -2.9600     1.5170     1.3670 H     1 <1>   0.0800 
 32 H       -3.3280    -2.1140    -0.8290 H     1 <1>   0.3700 
 33 H       -0.5800     3.3270     0.8700 H     1 <1>   0.0800 
 34 H       -2.0240     3.7640     1.7550 H     1 <1>   0.0800 
 35 H       -2.1120     3.4420     0.0360 H     1 <1>   0.0800 
 36 H       -5.9810    -3.0930     1.3530 H     1 <1>   0.0800 
 37 H       -4.4760    -3.5830     0.6100 H     1 <1>   0.0800 
 38 H       -5.6750    -3.6670    -1.6040 H     1 <1>   0.0800 
 39 H       -7.1740    -3.3650    -0.7590 H     1 <1>   0.0800 
 40 H       -7.1950    -5.5560    -0.0040 H     1 <1>   0.3700 
 41 H       -4.2510    -8.2500    -1.9290 H     1 <1>   0.1500 
 42 H       -6.8440    -7.2800     1.3060 H     1 <1>   0.1500 
 43 H       -4.5960   -10.6300    -1.4890 H     1 <1>   0.1500 
 44 H       -7.1970    -9.6500     1.7390 H     1 <1>   0.1500 
 45 H       -6.0700   -12.3490    -0.4850 H     1 <1>   0.0800 
 46 H       -7.1170   -11.9500     0.8510 H     1 <1>   0.0800 
 47 H       -5.3980   -12.1360     1.1160 H     1 <1>   0.0800 
@<TRIPOS>BOND
  1   1   2  1   
  2   1   3  1   
  3   2   4  2   
  4   2   5  1   
  5   3   6  2   
  6   3   7  1   
  7   4   6  1   
  8   4   8  1   
  9   5   9  1   
 10   5  25  1   
 11   5  26  1   
 12   7  27  1   
 13   7  28  1   
 14   7  29  1   
 15   8  10  1   
 16   8  30  1   
 17   8  31  1   
 18   9  11  am  
 19   9  32  1   
 20  10  33  1   
 21  10  34  1   
 22  10  35  1   
 23  11  12  2   
 24  11  13  1   
 25  13  14  1   
 26  13  36  1   
 27  13  37  1   
 28  14  15  1   
 29  14  38  1   
 30  14  39  1   
 31  15  16  am  
 32  15  40  1   
 33  16  17  2   
 34  16  18  1   
 35  18  19  ar  
 36  18  20  ar  
 37  19  21  ar  
 38  19  41  1   
 39  20  22  ar  
 40  20  42  1   
 41  21  23  ar  
 42  21  43  1   
 43  22  23  ar  
 44  22  44  1   
 45  23  24  1   
 46  24  45  1   
 47  24  46  1   
 48  24  47  1   
@<TRIPOS>SUBSTRUCTURE
  1 ****  13 GROUP 4 **** **** 0

# MOE 2024.06 (io_trps.svl 2023.06)
