@<TRIPOS>MOLECULE
NONAME
65 68 1 0 0 
SMALL
USER_CHARGES


@<TRIPOS>ATOM
  1 O       -0.8310     0.3990     2.4280 O.2   1 <1>  -0.5700 
  2 C       -1.6950     0.9910     1.8230 C.2   1 <1>   0.5690 
  3 N       -2.8120     0.3530     1.3710 N.am  1 <1>  -0.6600 
  4 C       -1.5140     2.4850     1.5710 C.3   1 <1>  -0.0990 
  5 C       -3.9790     0.9680     0.6980 C.3   1 <1>   0.1400 
  6 C       -3.0070    -1.1040     1.5300 C.3   1 <1>   0.1400 
  7 C       -0.0400     2.9470     1.5710 C.3   1 <1>  -0.0800 
  8 C       -5.0710    -0.1130     0.7020 C.3   1 <1>  -0.0800 
  9 C       -4.2940    -1.4410     0.7740 C.3   1 <1>  -0.0800 
 10 C        0.0630     4.4760     1.4570 C.3   1 <1>  -0.1600 
 11 C        0.7650     2.2940     0.4330 C.3   1 <1>  -0.1600 
 12 C       -6.1290    -0.0290    -0.4430 C.3   1 <1>   0.2800 
 13 C       -4.0230    -1.9940    -0.6340 C.3   1 <1>  -0.1600 
 14 C        1.5210     4.9360     1.4270 C.3   1 <1>   0.3430 
 15 C        2.2130     2.7770     0.4280 C.3   1 <1>   0.3430 
 16 O       -5.5920     0.6060    -1.5480 O.3   1 <1>  -0.6800 
 17 C       -6.5270    -1.4440    -0.9050 C.3   1 <1>  -0.1600 
 18 C       -7.3890     0.7650    -0.0350 C.3   1 <1>  -0.1600 
 19 C       -5.3320    -2.2960    -1.3870 C.3   1 <1>  -0.1600 
 20 N        2.2440     4.2620     0.3080 N.4   1 <1>  -0.9590 
 21 C       -7.1520     2.2320     0.3650 C.3   1 <1>  -0.2400 
 22 C        3.6360     4.7680     0.1700 C.3   1 <1>   0.4860 
 23 C        3.5800     6.2370    -0.1990 C.ar  1 <1>  -0.1440 
 24 C        3.8980     7.2060     0.7420 C.ar  1 <1>  -0.1500 
 25 C        3.2020     6.6230    -1.4780 C.ar  1 <1>  -0.1500 
 26 C        3.8260     8.5480     0.4100 C.ar  1 <1>  -0.1500 
 27 C        3.1310     7.9650    -1.8070 C.ar  1 <1>  -0.1500 
 28 C        3.4410     8.9270    -0.8630 C.ar  1 <1>  -0.1500 
 29 H       -1.9600     2.7420     0.6290 H     1 <1>   0.0800 
 30 H       -2.0510     3.0020     2.3450 H     1 <1>   0.0800 
 31 H       -4.3040     1.8510     1.2170 H     1 <1>   0.0800 
 32 H       -3.6820     1.2280    -0.3030 H     1 <1>   0.0800 
 33 H       -2.1590    -1.6440     1.1460 H     1 <1>   0.0800 
 34 H       -3.1190    -1.3250     2.5780 H     1 <1>   0.0800 
 35 H        0.3980     2.6530     2.5120 H     1 <1>   0.0800 
 36 H       -5.5920    -0.0280     1.6390 H     1 <1>   0.0800 
 37 H       -4.8490    -2.1780     1.3290 H     1 <1>   0.0800 
 38 H       -0.4230     4.9320     2.3020 H     1 <1>   0.0800 
 39 H       -0.4390     4.8220     0.5700 H     1 <1>   0.0800 
 40 H        0.3100     2.5040    -0.5200 H     1 <1>   0.0800 
 41 H        0.7710     1.2250     0.5560 H     1 <1>   0.0800 
 42 H       -3.4620    -1.2620    -1.1900 H     1 <1>   0.0800 
 43 H       -3.4250    -2.8870    -0.5770 H     1 <1>   0.0800 
 44 H        1.9930     4.6930     2.3660 H     1 <1>   0.0800 
 45 H        1.5530     6.0070     1.2990 H     1 <1>   0.0800 
 46 H        2.7370     2.3240    -0.3990 H     1 <1>   0.0800 
 47 H        2.6920     2.4720     1.3450 H     1 <1>   0.0800 
 48 H       -6.2300     0.5620    -2.2830 H     1 <1>   0.4000 
 49 H       -6.9810    -1.9470    -0.0700 H     1 <1>   0.0800 
 50 H       -7.2710    -1.3950    -1.6790 H     1 <1>   0.0800 
 51 H       -8.0930     0.7430    -0.8490 H     1 <1>   0.0800 
 52 H       -7.8600     0.2620     0.7920 H     1 <1>   0.0800 
 53 H       -5.5820    -3.3360    -1.2700 H     1 <1>   0.0800 
 54 H       -5.1670    -2.1200    -2.4360 H     1 <1>   0.0800 
 55 H        1.7520     4.5240    -0.5540 H     1 <1>   0.4500 
 56 H       -6.6410     2.7630    -0.4180 H     1 <1>   0.0800 
 57 H       -6.5710     2.2940     1.2670 H     1 <1>   0.0800 
 58 H       -8.0950     2.7170     0.5430 H     1 <1>   0.0800 
 59 H        4.1750     4.6380     1.0950 H     1 <1>   0.0800 
 60 H        4.1530     4.2280    -0.6060 H     1 <1>   0.0800 
 61 H        4.2070     6.9360     1.7370 H     1 <1>   0.1500 
 62 H        2.9640     5.8940    -2.2340 H     1 <1>   0.1500 
 63 H        4.0740     9.3010     1.1400 H     1 <1>   0.1500 
 64 H        2.8380     8.2670    -2.7990 H     1 <1>   0.1500 
 65 H        3.3860     9.9720    -1.1200 H     1 <1>   0.1500 
@<TRIPOS>BOND
  1   1   2  2   
  2   2   3  am  
  3   2   4  1   
  4   3   5  1   
  5   3   6  1   
  6   4   7  1   
  7   4  29  1   
  8   4  30  1   
  9   5   8  1   
 10   5  31  1   
 11   5  32  1   
 12   6   9  1   
 13   6  33  1   
 14   6  34  1   
 15   7  10  1   
 16   7  11  1   
 17   7  35  1   
 18   8   9  1   
 19   8  12  1   
 20   8  36  1   
 21   9  13  1   
 22   9  37  1   
 23  10  14  1   
 24  10  38  1   
 25  10  39  1   
 26  11  15  1   
 27  11  40  1   
 28  11  41  1   
 29  12  16  1   
 30  12  17  1   
 31  12  18  1   
 32  13  19  1   
 33  13  42  1   
 34  13  43  1   
 35  14  20  1   
 36  14  44  1   
 37  14  45  1   
 38  15  20  1   
 39  15  46  1   
 40  15  47  1   
 41  16  48  1   
 42  17  19  1   
 43  17  49  1   
 44  17  50  1   
 45  18  21  1   
 46  18  51  1   
 47  18  52  1   
 48  19  53  1   
 49  19  54  1   
 50  20  22  1   
 51  20  55  1   
 52  21  56  1   
 53  21  57  1   
 54  21  58  1   
 55  22  23  1   
 56  22  59  1   
 57  22  60  1   
 58  23  24  ar  
 59  23  25  ar  
 60  24  26  ar  
 61  24  61  1   
 62  25  27  ar  
 63  25  62  1   
 64  26  28  ar  
 65  26  63  1   
 66  27  28  ar  
 67  27  64  1   
 68  28  65  1   
@<TRIPOS>SUBSTRUCTURE
  1 ****   4 GROUP 4 **** **** 0

# MOE 2024.06 (io_trps.svl 2023.06)
