@<TRIPOS>MOLECULE
NONAME
53 56 1 0 0 
SMALL
USER_CHARGES


@<TRIPOS>ATOM
  1 S       -0.9850     0.6380     2.1310 S.3   1 <1>  -0.0800 
  2 C       -1.2020     1.1610     0.4680 C.2   1 <1>  -0.1400 
  3 C       -2.1790    -0.6360     1.9190 C.2   1 <1>  -0.1100 
  4 C       -2.1200     0.4070    -0.1510 C.2   1 <1>  -0.1810 
  5 C       -0.4170     2.3200    -0.1380 C.3   1 <1>   0.4600 
  6 C       -2.6790    -0.6250     0.6680 C.2   1 <1>  -0.1500 
  7 C       -2.4670     0.6930    -1.5930 C.3   1 <1>   0.0210 
  8 O       -0.7220     2.4020    -1.5180 O.3   1 <1>  -0.5600 
  9 C       -0.8070     3.6530     0.5180 C.3   1 <1>  -0.1600 
 10 C        1.0990     2.0530    -0.0660 C.3   1 <1>  -0.1600 
 11 C       -2.0420     2.1340    -1.9350 C.3   1 <1>   0.1200 
 12 C        0.2170     4.7370     0.1910 C.3   1 <1>   0.1400 
 13 C        1.8050     2.9130     0.9840 C.3   1 <1>   0.1400 
 14 N        1.5690     4.3640     0.7110 N.am  1 <1>  -0.6600 
 15 C        2.5730     5.2760     0.9420 C.2   1 <1>   0.5690 
 16 O        3.6120     4.9440     1.4670 O.2   1 <1>  -0.5700 
 17 C        2.4120     6.7470     0.5530 C.3   1 <1>  -0.0190 
 18 C        3.7360     7.3200     0.0230 C.3   1 <1>   0.1100 
 19 C        1.9060     7.5900     1.7380 C.3   1 <1>  -0.1600 
 20 N        3.5620     8.7280    -0.3810 N.3   1 <1>  -0.8100 
 21 C        1.8440     9.0730     1.3490 C.3   1 <1>  -0.1600 
 22 C        3.1810     9.5560     0.7760 C.3   1 <1>   0.1100 
 23 C        4.8190     9.2440    -1.0040 C.3   1 <1>   0.1710 
 24 C        4.6540    10.5620    -1.7720 C.2   1 <1>   0.5690 
 25 O        5.5880    11.3120    -1.9010 O.2   1 <1>  -0.5700 
 26 N        3.4540    10.8650    -2.3030 N.am  1 <1>  -0.8000 
 27 H       -2.3810    -1.2680     2.7650 H     1 <1>   0.1500 
 28 H       -3.4210    -1.3020     0.2830 H     1 <1>   0.1500 
 29 H       -3.5260     0.5870    -1.7480 H     1 <1>   0.0800 
 30 H       -1.9570    -0.0020    -2.2360 H     1 <1>   0.0800 
 31 H       -0.8470     3.5380     1.5860 H     1 <1>   0.0800 
 32 H       -1.7850     3.9580     0.2010 H     1 <1>   0.0800 
 33 H        1.5550     2.2610    -1.0180 H     1 <1>   0.0800 
 34 H        1.2780     1.0160     0.1530 H     1 <1>   0.0800 
 35 H       -2.7010     2.8380    -1.4600 H     1 <1>   0.0800 
 36 H       -2.0850     2.2900    -2.9990 H     1 <1>   0.0800 
 37 H       -0.1020     5.6650     0.6330 H     1 <1>   0.0800 
 38 H        0.2750     4.8660    -0.8780 H     1 <1>   0.0800 
 39 H        2.8600     2.6970     0.9650 H     1 <1>   0.0800 
 40 H        1.4360     2.6740     1.9670 H     1 <1>   0.0800 
 41 H        1.7120     6.8200    -0.2570 H     1 <1>   0.0800 
 42 H        4.0500     6.7350    -0.8250 H     1 <1>   0.0800 
 43 H        4.4970     7.2470     0.7830 H     1 <1>   0.0800 
 44 H        2.5820     7.4680     2.5690 H     1 <1>   0.0800 
 45 H        0.9340     7.2510     2.0500 H     1 <1>   0.0800 
 46 H        1.5930     9.6630     2.2120 H     1 <1>   0.0800 
 47 H        1.0760     9.2260     0.6110 H     1 <1>   0.0800 
 48 H        3.0820    10.5860     0.4760 H     1 <1>   0.0800 
 49 H        3.9430     9.4980     1.5360 H     1 <1>   0.0800 
 50 H        5.1860     8.5200    -1.7090 H     1 <1>   0.0800 
 51 H        5.5740     9.3770    -0.2490 H     1 <1>   0.0800 
 52 H        3.3030    11.7370    -2.8070 H     1 <1>   0.3700 
 53 H        2.6550    10.2530    -2.1270 H     1 <1>   0.3700 
@<TRIPOS>BOND
  1   1   2  1   
  2   1   3  1   
  3   2   4  2   
  4   2   5  1   
  5   3   6  2   
  6   3  27  1   
  7   4   6  1   
  8   4   7  1   
  9   5   8  1   
 10   5   9  1   
 11   5  10  1   
 12   6  28  1   
 13   7  11  1   
 14   7  29  1   
 15   7  30  1   
 16   8  11  1   
 17   9  12  1   
 18   9  31  1   
 19   9  32  1   
 20  10  13  1   
 21  10  33  1   
 22  10  34  1   
 23  11  35  1   
 24  11  36  1   
 25  12  14  1   
 26  12  37  1   
 27  12  38  1   
 28  13  14  1   
 29  13  39  1   
 30  13  40  1   
 31  14  15  am  
 32  15  16  2   
 33  15  17  1   
 34  17  18  1   
 35  17  19  1   
 36  17  41  1   
 37  18  20  1   
 38  18  42  1   
 39  18  43  1   
 40  19  21  1   
 41  19  44  1   
 42  19  45  1   
 43  20  22  1   
 44  20  23  1   
 45  21  22  1   
 46  21  46  1   
 47  21  47  1   
 48  22  48  1   
 49  22  49  1   
 50  23  24  1   
 51  23  50  1   
 52  23  51  1   
 53  24  25  2   
 54  24  26  am  
 55  26  52  1   
 56  26  53  1   
@<TRIPOS>SUBSTRUCTURE
  1 ****  14 GROUP 4 **** **** 0

# MOE 2024.06 (io_trps.svl 2023.06)
