@<TRIPOS>MOLECULE
NONAME
55 56 1 0 0 
SMALL
USER_CHARGES


@<TRIPOS>ATOM
  1 O        3.5360    -0.4470    -1.2410 O.2   1 <1>  -0.5700 
  2 C        3.4230    -1.3330    -0.4300 C.2   1 <1>   0.5690 
  3 N        4.1240    -1.3730     0.7360 N.am  1 <1>  -0.7300 
  4 C        2.4250    -2.4330    -0.6920 C.3   1 <1>  -0.0990 
  5 C        5.3100    -0.5820     1.1670 C.3   1 <1>   0.1400 
  6 C        1.0800    -2.0880    -0.0390 C.3   1 <1>   0.1760 
  7 C        5.3070     0.8780     0.6980 C.3   1 <1>  -0.1600 
  8 N        0.3540    -3.3380     0.3210 N.pl3 1 <1>   0.3140 
  9 C        0.2330    -1.1050    -0.8660 C.3   1 <1>  -0.2400 
 10 C        4.0220     1.6220     1.0710 C.3   1 <1>   0.3540 
 11 N        0.4150    -3.7360     1.6010 N.2   1 <1>  -0.7070 
 12 C       -0.3350    -4.2270    -0.4290 C.2   1 <1>  -0.3320 
 13 N        4.0710     3.0000     0.5270 N.pl3 1 <1>  -0.4570 
 14 C       -0.2470    -4.8420     1.6490 C.2   1 <1>   0.1080 
 15 C       -0.7740    -5.2220     0.4070 C.2   1 <1>  -0.0860 
 16 C       -0.5250    -4.1200    -1.9380 C.3   1 <1>  -0.0600 
 17 N        4.5550     4.0310     1.2670 N.2   1 <1>  -0.2600 
 18 C        3.7010     3.4290    -0.6650 C.cat 1 <1>   0.6560 
 19 C       -0.4100    -5.6020     2.9490 C.3   1 <1>  -0.0590 
 20 C       -1.5820    -6.3950     0.1830 C.2   1 <1>   0.5950 
 21 C        4.4570     5.0500     0.4910 C.2   1 <1>   0.4850 
 22 N        3.9320     4.7180    -0.7130 N.pl3 1 <1>  -0.7000 
 23 C        3.1180     2.6170    -1.7990 C.3   1 <1>  -0.0960 
 24 O       -1.4740    -7.4160     0.8140 O.2   1 <1>  -0.5700 
 25 C       -2.6640    -6.3740    -0.8750 C.3   1 <1>  -0.1790 
 26 C        4.8650     6.4630     0.8380 C.3   1 <1>  -0.0720 
 27 H        3.9430    -2.1810     1.3440 H     1 <1>   0.3700 
 28 H        2.8120    -3.3460    -0.2760 H     1 <1>   0.0800 
 29 H        2.3140    -2.5660    -1.7520 H     1 <1>   0.0800 
 30 H        6.1990    -1.0690     0.8000 H     1 <1>   0.0800 
 31 H        5.3540    -0.5990     2.2440 H     1 <1>   0.0800 
 32 H        1.2880    -1.6030     0.8990 H     1 <1>   0.0800 
 33 H        5.4590     0.9030    -0.3660 H     1 <1>   0.0800 
 34 H        6.1430     1.3790     1.1540 H     1 <1>   0.0800 
 35 H        0.0900    -1.4530    -1.8710 H     1 <1>   0.0800 
 36 H        0.7290    -0.1530    -0.9170 H     1 <1>   0.0800 
 37 H       -0.7250    -0.9610    -0.3970 H     1 <1>   0.0800 
 38 H        3.9240     1.6680     2.1430 H     1 <1>   0.0800 
 39 H        3.1550     1.1200     0.6830 H     1 <1>   0.0800 
 40 H        0.3820    -3.7980    -2.4140 H     1 <1>   0.0800 
 41 H       -1.3090    -3.4190    -2.1650 H     1 <1>   0.0800 
 42 H       -0.7820    -5.0720    -2.3620 H     1 <1>   0.0800 
 43 H       -0.0110    -5.0290     3.7660 H     1 <1>   0.0800 
 44 H        0.1160    -6.5370     2.8900 H     1 <1>   0.0800 
 45 H       -1.4500    -5.7940     3.1360 H     1 <1>   0.0800 
 46 H        3.7640     5.3540    -1.4910 H     1 <1>   0.4500 
 47 H        2.3230     1.9920    -1.4360 H     1 <1>   0.0800 
 48 H        3.8820     1.9960    -2.2290 H     1 <1>   0.0800 
 49 H        2.7260     3.2620    -2.5620 H     1 <1>   0.0800 
 50 H       -2.9700    -5.3660    -1.0790 H     1 <1>   0.0800 
 51 H       -3.5150    -6.9270    -0.5230 H     1 <1>   0.0800 
 52 H       -2.2990    -6.8360    -1.7720 H     1 <1>   0.0800 
 53 H        5.2540     6.4980     1.8400 H     1 <1>   0.0800 
 54 H        4.0150     7.1180     0.7750 H     1 <1>   0.0800 
 55 H        5.6270     6.8030     0.1600 H     1 <1>   0.0800 
@<TRIPOS>BOND
  1   1   2  2   
  2   2   3  am  
  3   2   4  1   
  4   3   5  1   
  5   3  27  1   
  6   4   6  1   
  7   4  28  1   
  8   4  29  1   
  9   5   7  1   
 10   5  30  1   
 11   5  31  1   
 12   6   8  1   
 13   6   9  1   
 14   6  32  1   
 15   7  10  1   
 16   7  33  1   
 17   7  34  1   
 18   8  11  1   
 19   8  12  1   
 20   9  35  1   
 21   9  36  1   
 22   9  37  1   
 23  10  13  1   
 24  10  38  1   
 25  10  39  1   
 26  11  14  2   
 27  12  15  2   
 28  12  16  1   
 29  13  17  1   
 30  13  18  ar  
 31  14  15  1   
 32  14  19  1   
 33  15  20  1   
 34  16  40  1   
 35  16  41  1   
 36  16  42  1   
 37  17  21  2   
 38  18  22  ar  
 39  18  23  1   
 40  19  43  1   
 41  19  44  1   
 42  19  45  1   
 43  20  24  2   
 44  20  25  1   
 45  21  22  1   
 46  21  26  1   
 47  22  46  1   
 48  23  47  1   
 49  23  48  1   
 50  23  49  1   
 51  25  50  1   
 52  25  51  1   
 53  25  52  1   
 54  26  53  1   
 55  26  54  1   
 56  26  55  1   
@<TRIPOS>SUBSTRUCTURE
  1 ****   6 GROUP 4 **** **** 0

# MOE 2024.06 (io_trps.svl 2023.06)
