@<TRIPOS>MOLECULE
NONAME
40 41 1 0 0 
SMALL
USER_CHARGES


@<TRIPOS>ATOM
  1 O        1.2510    -0.3440    -2.0010 O.2   1 <1>  -0.5700 
  2 C        1.7990    -0.8350    -1.0300 C.2   1 <1>   0.7150 
  3 N        2.8600    -0.1750    -0.4520 N.am  1 <1>  -0.6600 
  4 C        1.3510    -2.0930    -0.4980 C.2   1 <1>  -0.2370 
  5 C        2.8360     1.3270    -0.3980 C.3   1 <1>   0.2200 
  6 C        4.1740    -0.8810    -0.4770 C.3   1 <1>   0.1400 
  7 N        1.5850    -2.4800     0.7930 N.pl3 1 <1>   0.0330 
  8 C        0.6350    -3.0950    -1.1010 C.2   1 <1>  -0.1500 
  9 C        4.0160     1.9210     0.3890 C.3   1 <1>  -0.1600 
 10 C        1.5380     1.8040     0.2700 C.3   1 <1>  -0.1600 
 11 C        4.8550    -0.6800    -1.8310 C.3   1 <1>  -0.2400 
 12 C        1.0360    -3.7030     0.9860 C.2   1 <1>  -0.3020 
 13 C        0.4410    -4.1100    -0.1670 C.2   1 <1>  -0.1500 
 14 C        3.9030     3.4450     0.5640 C.3   1 <1>   0.2800 
 15 C        1.5180     3.3260     0.4040 C.3   1 <1>   0.1200 
 16 O        2.6530     3.7610     1.0910 O.3   1 <1>  -0.5600 
 17 C        4.9150     3.9270     1.6020 C.3   1 <1>  -0.2400 
 18 C        4.1220     4.2190    -0.7440 C.3   1 <1>  -0.2400 
 19 H        2.8630     1.6970    -1.4090 H     1 <1>   0.0800 
 20 H        4.0200    -1.9370    -0.3290 H     1 <1>   0.0800 
 21 H        4.8060    -0.5380     0.3230 H     1 <1>   0.0800 
 22 H        2.0860    -1.9100     1.4850 H     1 <1>   0.2700 
 23 H        0.2800    -3.1010    -2.1180 H     1 <1>   0.1500 
 24 H        4.9430     1.7140    -0.1100 H     1 <1>   0.0800 
 25 H        4.0460     1.4690     1.3640 H     1 <1>   0.0800 
 26 H        1.4450     1.3700     1.2490 H     1 <1>   0.0800 
 27 H        0.6830     1.5150    -0.3130 H     1 <1>   0.0800 
 28 H        4.2360    -1.0710    -2.6190 H     1 <1>   0.0800 
 29 H        5.7920    -1.2060    -1.8460 H     1 <1>   0.0800 
 30 H        5.0470     0.3600    -2.0200 H     1 <1>   0.0800 
 31 H        1.0890    -4.2220     1.9260 H     1 <1>   0.1500 
 32 H       -0.0860    -5.0310    -0.3490 H     1 <1>   0.1500 
 33 H        0.6580     3.6380     0.9710 H     1 <1>   0.0800 
 34 H        1.4810     3.8060    -0.5580 H     1 <1>   0.0800 
 35 H        4.7430     3.4410     2.5450 H     1 <1>   0.0800 
 36 H        4.8260     4.9900     1.7400 H     1 <1>   0.0800 
 37 H        5.9170     3.7070     1.2810 H     1 <1>   0.0800 
 38 H        3.4700     3.8830    -1.5270 H     1 <1>   0.0800 
 39 H        5.1330     4.0840    -1.0830 H     1 <1>   0.0800 
 40 H        3.9600     5.2690    -0.5800 H     1 <1>   0.0800 
@<TRIPOS>BOND
  1   1   2  2   
  2   2   3  am  
  3   2   4  1   
  4   3   5  1   
  5   3   6  1   
  6   4   7  1   
  7   4   8  2   
  8   5   9  1   
  9   5  10  1   
 10   5  19  1   
 11   6  11  1   
 12   6  20  1   
 13   6  21  1   
 14   7  12  1   
 15   7  22  1   
 16   8  13  1   
 17   8  23  1   
 18   9  14  1   
 19   9  24  1   
 20   9  25  1   
 21  10  15  1   
 22  10  26  1   
 23  10  27  1   
 24  11  28  1   
 25  11  29  1   
 26  11  30  1   
 27  12  13  2   
 28  12  31  1   
 29  13  32  1   
 30  14  16  1   
 31  14  17  1   
 32  14  18  1   
 33  15  16  1   
 34  15  33  1   
 35  15  34  1   
 36  17  35  1   
 37  17  36  1   
 38  17  37  1   
 39  18  38  1   
 40  18  39  1   
 41  18  40  1   
@<TRIPOS>SUBSTRUCTURE
  1 ****   3 GROUP 4 **** **** 0

# MOE 2024.06 (io_trps.svl 2023.06)
