@<TRIPOS>MOLECULE
NONAME
52 55 1 0 0 
SMALL
USER_CHARGES


@<TRIPOS>ATOM
  1 S        0.3900     0.1750    -1.2940 S.o2  1 <1>   1.5010 
  2 O        1.5040    -0.3020    -2.0870 O.2   1 <1>  -0.6500 
  3 O       -0.7470     0.7630    -1.9690 O.2   1 <1>  -0.6500 
  4 N       -0.1890    -1.1560    -0.4160 N.am  1 <1>  -0.8490 
  5 C        1.0040     1.2710     0.0100 C.2   1 <1>  -0.0630 
  6 C       -1.1880    -0.7870     0.5970 C.3   1 <1>   0.1960 
  7 C       -0.5400    -2.3050    -1.2660 C.3   1 <1>   0.1960 
  8 C        2.1190     0.9900     0.8000 C.2   1 <1>   0.1080 
  9 C        0.5600     2.4640     0.4970 C.2   1 <1>  -0.3320 
 10 C       -2.0550    -1.9830     0.9880 C.3   1 <1>  -0.1600 
 11 C       -2.0480    -2.4360    -1.5160 C.3   1 <1>  -0.1600 
 12 N        2.3540     1.9060     1.6860 N.2   1 <1>  -0.7070 
 13 C        2.9990    -0.2380     0.6870 C.3   1 <1>  -0.0590 
 14 N        1.3940     2.8190     1.4930 N.pl3 1 <1>   0.3000 
 15 C       -0.6250     3.3260     0.0870 C.3   1 <1>  -0.0600 
 16 C       -2.9010    -2.4130    -0.2260 C.3   1 <1>   0.4240 
 17 O       -3.8140    -1.3600    -0.4490 O.3   1 <1>  -0.5600 
 18 C       -3.6350    -3.7650     0.0080 C.ar  1 <1>  -0.1430 
 19 C       -4.9980    -1.3400     0.2810 C.3   1 <1>   0.1200 
 20 C       -2.9350    -4.9660     0.1800 C.ar  1 <1>   0.0830 
 21 C       -5.0290    -3.8060     0.0480 C.ar  1 <1>  -0.1430 
 22 C       -5.8360    -2.5380    -0.1340 C.3   1 <1>  -0.0170 
 23 O       -1.5770    -4.9420     0.1370 O.3   1 <1>  -0.3630 
 24 C       -3.6260    -6.1580     0.3870 C.ar  1 <1>  -0.1500 
 25 C       -5.7050    -4.9970     0.2510 C.ar  1 <1>  -0.1500 
 26 C       -0.7880    -6.0910     0.3550 C.3   1 <1>   0.0400 
 27 C       -5.0050    -6.1730     0.4220 C.ar  1 <1>  -0.1500 
 28 H       -1.8250    -0.0030     0.2200 H     1 <1>   0.0800 
 29 H       -0.6800    -0.4090     1.4690 H     1 <1>   0.0800 
 30 H       -0.1850    -3.1930    -0.7770 H     1 <1>   0.0800 
 31 H       -0.0260    -2.2510    -2.2110 H     1 <1>   0.0800 
 32 H       -2.6880    -1.7280     1.8140 H     1 <1>   0.0800 
 33 H       -1.4160    -2.7760     1.3230 H     1 <1>   0.0800 
 34 H       -2.2240    -3.3550    -2.0440 H     1 <1>   0.0800 
 35 H       -2.3430    -1.6390    -2.1750 H     1 <1>   0.0800 
 36 H        2.4030    -1.1300     0.7420 H     1 <1>   0.0800 
 37 H        3.7150    -0.2510     1.4880 H     1 <1>   0.0800 
 38 H        3.5280    -0.2220    -0.2480 H     1 <1>   0.0800 
 39 H        1.3360     3.6740     2.0600 H     1 <1>   0.2700 
 40 H       -1.1810     2.8740    -0.7140 H     1 <1>   0.0800 
 41 H       -0.2830     4.2900    -0.2470 H     1 <1>   0.0800 
 42 H       -1.2910     3.4640     0.9200 H     1 <1>   0.0800 
 43 H       -5.5110    -0.4230     0.0520 H     1 <1>   0.0800 
 44 H       -4.7760    -1.3690     1.3330 H     1 <1>   0.0800 
 45 H       -6.1230    -2.4340    -1.1660 H     1 <1>   0.0800 
 46 H       -6.7270    -2.5700     0.4660 H     1 <1>   0.0800 
 47 H       -3.1130    -7.0900     0.5210 H     1 <1>   0.1500 
 48 H       -6.7810    -5.0140     0.2750 H     1 <1>   0.1500 
 49 H        0.2460    -5.8020     0.2930 H     1 <1>   0.0800 
 50 H       -1.0090    -6.8170    -0.4070 H     1 <1>   0.0800 
 51 H       -1.0000    -6.4800     1.3350 H     1 <1>   0.0800 
 52 H       -5.5340    -7.0970     0.5800 H     1 <1>   0.1500 
@<TRIPOS>BOND
  1   1   2  2   
  2   1   3  2   
  3   1   4  am  
  4   1   5  1   
  5   4   6  1   
  6   4   7  1   
  7   5   8  1   
  8   5   9  2   
  9   6  10  1   
 10   6  28  1   
 11   6  29  1   
 12   7  11  1   
 13   7  30  1   
 14   7  31  1   
 15   8  12  2   
 16   8  13  1   
 17   9  14  1   
 18   9  15  1   
 19  10  16  1   
 20  10  32  1   
 21  10  33  1   
 22  11  16  1   
 23  11  34  1   
 24  11  35  1   
 25  12  14  1   
 26  13  36  1   
 27  13  37  1   
 28  13  38  1   
 29  14  39  1   
 30  15  40  1   
 31  15  41  1   
 32  15  42  1   
 33  16  17  1   
 34  16  18  1   
 35  17  19  1   
 36  18  20  ar  
 37  18  21  ar  
 38  19  22  1   
 39  19  43  1   
 40  19  44  1   
 41  20  23  1   
 42  20  24  ar  
 43  21  22  1   
 44  21  25  ar  
 45  22  45  1   
 46  22  46  1   
 47  23  26  1   
 48  24  27  ar  
 49  24  47  1   
 50  25  27  ar  
 51  25  48  1   
 52  26  49  1   
 53  26  50  1   
 54  26  51  1   
 55  27  52  1   
@<TRIPOS>SUBSTRUCTURE
  1 ****   6 GROUP 4 **** **** 0

# MOE 2024.06 (io_trps.svl 2023.06)
