@<TRIPOS>MOLECULE
NONAME
57 60 1 0 0 
SMALL
USER_CHARGES


@<TRIPOS>ATOM
  1 O        0.3260     0.9450     0.1990 O.2   1 <1>  -0.5700 
  2 C        0.9180     0.0670     0.7760 C.2   1 <1>   0.5690 
  3 N        2.0710     0.3390     1.4750 N.am  1 <1>  -0.6600 
  4 C        0.3220    -1.3210     0.6490 C.3   1 <1>  -0.0990 
  5 C        3.0240    -0.6580     2.0480 C.3   1 <1>   0.1400 
  6 C        2.5560     1.7440     1.5540 C.3   1 <1>   0.1400 
  7 C        0.5090    -1.8750    -0.7700 C.3   1 <1>   0.0960 
  8 C        4.1910    -0.9950     1.0930 C.3   1 <1>   0.3430 
  9 C        3.2980     2.1150     0.2660 C.3   1 <1>  -0.1600 
 10 N        1.8540    -2.4520    -0.9830 N.pl3 1 <1>   0.3140 
 11 N        4.8590     0.1800     0.4240 N.4   1 <1>  -0.9590 
 12 C        3.9220     0.9300    -0.4710 C.3   1 <1>   0.3430 
 13 N        2.8100    -1.8640    -1.7350 N.2   1 <1>  -0.7070 
 14 C        2.2480    -3.6770    -0.5800 C.2   1 <1>  -0.3020 
 15 C        6.0210    -0.2880    -0.3750 C.3   1 <1>   0.4810 
 16 C        3.7460    -2.7590    -1.8460 C.2   1 <1>   0.1390 
 17 C        3.4610    -3.9090    -1.1190 C.2   1 <1>  -0.1810 
 18 C        6.9020     0.9140    -0.6970 C.2   1 <1>  -0.0380 
 19 C        4.3170    -5.1550    -1.0080 C.3   1 <1>  -0.0590 
 20 N        7.6100     1.5180     0.3240 N.pl3 1 <1>  -0.6000 
 21 C        6.9920     1.4140    -1.9550 C.2   1 <1>  -0.1360 
 22 C        8.4020     2.6420     0.1050 C.ar  1 <1>   0.1000 
 23 C        7.7810     2.5530    -2.2580 C.2   1 <1>   0.4690 
 24 C        8.5060     3.1840    -1.1880 C.ar  1 <1>   0.0860 
 25 C        9.0980     3.2310     1.1600 C.ar  1 <1>  -0.1500 
 26 O        7.8130     2.9710    -3.4060 O.2   1 <1>  -0.5700 
 27 C        9.3100     4.3140    -1.3740 C.ar  1 <1>  -0.1500 
 28 C        9.8840     4.3420     0.9510 C.ar  1 <1>  -0.1500 
 29 C        9.9900     4.8870    -0.3220 C.ar  1 <1>  -0.1500 
 30 H       -0.7340    -1.2140     0.8200 H     1 <1>   0.0800 
 31 H        0.6840    -2.0080     1.3860 H     1 <1>   0.0800 
 32 H        2.5140    -1.5680     2.3020 H     1 <1>   0.0800 
 33 H        3.4250    -0.2710     2.9690 H     1 <1>   0.0800 
 34 H        3.2060     1.8590     2.4040 H     1 <1>   0.0800 
 35 H        1.7210     2.4120     1.6970 H     1 <1>   0.0800 
 36 H        0.3450    -1.1020    -1.5000 H     1 <1>   0.0800 
 37 H       -0.2100    -2.6540    -0.9480 H     1 <1>   0.0800 
 38 H        3.8150    -1.6590     0.3400 H     1 <1>   0.0800 
 39 H        4.9250    -1.5500     1.6530 H     1 <1>   0.0800 
 40 H        4.0420     2.8640     0.4710 H     1 <1>   0.0800 
 41 H        2.5850     2.5670    -0.4020 H     1 <1>   0.0800 
 42 H        5.2100     0.8490     1.1160 H     1 <1>   0.4500 
 43 H        4.4430     1.3060    -1.3360 H     1 <1>   0.0800 
 44 H        3.1400     0.2760    -0.8220 H     1 <1>   0.0800 
 45 H        1.6390    -4.3190     0.0320 H     1 <1>   0.1500 
 46 H        5.6770    -0.7530    -1.2850 H     1 <1>   0.0800 
 47 H        6.5980    -1.0080     0.1820 H     1 <1>   0.0800 
 48 H        4.6360    -2.6240    -2.4390 H     1 <1>   0.1500 
 49 H        3.8370    -5.8810    -0.3750 H     1 <1>   0.0800 
 50 H        5.2790    -4.9160    -0.5930 H     1 <1>   0.0800 
 51 H        4.4550    -5.5920    -1.9810 H     1 <1>   0.0800 
 52 H        7.6720     1.1110     1.2640 H     1 <1>   0.4000 
 53 H        6.4710     0.9840    -2.7910 H     1 <1>   0.1500 
 54 H        9.0250     2.8160     2.1490 H     1 <1>   0.1500 
 55 H        9.3940     4.7350    -2.3620 H     1 <1>   0.1500 
 56 H       10.4210     4.7950     1.7680 H     1 <1>   0.1500 
 57 H       10.6060     5.7560    -0.4820 H     1 <1>   0.1500 
@<TRIPOS>BOND
  1   1   2  2   
  2   2   3  am  
  3   2   4  1   
  4   3   5  1   
  5   3   6  1   
  6   4   7  1   
  7   4  30  1   
  8   4  31  1   
  9   5   8  1   
 10   5  32  1   
 11   5  33  1   
 12   6   9  1   
 13   6  34  1   
 14   6  35  1   
 15   7  10  1   
 16   7  36  1   
 17   7  37  1   
 18   8  11  1   
 19   8  38  1   
 20   8  39  1   
 21   9  12  1   
 22   9  40  1   
 23   9  41  1   
 24  10  13  1   
 25  10  14  1   
 26  11  12  1   
 27  11  15  1   
 28  11  42  1   
 29  12  43  1   
 30  12  44  1   
 31  13  16  2   
 32  14  17  2   
 33  14  45  1   
 34  15  18  1   
 35  15  46  1   
 36  15  47  1   
 37  16  17  1   
 38  16  48  1   
 39  17  19  1   
 40  18  20  1   
 41  18  21  2   
 42  19  49  1   
 43  19  50  1   
 44  19  51  1   
 45  20  22  1   
 46  20  52  1   
 47  21  23  1   
 48  21  53  1   
 49  22  24  ar  
 50  22  25  ar  
 51  23  24  1   
 52  23  26  2   
 53  24  27  ar  
 54  25  28  ar  
 55  25  54  1   
 56  27  29  ar  
 57  27  55  1   
 58  28  29  ar  
 59  28  56  1   
 60  29  57  1   
@<TRIPOS>SUBSTRUCTURE
  1 ****  11 GROUP 4 **** **** 0

# MOE 2024.06 (io_trps.svl 2023.06)
