@<TRIPOS>MOLECULE
NONAME
50 53 1 0 0 
SMALL
USER_CHARGES


@<TRIPOS>ATOM
  1 O       -0.7950     0.9710    -1.4050 O.2   1 <1>  -0.5700 
  2 C       -0.4570     1.9820    -0.8350 C.2   1 <1>   0.5690 
  3 N       -1.3520     2.9270    -0.4020 N.am  1 <1>  -0.5090 
  4 C        1.0450     2.2110    -0.6380 C.3   1 <1>   0.1810 
  5 C       -0.8910     4.2340     0.1620 C.3   1 <1>   0.3640 
  6 C       -2.8200     2.7040    -0.4250 C.3   1 <1>   0.0490 
  7 O        1.3460     3.2620     0.2490 O.3   1 <1>  -0.5600 
  8 C       -1.6310     5.3990    -0.4960 C.ar  1 <1>  -0.1440 
  9 C        0.6310     4.4500    -0.0080 C.3   1 <1>   0.2610 
 10 C       -3.5860     2.8060     0.8590 C.3   1 <1>  -0.2000 
 11 C       -3.3870     1.4740     0.2110 C.3   1 <1>  -0.2000 
 12 C       -2.1700     6.4060     0.2930 C.ar  1 <1>   0.1600 
 13 C       -1.7660     5.4920    -1.8700 C.ar  1 <1>  -0.1500 
 14 C        1.1260     5.5990     0.8790 C.2   1 <1>   0.5690 
 15 N       -2.8000     7.4750    -0.1680 N.ar  1 <1>  -0.6200 
 16 C       -2.4330     6.5920    -2.3640 C.ar  1 <1>  -0.1500 
 17 O        0.5270     5.8850     1.8910 O.2   1 <1>  -0.5700 
 18 N        2.2080     6.3190     0.4840 N.am  1 <1>  -0.7300 
 19 C       -2.9240     7.5390    -1.4840 C.ar  1 <1>   0.1600 
 20 C        2.7080     7.5280     1.1530 C.3   1 <1>   0.3200 
 21 C        2.6960     8.6410     0.1310 C.2   1 <1>  -0.3320 
 22 N        1.5860     9.2760    -0.3050 N.pl3 1 <1>   0.0480 
 23 C        3.7400     9.2030    -0.5190 C.2   1 <1>   0.0770 
 24 C        2.0430    10.1810    -1.2000 C.2   1 <1>   0.0360 
 25 C        0.1740     9.0690     0.0880 C.3   1 <1>   0.0960 
 26 N        3.3270    10.1670    -1.3590 N.2   1 <1>  -0.5650 
 27 C       -0.1790     9.9020     1.3220 C.3   1 <1>  -0.2400 
 28 H        1.5000     2.4270    -1.5880 H     1 <1>   0.0800 
 29 H        1.4880     1.3150    -0.2420 H     1 <1>   0.0800 
 30 H       -1.1160     4.2210     1.2140 H     1 <1>   0.0800 
 31 H       -3.2800     3.0610    -1.3310 H     1 <1>   0.1000 
 32 H        0.8280     4.7240    -1.0290 H     1 <1>   0.0800 
 33 H       -3.0740     2.9880     1.7860 H     1 <1>   0.1000 
 34 H       -4.5720     3.2360     0.8390 H     1 <1>   0.1000 
 35 H       -4.2290     0.9980    -0.2590 H     1 <1>   0.1000 
 36 H       -2.7090     0.7660     0.6540 H     1 <1>   0.1000 
 37 H       -2.0680     6.3380     1.3640 H     1 <1>   0.1500 
 38 H       -1.3780     4.7380    -2.5350 H     1 <1>   0.1500 
 39 H       -2.5750     6.7150    -3.4230 H     1 <1>   0.1500 
 40 H        2.7170     6.0800    -0.3680 H     1 <1>   0.3700 
 41 H       -3.4470     8.3920    -1.8820 H     1 <1>   0.1500 
 42 H        2.0960     7.7840     2.0010 H     1 <1>   0.0800 
 43 H        3.7130     7.3510     1.4990 H     1 <1>   0.0800 
 44 H        4.7860     8.9620    -0.4280 H     1 <1>   0.1500 
 45 H        1.3800    10.8470    -1.7220 H     1 <1>   0.1500 
 46 H       -0.4620     9.3440    -0.7350 H     1 <1>   0.0800 
 47 H        0.0180     8.0280     0.2940 H     1 <1>   0.0800 
 48 H       -0.0390    10.9490     1.1220 H     1 <1>   0.0800 
 49 H        0.4310     9.6120     2.1590 H     1 <1>   0.0800 
 50 H       -1.2100     9.7370     1.5810 H     1 <1>   0.0800 
@<TRIPOS>BOND
  1   1   2  2   
  2   2   3  am  
  3   2   4  1   
  4   3   5  1   
  5   3   6  1   
  6   4   7  1   
  7   4  28  1   
  8   4  29  1   
  9   5   8  1   
 10   5   9  1   
 11   5  30  1   
 12   6  10  1   
 13   6  11  1   
 14   6  31  1   
 15   7   9  1   
 16   8  12  ar  
 17   8  13  ar  
 18   9  14  1   
 19   9  32  1   
 20  10  11  1   
 21  10  33  1   
 22  10  34  1   
 23  11  35  1   
 24  11  36  1   
 25  12  15  ar  
 26  12  37  1   
 27  13  16  ar  
 28  13  38  1   
 29  14  17  2   
 30  14  18  am  
 31  15  19  ar  
 32  16  19  ar  
 33  16  39  1   
 34  18  20  1   
 35  18  40  1   
 36  19  41  1   
 37  20  21  1   
 38  20  42  1   
 39  20  43  1   
 40  21  22  1   
 41  21  23  2   
 42  22  24  1   
 43  22  25  1   
 44  23  26  1   
 45  23  44  1   
 46  24  26  2   
 47  24  45  1   
 48  25  27  1   
 49  25  46  1   
 50  25  47  1   
 51  27  48  1   
 52  27  49  1   
 53  27  50  1   
@<TRIPOS>SUBSTRUCTURE
  1 ****   8 GROUP 4 **** **** 0

# MOE 2024.06 (io_trps.svl 2023.06)
