@<TRIPOS>MOLECULE
NONAME
45 47 1 0 0 
SMALL
USER_CHARGES


@<TRIPOS>ATOM
  1 O       -0.0040    -2.2100    -1.7040 O.3   1 <1>  -0.6800 
  2 C        0.4330    -1.4220    -0.6490 C.3   1 <1>   0.1200 
  3 C        1.1790    -2.2470     0.4430 C.3   1 <1>   0.0000 
  4 C        2.5340    -2.8570    -0.0310 C.3   1 <1>   0.4230 
  5 C        1.5170    -1.2630     1.5960 C.3   1 <1>  -0.1600 
  6 C        0.2530    -3.3600     1.0190 C.3   1 <1>  -0.1600 
  7 N        2.4390    -4.0450    -0.9810 N.4   1 <1>  -0.9590 
  8 C        3.5240    -1.7590    -0.4690 C.3   1 <1>   0.2090 
  9 C        2.5260    -0.1690     1.2120 C.3   1 <1>   0.2090 
 10 C        0.6830    -4.7860     0.6290 C.3   1 <1>  -0.1600 
 11 C        1.1810    -4.8400    -0.8140 C.3   1 <1>   0.3430 
 12 C        2.6090    -3.6970    -2.4280 C.3   1 <1>   0.2630 
 13 N        3.7530    -0.7840     0.6390 N.pl3 1 <1>  -0.8380 
 14 C        4.8670     0.0420     0.5360 C.ar  1 <1>   0.4100 
 15 N        5.2790     0.3260    -0.6940 N.ar  1 <1>  -0.6200 
 16 C        5.5090     0.5530     1.6770 C.ar  1 <1>   0.1600 
 17 C        6.3270     1.1320    -0.7130 C.ar  1 <1>   0.1670 
 18 N        6.5530     1.3580     1.6680 N.ar  1 <1>  -0.6200 
 19 C        6.9420     1.6320     0.4310 C.ar  1 <1>   0.1600 
 20 C        6.8480     1.5030    -2.0870 C.3   1 <1>  -0.0970 
 21 H       -0.6330    -1.7050    -2.2650 H     1 <1>   0.4000 
 22 H        1.0530    -0.6450    -1.0610 H     1 <1>   0.0800 
 23 H       -0.4390    -0.9590    -0.2170 H     1 <1>   0.0800 
 24 H        2.9700    -3.2550     0.8700 H     1 <1>   0.0800 
 25 H        1.9360    -1.8050     2.4270 H     1 <1>   0.0800 
 26 H        0.6190    -0.7900     1.9520 H     1 <1>   0.0800 
 27 H        0.2110    -3.3150     2.0940 H     1 <1>   0.0800 
 28 H       -0.7560    -3.2010     0.6760 H     1 <1>   0.0800 
 29 H        3.2150    -4.6670    -0.7210 H     1 <1>   0.4500 
 30 H        3.1550    -1.2310    -1.3300 H     1 <1>   0.0800 
 31 H        4.4670    -2.2130    -0.7220 H     1 <1>   0.0800 
 32 H        2.7800     0.4030     2.0890 H     1 <1>   0.0800 
 33 H        2.1020     0.5120     0.4940 H     1 <1>   0.0800 
 34 H       -0.1610    -5.4460     0.7350 H     1 <1>   0.0800 
 35 H        1.4540    -5.1430     1.2890 H     1 <1>   0.0800 
 36 H        0.4100    -4.4440    -1.4550 H     1 <1>   0.0800 
 37 H        1.3550    -5.8640    -1.1030 H     1 <1>   0.0800 
 38 H        1.8460    -3.0060    -2.7430 H     1 <1>   0.0800 
 39 H        2.5360    -4.5840    -3.0360 H     1 <1>   0.0800 
 40 H        3.5720    -3.2460    -2.5990 H     1 <1>   0.0800 
 41 H        5.1210     0.2610     2.6340 H     1 <1>   0.1500 
 42 H        7.7900     2.2850     0.3270 H     1 <1>   0.1500 
 43 H        7.6920     2.1640    -2.0180 H     1 <1>   0.0800 
 44 H        6.0700     1.9910    -2.6470 H     1 <1>   0.0800 
 45 H        7.1450     0.6140    -2.6120 H     1 <1>   0.0800 
@<TRIPOS>BOND
  1   1   2  1   
  2   1  21  1   
  3   2   3  1   
  4   2  22  1   
  5   2  23  1   
  6   3   4  1   
  7   3   5  1   
  8   3   6  1   
  9   4   7  1   
 10   4   8  1   
 11   4  24  1   
 12   5   9  1   
 13   5  25  1   
 14   5  26  1   
 15   6  10  1   
 16   6  27  1   
 17   6  28  1   
 18   7  11  1   
 19   7  12  1   
 20   7  29  1   
 21   8  13  1   
 22   8  30  1   
 23   8  31  1   
 24   9  13  1   
 25   9  32  1   
 26   9  33  1   
 27  10  11  1   
 28  10  34  1   
 29  10  35  1   
 30  11  36  1   
 31  11  37  1   
 32  12  38  1   
 33  12  39  1   
 34  12  40  1   
 35  13  14  1   
 36  14  15  ar  
 37  14  16  ar  
 38  15  17  ar  
 39  16  18  ar  
 40  16  41  1   
 41  17  19  ar  
 42  17  20  1   
 43  18  19  ar  
 44  19  42  1   
 45  20  43  1   
 46  20  44  1   
 47  20  45  1   
@<TRIPOS>SUBSTRUCTURE
  1 ****   8 GROUP 4 **** **** 0

# MOE 2024.06 (io_trps.svl 2023.06)
