@<TRIPOS>MOLECULE
NONAME
46 48 1 0 0 
SMALL
USER_CHARGES


@<TRIPOS>ATOM
  1 CL      -3.2600     1.0420     2.5970 Cl    1 <1>  -0.1770 
  2 C       -2.6150     1.5700     1.0510 C.ar  1 <1>   0.1770 
  3 C       -2.1460     2.8710     0.9110 C.ar  1 <1>   0.0830 
  4 C       -2.5930     0.6810    -0.0140 C.ar  1 <1>  -0.1440 
  5 O       -2.1840     3.7300     1.9450 O.3   1 <1>  -0.5320 
  6 C       -1.6380     3.2870    -0.3090 C.ar  1 <1>  -0.1500 
  7 C       -2.0800     1.1090    -1.2320 C.ar  1 <1>  -0.1500 
  8 C       -3.1200    -0.7310     0.1510 C.3   1 <1>   0.4860 
  9 C       -1.6070     2.4040    -1.3750 C.ar  1 <1>  -0.1500 
 10 N       -4.5780    -0.6750     0.4450 N.4   1 <1>  -0.9590 
 11 C       -5.1090    -2.0050     0.9010 C.3   1 <1>   0.3430 
 12 C       -5.3600    -0.1130    -0.6980 C.3   1 <1>   0.3430 
 13 C       -6.4820    -1.9190     1.6050 C.3   1 <1>   0.1400 
 14 C       -6.4100     0.8790    -0.1940 C.3   1 <1>  -0.1600 
 15 N       -7.4710    -1.1220     0.8160 N.am  1 <1>  -0.6600 
 16 C       -7.3100     0.3530     0.9290 C.3   1 <1>   0.1400 
 17 C       -8.4530    -1.6480     0.0060 C.2   1 <1>   0.5770 
 18 O       -9.0970    -0.9270    -0.7170 O.2   1 <1>  -0.5700 
 19 C       -8.7210    -3.1540    -0.0230 C.3   1 <1>   0.0530 
 20 C       -7.6600    -3.9770    -0.8030 C.3   1 <1>   0.0000 
 21 C       -9.7570    -3.6680    -1.0650 C.3   1 <1>   0.0000 
 22 C       -8.8240    -4.8880    -1.2700 C.3   1 <1>   0.0000 
 23 H       -1.7900     4.6010     1.7550 H     1 <1>   0.4500 
 24 H       -1.2680     4.2890    -0.4350 H     1 <1>   0.1500 
 25 H       -2.0380     0.4460    -2.0810 H     1 <1>   0.1500 
 26 H       -2.5980    -1.2040     0.9670 H     1 <1>   0.0800 
 27 H       -2.9420    -1.3020    -0.7460 H     1 <1>   0.0800 
 28 H       -1.2080     2.7280    -2.3230 H     1 <1>   0.1500 
 29 H       -4.6730    -0.0070     1.2240 H     1 <1>   0.4500 
 30 H       -4.4110    -2.4530     1.5900 H     1 <1>   0.0800 
 31 H       -5.1960    -2.6660     0.0540 H     1 <1>   0.0800 
 32 H       -5.8520    -0.9100    -1.2330 H     1 <1>   0.0800 
 33 H       -4.7090     0.3990    -1.3880 H     1 <1>   0.0800 
 34 H       -6.3580    -1.4700     2.5750 H     1 <1>   0.0800 
 35 H       -6.8510    -2.9150     1.7750 H     1 <1>   0.0800 
 36 H       -7.0410     1.1340    -1.0280 H     1 <1>   0.0800 
 37 H       -5.9360     1.7910     0.1220 H     1 <1>   0.0800 
 38 H       -8.2750     0.8330     0.8730 H     1 <1>   0.0800 
 39 H       -6.8880     0.6000     1.8890 H     1 <1>   0.0800 
 40 H       -8.9140    -3.5650     0.9540 H     1 <1>   0.0000 
 41 H       -6.9440    -4.4770    -0.1750 H     1 <1>   0.0000 
 42 H       -7.2130    -3.4270    -1.6140 H     1 <1>   0.0000 
 43 H       -9.8270    -3.0640    -1.9540 H     1 <1>   0.0000 
 44 H      -10.7130    -3.9200    -0.6410 H     1 <1>   0.0000 
 45 H       -9.0280    -5.6900    -0.5800 H     1 <1>   0.0000 
 46 H       -8.7430    -5.2090    -2.2930 H     1 <1>   0.0000 
@<TRIPOS>BOND
  1   1   2  1   
  2   2   3  ar  
  3   2   4  ar  
  4   3   5  1   
  5   3   6  ar  
  6   4   7  ar  
  7   4   8  1   
  8   5  23  1   
  9   6   9  ar  
 10   6  24  1   
 11   7   9  ar  
 12   7  25  1   
 13   8  10  1   
 14   8  26  1   
 15   8  27  1   
 16   9  28  1   
 17  10  11  1   
 18  10  12  1   
 19  10  29  1   
 20  11  13  1   
 21  11  30  1   
 22  11  31  1   
 23  12  14  1   
 24  12  32  1   
 25  12  33  1   
 26  13  15  1   
 27  13  34  1   
 28  13  35  1   
 29  14  16  1   
 30  14  36  1   
 31  14  37  1   
 32  15  16  1   
 33  15  17  am  
 34  16  38  1   
 35  16  39  1   
 36  17  18  2   
 37  17  19  1   
 38  19  20  1   
 39  19  21  1   
 40  19  40  1   
 41  20  22  1   
 42  20  41  1   
 43  20  42  1   
 44  21  22  1   
 45  21  43  1   
 46  21  44  1   
 47  22  45  1   
 48  22  46  1   
@<TRIPOS>SUBSTRUCTURE
  1 ****  10 GROUP 4 **** **** 0

# MOE 2024.06 (io_trps.svl 2023.06)
