@<TRIPOS>MOLECULE
NONAME
48 51 1 0 0 
SMALL
USER_CHARGES


@<TRIPOS>ATOM
  1 CL       3.0610     3.1720     2.6790 Cl    1 <1>  -0.1770 
  2 C        1.6990     2.5040     1.8110 C.ar  1 <1>   0.1770 
  3 C        1.8740     1.8340     0.6060 C.ar  1 <1>  -0.1440 
  4 C        0.4470     2.6600     2.3770 C.ar  1 <1>  -0.1500 
  5 C        0.7480     1.3060    -0.0180 C.ar  1 <1>  -0.1500 
  6 C        3.2530     1.6760    -0.0310 C.3   1 <1>   0.3640 
  7 C       -0.6630     2.1340     1.7410 C.ar  1 <1>  -0.1500 
  8 C       -0.5090     1.4550     0.5450 C.ar  1 <1>  -0.1500 
  9 N        3.4820     0.2260    -0.2490 N.am  1 <1>  -0.7300 
 10 C        3.3840     2.4850    -1.3510 C.3   1 <1>   0.2610 
 11 C        3.9520    -0.3000    -1.4010 C.2   1 <1>   0.5690 
 12 O        4.4390     1.9760    -2.1630 O.3   1 <1>  -0.5600 
 13 C        3.6130     3.9660    -1.0420 C.2   1 <1>   0.5690 
 14 O        4.1000    -1.4890    -1.5200 O.2   1 <1>  -0.5700 
 15 C        4.2660     0.6360    -2.5710 C.3   1 <1>   0.1810 
 16 O        2.7280     4.5940    -0.5080 O.2   1 <1>  -0.5700 
 17 N        4.8100     4.5170    -1.3870 N.am  1 <1>  -0.5790 
 18 C        5.2790     5.8950    -1.1590 C.3   1 <1>   0.0540 
 19 C        6.1440     5.9930     0.1180 C.3   1 <1>   0.0150 
 20 C        4.3900     6.9950    -1.6460 C.3   1 <1>  -0.2000 
 21 C        5.6430     6.6470    -2.3980 C.3   1 <1>  -0.2000 
 22 C        5.3680     5.6710     1.3980 C.3   1 <1>  -0.1600 
 23 C        6.7860     7.3490     0.4210 C.3   1 <1>  -0.1600 
 24 C        6.1080     6.3730     2.5430 C.3   1 <1>  -0.1600 
 25 C        7.1780     7.2550     1.8930 C.3   1 <1>  -0.1600 
 26 H        0.3460     3.1900     3.3070 H     1 <1>   0.1500 
 27 H        0.8410     0.7700    -0.9470 H     1 <1>   0.1500 
 28 H        4.0170     2.0230     0.6410 H     1 <1>   0.0800 
 29 H       -1.6420     2.2520     2.1740 H     1 <1>   0.1500 
 30 H       -1.3710     1.0430     0.0490 H     1 <1>   0.1500 
 31 H        3.2640    -0.4040     0.5250 H     1 <1>   0.3700 
 32 H        2.4730     2.4080    -1.9150 H     1 <1>   0.0800 
 33 H        3.4660     0.5970    -3.2880 H     1 <1>   0.0800 
 34 H        5.1750     0.3170    -3.0470 H     1 <1>   0.0800 
 35 H        5.4720     3.9020    -1.8670 H     1 <1>   0.3700 
 36 H        6.9460     5.2820     0.0280 H     1 <1>   0.0800 
 37 H        3.4350     6.7300    -2.0650 H     1 <1>   0.1000 
 38 H        4.3510     7.9260    -1.1140 H     1 <1>   0.1000 
 39 H        6.4420     7.3660    -2.3840 H     1 <1>   0.1000 
 40 H        5.5430     6.1640    -3.3540 H     1 <1>   0.1000 
 41 H        4.3690     6.0660     1.3230 H     1 <1>   0.0800 
 42 H        5.3080     4.6100     1.5560 H     1 <1>   0.0800 
 43 H        7.6370     7.5450    -0.2080 H     1 <1>   0.0800 
 44 H        6.0680     8.1410     0.3070 H     1 <1>   0.0800 
 45 H        5.4150     6.9760     3.1060 H     1 <1>   0.0800 
 46 H        6.5620     5.6560     3.2050 H     1 <1>   0.0800 
 47 H        8.1370     6.7730     1.9770 H     1 <1>   0.0800 
 48 H        7.2330     8.2260     2.3550 H     1 <1>   0.0800 
@<TRIPOS>BOND
  1   1   2  1   
  2   2   3  ar  
  3   2   4  ar  
  4   3   5  ar  
  5   3   6  1   
  6   4   7  ar  
  7   4  26  1   
  8   5   8  ar  
  9   5  27  1   
 10   6   9  1   
 11   6  10  1   
 12   6  28  1   
 13   7   8  ar  
 14   7  29  1   
 15   8  30  1   
 16   9  11  am  
 17   9  31  1   
 18  10  12  1   
 19  10  13  1   
 20  10  32  1   
 21  11  14  2   
 22  11  15  1   
 23  12  15  1   
 24  13  16  2   
 25  13  17  am  
 26  15  33  1   
 27  15  34  1   
 28  17  18  1   
 29  17  35  1   
 30  18  19  1   
 31  18  20  1   
 32  18  21  1   
 33  19  22  1   
 34  19  23  1   
 35  19  36  1   
 36  20  21  1   
 37  20  37  1   
 38  20  38  1   
 39  21  39  1   
 40  21  40  1   
 41  22  24  1   
 42  22  41  1   
 43  22  42  1   
 44  23  25  1   
 45  23  43  1   
 46  23  44  1   
 47  24  25  1   
 48  24  45  1   
 49  24  46  1   
 50  25  47  1   
 51  25  48  1   
@<TRIPOS>SUBSTRUCTURE
  1 ****  13 GROUP 4 **** **** 0

# MOE 2024.06 (io_trps.svl 2023.06)
