@<TRIPOS>MOLECULE
NONAME
42 43 1 0 0 
SMALL
USER_CHARGES


@<TRIPOS>ATOM
  1 O       -0.8040    -0.1640     2.5310 O.2   1 <1>  -0.5700 
  2 C       -1.2720     0.4190     1.5800 C.2   1 <1>   0.5690 
  3 N       -1.7130    -0.2630     0.4730 N.am  1 <1>  -0.6600 
  4 C       -1.3680     1.9390     1.6830 C.3   1 <1>   0.0440 
  5 C       -1.6480    -1.7580     0.4230 C.3   1 <1>   0.3210 
  6 C       -2.2310     0.4000    -0.7720 C.3   1 <1>   0.1400 
  7 C       -0.3450     2.6780     0.8240 C.ar  1 <1>  -0.1440 
  8 C       -3.0460    -2.3620     0.3710 C.2   1 <1>   0.0460 
  9 C       -3.7670     0.5300    -0.8170 C.3   1 <1>   0.1200 
 10 C        0.9850     2.2860     0.8170 C.ar  1 <1>  -0.1500 
 11 C       -0.7350     3.7540     0.0420 C.ar  1 <1>  -0.1500 
 12 N       -3.5470    -2.8470    -0.7850 N.2   1 <1>  -0.5650 
 13 C       -3.9460    -2.4890     1.3760 C.2   1 <1>  -0.3320 
 14 O       -4.2920     0.6630     0.4600 O.3   1 <1>  -0.6800 
 15 C        1.9090     2.9550     0.0330 C.ar  1 <1>  -0.1500 
 16 C        0.1900     4.4230    -0.7420 C.ar  1 <1>  -0.1500 
 17 C       -4.7300    -3.2560    -0.4630 C.2   1 <1>   0.0360 
 18 N       -5.0350    -3.0650     0.8370 N.pl3 1 <1>   0.0330 
 19 C       -3.8590    -2.0980     2.8420 C.3   1 <1>  -0.0600 
 20 C        1.5170     4.0270    -0.7500 C.ar  1 <1>  -0.1440 
 21 C        2.5330     4.7590    -1.6090 C.3   1 <1>  -0.0970 
 22 H       -1.2120     2.2200     2.7080 H     1 <1>   0.0800 
 23 H       -2.3640     2.2400     1.4220 H     1 <1>   0.0800 
 24 H       -1.1370    -2.1480     1.2850 H     1 <1>   0.0800 
 25 H       -1.0940    -2.0640    -0.4470 H     1 <1>   0.0800 
 26 H       -1.9070    -0.1570    -1.6340 H     1 <1>   0.0800 
 27 H       -1.8040     1.3790    -0.8720 H     1 <1>   0.0800 
 28 H       -4.2020    -0.3470    -1.2630 H     1 <1>   0.0800 
 29 H       -4.0580     1.3870    -1.3980 H     1 <1>   0.0800 
 30 H        1.3090     1.4560     1.4230 H     1 <1>   0.1500 
 31 H       -1.7600     4.0800     0.0380 H     1 <1>   0.1500 
 32 H       -3.9980    -0.1220     0.9740 H     1 <1>   0.4000 
 33 H        2.9350     2.6340     0.0380 H     1 <1>   0.1500 
 34 H       -0.1290     5.2550    -1.3440 H     1 <1>   0.1500 
 35 H       -5.4220    -3.7080    -1.1520 H     1 <1>   0.1500 
 36 H       -5.9110    -3.3100     1.3070 H     1 <1>   0.2700 
 37 H       -2.8860    -1.7010     3.0720 H     1 <1>   0.0800 
 38 H       -4.0260    -2.9580     3.4660 H     1 <1>   0.0800 
 39 H       -4.5950    -1.3490     3.0740 H     1 <1>   0.0800 
 40 H        3.4970     4.7550    -1.1340 H     1 <1>   0.0800 
 41 H        2.2330     5.7810    -1.7590 H     1 <1>   0.0800 
 42 H        2.6140     4.2760    -2.5660 H     1 <1>   0.0800 
@<TRIPOS>BOND
  1   1   2  2   
  2   2   3  am  
  3   2   4  1   
  4   3   5  1   
  5   3   6  1   
  6   4   7  1   
  7   4  22  1   
  8   4  23  1   
  9   5   8  1   
 10   5  24  1   
 11   5  25  1   
 12   6   9  1   
 13   6  26  1   
 14   6  27  1   
 15   7  10  ar  
 16   7  11  ar  
 17   8  12  1   
 18   8  13  2   
 19   9  14  1   
 20   9  28  1   
 21   9  29  1   
 22  10  15  ar  
 23  10  30  1   
 24  11  16  ar  
 25  11  31  1   
 26  12  17  2   
 27  13  18  1   
 28  13  19  1   
 29  14  32  1   
 30  15  20  ar  
 31  15  33  1   
 32  16  20  ar  
 33  16  34  1   
 34  17  18  1   
 35  17  35  1   
 36  18  36  1   
 37  19  37  1   
 38  19  38  1   
 39  19  39  1   
 40  20  21  1   
 41  21  40  1   
 42  21  41  1   
 43  21  42  1   
@<TRIPOS>SUBSTRUCTURE
  1 ****   3 GROUP 4 **** **** 0

# MOE 2024.06 (io_trps.svl 2023.06)
