@<TRIPOS>MOLECULE
NONAME
51 54 1 0 0 
SMALL
USER_CHARGES


@<TRIPOS>ATOM
  1 O       -0.0720     0.7570    -0.1240 O.2   1 <1>  -0.5700 
  2 C       -0.2100     1.9550    -0.0310 C.2   1 <1>   0.5690 
  3 N       -1.4090     2.5620     0.2550 N.am  1 <1>  -0.6600 
  4 C        1.0320     2.8130    -0.2690 C.3   1 <1>   0.1810 
  5 C       -1.5050     4.0590     0.3520 C.3   1 <1>   0.3640 
  6 C       -2.6290     1.8320     0.7060 C.3   1 <1>   0.2200 
  7 O        0.9560     4.0740     0.3480 O.3   1 <1>  -0.5600 
  8 C       -2.6290     4.5630    -0.5600 C.ar  1 <1>  -0.1440 
  9 C       -0.1960     4.8140    -0.0110 C.3   1 <1>   0.2610 
 10 C       -2.3560     1.1060     2.0230 C.3   1 <1>  -0.2400 
 11 C       -3.1440     0.8810    -0.3760 C.3   1 <1>  -0.2400 
 12 C       -2.7310     4.1340    -1.8770 C.ar  1 <1>  -0.1500 
 13 C       -3.5610     5.4690    -0.0750 C.ar  1 <1>  -0.1500 
 14 C       -0.1480     6.2290     0.6020 C.2   1 <1>   0.5690 
 15 C       -3.7460     4.6010    -2.6930 C.ar  1 <1>  -0.1500 
 16 C       -4.5770     5.9370    -0.8890 C.ar  1 <1>  -0.1500 
 17 O       -0.9760     6.5320     1.4350 O.2   1 <1>  -0.5700 
 18 N        0.8000     7.1440     0.2060 N.am  1 <1>  -0.6600 
 19 C       -4.6710     5.5030    -2.1990 C.ar  1 <1>  -0.1500 
 20 C        0.8520     8.5010     0.8480 C.3   1 <1>   0.3210 
 21 C        1.9200     6.8590    -0.7560 C.3   1 <1>   0.1400 
 22 C        2.2900     8.8560     1.1850 C.2   1 <1>  -0.1810 
 23 C        3.2870     6.8970    -0.0480 C.3   1 <1>   0.0200 
 24 C        3.3680     8.1530     0.7960 C.2   1 <1>  -0.3320 
 25 C        2.8010     9.9120     1.9310 C.2   1 <1>   0.1390 
 26 N        4.4510     8.7740     1.3050 N.pl3 1 <1>   0.3000 
 27 N        4.0980     9.8720     2.0050 N.2   1 <1>  -0.7070 
 28 H        1.1750     2.9530    -1.3250 H     1 <1>   0.0800 
 29 H        1.8900     2.3070     0.1330 H     1 <1>   0.0800 
 30 H       -1.7560     4.2850     1.3740 H     1 <1>   0.0800 
 31 H       -3.4120     2.5490     0.8940 H     1 <1>   0.0800 
 32 H       -0.1730     4.9330    -1.0780 H     1 <1>   0.0800 
 33 H       -1.6400     0.3170     1.8850 H     1 <1>   0.0800 
 34 H       -3.2660     0.6720     2.3930 H     1 <1>   0.0800 
 35 H       -1.9860     1.7980     2.7570 H     1 <1>   0.0800 
 36 H       -2.4510     0.0790    -0.5520 H     1 <1>   0.0800 
 37 H       -3.3110     1.4150    -1.2920 H     1 <1>   0.0800 
 38 H       -4.0770     0.4520    -0.0630 H     1 <1>   0.0800 
 39 H       -2.0230     3.4260    -2.2740 H     1 <1>   0.1500 
 40 H       -3.4990     5.8210     0.9420 H     1 <1>   0.1500 
 41 H       -3.8200     4.2600    -3.7110 H     1 <1>   0.1500 
 42 H       -5.2940     6.6400    -0.5020 H     1 <1>   0.1500 
 43 H       -5.4620     5.8670    -2.8320 H     1 <1>   0.1500 
 44 H        0.4500     9.2300     0.1660 H     1 <1>   0.0800 
 45 H        0.2680     8.5210     1.7510 H     1 <1>   0.0800 
 46 H        1.7980     5.9070    -1.2380 H     1 <1>   0.0800 
 47 H        1.9060     7.6160    -1.5210 H     1 <1>   0.0800 
 48 H        4.0710     6.8860    -0.7840 H     1 <1>   0.0800 
 49 H        3.3910     6.0290     0.5790 H     1 <1>   0.0800 
 50 H        2.2050    10.6770     2.3990 H     1 <1>   0.1500 
 51 H        5.4310     8.4860     1.2000 H     1 <1>   0.2700 
@<TRIPOS>BOND
  1   1   2  2   
  2   2   3  am  
  3   2   4  1   
  4   3   5  1   
  5   3   6  1   
  6   4   7  1   
  7   4  28  1   
  8   4  29  1   
  9   5   8  1   
 10   5   9  1   
 11   5  30  1   
 12   6  10  1   
 13   6  11  1   
 14   6  31  1   
 15   7   9  1   
 16   8  12  ar  
 17   8  13  ar  
 18   9  14  1   
 19   9  32  1   
 20  10  33  1   
 21  10  34  1   
 22  10  35  1   
 23  11  36  1   
 24  11  37  1   
 25  11  38  1   
 26  12  15  ar  
 27  12  39  1   
 28  13  16  ar  
 29  13  40  1   
 30  14  17  2   
 31  14  18  am  
 32  15  19  ar  
 33  15  41  1   
 34  16  19  ar  
 35  16  42  1   
 36  18  20  1   
 37  18  21  1   
 38  19  43  1   
 39  20  22  1   
 40  20  44  1   
 41  20  45  1   
 42  21  23  1   
 43  21  46  1   
 44  21  47  1   
 45  22  24  2   
 46  22  25  1   
 47  23  24  1   
 48  23  48  1   
 49  23  49  1   
 50  24  26  1   
 51  25  27  2   
 52  25  50  1   
 53  26  27  1   
 54  26  51  1   
@<TRIPOS>SUBSTRUCTURE
  1 ****   9 GROUP 4 **** **** 0

# MOE 2024.06 (io_trps.svl 2023.06)
