@<TRIPOS>MOLECULE
NONAME
48 52 1 0 0 
SMALL
USER_CHARGES


@<TRIPOS>ATOM
  1 S       -0.1540     0.1210     1.7970 S.3   1 <1>  -0.0800 
  2 C        1.1100    -0.9640     1.1690 C.2   1 <1>  -0.0450 
  3 C        0.7630     1.5640     1.3850 C.2   1 <1>  -0.1100 
  4 C        2.1250    -0.2000     0.6880 C.2   1 <1>   0.0620 
  5 C        0.9340    -2.3830     1.2600 C.2   1 <1>   0.7150 
  6 C        1.9310     1.2140     0.8180 C.2   1 <1>   0.0620 
  7 O        3.2440    -0.6890     0.1120 O.3   1 <1>  -0.3420 
  8 O        1.7930    -3.0740     1.7800 O.2   1 <1>  -0.5700 
  9 N       -0.1890    -3.0100     0.7600 N.am  1 <1>  -0.6600 
 10 O        2.8780     2.0930     0.3950 O.3   1 <1>  -0.3420 
 11 C        4.1000     0.2240    -0.5510 C.3   1 <1>   0.1200 
 12 C       -1.0860    -2.4120    -0.2650 C.3   1 <1>   0.1400 
 13 C       -0.3390    -4.4890     0.7670 C.3   1 <1>   0.1400 
 14 C        4.1750     1.5530     0.2170 C.3   1 <1>   0.1200 
 15 C       -2.0500    -3.5360    -0.6400 C.3   1 <1>   0.2000 
 16 C       -1.2180    -4.8090    -0.4470 C.3   1 <1>  -0.0800 
 17 O       -3.1010    -3.5220     0.2660 O.3   1 <1>  -0.6800 
 18 C       -2.0440    -6.1050    -0.3040 C.3   1 <1>  -0.0170 
 19 C       -1.2550    -7.4200    -0.2430 C.ar  1 <1>  -0.1430 
 20 C       -1.9220    -8.6230     0.1000 C.ar  1 <1>   0.0000 
 21 C        0.0820    -7.5120    -0.5140 C.ar  1 <1>  -0.1500 
 22 C       -1.1570    -9.8140     0.1650 C.ar  1 <1>   0.3100 
 23 C       -3.3070    -8.7170     0.3770 C.ar  1 <1>  -0.1500 
 24 C        0.7440    -8.7420    -0.4260 C.ar  1 <1>   0.1600 
 25 N        0.1720    -9.8560    -0.0990 N.ar  1 <1>  -0.6200 
 26 C       -1.7930   -11.0160     0.5130 C.ar  1 <1>  -0.1500 
 27 C       -3.8970    -9.9060     0.7110 C.ar  1 <1>  -0.1500 
 28 C       -3.1330   -11.0720     0.7830 C.ar  1 <1>  -0.1500 
 29 H        0.3370     2.5240     1.6120 H     1 <1>   0.1500 
 30 H        5.0720    -0.2300    -0.6240 H     1 <1>   0.0800 
 31 H        3.7120     0.3860    -1.5410 H     1 <1>   0.0800 
 32 H       -1.6160    -1.5540     0.1100 H     1 <1>   0.0800 
 33 H       -0.4990    -2.1290    -1.1220 H     1 <1>   0.0800 
 34 H        0.6190    -4.9760     0.7050 H     1 <1>   0.0800 
 35 H       -0.8230    -4.7860     1.6820 H     1 <1>   0.0800 
 36 H        4.7610     2.2740    -0.3250 H     1 <1>   0.0800 
 37 H        4.6120     1.4010     1.1880 H     1 <1>   0.0800 
 38 H       -2.4540    -3.4340    -1.6330 H     1 <1>   0.0800 
 39 H       -0.5820    -4.8970    -1.3100 H     1 <1>   0.0800 
 40 H       -2.7380    -3.4280     1.1700 H     1 <1>   0.4000 
 41 H       -2.7300    -6.1660    -1.1310 H     1 <1>   0.0800 
 42 H       -2.6310    -6.0270     0.5950 H     1 <1>   0.0800 
 43 H        0.6800    -6.6700    -0.8020 H     1 <1>   0.1500 
 44 H       -3.9210    -7.8380     0.3230 H     1 <1>   0.1500 
 45 H        1.7980    -8.7620    -0.6430 H     1 <1>   0.1500 
 46 H       -1.1840   -11.9000     0.5590 H     1 <1>   0.1500 
 47 H       -4.9520    -9.9590     0.9200 H     1 <1>   0.1500 
 48 H       -3.6070   -12.0010     1.0480 H     1 <1>   0.1500 
@<TRIPOS>BOND
  1   1   2  1   
  2   1   3  1   
  3   2   4  2   
  4   2   5  1   
  5   3   6  2   
  6   3  29  1   
  7   4   6  1   
  8   4   7  1   
  9   5   8  2   
 10   5   9  am  
 11   6  10  1   
 12   7  11  1   
 13   9  12  1   
 14   9  13  1   
 15  10  14  1   
 16  11  14  1   
 17  11  30  1   
 18  11  31  1   
 19  12  15  1   
 20  12  32  1   
 21  12  33  1   
 22  13  16  1   
 23  13  34  1   
 24  13  35  1   
 25  14  36  1   
 26  14  37  1   
 27  15  16  1   
 28  15  17  1   
 29  15  38  1   
 30  16  18  1   
 31  16  39  1   
 32  17  40  1   
 33  18  19  1   
 34  18  41  1   
 35  18  42  1   
 36  19  20  ar  
 37  19  21  ar  
 38  20  22  ar  
 39  20  23  ar  
 40  21  24  ar  
 41  21  43  1   
 42  22  25  ar  
 43  22  26  ar  
 44  23  27  ar  
 45  23  44  1   
 46  24  25  ar  
 47  24  45  1   
 48  26  28  ar  
 49  26  46  1   
 50  27  28  ar  
 51  27  47  1   
 52  28  48  1   
@<TRIPOS>SUBSTRUCTURE
  1 ****  13 GROUP 4 **** **** 0

# MOE 2024.06 (io_trps.svl 2023.06)
