@<TRIPOS>MOLECULE
NONAME
58 60 1 0 0 
SMALL
USER_CHARGES


@<TRIPOS>ATOM
  1 O        2.4750    -0.5340     2.5960 O.2   1 <1>  -0.5700 
  2 C        2.6140    -0.7460     1.4060 C.2   1 <1>   0.5440 
  3 N        3.1220     0.2530     0.6030 N.am  1 <1>  -0.6600 
  4 C        2.2720    -2.0480     0.8710 C.ar  1 <1>   0.0860 
  5 C        3.5170     0.0580    -0.8300 C.3   1 <1>   0.1400 
  6 C        3.4700     1.5890     1.1560 C.3   1 <1>   0.1400 
  7 C        1.1730    -2.2240     0.0320 C.ar  1 <1>  -0.1500 
  8 C        3.0410    -3.1690     1.1730 C.ar  1 <1>  -0.1500 
  9 C        5.0230    -0.1970    -0.9900 C.3   1 <1>   0.1400 
 10 C        4.8440     1.5760     1.8430 C.3   1 <1>  -0.1600 
 11 C        0.8680    -3.4640    -0.5000 C.ar  1 <1>  -0.1500 
 12 C        2.7400    -4.4100     0.6430 C.ar  1 <1>  -0.1500 
 13 N        5.8490     0.8660    -0.3370 N.am  1 <1>  -0.6600 
 14 C        5.9250     0.7380     1.1460 C.3   1 <1>   0.1400 
 15 C        1.6530    -4.5650    -0.2010 C.ar  1 <1>  -0.1430 
 16 C        6.4450     1.8560    -1.0820 C.2   1 <1>   0.5690 
 17 C        1.3200    -5.9290    -0.7860 C.3   1 <1>  -0.0170 
 18 O        6.2700     1.9230    -2.2780 O.2   1 <1>  -0.5700 
 19 C        7.3090     2.9420    -0.4470 C.3   1 <1>   0.0820 
 20 C        0.3650    -6.6940     0.1380 C.3   1 <1>  -0.1600 
 21 C        8.5860     2.4280     0.2120 C.2   1 <1>  -0.1810 
 22 C        0.0150    -8.0730    -0.4300 C.3   1 <1>  -0.2400 
 23 C        9.0420     2.7370     1.4940 C.2   1 <1>   0.1080 
 24 C        9.5180     1.5850    -0.2880 C.2   1 <1>  -0.3320 
 25 N       10.1480     2.1280     1.7810 N.2   1 <1>  -0.7070 
 26 C        8.3740     3.6640     2.4850 C.3   1 <1>  -0.0590 
 27 N       10.4440     1.4190     0.6790 N.pl3 1 <1>   0.3000 
 28 C        9.6110     0.9040    -1.6440 C.3   1 <1>  -0.0600 
 29 H        3.2520     0.9340    -1.3960 H     1 <1>   0.0800 
 30 H        2.9810    -0.7670    -1.2600 H     1 <1>   0.0800 
 31 H        2.7170     1.8930     1.8640 H     1 <1>   0.0800 
 32 H        3.4770     2.3110     0.3580 H     1 <1>   0.0800 
 33 H        0.5550    -1.3740    -0.2000 H     1 <1>   0.1500 
 34 H        3.8820    -3.0570     1.8350 H     1 <1>   0.1500 
 35 H        5.2550    -0.2510    -2.0390 H     1 <1>   0.0800 
 36 H        5.2680    -1.1550    -0.5650 H     1 <1>   0.0800 
 37 H        4.7200     1.1950     2.8410 H     1 <1>   0.0800 
 38 H        5.1840     2.5890     1.9420 H     1 <1>   0.0800 
 39 H        0.0130    -3.5700    -1.1460 H     1 <1>   0.1500 
 40 H        3.3530    -5.2590     0.8940 H     1 <1>   0.1500 
 41 H        5.7810    -0.2950     1.4130 H     1 <1>   0.0800 
 42 H        6.8990     1.0150     1.5050 H     1 <1>   0.0800 
 43 H        2.2260    -6.4950    -0.9190 H     1 <1>   0.0800 
 44 H        0.8680    -5.8060    -1.7540 H     1 <1>   0.0800 
 45 H        6.7080     3.4700     0.2650 H     1 <1>   0.0800 
 46 H        7.5880     3.6450    -1.2100 H     1 <1>   0.0800 
 47 H       -0.5380    -6.1220     0.2680 H     1 <1>   0.0800 
 48 H        0.8220    -6.8110     1.1050 H     1 <1>   0.0800 
 49 H       -0.4660    -7.9770    -1.3880 H     1 <1>   0.0800 
 50 H       -0.6560    -8.5850     0.2380 H     1 <1>   0.0800 
 51 H        0.9020    -8.6700    -0.5450 H     1 <1>   0.0800 
 52 H        8.0840     4.5770     2.0010 H     1 <1>   0.0800 
 53 H        9.0610     3.8990     3.2780 H     1 <1>   0.0800 
 54 H        7.5110     3.1860     2.9070 H     1 <1>   0.0800 
 55 H       11.2870     0.8370     0.6160 H     1 <1>   0.2700 
 56 H        8.8800     1.3040    -2.3240 H     1 <1>   0.0800 
 57 H        9.4380    -0.1520    -1.5400 H     1 <1>   0.0800 
 58 H       10.5840     1.0610    -2.0730 H     1 <1>   0.0800 
@<TRIPOS>BOND
  1   1   2  2   
  2   2   3  am  
  3   2   4  1   
  4   3   5  1   
  5   3   6  1   
  6   4   7  ar  
  7   4   8  ar  
  8   5   9  1   
  9   5  29  1   
 10   5  30  1   
 11   6  10  1   
 12   6  31  1   
 13   6  32  1   
 14   7  11  ar  
 15   7  33  1   
 16   8  12  ar  
 17   8  34  1   
 18   9  13  1   
 19   9  35  1   
 20   9  36  1   
 21  10  14  1   
 22  10  37  1   
 23  10  38  1   
 24  11  15  ar  
 25  11  39  1   
 26  12  15  ar  
 27  12  40  1   
 28  13  14  1   
 29  13  16  am  
 30  14  41  1   
 31  14  42  1   
 32  15  17  1   
 33  16  18  2   
 34  16  19  1   
 35  17  20  1   
 36  17  43  1   
 37  17  44  1   
 38  19  21  1   
 39  19  45  1   
 40  19  46  1   
 41  20  22  1   
 42  20  47  1   
 43  20  48  1   
 44  21  23  1   
 45  21  24  2   
 46  22  49  1   
 47  22  50  1   
 48  22  51  1   
 49  23  25  2   
 50  23  26  1   
 51  24  27  1   
 52  24  28  1   
 53  25  27  1   
 54  26  52  1   
 55  26  53  1   
 56  26  54  1   
 57  27  55  1   
 58  28  56  1   
 59  28  57  1   
 60  28  58  1   
@<TRIPOS>SUBSTRUCTURE
  1 ****   9 GROUP 4 **** **** 0

# MOE 2024.06 (io_trps.svl 2023.06)
