@<TRIPOS>MOLECULE
NONAME
45 47 1 0 0 
SMALL
USER_CHARGES


@<TRIPOS>ATOM
  1 O        1.1350     0.4300    -1.7550 O.2   1 <1>  -0.5700 
  2 C        2.0440     0.0950    -0.9990 C.2   1 <1>   0.6900 
  3 N        2.8720     0.9320    -0.3510 N.am  1 <1>  -0.4200 
  4 N        2.4060    -1.1660    -0.6430 N.am  1 <1>  -0.2980 
  5 C        3.6980     0.1210     0.3930 C.2   1 <1>   0.4490 
  6 C        2.7630     2.3990    -0.2410 C.3   1 <1>   0.1400 
  7 N        3.4570    -1.1240     0.2440 N.2   1 <1>  -0.5120 
  8 C        1.7960    -2.4340    -1.0810 C.3   1 <1>   0.0600 
  9 C        4.7810     0.7280     1.2660 C.3   1 <1>  -0.0990 
 10 C        4.0660     2.9860     0.3290 C.3   1 <1>  -0.0190 
 11 C        4.5140     2.2110     1.5890 C.3   1 <1>  -0.1600 
 12 C        3.8740     4.4670     0.6220 C.2   1 <1>   0.5690 
 13 O        2.9450     4.8000     1.3160 O.2   1 <1>  -0.5700 
 14 N        4.7750     5.3460     0.0870 N.am  1 <1>  -0.4940 
 15 C        4.8860     6.7550     0.1810 C.2   1 <1>  -0.0880 
 16 N        3.8920     7.6790     0.3180 N.pl3 1 <1>   0.3140 
 17 C        6.0450     7.4540     0.1120 C.2   1 <1>  -0.1810 
 18 N        4.3890     8.9340     0.3320 N.2   1 <1>  -0.7070 
 19 C        2.4370     7.4840     0.3550 C.3   1 <1>   0.0160 
 20 C        5.6680     8.7900     0.2110 C.2   1 <1>   0.1080 
 21 C        7.4580     6.9160    -0.0360 C.3   1 <1>   0.0210 
 22 C        6.6020     9.9790     0.1880 C.3   1 <1>  -0.0590 
 23 C        7.8200     6.7570    -1.5140 C.3   1 <1>  -0.2400 
 24 H        1.9370     2.6260     0.4120 H     1 <1>   0.0800 
 25 H        2.5520     2.8160    -1.2110 H     1 <1>   0.0800 
 26 H        0.9940    -2.2350    -1.7700 H     1 <1>   0.0800 
 27 H        1.4110    -2.9570    -0.2240 H     1 <1>   0.0800 
 28 H        2.5410    -3.0390    -1.5640 H     1 <1>   0.0800 
 29 H        5.7130     0.6390     0.7370 H     1 <1>   0.0800 
 30 H        4.8620     0.1590     2.1750 H     1 <1>   0.0800 
 31 H        4.8260     2.8850    -0.4250 H     1 <1>   0.0800 
 32 H        5.4020     2.6560     2.0040 H     1 <1>   0.0800 
 33 H        3.7370     2.2760     2.3340 H     1 <1>   0.0800 
 34 H        5.5630     4.9200    -0.3970 H     1 <1>   0.3700 
 35 H        2.1640     6.6970    -0.3210 H     1 <1>   0.0800 
 36 H        1.9520     8.3960     0.0620 H     1 <1>   0.0800 
 37 H        2.1450     7.2270     1.3550 H     1 <1>   0.0800 
 38 H        7.5350     5.9660     0.4620 H     1 <1>   0.0800 
 39 H        8.1520     7.5870     0.4400 H     1 <1>   0.0800 
 40 H        7.3220     9.8710    -0.6010 H     1 <1>   0.0800 
 41 H        7.1100    10.0570     1.1310 H     1 <1>   0.0800 
 42 H        6.0390    10.8790     0.0220 H     1 <1>   0.0800 
 43 H        7.1400     6.0770    -1.9940 H     1 <1>   0.0800 
 44 H        8.8210     6.3780    -1.6130 H     1 <1>   0.0800 
 45 H        7.7600     7.7080    -2.0120 H     1 <1>   0.0800 
@<TRIPOS>BOND
  1   1   2  2   
  2   2   3  am  
  3   2   4  am  
  4   3   5  1   
  5   3   6  1   
  6   4   7  1   
  7   4   8  1   
  8   5   7  2   
  9   5   9  1   
 10   6  10  1   
 11   6  24  1   
 12   6  25  1   
 13   8  26  1   
 14   8  27  1   
 15   8  28  1   
 16   9  11  1   
 17   9  29  1   
 18   9  30  1   
 19  10  11  1   
 20  10  12  1   
 21  10  31  1   
 22  11  32  1   
 23  11  33  1   
 24  12  13  2   
 25  12  14  am  
 26  14  15  1   
 27  14  34  1   
 28  15  16  1   
 29  15  17  2   
 30  16  18  1   
 31  16  19  1   
 32  17  20  1   
 33  17  21  1   
 34  18  20  2   
 35  19  35  1   
 36  19  36  1   
 37  19  37  1   
 38  20  22  1   
 39  21  23  1   
 40  21  38  1   
 41  21  39  1   
 42  22  40  1   
 43  22  41  1   
 44  22  42  1   
 45  23  43  1   
 46  23  44  1   
 47  23  45  1   
@<TRIPOS>SUBSTRUCTURE
  1 ****  12 GROUP 4 **** **** 0

# MOE 2024.06 (io_trps.svl 2023.06)
