@<TRIPOS>MOLECULE
NONAME
45 48 1 0 0 
SMALL
USER_CHARGES


@<TRIPOS>ATOM
  1 O       -0.6650    -0.1760     0.2290 O.3   1 <1>  -0.2800 
  2 C       -0.9690     1.0920     0.0730 C.2   1 <1>   0.4250 
  3 C       -1.8550    -0.6930     0.3550 C.2   1 <1>   0.2980 
  4 N       -2.2360     1.3190     0.0970 N.2   1 <1>  -0.3380 
  5 C        0.0780     2.0730    -0.1060 C.ar  1 <1>   0.0530 
  6 N       -2.8090     0.1530     0.2840 N.2   1 <1>  -0.3380 
  7 C       -1.9390    -2.2110     0.5590 C.3   1 <1>   0.2900 
  8 C        1.4270     1.7130    -0.0980 C.ar  1 <1>   0.1600 
  9 C       -0.2070     3.4210    -0.2950 C.ar  1 <1>  -0.1500 
 10 N       -3.3000    -2.7730     0.7420 N.3   1 <1>  -0.8100 
 11 N        2.4530     2.5340    -0.2550 N.ar  1 <1>  -0.6200 
 12 C        0.8460     4.2940    -0.4600 C.ar  1 <1>  -0.1500 
 13 C       -4.1840    -2.6000    -0.4220 C.3   1 <1>   0.1100 
 14 C       -3.2900    -4.2130     1.0620 C.3   1 <1>   0.1100 
 15 C        2.1410     3.8070    -0.4320 C.ar  1 <1>   0.1600 
 16 C       -5.2480    -3.6790    -0.2540 C.3   1 <1>   0.2000 
 17 C       -4.4510    -4.8610     0.2880 C.3   1 <1>  -0.0800 
 18 O       -6.1160    -3.2570     0.7340 O.3   1 <1>  -0.6800 
 19 C       -3.9540    -5.7640    -0.8590 C.3   1 <1>   0.0210 
 20 C       -3.0460    -6.8790    -0.3720 C.2   1 <1>   0.1080 
 21 N       -3.3470    -7.6600     0.6190 N.2   1 <1>  -0.7070 
 22 C       -1.8060    -7.1870    -0.9230 C.2   1 <1>  -0.1500 
 23 N       -2.2980    -8.4970     0.7260 N.pl3 1 <1>   0.3000 
 24 C       -1.3500    -8.2290    -0.1970 C.2   1 <1>  -0.3320 
 25 C       -0.0500    -9.0000    -0.3310 C.3   1 <1>  -0.0600 
 26 H       -1.3600    -2.4470     1.4340 H     1 <1>   0.0800 
 27 H       -1.4700    -2.6910    -0.2810 H     1 <1>   0.0800 
 28 H        1.6750     0.6760     0.0480 H     1 <1>   0.1500 
 29 H       -1.2250     3.7720    -0.3110 H     1 <1>   0.1500 
 30 H        0.6690     5.3440    -0.6080 H     1 <1>   0.1500 
 31 H       -4.6240    -1.6170    -0.4490 H     1 <1>   0.0800 
 32 H       -3.6380    -2.7710    -1.3330 H     1 <1>   0.0800 
 33 H       -2.3480    -4.6650     0.8010 H     1 <1>   0.0800 
 34 H       -3.4420    -4.3380     2.1210 H     1 <1>   0.0800 
 35 H        2.9590     4.4960    -0.5620 H     1 <1>   0.1500 
 36 H       -5.8130    -3.8890    -1.1460 H     1 <1>   0.0800 
 37 H       -5.0530    -5.4630     0.9480 H     1 <1>   0.0800 
 38 H       -5.5610    -2.8650     1.4420 H     1 <1>   0.4000 
 39 H       -3.4250    -5.1790    -1.5880 H     1 <1>   0.0800 
 40 H       -4.8010    -6.2130    -1.3450 H     1 <1>   0.0800 
 41 H       -1.3360    -6.6880    -1.7520 H     1 <1>   0.1500 
 42 H       -2.2630    -9.2410     1.4330 H     1 <1>   0.2700 
 43 H        0.5370    -8.5990    -1.1380 H     1 <1>   0.0800 
 44 H       -0.2520   -10.0360    -0.5380 H     1 <1>   0.0800 
 45 H        0.5220    -8.9290     0.5770 H     1 <1>   0.0800 
@<TRIPOS>BOND
  1   1   2  1   
  2   1   3  1   
  3   2   4  2   
  4   2   5  1   
  5   3   6  2   
  6   3   7  1   
  7   4   6  1   
  8   5   8  ar  
  9   5   9  ar  
 10   7  10  1   
 11   7  26  1   
 12   7  27  1   
 13   8  11  ar  
 14   8  28  1   
 15   9  12  ar  
 16   9  29  1   
 17  10  13  1   
 18  10  14  1   
 19  11  15  ar  
 20  12  15  ar  
 21  12  30  1   
 22  13  16  1   
 23  13  31  1   
 24  13  32  1   
 25  14  17  1   
 26  14  33  1   
 27  14  34  1   
 28  15  35  1   
 29  16  17  1   
 30  16  18  1   
 31  16  36  1   
 32  17  19  1   
 33  17  37  1   
 34  18  38  1   
 35  19  20  1   
 36  19  39  1   
 37  19  40  1   
 38  20  21  2   
 39  20  22  1   
 40  21  23  1   
 41  22  24  2   
 42  22  41  1   
 43  23  24  1   
 44  23  42  1   
 45  24  25  1   
 46  25  43  1   
 47  25  44  1   
 48  25  45  1   
@<TRIPOS>SUBSTRUCTURE
  1 ****   7 GROUP 4 **** **** 0

# MOE 2024.06 (io_trps.svl 2023.06)
