@<TRIPOS>MOLECULE
NONAME
46 49 1 0 0 
SMALL
USER_CHARGES


@<TRIPOS>ATOM
  1 O       -1.1240     1.1430     1.2600 O.co2 1 <1>  -0.9000 
  2 C       -1.2500     2.2950     1.7170 C.2   1 <1>   1.0330 
  3 O       -2.1940     2.5140     2.5040 O.co2 1 <1>  -0.9000 
  4 C       -0.3470     3.3940     1.3730 C.2   1 <1>  -0.0060 
  5 N        0.7470     3.3750     0.5360 N.2   1 <1>  -0.5650 
  6 C       -0.4560     4.6500     1.8470 C.2   1 <1>  -0.0100 
  7 C        1.1920     4.5810     0.5710 C.2   1 <1>   0.5620 
  8 O        0.5010     5.3880     1.3490 O.3   1 <1>  -0.2800 
  9 N        2.2970     5.0630    -0.1130 N.pl3 1 <1>  -0.8220 
 10 C        2.5940     6.5230    -0.1560 C.3   1 <1>   0.2890 
 11 C        3.0590     4.1590    -1.0150 C.3   1 <1>   0.2090 
 12 C        4.0950     6.8110    -0.4290 C.3   1 <1>  -0.0800 
 13 C        1.6460     7.1930    -1.1650 C.3   1 <1>  -0.1600 
 14 C        4.5760     4.3710    -0.8930 C.3   1 <1>  -0.1600 
 15 C        4.9880     5.6010    -0.0620 C.3   1 <1>   0.4240 
 16 C        4.3330     7.3240    -1.8700 C.3   1 <1>  -0.1600 
 17 C        2.1240     8.6060    -1.5220 C.3   1 <1>  -0.1600 
 18 O        4.7090     5.2670     1.2490 O.3   1 <1>  -0.6800 
 19 C        6.4910     5.9620    -0.1250 C.ar  1 <1>  -0.1440 
 20 C        3.5210     8.5970    -2.1680 C.3   1 <1>  -0.1600 
 21 C        7.3590     5.4800    -1.1020 C.ar  1 <1>  -0.1500 
 22 C        7.0140     6.8270     0.8320 C.ar  1 <1>  -0.1500 
 23 C        8.6920     5.8550    -1.1230 C.ar  1 <1>  -0.1500 
 24 C        8.3450     7.2050     0.8150 C.ar  1 <1>  -0.1500 
 25 C        9.1870     6.7200    -0.1660 C.ar  1 <1>  -0.1500 
 26 H       -1.1770     5.0680     2.5260 H     1 <1>   0.1500 
 27 H        2.3770     6.9300     0.8180 H     1 <1>   0.0800 
 28 H        2.8300     3.1290    -0.7970 H     1 <1>   0.0800 
 29 H        2.7450     4.3520    -2.0260 H     1 <1>   0.0800 
 30 H        4.3780     7.6210     0.2190 H     1 <1>   0.0800 
 31 H        1.5910     6.6030    -2.0630 H     1 <1>   0.0800 
 32 H        0.6590     7.2430    -0.7400 H     1 <1>   0.0800 
 33 H        4.9390     4.4680    -1.8960 H     1 <1>   0.0800 
 34 H        5.0350     3.4920    -0.4780 H     1 <1>   0.0800 
 35 H        5.3770     7.5350    -2.0280 H     1 <1>   0.0800 
 36 H        4.0460     6.5640    -2.5740 H     1 <1>   0.0800 
 37 H        1.4200     9.0750    -2.1890 H     1 <1>   0.0800 
 38 H        2.1560     9.1950    -0.6200 H     1 <1>   0.0800 
 39 H        3.7690     4.9680     1.2470 H     1 <1>   0.4000 
 40 H        4.0660     9.4580    -1.8190 H     1 <1>   0.0800 
 41 H        3.4220     8.6950    -3.2360 H     1 <1>   0.0800 
 42 H        7.0280     4.8050    -1.8670 H     1 <1>   0.1500 
 43 H        6.3760     7.2110     1.6100 H     1 <1>   0.1500 
 44 H        9.3470     5.4720    -1.8870 H     1 <1>   0.1500 
 45 H        8.7220     7.8750     1.5680 H     1 <1>   0.1500 
 46 H       10.2230     7.0110    -0.1820 H     1 <1>   0.1500 
@<TRIPOS>BOND
  1   1   2  ar  
  2   2   3  ar  
  3   2   4  1   
  4   4   5  1   
  5   4   6  2   
  6   5   7  2   
  7   6   8  1   
  8   6  26  1   
  9   7   8  1   
 10   7   9  1   
 11   9  10  1   
 12   9  11  1   
 13  10  12  1   
 14  10  13  1   
 15  10  27  1   
 16  11  14  1   
 17  11  28  1   
 18  11  29  1   
 19  12  15  1   
 20  12  16  1   
 21  12  30  1   
 22  13  17  1   
 23  13  31  1   
 24  13  32  1   
 25  14  15  1   
 26  14  33  1   
 27  14  34  1   
 28  15  18  1   
 29  15  19  1   
 30  16  20  1   
 31  16  35  1   
 32  16  36  1   
 33  17  20  1   
 34  17  37  1   
 35  17  38  1   
 36  18  39  1   
 37  19  21  ar  
 38  19  22  ar  
 39  20  40  1   
 40  20  41  1   
 41  21  23  ar  
 42  21  42  1   
 43  22  24  ar  
 44  22  43  1   
 45  23  25  ar  
 46  23  44  1   
 47  24  25  ar  
 48  24  45  1   
 49  25  46  1   
@<TRIPOS>SUBSTRUCTURE
  1 ****   9 GROUP 4 **** **** 0

# MOE 2024.06 (io_trps.svl 2023.06)
