@<TRIPOS>MOLECULE
NONAME
56 59 1 0 0 
SMALL
USER_CHARGES


@<TRIPOS>ATOM
  1 O        0.3830    -0.9400    -1.3820 O.3   1 <1>  -0.5600 
  2 C       -0.8780    -1.5390    -1.3120 C.3   1 <1>   0.1200 
  3 C        1.4380    -1.8460    -1.4900 C.3   1 <1>   0.1200 
  4 C       -0.9740    -2.4550    -0.0790 C.3   1 <1>   0.2090 
  5 C        1.4790    -2.7740    -0.2600 C.3   1 <1>   0.2090 
  6 N        0.1540    -3.4600    -0.0510 N.pl3 1 <1>  -0.8380 
  7 C       -0.0740    -4.7900     0.1270 C.ar  1 <1>   0.7710 
  8 N       -1.3210    -5.2400     0.1490 N.ar  1 <1>  -0.6200 
  9 N        0.9720    -5.6200     0.2830 N.ar  1 <1>  -0.1790 
 10 C       -1.5260    -6.5320     0.3170 C.ar  1 <1>   0.4100 
 11 C        0.8160    -6.9520     0.4630 C.ar  1 <1>   0.2180 
 12 N       -2.8120    -6.9630     0.3300 N.pl3 1 <1>  -0.8380 
 13 C       -0.4520    -7.4270     0.4810 C.ar  1 <1>  -0.1500 
 14 C        2.0510    -7.8280     0.6370 C.3   1 <1>  -0.0170 
 15 C       -3.2980    -8.3810     0.3560 C.3   1 <1>   0.2090 
 16 C       -3.9890    -6.0550     0.3260 C.3   1 <1>   0.2090 
 17 C        2.8460    -7.4650     1.8990 C.3   1 <1>  -0.2400 
 18 C       -4.7800    -8.3310    -0.0510 C.3   1 <1>   0.4240 
 19 C       -5.1950    -6.9710     0.5160 C.3   1 <1>  -0.1600 
 20 O       -4.8420    -8.1970    -1.4290 O.3   1 <1>  -0.6800 
 21 C       -5.6190    -9.5590     0.3820 C.ar  1 <1>  -0.1440 
 22 C       -5.2610   -10.8760     0.0620 C.ar  1 <1>  -0.1440 
 23 C       -6.7860    -9.3660     1.1220 C.ar  1 <1>  -0.1500 
 24 C       -6.0360   -11.9350     0.5140 C.ar  1 <1>  -0.1500 
 25 C       -4.0520   -11.2520    -0.7880 C.3   1 <1>  -0.0970 
 26 C       -7.5530   -10.4280     1.5620 C.ar  1 <1>  -0.1500 
 27 C       -7.1750   -11.7190     1.2630 C.ar  1 <1>  -0.1500 
 28 H       -1.0500    -2.0970    -2.2160 H     1 <1>   0.0800 
 29 H       -1.6100    -0.7530    -1.2480 H     1 <1>   0.0800 
 30 H        2.3490    -1.2770    -1.5590 H     1 <1>   0.0800 
 31 H        1.3150    -2.4120    -2.3980 H     1 <1>   0.0800 
 32 H       -1.9390    -2.9290    -0.0860 H     1 <1>   0.0800 
 33 H       -0.9250    -1.8440     0.8060 H     1 <1>   0.0800 
 34 H        1.7120    -2.1770     0.6070 H     1 <1>   0.0800 
 35 H        2.2760    -3.4810    -0.4010 H     1 <1>   0.0800 
 36 H        1.8840    -5.1870     0.2930 H     1 <1>   0.4570 
 37 H       -0.6590    -8.4700     0.6250 H     1 <1>   0.1500 
 38 H        2.6850    -7.7390    -0.2290 H     1 <1>   0.0800 
 39 H        1.7500    -8.8600     0.7060 H     1 <1>   0.0800 
 40 H       -3.2180    -8.7650     1.3580 H     1 <1>   0.0800 
 41 H       -2.7290    -8.9950    -0.3160 H     1 <1>   0.0800 
 42 H       -4.0450    -5.5450    -0.6220 H     1 <1>   0.0800 
 43 H       -3.9180    -5.3290     1.1190 H     1 <1>   0.0800 
 44 H        3.2390    -6.4660     1.8490 H     1 <1>   0.0800 
 45 H        3.6750    -8.1430     2.0140 H     1 <1>   0.0800 
 46 H        2.2240    -7.5510     2.7740 H     1 <1>   0.0800 
 47 H       -6.0840    -6.5830     0.0500 H     1 <1>   0.0800 
 48 H       -5.3650    -7.0550     1.5740 H     1 <1>   0.0800 
 49 H       -4.2140    -7.4970    -1.6860 H     1 <1>   0.4000 
 50 H       -7.1370    -8.3840     1.3730 H     1 <1>   0.1500 
 51 H       -5.7610   -12.9480     0.2800 H     1 <1>   0.1500 
 52 H       -3.9380   -10.5800    -1.6180 H     1 <1>   0.0800 
 53 H       -4.1710   -12.2390    -1.2000 H     1 <1>   0.0800 
 54 H       -3.1610   -11.2480    -0.1890 H     1 <1>   0.0800 
 55 H       -8.4460   -10.2480     2.1350 H     1 <1>   0.1500 
 56 H       -7.7660   -12.5510     1.6040 H     1 <1>   0.1500 
@<TRIPOS>BOND
  1   1   2  1   
  2   1   3  1   
  3   2   4  1   
  4   2  28  1   
  5   2  29  1   
  6   3   5  1   
  7   3  30  1   
  8   3  31  1   
  9   4   6  1   
 10   4  32  1   
 11   4  33  1   
 12   5   6  1   
 13   5  34  1   
 14   5  35  1   
 15   6   7  1   
 16   7   8  ar  
 17   7   9  ar  
 18   8  10  ar  
 19   9  11  ar  
 20   9  36  1   
 21  10  12  1   
 22  10  13  ar  
 23  11  13  ar  
 24  11  14  1   
 25  12  15  1   
 26  12  16  1   
 27  13  37  1   
 28  14  17  1   
 29  14  38  1   
 30  14  39  1   
 31  15  18  1   
 32  15  40  1   
 33  15  41  1   
 34  16  19  1   
 35  16  42  1   
 36  16  43  1   
 37  17  44  1   
 38  17  45  1   
 39  17  46  1   
 40  18  19  1   
 41  18  20  1   
 42  18  21  1   
 43  19  47  1   
 44  19  48  1   
 45  20  49  1   
 46  21  22  ar  
 47  21  23  ar  
 48  22  24  ar  
 49  22  25  1   
 50  23  26  ar  
 51  23  50  1   
 52  24  27  ar  
 53  24  51  1   
 54  25  52  1   
 55  25  53  1   
 56  25  54  1   
 57  26  27  ar  
 58  26  55  1   
 59  27  56  1   
@<TRIPOS>SUBSTRUCTURE
  1 ****  12 GROUP 4 **** **** 0

# MOE 2024.06 (io_trps.svl 2023.06)
