@<TRIPOS>MOLECULE
NONAME
52 54 1 0 0 
SMALL
USER_CHARGES


@<TRIPOS>ATOM
  1 O        3.1380     2.0660     1.8710 O.co2 1 <1>  -0.9000 
  2 C        2.5490     1.0400     1.4990 C.2   1 <1>   0.9060 
  3 O        2.4450     0.0630     2.2370 O.co2 1 <1>  -0.9000 
  4 C        2.2250     0.8620     0.0030 C.3   1 <1>  -0.1060 
  5 C        3.1950    -0.2580    -0.4380 C.3   1 <1>   0.2000 
  6 C        2.5580     2.1460    -0.8300 C.3   1 <1>  -0.1600 
  7 C        0.7420     0.4430    -0.2000 C.3   1 <1>  -0.1600 
  8 O        3.0790    -0.4740    -1.8130 O.3   1 <1>  -0.6800 
  9 C        4.6600     0.1400    -0.1150 C.3   1 <1>   0.3430 
 10 C        4.0500     2.3040    -1.1800 C.3   1 <1>   0.3430 
 11 C       -0.2670     1.4840     0.3110 C.3   1 <1>  -0.1600 
 12 N        4.8730     1.6320    -0.1440 N.4   1 <1>  -0.9590 
 13 C       -1.7050     1.0010     0.1030 C.3   1 <1>  -0.2400 
 14 C        6.2860     2.0490    -0.0720 C.3   1 <1>   0.4860 
 15 C        6.3620     3.5580     0.0860 C.ar  1 <1>  -0.1440 
 16 C        5.7590     4.1830     1.1690 C.ar  1 <1>  -0.1500 
 17 C        7.0250     4.3320    -0.8550 C.ar  1 <1>  -0.1500 
 18 C        5.8160     5.5580     1.3010 C.ar  1 <1>  -0.1500 
 19 C        7.0770     5.7070    -0.7160 C.ar  1 <1>  -0.1500 
 20 C        6.4730     6.3460     0.3630 C.ar  1 <1>   0.0000 
 21 C        6.5210     7.7840     0.5030 C.ar  1 <1>   0.0000 
 22 C        7.7330     8.4720     0.5300 C.ar  1 <1>   0.1600 
 23 C        5.3620     8.5340     0.6150 C.ar  1 <1>  -0.1500 
 24 N        7.8770     9.7830     0.6470 N.ar  1 <1>  -0.6200 
 25 C        5.4870     9.9010     0.7410 C.ar  1 <1>  -0.1500 
 26 C        6.7500    10.4680     0.7500 C.ar  1 <1>   0.1600 
 27 H        2.9620    -1.1860     0.0580 H     1 <1>   0.0800 
 28 H        2.2340     3.0200    -0.2910 H     1 <1>   0.0800 
 29 H        2.0120     2.1360    -1.7560 H     1 <1>   0.0800 
 30 H        0.5500     0.2590    -1.2420 H     1 <1>   0.0800 
 31 H        0.5730    -0.4800     0.3310 H     1 <1>   0.0800 
 32 H        2.1640    -0.7570    -2.0150 H     1 <1>   0.4000 
 33 H        5.3140    -0.3550    -0.8120 H     1 <1>   0.0800 
 34 H        4.8870    -0.2130     0.8780 H     1 <1>   0.0800 
 35 H        4.2920     3.3530    -1.2400 H     1 <1>   0.0800 
 36 H        4.2430     1.8480    -2.1370 H     1 <1>   0.0800 
 37 H       -0.1070     1.6600     1.3620 H     1 <1>   0.0800 
 38 H       -0.1350     2.4190    -0.2050 H     1 <1>   0.0800 
 39 H        4.4280     1.9730     0.7480 H     1 <1>   0.4500 
 40 H       -1.8700     0.0820     0.6380 H     1 <1>   0.0800 
 41 H       -1.9020     0.8370    -0.9410 H     1 <1>   0.0800 
 42 H       -2.3950     1.7380     0.4720 H     1 <1>   0.0800 
 43 H        6.7580     1.5810     0.7770 H     1 <1>   0.0800 
 44 H        6.8030     1.7460    -0.9660 H     1 <1>   0.0800 
 45 H        5.2320     3.6100     1.9170 H     1 <1>   0.1500 
 46 H        7.5040     3.8740    -1.7040 H     1 <1>   0.1500 
 47 H        5.3420     6.0260     2.1470 H     1 <1>   0.1500 
 48 H        7.5890     6.2980    -1.4560 H     1 <1>   0.1500 
 49 H        8.6380     7.8950     0.4520 H     1 <1>   0.1500 
 50 H        4.3960     8.0600     0.6020 H     1 <1>   0.1500 
 51 H        4.6160    10.5240     0.8300 H     1 <1>   0.1500 
 52 H        6.8380    11.5360     0.8470 H     1 <1>   0.1500 
@<TRIPOS>BOND
  1   1   2  ar  
  2   2   3  ar  
  3   2   4  1   
  4   4   5  1   
  5   4   6  1   
  6   4   7  1   
  7   5   8  1   
  8   5   9  1   
  9   5  27  1   
 10   6  10  1   
 11   6  28  1   
 12   6  29  1   
 13   7  11  1   
 14   7  30  1   
 15   7  31  1   
 16   8  32  1   
 17   9  12  1   
 18   9  33  1   
 19   9  34  1   
 20  10  12  1   
 21  10  35  1   
 22  10  36  1   
 23  11  13  1   
 24  11  37  1   
 25  11  38  1   
 26  12  14  1   
 27  12  39  1   
 28  13  40  1   
 29  13  41  1   
 30  13  42  1   
 31  14  15  1   
 32  14  43  1   
 33  14  44  1   
 34  15  16  ar  
 35  15  17  ar  
 36  16  18  ar  
 37  16  45  1   
 38  17  19  ar  
 39  17  46  1   
 40  18  20  ar  
 41  18  47  1   
 42  19  20  ar  
 43  19  48  1   
 44  20  21  1   
 45  21  22  ar  
 46  21  23  ar  
 47  22  24  ar  
 48  22  49  1   
 49  23  25  ar  
 50  23  50  1   
 51  24  26  ar  
 52  25  26  ar  
 53  25  51  1   
 54  26  52  1   
@<TRIPOS>SUBSTRUCTURE
  1 ****  16 GROUP 4 **** **** 0

# MOE 2024.06 (io_trps.svl 2023.06)
