@<TRIPOS>MOLECULE
NONAME
50 52 1 0 0 
SMALL
USER_CHARGES


@<TRIPOS>ATOM
  1 O       -0.2490     0.9570    -1.0950 O.2   1 <1>  -0.5700 
  2 C       -0.3760     2.1550    -0.9890 C.2   1 <1>   0.5690 
  3 N       -1.1400     2.7540    -0.0160 N.am  1 <1>  -0.6600 
  4 C        0.3600     3.0280    -2.0040 C.3   1 <1>   0.1810 
  5 C       -1.2390     4.2520     0.0620 C.3   1 <1>   0.3640 
  6 C       -1.7850     2.0270     1.1150 C.3   1 <1>   0.2200 
  7 O        0.6930     4.2850    -1.4770 O.3   1 <1>  -0.5600 
  8 C       -2.7040     4.6860     0.0010 C.ar  1 <1>  -0.1440 
  9 C       -0.4290     5.0150    -1.0170 C.3   1 <1>   0.2610 
 10 C       -0.7210     1.3810     2.0020 C.3   1 <1>  -0.2400 
 11 C       -2.8090     1.0070     0.6150 C.3   1 <1>  -0.2400 
 12 C       -3.5650     4.1720    -0.9600 C.ar  1 <1>  -0.1500 
 13 C       -3.1880     5.6150     0.9100 C.ar  1 <1>  -0.1500 
 14 C       -0.0400     6.3980    -0.4720 C.2   1 <1>   0.5690 
 15 C       -4.8880     4.5750    -1.0070 C.ar  1 <1>  -0.1500 
 16 C       -4.5110     6.0190     0.8640 C.ar  1 <1>  -0.1500 
 17 O       -0.6910     7.3380    -0.8670 O.2   1 <1>  -0.5700 
 18 N        0.9690     6.5810     0.4510 N.am  1 <1>  -0.6600 
 19 C       -5.3620     5.4990    -0.0940 C.ar  1 <1>  -0.1500 
 20 C        1.3430     7.9600     0.8910 C.3   1 <1>   0.3200 
 21 C        1.9080     5.5130     0.9080 C.3   1 <1>   0.0600 
 22 C        2.6840     8.3760     0.3080 C.2   1 <1>  -0.0400 
 23 O        3.8020     7.9850     0.8960 O.3   1 <1>  -0.2800 
 24 C        2.9620     9.1340    -0.7750 C.2   1 <1>  -0.1500 
 25 C        4.8090     8.4810     0.2050 C.2   1 <1>  -0.0100 
 26 C        4.3590     9.2030    -0.8430 C.2   1 <1>  -0.1500 
 27 H       -0.2500     3.1670    -2.8780 H     1 <1>   0.0800 
 28 H        1.2750     2.5420    -2.2920 H     1 <1>   0.0800 
 29 H       -0.8500     4.5400     1.0230 H     1 <1>   0.0800 
 30 H       -2.3210     2.7380     1.7230 H     1 <1>   0.0800 
 31 H       -1.0600     5.1790    -1.8720 H     1 <1>   0.0800 
 32 H       -0.1990     0.6050     1.4700 H     1 <1>   0.0800 
 33 H       -1.1860     0.9400     2.8640 H     1 <1>   0.0800 
 34 H       -0.0160     2.1190     2.3350 H     1 <1>   0.0800 
 35 H       -2.3350     0.2070     0.0780 H     1 <1>   0.0800 
 36 H       -3.5300     1.4850    -0.0220 H     1 <1>   0.0800 
 37 H       -3.3320     0.5800     1.4510 H     1 <1>   0.0800 
 38 H       -3.2110     3.4500    -1.6760 H     1 <1>   0.1500 
 39 H       -2.5410     6.0380     1.6590 H     1 <1>   0.1500 
 40 H       -5.5480     4.1690    -1.7540 H     1 <1>   0.1500 
 41 H       -4.8780     6.7420     1.5720 H     1 <1>   0.1500 
 42 H       -6.3900     5.8140    -0.1300 H     1 <1>   0.1500 
 43 H        0.5980     8.6710     0.5810 H     1 <1>   0.0800 
 44 H        1.3950     7.9940     1.9640 H     1 <1>   0.0800 
 45 H        2.2780     5.7410     1.8920 H     1 <1>   0.0800 
 46 H        2.7430     5.4600     0.2290 H     1 <1>   0.0800 
 47 H        1.4270     4.5530     0.9380 H     1 <1>   0.0800 
 48 H        2.2750     9.5980    -1.4620 H     1 <1>   0.1500 
 49 H        5.8140     8.2720     0.5280 H     1 <1>   0.1500 
 50 H        4.9230     9.7310    -1.5910 H     1 <1>   0.1500 
@<TRIPOS>BOND
  1   1   2  2   
  2   2   3  am  
  3   2   4  1   
  4   3   5  1   
  5   3   6  1   
  6   4   7  1   
  7   4  27  1   
  8   4  28  1   
  9   5   8  1   
 10   5   9  1   
 11   5  29  1   
 12   6  10  1   
 13   6  11  1   
 14   6  30  1   
 15   7   9  1   
 16   8  12  ar  
 17   8  13  ar  
 18   9  14  1   
 19   9  31  1   
 20  10  32  1   
 21  10  33  1   
 22  10  34  1   
 23  11  35  1   
 24  11  36  1   
 25  11  37  1   
 26  12  15  ar  
 27  12  38  1   
 28  13  16  ar  
 29  13  39  1   
 30  14  17  2   
 31  14  18  am  
 32  15  19  ar  
 33  15  40  1   
 34  16  19  ar  
 35  16  41  1   
 36  18  20  1   
 37  18  21  1   
 38  19  42  1   
 39  20  22  1   
 40  20  43  1   
 41  20  44  1   
 42  21  45  1   
 43  21  46  1   
 44  21  47  1   
 45  22  23  1   
 46  22  24  2   
 47  23  25  1   
 48  24  26  1   
 49  24  48  1   
 50  25  26  2   
 51  25  49  1   
 52  26  50  1   
@<TRIPOS>SUBSTRUCTURE
  1 ****   9 GROUP 4 **** **** 0

# MOE 2024.06 (io_trps.svl 2023.06)
