@<TRIPOS>MOLECULE
NONAME
54 57 1 0 0 
SMALL
USER_CHARGES


@<TRIPOS>ATOM
  1 O       -1.3760     2.3980    -0.9060 O.3   1 <1>  -0.5600 
  2 C       -1.0070     3.1150    -2.0580 C.3   1 <1>   0.2000 
  3 C       -0.9330     1.0650    -0.8260 C.3   1 <1>   0.2630 
  4 C        0.3960     3.7220    -1.8580 C.3   1 <1>   0.3430 
  5 C       -2.0310     4.2570    -2.2030 C.3   1 <1>  -0.1600 
  6 C        0.5340     1.0020    -0.4110 C.ar  1 <1>   0.1660 
  7 N        0.4020     4.4050    -0.5320 N.4   1 <1>  -0.9590 
  8 C       -1.5590     5.5920    -1.5750 C.3   1 <1>  -0.1600 
  9 N        1.4210     0.7420    -1.3630 N.ar  1 <1>  -0.6200 
 10 C        0.8700     1.2340     0.9150 C.ar  1 <1>  -0.1500 
 11 C       -0.6650     5.4330    -0.3320 C.3   1 <1>   0.3430 
 12 C        1.7440     4.7910    -0.0380 C.3   1 <1>   0.5230 
 13 C        2.6850     0.6760    -0.9700 C.ar  1 <1>   0.1600 
 14 C        2.1900     1.1850     1.3050 C.ar  1 <1>  -0.1500 
 15 C        1.7550     4.7640     1.4920 C.2   1 <1>   0.0070 
 16 C        3.1150     0.8890     0.3280 C.ar  1 <1>  -0.1500 
 17 N        0.7620     4.3060     2.1960 N.2   1 <1>  -0.5650 
 18 N        2.8020     5.1970     2.2500 N.pl3 1 <1>   0.0480 
 19 C        1.1690     4.4470     3.4690 C.2   1 <1>   0.0770 
 20 C        2.4030     4.9860     3.5190 C.2   1 <1>  -0.3020 
 21 C        4.1180     5.7910     1.8890 C.3   1 <1>   0.2390 
 22 C        4.5760     5.3520     0.5060 C.ar  1 <1>  -0.1440 
 23 C        4.9420     4.0330     0.2830 C.ar  1 <1>  -0.1500 
 24 C        4.6110     6.2580    -0.5450 C.ar  1 <1>  -0.1500 
 25 C        5.3200     3.6180    -0.9820 C.ar  1 <1>  -0.1500 
 26 C        4.9890     5.8420    -1.8100 C.ar  1 <1>  -0.1500 
 27 C        5.3390     4.5220    -2.0290 C.ar  1 <1>  -0.1500 
 28 H       -1.0450     2.4640    -2.9160 H     1 <1>   0.0800 
 29 H       -1.0910     0.5740    -1.7710 H     1 <1>   0.0800 
 30 H       -1.5340     0.5720    -0.0840 H     1 <1>   0.0800 
 31 H        0.6050     4.4250    -2.6460 H     1 <1>   0.0800 
 32 H        1.1450     2.9510    -1.8930 H     1 <1>   0.0800 
 33 H       -2.9670     3.9520    -1.7640 H     1 <1>   0.0800 
 34 H       -2.2180     4.4270    -3.2500 H     1 <1>   0.0800 
 35 H        0.1270     3.6620     0.1370 H     1 <1>   0.4500 
 36 H       -2.4170     6.1880    -1.3170 H     1 <1>   0.0800 
 37 H       -1.0070     6.1510    -2.3100 H     1 <1>   0.0800 
 38 H        0.1060     1.4550     1.6410 H     1 <1>   0.1500 
 39 H       -0.2240     6.3840    -0.0820 H     1 <1>   0.0800 
 40 H       -1.2770     5.1300     0.5030 H     1 <1>   0.0800 
 41 H        2.0060     5.7700    -0.3990 H     1 <1>   0.0800 
 42 H        2.4740     4.0850    -0.3970 H     1 <1>   0.0800 
 43 H        3.4170     0.4370    -1.7230 H     1 <1>   0.1500 
 44 H        2.4780     1.3640     2.3280 H     1 <1>   0.1500 
 45 H        4.1600     0.8150     0.5700 H     1 <1>   0.1500 
 46 H        0.5440     4.1510     4.2970 H     1 <1>   0.1500 
 47 H        3.0020     5.2250     4.3810 H     1 <1>   0.1500 
 48 H        4.8460     5.4830     2.6170 H     1 <1>   0.0800 
 49 H        4.0340     6.8620     1.9350 H     1 <1>   0.0800 
 50 H        4.9340     3.3210     1.0920 H     1 <1>   0.1500 
 51 H        4.3510     7.2920    -0.3910 H     1 <1>   0.1500 
 52 H        5.6090     2.5950    -1.1530 H     1 <1>   0.1500 
 53 H        5.0210     6.5460    -2.6240 H     1 <1>   0.1500 
 54 H        5.6400     4.2010    -3.0130 H     1 <1>   0.1500 
@<TRIPOS>BOND
  1   1   2  1   
  2   1   3  1   
  3   2   4  1   
  4   2   5  1   
  5   2  28  1   
  6   3   6  1   
  7   3  29  1   
  8   3  30  1   
  9   4   7  1   
 10   4  31  1   
 11   4  32  1   
 12   5   8  1   
 13   5  33  1   
 14   5  34  1   
 15   6   9  ar  
 16   6  10  ar  
 17   7  11  1   
 18   7  12  1   
 19   7  35  1   
 20   8  11  1   
 21   8  36  1   
 22   8  37  1   
 23   9  13  ar  
 24  10  14  ar  
 25  10  38  1   
 26  11  39  1   
 27  11  40  1   
 28  12  15  1   
 29  12  41  1   
 30  12  42  1   
 31  13  16  ar  
 32  13  43  1   
 33  14  16  ar  
 34  14  44  1   
 35  15  17  2   
 36  15  18  1   
 37  16  45  1   
 38  17  19  1   
 39  18  20  1   
 40  18  21  1   
 41  19  20  2   
 42  19  46  1   
 43  20  47  1   
 44  21  22  1   
 45  21  48  1   
 46  21  49  1   
 47  22  23  ar  
 48  22  24  ar  
 49  23  25  ar  
 50  23  50  1   
 51  24  26  ar  
 52  24  51  1   
 53  25  27  ar  
 54  25  52  1   
 55  26  27  ar  
 56  26  53  1   
 57  27  54  1   
@<TRIPOS>SUBSTRUCTURE
  1 ****  12 GROUP 4 **** **** 0

# MOE 2024.06 (io_trps.svl 2023.06)
