@<TRIPOS>MOLECULE
NONAME
46 48 1 0 0 
SMALL
USER_CHARGES


@<TRIPOS>ATOM
  1 F        0.8350    -2.0770     0.9940 F     1 <1>  -0.1900 
  2 C       -0.1610    -2.9040     0.7940 C.ar  1 <1>   0.1900 
  3 C        0.0190    -4.2920     0.7710 C.ar  1 <1>   0.0820 
  4 C       -1.4040    -2.3330     0.6000 C.ar  1 <1>  -0.1500 
  5 O        1.1900    -4.9710     0.9490 O.3   1 <1>  -0.3630 
  6 C       -1.0970    -5.0800     0.5450 C.ar  1 <1>  -0.1500 
  7 C       -2.4950    -3.1520     0.3750 C.ar  1 <1>  -0.1500 
  8 C        2.4030    -4.3340     1.2850 C.3   1 <1>   0.0400 
  9 C       -2.3700    -4.5410     0.3440 C.ar  1 <1>   0.0530 
 10 C       -3.4970    -5.4060     0.0930 C.2   1 <1>   0.0870 
 11 O       -3.3140    -6.4760    -0.6460 O.3   1 <1>  -0.0190 
 12 C       -4.8100    -5.3970     0.4540 C.2   1 <1>  -0.2330 
 13 N       -4.4060    -7.1710    -0.8170 N.2   1 <1>  -0.4100 
 14 C       -5.3170    -6.5350    -0.1720 C.2   1 <1>   0.3720 
 15 C       -5.5800    -4.5240     1.2930 C.2   1 <1>   1.0330 
 16 N       -6.6410    -6.9440    -0.1040 N.pl3 1 <1>  -0.8520 
 17 O       -5.0610    -3.5490     1.8580 O.co2 1 <1>  -0.9000 
 18 O       -6.7940    -4.7340     1.4850 O.co2 1 <1>  -0.9000 
 19 C       -6.8560    -8.2490     0.5660 C.3   1 <1>   0.2090 
 20 C       -6.8500    -9.3910    -0.4600 C.3   1 <1>   0.1400 
 21 N       -6.0260   -10.5440     0.0140 N.am  1 <1>  -0.6600 
 22 C       -6.5870   -11.5690     0.7270 C.2   1 <1>   0.5690 
 23 C       -4.5620   -10.3870    -0.2150 C.3   1 <1>   0.1400 
 24 O       -7.7630   -11.5930     1.0050 O.2   1 <1>  -0.5700 
 25 C       -5.7340   -12.7380     1.1910 C.3   1 <1>  -0.0990 
 26 C       -3.8100   -11.7090    -0.0350 C.3   1 <1>  -0.1600 
 27 C       -4.2340   -12.4150     1.2550 C.3   1 <1>  -0.1600 
 28 H       -1.5210    -1.2660     0.6290 H     1 <1>   0.1500 
 29 H       -0.9750    -6.1480     0.5260 H     1 <1>   0.1500 
 30 H       -3.4660    -2.7100     0.2260 H     1 <1>   0.1500 
 31 H        3.1520    -5.0930     1.4200 H     1 <1>   0.0800 
 32 H        2.2690    -3.7870     2.2010 H     1 <1>   0.0800 
 33 H        2.6890    -3.6790     0.4810 H     1 <1>   0.0800 
 34 H       -7.1180    -6.2000     0.4560 H     1 <1>   0.4000 
 35 H       -7.8040    -8.2320     1.0740 H     1 <1>   0.0800 
 36 H       -6.0840    -8.4040     1.3000 H     1 <1>   0.0800 
 37 H       -6.4550    -9.0360    -1.3960 H     1 <1>   0.0800 
 38 H       -7.8620    -9.7130    -0.6320 H     1 <1>   0.0800 
 39 H       -4.1830    -9.6590     0.4820 H     1 <1>   0.0800 
 40 H       -4.3900   -10.0100    -1.2090 H     1 <1>   0.0800 
 41 H       -5.8960   -13.5470     0.5020 H     1 <1>   0.0800 
 42 H       -6.0770   -13.0560     2.1580 H     1 <1>   0.0800 
 43 H       -2.7530   -11.5080    -0.0120 H     1 <1>   0.0800 
 44 H       -4.0040   -12.3430    -0.8830 H     1 <1>   0.0800 
 45 H       -3.6700   -13.3220     1.3880 H     1 <1>   0.0800 
 46 H       -4.0430   -11.7690     2.0950 H     1 <1>   0.0800 
@<TRIPOS>BOND
  1   1   2  1   
  2   2   3  ar  
  3   2   4  ar  
  4   3   5  1   
  5   3   6  ar  
  6   4   7  ar  
  7   4  28  1   
  8   5   8  1   
  9   6   9  ar  
 10   6  29  1   
 11   7   9  ar  
 12   7  30  1   
 13   8  31  1   
 14   8  32  1   
 15   8  33  1   
 16   9  10  1   
 17  10  11  1   
 18  10  12  2   
 19  11  13  1   
 20  12  14  1   
 21  12  15  1   
 22  13  14  2   
 23  14  16  1   
 24  15  17  ar  
 25  15  18  ar  
 26  16  19  1   
 27  16  34  1   
 28  19  20  1   
 29  19  35  1   
 30  19  36  1   
 31  20  21  1   
 32  20  37  1   
 33  20  38  1   
 34  21  22  am  
 35  21  23  1   
 36  22  24  2   
 37  22  25  1   
 38  23  26  1   
 39  23  39  1   
 40  23  40  1   
 41  25  27  1   
 42  25  41  1   
 43  25  42  1   
 44  26  27  1   
 45  26  43  1   
 46  26  44  1   
 47  27  45  1   
 48  27  46  1   
@<TRIPOS>SUBSTRUCTURE
  1 ****  11 GROUP 4 **** **** 0

# MOE 2024.06 (io_trps.svl 2023.06)
