@<TRIPOS>MOLECULE
NONAME
43 46 1 0 0 
SMALL
USER_CHARGES


@<TRIPOS>ATOM
  1 O        0.5220     1.2900     0.2730 O.3   1 <1>  -0.0190 
  2 N        1.3230     0.3060     0.5630 N.2   1 <1>  -0.4100 
  3 C        1.0800     2.1490    -0.5370 C.2   1 <1>  -0.0400 
  4 C        2.4140     0.5340    -0.0770 C.2   1 <1>   0.1080 
  5 C        2.3200     1.7150    -0.8090 C.2   1 <1>  -0.1500 
  6 C        0.3160     3.3790    -0.9900 C.3   1 <1>   0.0200 
  7 C        3.6280    -0.3670    -0.0340 C.3   1 <1>  -0.0590 
  8 C       -0.1470     4.2390     0.2020 C.3   1 <1>  -0.0800 
  9 C       -0.8410     5.5090    -0.2780 C.3   1 <1>   0.2000 
 10 C        1.0360     4.7540     1.0410 C.3   1 <1>   0.1100 
 11 O       -1.6710     5.9500     0.7350 O.3   1 <1>  -0.6800 
 12 C        0.3120     6.4970    -0.3960 C.3   1 <1>   0.1100 
 13 N        1.1880     6.1950     0.7530 N.3   1 <1>  -0.8100 
 14 C        2.5940     6.5660     0.4900 C.3   1 <1>   0.2900 
 15 C        2.7300     8.0620     0.2660 C.2   1 <1>   0.0060 
 16 N        3.4340     8.6120    -0.6630 N.2   1 <1>  -0.5650 
 17 N        2.0820     8.9470     1.0620 N.pl3 1 <1>   0.0330 
 18 C        3.2460     9.9500    -0.4780 C.ar  1 <1>   0.2270 
 19 C        2.4030    10.1780     0.5930 C.ar  1 <1>  -0.1520 
 20 C        3.7650    11.0270    -1.1940 C.ar  1 <1>  -0.1500 
 21 C        2.0510    11.4730     0.9780 C.ar  1 <1>  -0.1500 
 22 C        3.4250    12.3100    -0.8220 C.ar  1 <1>  -0.1500 
 23 C        2.5680    12.5320     0.2640 C.ar  1 <1>  -0.1500 
 24 H        3.0820     2.1430    -1.4320 H     1 <1>   0.1500 
 25 H        0.9450     3.9560    -1.6450 H     1 <1>   0.0800 
 26 H       -0.5430     3.0570    -1.5520 H     1 <1>   0.0800 
 27 H        4.4890     0.1940     0.2780 H     1 <1>   0.0800 
 28 H        3.8080    -0.7820    -1.0080 H     1 <1>   0.0800 
 29 H        3.4640    -1.1700     0.6620 H     1 <1>   0.0800 
 30 H       -0.8110     3.6450     0.8070 H     1 <1>   0.0800 
 31 H       -1.4190     5.3950    -1.1780 H     1 <1>   0.0800 
 32 H        1.9400     4.2110     0.8210 H     1 <1>   0.0800 
 33 H        0.8190     4.6320     2.0890 H     1 <1>   0.0800 
 34 H       -1.0920     6.2080     1.4820 H     1 <1>   0.4000 
 35 H       -0.0330     7.5170    -0.3770 H     1 <1>   0.0800 
 36 H        0.8380     6.3250    -1.3200 H     1 <1>   0.0800 
 37 H        3.2000     6.2900     1.3360 H     1 <1>   0.0800 
 38 H        2.9630     6.0430    -0.3750 H     1 <1>   0.0800 
 39 H        1.4350     8.7040     1.8160 H     1 <1>   0.2700 
 40 H        4.4190    10.8270    -2.0220 H     1 <1>   0.1500 
 41 H        1.3910    11.6320     1.8130 H     1 <1>   0.1500 
 42 H        3.8170    13.1530    -1.3630 H     1 <1>   0.1500 
 43 H        2.3170    13.5430     0.5350 H     1 <1>   0.1500 
@<TRIPOS>BOND
  1   1   2  1   
  2   1   3  1   
  3   2   4  2   
  4   3   5  2   
  5   3   6  1   
  6   4   5  1   
  7   4   7  1   
  8   5  24  1   
  9   6   8  1   
 10   6  25  1   
 11   6  26  1   
 12   7  27  1   
 13   7  28  1   
 14   7  29  1   
 15   8   9  1   
 16   8  10  1   
 17   8  30  1   
 18   9  11  1   
 19   9  12  1   
 20   9  31  1   
 21  10  13  1   
 22  10  32  1   
 23  10  33  1   
 24  11  34  1   
 25  12  13  1   
 26  12  35  1   
 27  12  36  1   
 28  13  14  1   
 29  14  15  1   
 30  14  37  1   
 31  14  38  1   
 32  15  16  2   
 33  15  17  1   
 34  16  18  1   
 35  17  19  1   
 36  17  39  1   
 37  18  19  ar  
 38  18  20  ar  
 39  19  21  ar  
 40  20  22  ar  
 41  20  40  1   
 42  21  23  ar  
 43  21  41  1   
 44  22  23  ar  
 45  22  42  1   
 46  23  43  1   
@<TRIPOS>SUBSTRUCTURE
  1 ****  13 GROUP 4 **** **** 0

# MOE 2024.06 (io_trps.svl 2023.06)
