@<TRIPOS>MOLECULE
NONAME
51 53 1 0 0 
SMALL
USER_CHARGES


@<TRIPOS>ATOM
  1 O        0.6670     0.0450     1.4510 O.3   1 <1>  -0.5600 
  2 C        1.9080    -0.6030     1.4080 C.3   1 <1>   0.2000 
  3 C        0.0620     0.2650     0.2200 C.3   1 <1>   0.1200 
  4 C        1.6980    -2.0700     1.8110 C.3   1 <1>   0.3430 
  5 C        2.8790     0.1160     2.3560 C.3   1 <1>   0.2090 
  6 C       -0.3020    -1.0670    -0.4510 C.3   1 <1>  -0.1600 
  7 N        0.8510    -2.8610     0.8450 N.4   1 <1>  -0.9590 
  8 N        3.2100     1.4600     1.8350 N.pl3 1 <1>  -0.8690 
  9 C       -0.4740    -2.2310     0.5300 C.3   1 <1>   0.3430 
 10 C        0.6750    -4.2560     1.3290 C.3   1 <1>   0.4860 
 11 C        3.9190     1.6730     0.7030 C.ar  1 <1>   0.7200 
 12 C        0.1490    -5.0980     0.1840 C.ar  1 <1>  -0.1440 
 13 N        3.7360     2.8650     0.1650 N.ar  1 <1>  -0.6200 
 14 N        4.6740     0.6790     0.2430 N.ar  1 <1>  -0.6200 
 15 C        0.9810    -5.4430    -0.8730 C.ar  1 <1>  -0.1500 
 16 C       -1.1710    -5.5260     0.1810 C.ar  1 <1>  -0.1500 
 17 C        4.4190     3.1080    -0.9250 C.ar  1 <1>   0.1670 
 18 C        5.3530     0.9480    -0.8450 C.ar  1 <1>   0.1670 
 19 C        0.4930    -6.1950    -1.9260 C.ar  1 <1>  -0.1500 
 20 C       -1.6570    -6.2790    -0.8740 C.ar  1 <1>  -0.1500 
 21 C        5.2580     2.1670    -1.4760 C.ar  1 <1>  -0.1500 
 22 C        4.2470     4.4740    -1.5540 C.3   1 <1>  -0.0970 
 23 C        6.2560    -0.1410    -1.3830 C.3   1 <1>  -0.0970 
 24 C       -0.8260    -6.6110    -1.9280 C.ar  1 <1>  -0.1500 
 25 H        2.3160    -0.5610     0.4130 H     1 <1>   0.0800 
 26 H        0.7180     0.8610    -0.3950 H     1 <1>   0.0800 
 27 H       -0.8310     0.8370     0.4130 H     1 <1>   0.0800 
 28 H        1.2440    -2.0840     2.7880 H     1 <1>   0.0800 
 29 H        2.6660    -2.5370     1.8920 H     1 <1>   0.0800 
 30 H        3.7920    -0.4490     2.4440 H     1 <1>   0.0800 
 31 H        2.4450     0.2070     3.3370 H     1 <1>   0.0800 
 32 H        0.4230    -1.3130    -1.2060 H     1 <1>   0.0800 
 33 H       -1.2340    -0.9180    -0.9660 H     1 <1>   0.0800 
 34 H        1.3480    -2.9350    -0.0510 H     1 <1>   0.4500 
 35 H        2.5110     2.1880     1.9860 H     1 <1>   0.4000 
 36 H       -1.1150    -2.9620     0.0640 H     1 <1>   0.0800 
 37 H       -0.9550    -1.8870     1.4320 H     1 <1>   0.0800 
 38 H       -0.0130    -4.2820     2.1580 H     1 <1>   0.0800 
 39 H        1.6200    -4.6600     1.6540 H     1 <1>   0.0800 
 40 H        2.0140    -5.1410    -0.8920 H     1 <1>   0.1500 
 41 H       -1.8370    -5.2860     0.9930 H     1 <1>   0.1500 
 42 H        1.1370    -6.4640    -2.7470 H     1 <1>   0.1500 
 43 H       -2.6820    -6.6110    -0.8770 H     1 <1>   0.1500 
 44 H        5.8190     2.3790    -2.3660 H     1 <1>   0.1500 
 45 H        3.2150     4.6230    -1.8150 H     1 <1>   0.0800 
 46 H        4.8480     4.5730    -2.4390 H     1 <1>   0.0800 
 47 H        4.5380     5.2320    -0.8490 H     1 <1>   0.0800 
 48 H        6.9770    -0.4120    -0.6330 H     1 <1>   0.0800 
 49 H        6.7800     0.1900    -2.2610 H     1 <1>   0.0800 
 50 H        5.6720    -1.0070    -1.6320 H     1 <1>   0.0800 
 51 H       -1.2050    -7.1980    -2.7480 H     1 <1>   0.1500 
@<TRIPOS>BOND
  1   1   2  1   
  2   1   3  1   
  3   2   4  1   
  4   2   5  1   
  5   2  25  1   
  6   3   6  1   
  7   3  26  1   
  8   3  27  1   
  9   4   7  1   
 10   4  28  1   
 11   4  29  1   
 12   5   8  1   
 13   5  30  1   
 14   5  31  1   
 15   6   9  1   
 16   6  32  1   
 17   6  33  1   
 18   7   9  1   
 19   7  10  1   
 20   7  34  1   
 21   8  11  1   
 22   8  35  1   
 23   9  36  1   
 24   9  37  1   
 25  10  12  1   
 26  10  38  1   
 27  10  39  1   
 28  11  13  ar  
 29  11  14  ar  
 30  12  15  ar  
 31  12  16  ar  
 32  13  17  ar  
 33  14  18  ar  
 34  15  19  ar  
 35  15  40  1   
 36  16  20  ar  
 37  16  41  1   
 38  17  21  ar  
 39  17  22  1   
 40  18  21  ar  
 41  18  23  1   
 42  19  24  ar  
 43  19  42  1   
 44  20  24  ar  
 45  20  43  1   
 46  21  44  1   
 47  22  45  1   
 48  22  46  1   
 49  22  47  1   
 50  23  48  1   
 51  23  49  1   
 52  23  50  1   
 53  24  51  1   
@<TRIPOS>SUBSTRUCTURE
  1 ****   2 GROUP 4 **** **** 0

# MOE 2024.06 (io_trps.svl 2023.06)
