@<TRIPOS>MOLECULE
NONAME
50 52 1 0 0 
SMALL
USER_CHARGES


@<TRIPOS>ATOM
  1 O        2.0260    -1.6380    -1.1700 O.co2 1 <1>  -0.9000 
  2 C        2.1480    -0.5890    -0.5050 C.2   1 <1>   0.9790 
  3 O        1.1670    -0.2500     0.1940 O.co2 1 <1>  -0.9000 
  4 C        3.3690     0.2290    -0.5030 C.ar  1 <1>   0.1310 
  5 N        4.4170     0.0050    -1.3340 N.ar  1 <1>  -0.6200 
  6 C        3.4210     1.2850     0.4150 C.ar  1 <1>   0.1600 
  7 C        5.4090     0.8490    -1.1670 C.ar  1 <1>   0.1600 
  8 N        4.4250     2.1320     0.5860 N.ar  1 <1>  -0.6200 
  9 C        5.4410     1.8920    -0.2300 C.ar  1 <1>   0.4100 
 10 N        6.5530     2.7110    -0.1060 N.pl3 1 <1>  -0.8380 
 11 C        7.8130     2.0930     0.3740 C.3   1 <1>   0.2090 
 12 C        6.3540     4.1260     0.2990 C.3   1 <1>   0.2090 
 13 C        9.0060     2.9250    -0.1000 C.3   1 <1>  -0.1600 
 14 C        7.5430     4.9690    -0.1680 C.3   1 <1>  -0.1600 
 15 C        8.8780     4.3970     0.3440 C.3   1 <1>  -0.0190 
 16 C       10.0570     5.2630    -0.1210 C.2   1 <1>   0.5690 
 17 O       10.5650     4.9960    -1.1860 O.2   1 <1>  -0.5700 
 18 N       10.5160     6.3130     0.6400 N.am  1 <1>  -0.6600 
 19 C       11.6350     7.1640     0.1390 C.3   1 <1>   0.2840 
 20 C        9.9090     6.7780     1.9160 C.3   1 <1>   0.1400 
 21 C       11.1010     8.5130    -0.3240 C.ar  1 <1>  -0.1430 
 22 C       10.6460     6.1430     3.0930 C.3   1 <1>  -0.2400 
 23 C       11.4290     9.6790     0.3540 C.ar  1 <1>  -0.1500 
 24 C       10.2770     8.5840    -1.4360 C.ar  1 <1>  -0.1500 
 25 C       10.9360    10.8990    -0.0750 C.ar  1 <1>  -0.1500 
 26 C        9.7830     9.8030    -1.8670 C.ar  1 <1>  -0.1500 
 27 C       10.1130    10.9620    -1.1860 C.ar  1 <1>  -0.1500 
 28 H        2.5650     1.4320     1.0520 H     1 <1>   0.1500 
 29 H        6.2660     0.7350    -1.8000 H     1 <1>   0.1500 
 30 H        7.8980     1.0870     0.0000 H     1 <1>   0.0800 
 31 H        7.7940     2.0510     1.4500 H     1 <1>   0.0800 
 32 H        6.2550     4.1760     1.3700 H     1 <1>   0.0800 
 33 H        5.4450     4.5020    -0.1410 H     1 <1>   0.0800 
 34 H        9.0570     2.8680    -1.1740 H     1 <1>   0.0800 
 35 H        9.9140     2.5060     0.2940 H     1 <1>   0.0800 
 36 H        7.4160     5.9790     0.1750 H     1 <1>   0.0800 
 37 H        7.5480     4.9890    -1.2440 H     1 <1>   0.0800 
 38 H        8.8580     4.3900     1.4170 H     1 <1>   0.0800 
 39 H       12.1410     6.6870    -0.6830 H     1 <1>   0.0800 
 40 H       12.3570     7.2990     0.9240 H     1 <1>   0.0800 
 41 H        8.8650     6.5240     1.9540 H     1 <1>   0.0800 
 42 H        9.9730     7.8510     1.9830 H     1 <1>   0.0800 
 43 H       10.5910     5.0710     3.0380 H     1 <1>   0.0800 
 44 H       10.1950     6.4610     4.0150 H     1 <1>   0.0800 
 45 H       11.6770     6.4460     3.0980 H     1 <1>   0.0800 
 46 H       12.0700     9.6430     1.2180 H     1 <1>   0.1500 
 47 H       10.0190     7.6830    -1.9680 H     1 <1>   0.1500 
 48 H       11.1940    11.8000     0.4540 H     1 <1>   0.1500 
 49 H        9.1450     9.8480    -2.7310 H     1 <1>   0.1500 
 50 H        9.7300    11.9100    -1.5200 H     1 <1>   0.1500 
@<TRIPOS>BOND
  1   1   2  ar  
  2   2   3  ar  
  3   2   4  1   
  4   4   5  ar  
  5   4   6  ar  
  6   5   7  ar  
  7   6   8  ar  
  8   6  28  1   
  9   7   9  ar  
 10   7  29  1   
 11   8   9  ar  
 12   9  10  1   
 13  10  11  1   
 14  10  12  1   
 15  11  13  1   
 16  11  30  1   
 17  11  31  1   
 18  12  14  1   
 19  12  32  1   
 20  12  33  1   
 21  13  15  1   
 22  13  34  1   
 23  13  35  1   
 24  14  15  1   
 25  14  36  1   
 26  14  37  1   
 27  15  16  1   
 28  15  38  1   
 29  16  17  2   
 30  16  18  am  
 31  18  19  1   
 32  18  20  1   
 33  19  21  1   
 34  19  39  1   
 35  19  40  1   
 36  20  22  1   
 37  20  41  1   
 38  20  42  1   
 39  21  23  ar  
 40  21  24  ar  
 41  22  43  1   
 42  22  44  1   
 43  22  45  1   
 44  23  25  ar  
 45  23  46  1   
 46  24  26  ar  
 47  24  47  1   
 48  25  27  ar  
 49  25  48  1   
 50  26  27  ar  
 51  26  49  1   
 52  27  50  1   
@<TRIPOS>SUBSTRUCTURE
  1 ****  14 GROUP 4 **** **** 0

# MOE 2024.06 (io_trps.svl 2023.06)
