@<TRIPOS>MOLECULE
NONAME
50 52 1 0 0 
SMALL
USER_CHARGES


@<TRIPOS>ATOM
  1 O       -0.8780     0.2880    -3.2630 O.2   1 <1>  -0.5700 
  2 C       -1.4820     1.0770    -2.5720 C.2   1 <1>   0.5690 
  3 N       -2.4690     0.6640    -1.7000 N.am  1 <1>  -0.6600 
  4 C       -1.1410     2.5560    -2.7550 C.3   1 <1>   0.1810 
  5 C       -3.1750     1.6110    -0.7850 C.3   1 <1>   0.2200 
  6 C       -2.8750    -0.7740    -1.6550 C.3   1 <1>   0.0600 
  7 O       -0.4050     3.0610    -1.6470 O.3   1 <1>  -0.3620 
  8 C       -3.5080     1.0790     0.6080 C.3   1 <1>  -0.1600 
  9 C       -4.5200     2.0600    -1.3390 C.3   1 <1>  -0.1600 
 10 C       -0.7470     4.2360    -1.0600 C.ar  1 <1>   0.0820 
 11 C       -4.5850     2.0450     1.1210 C.3   1 <1>  -0.0800 
 12 C       -5.2300     2.6770    -0.1280 C.3   1 <1>  -0.0800 
 13 C       -0.5970     4.3590     0.3220 C.ar  1 <1>  -0.1440 
 14 C       -1.2400     5.2980    -1.8090 C.ar  1 <1>  -0.1500 
 15 C       -4.0170     3.2060     1.9500 C.3   1 <1>  -0.1600 
 16 C       -5.0070     4.1920    -0.0090 C.3   1 <1>  -0.1600 
 17 C       -0.9550     5.5540     0.9430 C.ar  1 <1>  -0.1440 
 18 C       -0.0320     3.1880     1.1280 C.3   1 <1>  -0.0970 
 19 C       -1.6070     6.4730    -1.1840 C.ar  1 <1>  -0.1500 
 20 C       -4.7830     4.4300     1.4750 C.3   1 <1>   0.2000 
 21 C       -1.4640     6.5970     0.1840 C.ar  1 <1>  -0.1500 
 22 C       -0.7970     5.7660     2.4440 C.3   1 <1>  -0.0970 
 23 O       -4.0310     5.5670     1.6660 O.3   1 <1>  -0.6800 
 24 H       -2.0540     3.1070    -2.8700 H     1 <1>   0.0800 
 25 H       -0.5350     2.6830    -3.6330 H     1 <1>   0.0800 
 26 H       -2.5760     2.4870    -0.6330 H     1 <1>   0.0800 
 27 H       -3.9470    -0.8580    -1.6410 H     1 <1>   0.0800 
 28 H       -2.4670    -1.2380    -0.7740 H     1 <1>   0.0800 
 29 H       -2.5090    -1.3030    -2.5180 H     1 <1>   0.0800 
 30 H       -3.9430     0.0990     0.5540 H     1 <1>   0.0800 
 31 H       -2.6400     1.0510     1.2420 H     1 <1>   0.0800 
 32 H       -4.4120     2.7580    -2.1500 H     1 <1>   0.0800 
 33 H       -5.0780     1.2050    -1.6760 H     1 <1>   0.0800 
 34 H       -5.3270     1.5170     1.6970 H     1 <1>   0.0800 
 35 H       -6.2860     2.4640    -0.1530 H     1 <1>   0.0800 
 36 H       -1.3320     5.2240    -2.8770 H     1 <1>   0.1500 
 37 H       -2.9710     3.3340     1.7380 H     1 <1>   0.0800 
 38 H       -4.1550     3.0440     3.0030 H     1 <1>   0.0800 
 39 H       -5.8560     4.7450    -0.3680 H     1 <1>   0.0800 
 40 H       -4.1270     4.4860    -0.5550 H     1 <1>   0.0800 
 41 H       -0.4310     3.1620     2.1240 H     1 <1>   0.0800 
 42 H        1.0380     3.2780     1.1840 H     1 <1>   0.0800 
 43 H       -0.2680     2.2460     0.6670 H     1 <1>   0.0800 
 44 H       -1.9950     7.2950    -1.7600 H     1 <1>   0.1500 
 45 H       -5.7180     4.5320     2.0000 H     1 <1>   0.0800 
 46 H       -1.7500     7.5220     0.6560 H     1 <1>   0.1500 
 47 H       -0.9940     6.7880     2.7130 H     1 <1>   0.0800 
 48 H        0.2060     5.5300     2.7480 H     1 <1>   0.0800 
 49 H       -1.4860     5.1410     2.9830 H     1 <1>   0.0800 
 50 H       -3.1850     5.4930     1.1730 H     1 <1>   0.4000 
@<TRIPOS>BOND
  1   1   2  2   
  2   2   3  am  
  3   2   4  1   
  4   3   5  1   
  5   3   6  1   
  6   4   7  1   
  7   4  24  1   
  8   4  25  1   
  9   5   8  1   
 10   5   9  1   
 11   5  26  1   
 12   6  27  1   
 13   6  28  1   
 14   6  29  1   
 15   7  10  1   
 16   8  11  1   
 17   8  30  1   
 18   8  31  1   
 19   9  12  1   
 20   9  32  1   
 21   9  33  1   
 22  10  13  ar  
 23  10  14  ar  
 24  11  12  1   
 25  11  15  1   
 26  11  34  1   
 27  12  16  1   
 28  12  35  1   
 29  13  17  ar  
 30  13  18  1   
 31  14  19  ar  
 32  14  36  1   
 33  15  20  1   
 34  15  37  1   
 35  15  38  1   
 36  16  20  1   
 37  16  39  1   
 38  16  40  1   
 39  17  21  ar  
 40  17  22  1   
 41  18  41  1   
 42  18  42  1   
 43  18  43  1   
 44  19  21  ar  
 45  19  44  1   
 46  20  23  1   
 47  20  45  1   
 48  21  46  1   
 49  22  47  1   
 50  22  48  1   
 51  22  49  1   
 52  23  50  1   
@<TRIPOS>SUBSTRUCTURE
  1 ****   5 GROUP 4 **** **** 0

# MOE 2024.06 (io_trps.svl 2023.06)
