@<TRIPOS>MOLECULE
NONAME
50 52 1 0 0 
SMALL
USER_CHARGES


@<TRIPOS>ATOM
  1 CL       1.1440    -6.9390     1.6020 Cl    1 <1>  -0.1770 
  2 C        0.2270    -6.4280     0.2020 C.ar  1 <1>   0.1770 
  3 C       -0.8390    -5.5430     0.3200 C.ar  1 <1>  -0.1440 
  4 C        0.6180    -6.9420    -1.0200 C.ar  1 <1>  -0.1500 
  5 C       -1.5210    -5.1650    -0.8410 C.ar  1 <1>   0.1170 
  6 C       -1.2740    -4.9870     1.6790 C.3   1 <1>  -0.0960 
  7 C       -0.0620    -6.5690    -2.1640 C.ar  1 <1>  -0.1500 
  8 N       -2.5850    -4.2550    -0.7510 N.am  1 <1>  -0.5470 
  9 C       -1.1210    -5.6850    -2.0690 C.ar  1 <1>  -0.1500 
 10 C       -3.7210    -4.1160    -1.4970 C.2   1 <1>   0.5690 
 11 O       -3.9720    -4.7710    -2.4780 O.2   1 <1>  -0.5700 
 12 C       -4.7320    -3.1040    -1.0390 C.3   1 <1>  -0.0380 
 13 C       -5.0490    -3.4020     0.4050 C.2   1 <1>   0.5690 
 14 O       -4.3510    -2.8460     1.2220 O.2   1 <1>  -0.5700 
 15 N       -6.0350    -4.2840     0.7760 N.am  1 <1>  -0.6600 
 16 C       -6.7040    -5.2170    -0.1880 C.3   1 <1>   0.2200 
 17 C       -6.3870    -4.4100     2.2250 C.3   1 <1>   0.0600 
 18 C       -6.7200    -6.6770     0.2590 C.3   1 <1>  -0.1600 
 19 C       -8.1700    -4.8710    -0.4200 C.3   1 <1>  -0.1600 
 20 C       -7.8140    -7.3150    -0.6060 C.3   1 <1>  -0.0800 
 21 C       -8.8000    -6.1690    -0.9480 C.3   1 <1>  -0.0800 
 22 C       -8.4300    -8.5740     0.0410 C.3   1 <1>   0.1400 
 23 C      -10.2310    -6.3970    -0.4260 C.3   1 <1>  -0.0990 
 24 N       -9.7900    -8.8050    -0.4890 N.am  1 <1>  -0.7300 
 25 C      -10.6780    -7.8140    -0.7100 C.2   1 <1>   0.5690 
 26 O      -11.7910    -8.0420    -1.1070 O.2   1 <1>  -0.5700 
 27 H        1.4460    -7.6260    -1.0720 H     1 <1>   0.1500 
 28 H       -2.3390    -5.0840     1.7990 H     1 <1>   0.0800 
 29 H       -1.0100    -3.9470     1.7510 H     1 <1>   0.0800 
 30 H       -0.8150    -5.5060     2.4990 H     1 <1>   0.0800 
 31 H        0.2290    -6.9620    -3.1230 H     1 <1>   0.1500 
 32 H       -2.5910    -3.7040     0.1140 H     1 <1>   0.3700 
 33 H       -1.6390    -5.3950    -2.9650 H     1 <1>   0.1500 
 34 H       -5.6150    -3.1360    -1.6460 H     1 <1>   0.0800 
 35 H       -4.3070    -2.1220    -1.1200 H     1 <1>   0.0800 
 36 H       -6.2070    -5.1960    -1.1410 H     1 <1>   0.0800 
 37 H       -7.4330    -4.6230     2.3490 H     1 <1>   0.0800 
 38 H       -6.1680    -3.4930     2.7450 H     1 <1>   0.0800 
 39 H       -5.8080    -5.2000     2.6700 H     1 <1>   0.0800 
 40 H       -5.7640    -7.1440     0.0990 H     1 <1>   0.0800 
 41 H       -6.9960    -6.7580     1.2930 H     1 <1>   0.0800 
 42 H       -8.6360    -4.5830     0.5040 H     1 <1>   0.0800 
 43 H       -8.2730    -4.0710    -1.1320 H     1 <1>   0.0800 
 44 H       -7.3550    -7.6240    -1.5310 H     1 <1>   0.0800 
 45 H       -8.8540    -6.1100    -2.0230 H     1 <1>   0.0800 
 46 H       -8.5050    -8.4480     1.1080 H     1 <1>   0.0800 
 47 H       -7.8090    -9.4300    -0.1570 H     1 <1>   0.0800 
 48 H      -10.9110    -5.7070    -0.8930 H     1 <1>   0.0800 
 49 H      -10.2750    -6.2490     0.6370 H     1 <1>   0.0800 
 50 H      -10.1050    -9.7650    -0.6480 H     1 <1>   0.3700 
@<TRIPOS>BOND
  1   1   2  1   
  2   2   3  ar  
  3   2   4  ar  
  4   3   5  ar  
  5   3   6  1   
  6   4   7  ar  
  7   4  27  1   
  8   5   8  1   
  9   5   9  ar  
 10   6  28  1   
 11   6  29  1   
 12   6  30  1   
 13   7   9  ar  
 14   7  31  1   
 15   8  10  am  
 16   8  32  1   
 17   9  33  1   
 18  10  11  2   
 19  10  12  1   
 20  12  13  1   
 21  12  34  1   
 22  12  35  1   
 23  13  14  2   
 24  13  15  am  
 25  15  16  1   
 26  15  17  1   
 27  16  18  1   
 28  16  19  1   
 29  16  36  1   
 30  17  37  1   
 31  17  38  1   
 32  17  39  1   
 33  18  20  1   
 34  18  40  1   
 35  18  41  1   
 36  19  21  1   
 37  19  42  1   
 38  19  43  1   
 39  20  21  1   
 40  20  22  1   
 41  20  44  1   
 42  21  23  1   
 43  21  45  1   
 44  22  24  1   
 45  22  46  1   
 46  22  47  1   
 47  23  25  1   
 48  23  48  1   
 49  23  49  1   
 50  24  25  am  
 51  24  50  1   
 52  25  26  2   
@<TRIPOS>SUBSTRUCTURE
  1 ****  16 GROUP 4 **** **** 0

# MOE 2024.06 (io_trps.svl 2023.06)
