@<TRIPOS>MOLECULE
NONAME
55 59 1 0 0 
SMALL
USER_CHARGES


@<TRIPOS>ATOM
  1 O        0.1770     0.6680     0.5650 O.3   1 <1>  -0.2800 
  2 C       -0.1830    -0.5760     0.7650 C.2   1 <1>   0.4250 
  3 C        0.6090     0.9790     1.7530 C.2   1 <1>   0.2980 
  4 N       -0.0040    -0.9710     1.9800 N.2   1 <1>  -0.3380 
  5 C       -0.7100    -1.3550    -0.3320 C.ar  1 <1>   0.0530 
  6 N        0.5160     0.0500     2.6200 N.2   1 <1>  -0.3380 
  7 C        1.1840     2.3720     1.9980 C.3   1 <1>   0.2900 
  8 C       -0.7330    -0.8530    -1.6350 C.ar  1 <1>   0.1600 
  9 C       -1.2110    -2.6380    -0.1470 C.ar  1 <1>  -0.1500 
 10 N        2.3320     2.7090     1.1030 N.3   1 <1>  -0.8100 
 11 N       -1.1860    -1.4860    -2.7040 N.ar  1 <1>  -0.6200 
 12 C       -1.6890    -3.3160    -1.2470 C.ar  1 <1>  -0.1500 
 13 C        2.7620     4.1310     1.2280 C.3   1 <1>   0.1900 
 14 C        3.4070     1.7170     1.2900 C.3   1 <1>   0.1100 
 15 C       -1.6550    -2.7040    -2.4870 C.ar  1 <1>   0.1600 
 16 C        4.0200     4.4500     0.3690 C.3   1 <1>  -0.0800 
 17 C        1.5740     5.0500     0.8380 C.3   1 <1>  -0.1600 
 18 C        4.5660     1.9910     0.3390 C.3   1 <1>  -0.1600 
 19 C        5.1360     3.3970     0.5290 C.3   1 <1>   0.4240 
 20 C        3.6040     4.7210    -1.0970 C.3   1 <1>  -0.1600 
 21 C        1.9900     6.3270     0.0960 C.3   1 <1>  -0.1600 
 22 O        5.5650     3.4580     1.8470 O.3   1 <1>  -0.6800 
 23 C        6.3620     3.7070    -0.3590 C.ar  1 <1>  -0.1440 
 24 C        2.7290     5.9840    -1.2080 C.3   1 <1>  -0.1600 
 25 C        7.2070     4.7570    -0.0150 C.ar  1 <1>  -0.1500 
 26 C        6.6550     2.9890    -1.5160 C.ar  1 <1>  -0.1500 
 27 C        8.3050     5.0810    -0.7930 C.ar  1 <1>  -0.1500 
 28 C        7.7530     3.3090    -2.2960 C.ar  1 <1>  -0.1500 
 29 C        8.5800     4.3560    -1.9370 C.ar  1 <1>  -0.1500 
 30 H        1.4960     2.4430     3.0250 H     1 <1>   0.0800 
 31 H        0.3770     3.0650     1.8510 H     1 <1>   0.0800 
 32 H       -0.3480     0.1390    -1.8040 H     1 <1>   0.1500 
 33 H       -1.2240    -3.0900     0.8310 H     1 <1>   0.1500 
 34 H       -2.0850    -4.3100    -1.1470 H     1 <1>   0.1500 
 35 H        3.0170     4.3250     2.2570 H     1 <1>   0.0800 
 36 H        3.7440     1.7190     2.3130 H     1 <1>   0.0800 
 37 H        3.0370     0.7290     1.0720 H     1 <1>   0.0800 
 38 H       -2.0300    -3.2410    -3.3420 H     1 <1>   0.1500 
 39 H        4.4400     5.3730     0.7290 H     1 <1>   0.0800 
 40 H        0.9070     4.5150     0.1820 H     1 <1>   0.0800 
 41 H        1.0280     5.3230     1.7230 H     1 <1>   0.0800 
 42 H        4.1980     1.8750    -0.6630 H     1 <1>   0.0800 
 43 H        5.3440     1.2650     0.4900 H     1 <1>   0.0800 
 44 H        4.4640     4.8490    -1.7310 H     1 <1>   0.0800 
 45 H        3.0510     3.8730    -1.4640 H     1 <1>   0.0800 
 46 H        1.1220     6.9230    -0.1280 H     1 <1>   0.0800 
 47 H        2.6300     6.9140     0.7330 H     1 <1>   0.0800 
 48 H        4.8140     3.2330     2.4200 H     1 <1>   0.4000 
 49 H        3.3430     6.8240    -1.4840 H     1 <1>   0.0800 
 50 H        2.0130     5.8350    -1.9990 H     1 <1>   0.0800 
 51 H        7.0120     5.3320     0.8730 H     1 <1>   0.1500 
 52 H        6.0380     2.1710    -1.8370 H     1 <1>   0.1500 
 53 H        8.9450     5.8970    -0.5040 H     1 <1>   0.1500 
 54 H        7.9630     2.7420    -3.1860 H     1 <1>   0.1500 
 55 H        9.4330     4.6050    -2.5420 H     1 <1>   0.1500 
@<TRIPOS>BOND
  1   1   2  1   
  2   1   3  1   
  3   2   4  2   
  4   2   5  1   
  5   3   6  2   
  6   3   7  1   
  7   4   6  1   
  8   5   8  ar  
  9   5   9  ar  
 10   7  10  1   
 11   7  30  1   
 12   7  31  1   
 13   8  11  ar  
 14   8  32  1   
 15   9  12  ar  
 16   9  33  1   
 17  10  13  1   
 18  10  14  1   
 19  11  15  ar  
 20  12  15  ar  
 21  12  34  1   
 22  13  16  1   
 23  13  17  1   
 24  13  35  1   
 25  14  18  1   
 26  14  36  1   
 27  14  37  1   
 28  15  38  1   
 29  16  19  1   
 30  16  20  1   
 31  16  39  1   
 32  17  21  1   
 33  17  40  1   
 34  17  41  1   
 35  18  19  1   
 36  18  42  1   
 37  18  43  1   
 38  19  22  1   
 39  19  23  1   
 40  20  24  1   
 41  20  44  1   
 42  20  45  1   
 43  21  24  1   
 44  21  46  1   
 45  21  47  1   
 46  22  48  1   
 47  23  25  ar  
 48  23  26  ar  
 49  24  49  1   
 50  24  50  1   
 51  25  27  ar  
 52  25  51  1   
 53  26  28  ar  
 54  26  52  1   
 55  27  29  ar  
 56  27  53  1   
 57  28  29  ar  
 58  28  54  1   
 59  29  55  1   
@<TRIPOS>SUBSTRUCTURE
  1 ****  10 GROUP 4 **** **** 0

# MOE 2024.06 (io_trps.svl 2023.06)
