@<TRIPOS>MOLECULE
NONAME
49 51 1 0 0 
SMALL
USER_CHARGES


@<TRIPOS>ATOM
  1 F        0.5100    -0.8830     0.1190 F     1 <1>  -0.1900 
  2 C       -0.6900    -1.3530    -0.0930 C.ar  1 <1>   0.1900 
  3 C       -1.7490    -0.8220     0.6180 C.ar  1 <1>  -0.1500 
  4 C       -0.8560    -2.3640    -1.0190 C.ar  1 <1>  -0.1500 
  5 C       -3.0190    -1.3240     0.3890 C.ar  1 <1>  -0.1500 
  6 C       -2.1320    -2.8570    -1.2390 C.ar  1 <1>  -0.1500 
  7 C       -3.2150    -2.3390    -0.5390 C.ar  1 <1>  -0.1430 
  8 C       -4.6120    -2.8860    -0.7860 C.3   1 <1>  -0.0160 
  9 C       -4.8960    -4.0750     0.1390 C.3   1 <1>  -0.1600 
 10 C       -6.3100    -4.6470    -0.0820 C.3   1 <1>  -0.0990 
 11 C       -6.6670    -5.8240     0.8240 C.2   1 <1>   0.5690 
 12 O       -5.7750    -6.3480     1.4500 O.2   1 <1>  -0.5700 
 13 N       -7.9650    -6.2710     0.9200 N.am  1 <1>  -0.6600 
 14 C       -9.0770    -5.7530     0.0640 C.3   1 <1>   0.2200 
 15 C       -8.2940    -7.3360     1.9200 C.3   1 <1>   0.0600 
 16 C      -10.0040    -6.8290    -0.5000 C.3   1 <1>  -0.1600 
 17 C      -10.0070    -4.8170     0.8280 C.3   1 <1>  -0.1600 
 18 C      -11.2710    -6.0610    -0.8990 C.3   1 <1>  -0.0800 
 19 C      -11.3090    -4.8090     0.0150 C.3   1 <1>  -0.0800 
 20 C      -12.5370    -6.9440    -0.8870 C.3   1 <1>   0.1400 
 21 C      -12.5680    -4.7110     0.8980 C.3   1 <1>  -0.0990 
 22 N      -13.7400    -6.0980    -0.7450 N.am  1 <1>  -0.7300 
 23 C      -13.8050    -5.0420     0.0920 C.2   1 <1>   0.5690 
 24 O      -14.8090    -4.3880     0.2060 O.2   1 <1>  -0.5700 
 25 H       -1.5790    -0.0370     1.3330 H     1 <1>   0.1500 
 26 H       -0.0080    -2.7530    -1.5520 H     1 <1>   0.1500 
 27 H       -3.8540    -0.9240     0.9370 H     1 <1>   0.1500 
 28 H       -2.2790    -3.6470    -1.9550 H     1 <1>   0.1500 
 29 H       -5.3350    -2.1080    -0.6160 H     1 <1>   0.0800 
 30 H       -4.6990    -3.1940    -1.8140 H     1 <1>   0.0800 
 31 H       -4.7950    -3.7620     1.1640 H     1 <1>   0.0800 
 32 H       -4.1660    -4.8460    -0.0400 H     1 <1>   0.0800 
 33 H       -6.3980    -4.9760    -1.1010 H     1 <1>   0.0800 
 34 H       -7.0230    -3.8620     0.0890 H     1 <1>   0.0800 
 35 H       -8.6800    -5.2140    -0.7770 H     1 <1>   0.0800 
 36 H       -9.2580    -7.1610     2.3600 H     1 <1>   0.0800 
 37 H       -7.5650    -7.3510     2.7120 H     1 <1>   0.0800 
 38 H       -8.2900    -8.2970     1.4360 H     1 <1>   0.0800 
 39 H       -9.5590    -7.3280    -1.3430 H     1 <1>   0.0800 
 40 H      -10.2560    -7.5520     0.2530 H     1 <1>   0.0800 
 41 H      -10.1880    -5.2040     1.8140 H     1 <1>   0.0800 
 42 H       -9.5880    -3.8290     0.9090 H     1 <1>   0.0800 
 43 H      -11.1360    -5.7120    -1.9090 H     1 <1>   0.0800 
 44 H      -11.3020    -3.9460    -0.6310 H     1 <1>   0.0800 
 45 H      -12.5090    -7.6280    -0.0560 H     1 <1>   0.0800 
 46 H      -12.5960    -7.5160    -1.7970 H     1 <1>   0.0800 
 47 H      -12.6600    -3.7210     1.3060 H     1 <1>   0.0800 
 48 H      -12.5150    -5.4090     1.7120 H     1 <1>   0.0800 
 49 H      -14.5870    -6.3460    -1.2610 H     1 <1>   0.3700 
@<TRIPOS>BOND
  1   1   2  1   
  2   2   3  ar  
  3   2   4  ar  
  4   3   5  ar  
  5   3  25  1   
  6   4   6  ar  
  7   4  26  1   
  8   5   7  ar  
  9   5  27  1   
 10   6   7  ar  
 11   6  28  1   
 12   7   8  1   
 13   8   9  1   
 14   8  29  1   
 15   8  30  1   
 16   9  10  1   
 17   9  31  1   
 18   9  32  1   
 19  10  11  1   
 20  10  33  1   
 21  10  34  1   
 22  11  12  2   
 23  11  13  am  
 24  13  14  1   
 25  13  15  1   
 26  14  16  1   
 27  14  17  1   
 28  14  35  1   
 29  15  36  1   
 30  15  37  1   
 31  15  38  1   
 32  16  18  1   
 33  16  39  1   
 34  16  40  1   
 35  17  19  1   
 36  17  41  1   
 37  17  42  1   
 38  18  19  1   
 39  18  20  1   
 40  18  43  1   
 41  19  21  1   
 42  19  44  1   
 43  20  22  1   
 44  20  45  1   
 45  20  46  1   
 46  21  23  1   
 47  21  47  1   
 48  21  48  1   
 49  22  23  am  
 50  22  49  1   
 51  23  24  2   
@<TRIPOS>SUBSTRUCTURE
  1 ****  10 GROUP 4 **** **** 0

# MOE 2024.06 (io_trps.svl 2023.06)
