@<TRIPOS>MOLECULE
NONAME
38 39 1 0 0 
SMALL
USER_CHARGES


@<TRIPOS>ATOM
  1 F        0.2280    -0.1180     0.4290 F     1 <1>  -0.3400 
  2 C        1.1040    -0.3490    -0.5450 C.3   1 <1>   1.1640 
  3 F        1.0180    -1.6520    -0.8030 F     1 <1>  -0.3400 
  4 F        0.6270     0.2610    -1.6270 F     1 <1>  -0.3400 
  5 C        2.5460     0.1040    -0.1850 C.ar  1 <1>   0.1660 
  6 N        2.7780     1.3720     0.1430 N.ar  1 <1>  -0.6200 
  7 C        3.5900    -0.8020    -0.2050 C.ar  1 <1>  -0.1500 
  8 C        4.0270     1.6920     0.4410 C.ar  1 <1>   0.4760 
  9 C        4.8500    -0.3580     0.1180 C.ar  1 <1>   0.1660 
 10 N        5.0760     0.8910     0.4420 N.ar  1 <1>  -0.6200 
 11 C        4.2750     3.1380     0.8120 C.3   1 <1>  -0.0160 
 12 C        6.0430    -1.2900     0.1170 C.3   1 <1>  -0.0960 
 13 C        4.3370     3.9920    -0.4500 C.3   1 <1>   0.2090 
 14 N        4.4790     5.4210    -0.0850 N.pl3 1 <1>  -0.8690 
 15 C        5.6580     6.0820    -0.0350 C.ar  1 <1>   0.7200 
 16 N        6.7690     5.3720     0.1200 N.ar  1 <1>  -0.6200 
 17 N        5.5500     7.3960    -0.1530 N.ar  1 <1>  -0.6200 
 18 C        7.8810     6.0600     0.1680 C.ar  1 <1>   0.1670 
 19 C        6.6750     8.0640    -0.1030 C.ar  1 <1>   0.1670 
 20 C        7.8870     7.4320     0.0590 C.ar  1 <1>  -0.1500 
 21 C        9.1630     5.2760     0.3480 C.3   1 <1>  -0.0970 
 22 C        6.5860     9.5700    -0.2310 C.3   1 <1>  -0.0970 
 23 H        3.4380    -1.8330    -0.4660 H     1 <1>   0.1500 
 24 H        5.2030     3.2220     1.3470 H     1 <1>   0.0800 
 25 H        3.4780     3.4810     1.4440 H     1 <1>   0.0800 
 26 H        5.7580    -2.2890    -0.1560 H     1 <1>   0.0800 
 27 H        6.4830    -1.3090     1.0980 H     1 <1>   0.0800 
 28 H        6.7770    -0.9320    -0.5820 H     1 <1>   0.0800 
 29 H        3.4350     3.8620    -1.0240 H     1 <1>   0.0800 
 30 H        5.1710     3.6800    -1.0570 H     1 <1>   0.0800 
 31 H        3.7070     6.0380    -0.3290 H     1 <1>   0.4000 
 32 H        8.8030     7.9870     0.0990 H     1 <1>   0.1500 
 33 H        9.2780     4.5860    -0.4680 H     1 <1>   0.0800 
 34 H        9.1150     4.7200     1.2660 H     1 <1>   0.0800 
 35 H       10.0150     5.9290     0.3780 H     1 <1>   0.0800 
 36 H        6.1360     9.8240    -1.1730 H     1 <1>   0.0800 
 37 H        7.5590    10.0220    -0.1770 H     1 <1>   0.0800 
 38 H        5.9740     9.9610     0.5610 H     1 <1>   0.0800 
@<TRIPOS>BOND
  1   1   2  1   
  2   2   3  1   
  3   2   4  1   
  4   2   5  1   
  5   5   6  ar  
  6   5   7  ar  
  7   6   8  ar  
  8   7   9  ar  
  9   7  23  1   
 10   8  10  ar  
 11   8  11  1   
 12   9  10  ar  
 13   9  12  1   
 14  11  13  1   
 15  11  24  1   
 16  11  25  1   
 17  12  26  1   
 18  12  27  1   
 19  12  28  1   
 20  13  14  1   
 21  13  29  1   
 22  13  30  1   
 23  14  15  1   
 24  14  31  1   
 25  15  16  ar  
 26  15  17  ar  
 27  16  18  ar  
 28  17  19  ar  
 29  18  20  ar  
 30  18  21  1   
 31  19  20  ar  
 32  19  22  1   
 33  20  32  1   
 34  21  33  1   
 35  21  34  1   
 36  21  35  1   
 37  22  36  1   
 38  22  37  1   
 39  22  38  1   
@<TRIPOS>SUBSTRUCTURE
  1 ****  11 GROUP 4 **** **** 0

# MOE 2024.06 (io_trps.svl 2023.06)
