@<TRIPOS>MOLECULE
NONAME
50 52 1 0 0 
SMALL
USER_CHARGES


@<TRIPOS>ATOM
  1 F       -0.1570     1.0760    -0.9310 F     1 <1>  -0.1900 
  2 C        1.0930     1.2960    -0.6290 C.ar  1 <1>   0.1900 
  3 C        1.9360     0.2070    -0.4360 C.ar  1 <1>   0.0860 
  4 C        1.5050     2.6080    -0.4980 C.ar  1 <1>  -0.1500 
  5 C        3.2430     0.5270    -0.0810 C.ar  1 <1>   0.1900 
  6 C        1.4970    -1.1520    -0.5920 C.2   1 <1>   0.5440 
  7 C        2.8190     2.8800    -0.1490 C.ar  1 <1>   0.0830 
  8 F        4.0900    -0.4430     0.1340 F     1 <1>  -0.1900 
  9 C        3.7010     1.8230     0.0640 C.ar  1 <1>  -0.1500 
 10 O        1.3970    -1.6540    -1.6940 O.2   1 <1>  -0.5700 
 11 N        1.1350    -1.9260     0.4850 N.am  1 <1>  -0.6600 
 12 O        3.1650     4.1800    -0.0340 O.3   1 <1>  -0.3630 
 13 C       -0.0070    -1.5210     1.3560 C.3   1 <1>   0.1400 
 14 C        1.3320    -3.4000     0.4030 C.3   1 <1>   0.1400 
 15 C        4.4820     4.5780     0.2800 C.3   1 <1>   0.0400 
 16 C       -1.3210    -2.2320     0.9370 C.3   1 <1>   0.4230 
 17 C        0.0390    -4.0740    -0.0850 C.3   1 <1>   0.3430 
 18 N       -1.1440    -3.7380     0.8000 N.4   1 <1>  -0.9590 
 19 C       -1.8980    -1.6220    -0.3640 C.3   1 <1>   0.1200 
 20 C       -2.4350    -4.3500     0.3230 C.3   1 <1>   0.4230 
 21 O       -3.0910    -2.2660    -0.7080 O.3   1 <1>  -0.5600 
 22 C       -2.9680    -3.6390    -0.9440 C.3   1 <1>   0.1200 
 23 C       -2.2800    -5.8690     0.1350 C.3   1 <1>  -0.1600 
 24 C       -3.6350    -6.5870     0.0320 C.3   1 <1>  -0.1600 
 25 C       -3.4420    -8.1030    -0.0700 C.3   1 <1>  -0.2400 
 26 H        0.8170     3.4180    -0.6620 H     1 <1>   0.1500 
 27 H        4.7260     1.9840     0.3380 H     1 <1>   0.1500 
 28 H        0.2260    -1.7730     2.3760 H     1 <1>   0.0800 
 29 H       -0.1470    -0.4550     1.3150 H     1 <1>   0.0800 
 30 H        2.1310    -3.6220    -0.2860 H     1 <1>   0.0800 
 31 H        1.6160    -3.7840     1.3670 H     1 <1>   0.0800 
 32 H        4.5100     5.6530     0.2990 H     1 <1>   0.0800 
 33 H        5.1500     4.2090    -0.4780 H     1 <1>   0.0800 
 34 H        4.7450     4.1900     1.2480 H     1 <1>   0.0800 
 35 H       -2.0470    -2.0380     1.7080 H     1 <1>   0.0800 
 36 H        0.1920    -5.1400    -0.1110 H     1 <1>   0.0800 
 37 H       -0.1500    -3.7410    -1.0930 H     1 <1>   0.0800 
 38 H       -0.9510    -4.1150     1.7340 H     1 <1>   0.4500 
 39 H       -1.2090    -1.7060    -1.1870 H     1 <1>   0.0800 
 40 H       -2.1250    -0.5810    -0.2180 H     1 <1>   0.0800 
 41 H       -3.1770    -4.2020     1.0910 H     1 <1>   0.0800 
 42 H       -3.9460    -4.0050    -1.1990 H     1 <1>   0.0800 
 43 H       -2.3170    -3.7900    -1.7890 H     1 <1>   0.0800 
 44 H       -1.7150    -6.0800    -0.7550 H     1 <1>   0.0800 
 45 H       -1.7550    -6.2760     0.9820 H     1 <1>   0.0800 
 46 H       -4.2360    -6.3720     0.9000 H     1 <1>   0.0800 
 47 H       -4.1760    -6.2550    -0.8380 H     1 <1>   0.0800 
 48 H       -2.9360    -8.4840     0.8010 H     1 <1>   0.0800 
 49 H       -2.8680    -8.3580    -0.9440 H     1 <1>   0.0800 
 50 H       -4.3990    -8.5910    -0.1430 H     1 <1>   0.0800 
@<TRIPOS>BOND
  1   1   2  1   
  2   2   3  ar  
  3   2   4  ar  
  4   3   5  ar  
  5   3   6  1   
  6   4   7  ar  
  7   4  26  1   
  8   5   8  1   
  9   5   9  ar  
 10   6  10  2   
 11   6  11  am  
 12   7   9  ar  
 13   7  12  1   
 14   9  27  1   
 15  11  13  1   
 16  11  14  1   
 17  12  15  1   
 18  13  16  1   
 19  13  28  1   
 20  13  29  1   
 21  14  17  1   
 22  14  30  1   
 23  14  31  1   
 24  15  32  1   
 25  15  33  1   
 26  15  34  1   
 27  16  18  1   
 28  16  19  1   
 29  16  35  1   
 30  17  18  1   
 31  17  36  1   
 32  17  37  1   
 33  18  20  1   
 34  18  38  1   
 35  19  21  1   
 36  19  39  1   
 37  19  40  1   
 38  20  22  1   
 39  20  23  1   
 40  20  41  1   
 41  21  22  1   
 42  22  42  1   
 43  22  43  1   
 44  23  24  1   
 45  23  44  1   
 46  23  45  1   
 47  24  25  1   
 48  24  46  1   
 49  24  47  1   
 50  25  48  1   
 51  25  49  1   
 52  25  50  1   
@<TRIPOS>SUBSTRUCTURE
  1 ****  11 GROUP 4 **** **** 0

# MOE 2024.06 (io_trps.svl 2023.06)
