@<TRIPOS>MOLECULE
NONAME
53 56 1 0 0 
SMALL
USER_CHARGES


@<TRIPOS>ATOM
  1 O       -1.4850     0.6400     2.6560 O.2   1 <1>  -0.5700 
  2 C       -1.6800     1.0970     1.5440 C.2   1 <1>   0.5440 
  3 N       -2.1580     0.2490     0.5710 N.am  1 <1>  -0.6600 
  4 C       -1.4520     2.4960     1.2790 C.ar  1 <1>   0.0860 
  5 C       -2.7360     0.6770    -0.7290 C.3   1 <1>   0.1400 
  6 C       -2.4330    -1.1880     0.8120 C.3   1 <1>   0.1400 
  7 C       -0.5090     2.9330     0.3050 C.ar  1 <1>   0.0000 
  8 C       -2.1860     3.4430     1.9630 C.ar  1 <1>  -0.1500 
  9 C       -3.7530    -0.4130    -1.0620 C.3   1 <1>   0.2000 
 10 C       -3.1320    -1.6800    -0.4620 C.3   1 <1>  -0.0800 
 11 C       -0.4250     4.3100    -0.0180 C.ar  1 <1>   0.0000 
 12 C        0.3600     2.0390    -0.3630 C.ar  1 <1>  -0.1500 
 13 C       -2.0660     4.7960     1.6850 C.ar  1 <1>  -0.1500 
 14 O       -4.9340    -0.1180    -0.3980 O.3   1 <1>  -0.6800 
 15 C       -4.1200    -2.8380    -0.2250 C.3   1 <1>   0.0200 
 16 C       -1.2080     5.2510     0.7090 C.ar  1 <1>   0.1000 
 17 C        0.4420     4.6970    -1.0630 C.ar  1 <1>  -0.1500 
 18 C        1.2110     2.4550    -1.3490 C.ar  1 <1>  -0.1500 
 19 C       -3.4410    -4.1200     0.2270 C.2   1 <1>  -0.0400 
 20 N       -1.1050     6.6150     0.4760 N.pl3 1 <1>  -0.8380 
 21 C        1.2420     3.8000    -1.7140 C.ar  1 <1>  -0.1500 
 22 O       -4.1880    -5.1320     0.5780 O.3   1 <1>  -0.0190 
 23 C       -2.1580    -4.4960     0.3600 C.2   1 <1>  -0.1500 
 24 C       -2.3170     7.4450     0.2570 C.3   1 <1>   0.1290 
 25 C        0.1050     7.3400     0.9450 C.3   1 <1>   0.1290 
 26 N       -3.4780    -6.1610     0.9420 N.2   1 <1>  -0.4100 
 27 C       -2.2500    -5.8060     0.8210 C.2   1 <1>   0.1080 
 28 C       -1.0720    -6.6990     1.1390 C.3   1 <1>  -0.0590 
 29 H       -3.1970     1.6490    -0.6710 H     1 <1>   0.0800 
 30 H       -1.9570     0.6930    -1.4710 H     1 <1>   0.0800 
 31 H       -1.5150    -1.7180     1.0000 H     1 <1>   0.0800 
 32 H       -3.0780    -1.2840     1.6700 H     1 <1>   0.0800 
 33 H       -2.8730     3.1250     2.7280 H     1 <1>   0.1500 
 34 H       -3.9610    -0.4910    -2.1150 H     1 <1>   0.0800 
 35 H       -2.3700    -2.0170    -1.1430 H     1 <1>   0.0800 
 36 H        0.3550     0.9990    -0.0880 H     1 <1>   0.1500 
 37 H       -2.6480     5.5000     2.2490 H     1 <1>   0.1500 
 38 H       -4.7220     0.1100     0.5310 H     1 <1>   0.4000 
 39 H       -4.6560    -3.0410    -1.1360 H     1 <1>   0.0800 
 40 H       -4.8440    -2.5570     0.5200 H     1 <1>   0.0800 
 41 H        0.4650     5.7330    -1.3460 H     1 <1>   0.1500 
 42 H        1.8610     1.7600    -1.8510 H     1 <1>   0.1500 
 43 H        1.9010     4.1190    -2.5030 H     1 <1>   0.1500 
 44 H       -1.2490    -3.9580     0.1690 H     1 <1>   0.1500 
 45 H       -2.1270     8.1670    -0.5180 H     1 <1>   0.0800 
 46 H       -2.5820     7.9580     1.1650 H     1 <1>   0.0800 
 47 H       -3.1390     6.8200    -0.0480 H     1 <1>   0.0800 
 48 H        0.4650     7.9890     0.1660 H     1 <1>   0.0800 
 49 H        0.8800     6.6380     1.2000 H     1 <1>   0.0800 
 50 H       -0.1330     7.9250     1.8160 H     1 <1>   0.0800 
 51 H       -0.4540    -6.2360     1.8860 H     1 <1>   0.0800 
 52 H       -0.4920    -6.8680     0.2510 H     1 <1>   0.0800 
 53 H       -1.4200    -7.6450     1.5130 H     1 <1>   0.0800 
@<TRIPOS>BOND
  1   1   2  2   
  2   2   3  am  
  3   2   4  1   
  4   3   5  1   
  5   3   6  1   
  6   4   7  ar  
  7   4   8  ar  
  8   5   9  1   
  9   5  29  1   
 10   5  30  1   
 11   6  10  1   
 12   6  31  1   
 13   6  32  1   
 14   7  11  ar  
 15   7  12  ar  
 16   8  13  ar  
 17   8  33  1   
 18   9  10  1   
 19   9  14  1   
 20   9  34  1   
 21  10  15  1   
 22  10  35  1   
 23  11  16  ar  
 24  11  17  ar  
 25  12  18  ar  
 26  12  36  1   
 27  13  16  ar  
 28  13  37  1   
 29  14  38  1   
 30  15  19  1   
 31  15  39  1   
 32  15  40  1   
 33  16  20  1   
 34  17  21  ar  
 35  17  41  1   
 36  18  21  ar  
 37  18  42  1   
 38  19  22  1   
 39  19  23  2   
 40  20  24  1   
 41  20  25  1   
 42  21  43  1   
 43  22  26  1   
 44  23  27  1   
 45  23  44  1   
 46  24  45  1   
 47  24  46  1   
 48  24  47  1   
 49  25  48  1   
 50  25  49  1   
 51  25  50  1   
 52  26  27  2   
 53  27  28  1   
 54  28  51  1   
 55  28  52  1   
 56  28  53  1   
@<TRIPOS>SUBSTRUCTURE
  1 ****   3 GROUP 4 **** **** 0

# MOE 2024.06 (io_trps.svl 2023.06)
