@<TRIPOS>MOLECULE
NONAME
58 61 1 0 0 
SMALL
USER_CHARGES


@<TRIPOS>ATOM
  1 S       -0.2230     0.2110    -2.2070 S.o2  1 <1>   1.4470 
  2 O       -1.4120    -0.6060    -2.3280 O.2   1 <1>  -0.6500 
  3 O        0.3350     0.8410    -3.3820 O.2   1 <1>  -0.6500 
  4 N       -0.5800     1.4430    -1.0930 N.am  1 <1>  -0.8490 
  5 C        1.0880    -0.7080    -1.3570 C.ar  1 <1>  -0.0090 
  6 C       -1.1610     0.9310     0.1610 C.3   1 <1>   0.1960 
  7 C       -1.3010     2.5820    -1.6900 C.3   1 <1>   0.1960 
  8 C        2.1960    -0.0400    -0.8520 C.ar  1 <1>  -0.1500 
  9 C        1.0200    -2.0860    -1.1860 C.ar  1 <1>  -0.1500 
 10 C       -1.9480     2.0180     0.8930 C.3   1 <1>  -0.1600 
 11 C       -2.8050     2.4560    -1.4560 C.3   1 <1>  -0.1600 
 12 C        3.2030    -0.6950    -0.1540 C.ar  1 <1>   0.1170 
 13 C        2.0290    -2.7710    -0.5330 C.ar  1 <1>  -0.1500 
 14 C       -3.1520     2.5030     0.0540 C.3   1 <1>   0.2800 
 15 N        4.3090    -0.0070     0.3950 N.am  1 <1>  -0.4770 
 16 C        3.1180    -2.0870    -0.0270 C.ar  1 <1>   0.0820 
 17 O       -3.3450     3.8320     0.4550 O.3   1 <1>  -0.5600 
 18 C       -4.4100     1.6710     0.4020 C.3   1 <1>  -0.1600 
 19 C        4.3050     1.2010     1.0630 C.2   1 <1>   0.5690 
 20 C        5.5380    -0.8430     0.4420 C.3   1 <1>   0.1400 
 21 O        4.1030    -2.8170     0.5650 O.3   1 <1>  -0.3630 
 22 C       -4.4910     4.5290     0.0520 C.3   1 <1>   0.1200 
 23 C       -5.7380     2.3220     0.0040 C.3   1 <1>   0.2800 
 24 O        5.3250     1.7460     1.4100 O.2   1 <1>  -0.5700 
 25 C        3.0100     1.8900     1.4410 C.3   1 <1>  -0.1790 
 26 C        5.2080    -2.1560     1.1640 C.3   1 <1>   0.1200 
 27 C       -5.7510     3.7770     0.4800 C.3   1 <1>  -0.1600 
 28 O       -5.8360     2.3220    -1.3790 O.3   1 <1>  -0.6800 
 29 C       -6.9400     1.5260     0.5610 C.3   1 <1>   0.1200 
 30 O       -8.1240     1.9840     0.0000 O.3   1 <1>  -0.6800 
 31 H       -0.3690     0.5670     0.7930 H     1 <1>   0.0800 
 32 H       -1.8300     0.1100    -0.0390 H     1 <1>   0.0800 
 33 H       -1.0960     2.6620    -2.7440 H     1 <1>   0.0800 
 34 H       -0.9520     3.4920    -1.2300 H     1 <1>   0.0800 
 35 H        2.2690     1.0190    -1.0210 H     1 <1>   0.1500 
 36 H        0.1730    -2.6290    -1.5730 H     1 <1>   0.1500 
 37 H       -1.2770     2.8380     1.0880 H     1 <1>   0.0800 
 38 H       -2.2690     1.6420     1.8460 H     1 <1>   0.0800 
 39 H       -3.1210     1.5190    -1.8800 H     1 <1>   0.0800 
 40 H       -3.2990     3.2310    -2.0060 H     1 <1>   0.0800 
 41 H        1.9790    -3.8400    -0.4180 H     1 <1>   0.1500 
 42 H       -4.4380     1.5370     1.4680 H     1 <1>   0.0800 
 43 H       -4.3400     0.6890    -0.0290 H     1 <1>   0.0800 
 44 H        6.3370    -0.3420     0.9590 H     1 <1>   0.0800 
 45 H        5.8670    -1.0500    -0.5610 H     1 <1>   0.0800 
 46 H       -4.4660     4.6810    -1.0110 H     1 <1>   0.0800 
 47 H       -4.4620     5.4940     0.5260 H     1 <1>   0.0800 
 48 H        2.2460     1.1710     1.6660 H     1 <1>   0.0800 
 49 H        2.6900     2.5300     0.6410 H     1 <1>   0.0800 
 50 H        3.1720     2.4950     2.3140 H     1 <1>   0.0800 
 51 H        4.9560    -1.9570     2.1910 H     1 <1>   0.0800 
 52 H        6.0480    -2.8260     1.1340 H     1 <1>   0.0800 
 53 H       -6.6250     4.2800     0.1060 H     1 <1>   0.0800 
 54 H       -5.8060     3.8000     1.5530 H     1 <1>   0.0800 
 55 H       -5.0540     2.7640    -1.7540 H     1 <1>   0.4000 
 56 H       -7.0120     1.6240     1.6300 H     1 <1>   0.0800 
 57 H       -6.8390     0.4840     0.3130 H     1 <1>   0.0800 
 58 H       -7.9500     2.1300    -0.9560 H     1 <1>   0.4000 
@<TRIPOS>BOND
  1   1   2  2   
  2   1   3  2   
  3   1   4  am  
  4   1   5  1   
  5   4   6  1   
  6   4   7  1   
  7   5   8  ar  
  8   5   9  ar  
  9   6  10  1   
 10   6  31  1   
 11   6  32  1   
 12   7  11  1   
 13   7  33  1   
 14   7  34  1   
 15   8  12  ar  
 16   8  35  1   
 17   9  13  ar  
 18   9  36  1   
 19  10  14  1   
 20  10  37  1   
 21  10  38  1   
 22  11  14  1   
 23  11  39  1   
 24  11  40  1   
 25  12  15  1   
 26  12  16  ar  
 27  13  16  ar  
 28  13  41  1   
 29  14  17  1   
 30  14  18  1   
 31  15  19  am  
 32  15  20  1   
 33  16  21  1   
 34  17  22  1   
 35  18  23  1   
 36  18  42  1   
 37  18  43  1   
 38  19  24  2   
 39  19  25  1   
 40  20  26  1   
 41  20  44  1   
 42  20  45  1   
 43  21  26  1   
 44  22  27  1   
 45  22  46  1   
 46  22  47  1   
 47  23  27  1   
 48  23  28  1   
 49  23  29  1   
 50  25  48  1   
 51  25  49  1   
 52  25  50  1   
 53  26  51  1   
 54  26  52  1   
 55  27  53  1   
 56  27  54  1   
 57  28  55  1   
 58  29  30  1   
 59  29  56  1   
 60  29  57  1   
 61  30  58  1   
@<TRIPOS>SUBSTRUCTURE
  1 ****   6 GROUP 4 **** **** 0

# MOE 2024.06 (io_trps.svl 2023.06)
