@<TRIPOS>MOLECULE
NONAME
53 56 1 0 0 
SMALL
USER_CHARGES


@<TRIPOS>ATOM
  1 O       -1.0610    -0.4570     0.6070 O.3   1 <1>  -0.6800 
  2 C       -2.0220    -1.4150     0.8850 C.3   1 <1>   0.2000 
  3 C       -1.9930    -2.5110    -0.1960 C.3   1 <1>   0.2090 
  4 C       -3.3830    -0.7130     0.9230 C.3   1 <1>  -0.1600 
  5 N       -3.1130    -3.4890     0.0110 N.pl3 1 <1>  -0.8380 
  6 C       -4.5180    -1.7410     1.0670 C.3   1 <1>  -0.1600 
  7 C       -2.9670    -4.8400     0.0490 C.ar  1 <1>   0.4100 
  8 C       -4.4560    -2.8280    -0.0140 C.3   1 <1>   0.2090 
  9 N       -3.9590    -5.5800    -0.4090 N.ar  1 <1>  -0.6200 
 10 C       -1.7970    -5.4350     0.5600 C.ar  1 <1>  -0.1500 
 11 C       -3.8360    -6.8990    -0.4090 C.ar  1 <1>   0.7710 
 12 C       -1.6850    -6.7830     0.5510 C.ar  1 <1>   0.2110 
 13 N       -2.7220    -7.4970     0.0520 N.ar  1 <1>  -0.1790 
 14 N       -4.8500    -7.6690    -0.8890 N.pl3 1 <1>  -0.8380 
 15 C       -4.9980    -9.1640    -0.8060 C.3   1 <1>   0.2090 
 16 C       -6.0560    -7.0620    -1.5630 C.3   1 <1>   0.2090 
 17 C       -6.3260    -9.5580    -0.1280 C.3   1 <1>   0.1100 
 18 C       -7.3600    -7.4970    -0.8700 C.3   1 <1>   0.1100 
 19 N       -7.4930    -8.9700    -0.8210 N.3   1 <1>  -0.8100 
 20 C       -8.7620    -9.3480    -0.1710 C.3   1 <1>   0.1100 
 21 C       -9.1750   -10.7690    -0.5610 C.3   1 <1>   0.0960 
 22 N      -10.4500   -11.1080     0.0890 N.pl3 1 <1>   0.3140 
 23 N      -10.5610   -11.2770     1.3990 N.2   1 <1>  -0.7070 
 24 C      -11.6500   -11.2920    -0.4690 C.2   1 <1>   0.0360 
 25 C      -11.8170   -11.5510     1.5370 C.2   1 <1>   0.3660 
 26 N      -12.5420   -11.5730     0.4110 N.2   1 <1>  -0.5650 
 27 H       -0.1640    -0.7900     0.8000 H     1 <1>   0.4000 
 28 H       -1.8000    -1.8420     1.8480 H     1 <1>   0.0800 
 29 H       -1.0400    -3.0060    -0.1910 H     1 <1>   0.0800 
 30 H       -2.1220    -2.0490    -1.1600 H     1 <1>   0.0800 
 31 H       -3.5230    -0.1600     0.0100 H     1 <1>   0.0800 
 32 H       -3.4110    -0.0250     1.7490 H     1 <1>   0.0800 
 33 H       -5.4660    -1.2380     1.0050 H     1 <1>   0.0800 
 34 H       -4.4620    -2.2120     2.0330 H     1 <1>   0.0800 
 35 H       -5.2410    -3.5430     0.1660 H     1 <1>   0.0800 
 36 H       -4.6170    -2.3920    -0.9850 H     1 <1>   0.0800 
 37 H       -1.0210    -4.8120     0.9600 H     1 <1>   0.1500 
 38 H       -0.8160    -7.3010     0.9240 H     1 <1>   0.1500 
 39 H       -2.7080    -8.5060    -0.0160 H     1 <1>   0.4570 
 40 H       -4.1930    -9.6140    -0.2570 H     1 <1>   0.0800 
 41 H       -4.9900    -9.5760    -1.8020 H     1 <1>   0.0800 
 42 H       -6.0880    -7.3860    -2.5890 H     1 <1>   0.0800 
 43 H       -6.0180    -5.9870    -1.5730 H     1 <1>   0.0800 
 44 H       -6.3100    -9.2340     0.8990 H     1 <1>   0.0800 
 45 H       -6.4060   -10.6310    -0.1360 H     1 <1>   0.0800 
 46 H       -8.1900    -7.0840    -1.4180 H     1 <1>   0.0800 
 47 H       -7.3830    -7.0890     0.1260 H     1 <1>   0.0800 
 48 H       -9.5410    -8.6770    -0.4940 H     1 <1>   0.0800 
 49 H       -8.6700    -9.2670     0.9000 H     1 <1>   0.0800 
 50 H       -8.4420   -11.4800    -0.2330 H     1 <1>   0.0800 
 51 H       -9.2940   -10.8390    -1.6250 H     1 <1>   0.0800 
 52 H      -11.8270   -11.2110    -1.5260 H     1 <1>   0.1500 
 53 H      -12.2780   -11.7530     2.4920 H     1 <1>   0.1500 
@<TRIPOS>BOND
  1   1   2  1   
  2   1  27  1   
  3   2   3  1   
  4   2   4  1   
  5   2  28  1   
  6   3   5  1   
  7   3  29  1   
  8   3  30  1   
  9   4   6  1   
 10   4  31  1   
 11   4  32  1   
 12   5   7  1   
 13   5   8  1   
 14   6   8  1   
 15   6  33  1   
 16   6  34  1   
 17   7   9  ar  
 18   7  10  ar  
 19   8  35  1   
 20   8  36  1   
 21   9  11  ar  
 22  10  12  ar  
 23  10  37  1   
 24  11  13  ar  
 25  11  14  1   
 26  12  13  ar  
 27  12  38  1   
 28  13  39  1   
 29  14  15  1   
 30  14  16  1   
 31  15  17  1   
 32  15  40  1   
 33  15  41  1   
 34  16  18  1   
 35  16  42  1   
 36  16  43  1   
 37  17  19  1   
 38  17  44  1   
 39  17  45  1   
 40  18  19  1   
 41  18  46  1   
 42  18  47  1   
 43  19  20  1   
 44  20  21  1   
 45  20  48  1   
 46  20  49  1   
 47  21  22  1   
 48  21  50  1   
 49  21  51  1   
 50  22  23  1   
 51  22  24  1   
 52  23  25  2   
 53  24  26  2   
 54  24  52  1   
 55  25  26  1   
 56  25  53  1   
@<TRIPOS>SUBSTRUCTURE
  1 ****  14 GROUP 4 **** **** 0

# MOE 2024.06 (io_trps.svl 2023.06)
