@<TRIPOS>MOLECULE
NONAME
56 59 1 0 0 
SMALL
USER_CHARGES


@<TRIPOS>ATOM
  1 O       -0.7150     0.2870    -0.1480 O.2   1 <1>  -0.5700 
  2 C       -1.6990     0.9620    -0.3450 C.2   1 <1>   0.5690 
  3 N       -2.8770     0.3700    -0.7320 N.am  1 <1>  -0.6600 
  4 C       -1.6180     2.4660    -0.1330 C.3   1 <1>  -0.0990 
  5 C       -2.9200    -1.0820    -1.0570 C.3   1 <1>   0.1400 
  6 C       -4.2200     1.0090    -0.6500 C.3   1 <1>   0.1400 
  7 C       -0.1820     2.9930     0.0050 C.3   1 <1>   0.0210 
  8 C       -3.7180    -1.8270     0.0350 C.3   1 <1>   0.4230 
  9 C       -5.0260     0.2910     0.4410 C.3   1 <1>  -0.1600 
 10 C       -0.1300     4.5030     0.1840 C.2   1 <1>  -0.1810 
 11 N       -3.6760    -3.3450    -0.0960 N.4   1 <1>  -0.9590 
 12 C       -5.1530    -1.2450     0.2140 C.3   1 <1>   0.0000 
 13 C        1.0830     5.2180     0.3220 C.ar  1 <1>   0.0000 
 14 C       -1.1410     5.4060     0.2450 C.2   1 <1>  -0.3020 
 15 C       -4.7490    -4.0560     0.6730 C.3   1 <1>   0.3430 
 16 C       -3.6170    -3.8730    -1.4990 C.3   1 <1>   0.2630 
 17 C       -5.8100    -1.8830     1.4740 C.3   1 <1>  -0.1600 
 18 C       -6.0120    -1.5340    -1.0510 C.3   1 <1>   0.1200 
 19 C        0.7400     6.5580     0.4640 C.ar  1 <1>  -0.1520 
 20 C        2.4320     4.8480     0.3390 C.ar  1 <1>  -0.1500 
 21 N       -0.6250     6.6590     0.4150 N.pl3 1 <1>   0.0330 
 22 C       -5.1930    -3.2350     1.8820 C.3   1 <1>  -0.1600 
 23 O       -7.2200    -0.8590    -1.0160 O.3   1 <1>  -0.6800 
 24 C        1.7220     7.5400     0.6220 C.ar  1 <1>  -0.1500 
 25 C        3.3990     5.8140     0.4950 C.ar  1 <1>  -0.1500 
 26 C        3.0440     7.1610     0.6370 C.ar  1 <1>  -0.1500 
 27 H       -2.0790     2.9550    -0.9710 H     1 <1>   0.0800 
 28 H       -2.1650     2.7160     0.7580 H     1 <1>   0.0800 
 29 H       -3.3730    -1.1990    -2.0240 H     1 <1>   0.0800 
 30 H       -1.9230    -1.4820    -1.1070 H     1 <1>   0.0800 
 31 H       -4.1430     2.0540    -0.4060 H     1 <1>   0.0800 
 32 H       -4.7180     0.9340    -1.6020 H     1 <1>   0.0800 
 33 H        0.3810     2.7300    -0.8740 H     1 <1>   0.0800 
 34 H        0.2920     2.5300     0.8530 H     1 <1>   0.0800 
 35 H       -3.2060    -1.5930     0.9540 H     1 <1>   0.0800 
 36 H       -4.5340     0.4830     1.3790 H     1 <1>   0.0800 
 37 H       -5.9990     0.7460     0.5080 H     1 <1>   0.0800 
 38 H       -2.7860    -3.6110     0.3530 H     1 <1>   0.4500 
 39 H       -2.2010     5.2420     0.1790 H     1 <1>   0.1500 
 40 H       -5.6050    -4.2190     0.0380 H     1 <1>   0.0800 
 41 H       -4.3900    -5.0200     0.9970 H     1 <1>   0.0800 
 42 H       -4.5020    -3.5940    -2.0470 H     1 <1>   0.0800 
 43 H       -3.5450    -4.9490    -1.4900 H     1 <1>   0.0800 
 44 H       -2.7540    -3.4840    -2.0150 H     1 <1>   0.0800 
 45 H       -5.7230    -1.2240     2.3220 H     1 <1>   0.0800 
 46 H       -6.8660    -2.0160     1.3130 H     1 <1>   0.0800 
 47 H       -6.2330    -2.5810    -1.1500 H     1 <1>   0.0800 
 48 H       -5.5130    -1.2080    -1.9460 H     1 <1>   0.0800 
 49 H        2.6930     3.8120     0.2290 H     1 <1>   0.1500 
 50 H       -1.1540     7.5330     0.4940 H     1 <1>   0.2700 
 51 H       -5.9190    -3.7970     2.4450 H     1 <1>   0.0800 
 52 H       -4.3480    -3.0780     2.5300 H     1 <1>   0.0800 
 53 H       -7.8000    -1.1690    -0.2920 H     1 <1>   0.4000 
 54 H        1.4390     8.5720     0.7310 H     1 <1>   0.1500 
 55 H        4.4400     5.5420     0.5100 H     1 <1>   0.1500 
 56 H        3.8190     7.8970     0.7580 H     1 <1>   0.1500 
@<TRIPOS>BOND
  1   1   2  2   
  2   2   3  am  
  3   2   4  1   
  4   3   5  1   
  5   3   6  1   
  6   4   7  1   
  7   4  27  1   
  8   4  28  1   
  9   5   8  1   
 10   5  29  1   
 11   5  30  1   
 12   6   9  1   
 13   6  31  1   
 14   6  32  1   
 15   7  10  1   
 16   7  33  1   
 17   7  34  1   
 18   8  11  1   
 19   8  12  1   
 20   8  35  1   
 21   9  12  1   
 22   9  36  1   
 23   9  37  1   
 24  10  13  1   
 25  10  14  2   
 26  11  15  1   
 27  11  16  1   
 28  11  38  1   
 29  12  17  1   
 30  12  18  1   
 31  13  19  ar  
 32  13  20  ar  
 33  14  21  1   
 34  14  39  1   
 35  15  22  1   
 36  15  40  1   
 37  15  41  1   
 38  16  42  1   
 39  16  43  1   
 40  16  44  1   
 41  17  22  1   
 42  17  45  1   
 43  17  46  1   
 44  18  23  1   
 45  18  47  1   
 46  18  48  1   
 47  19  21  1   
 48  19  24  ar  
 49  20  25  ar  
 50  20  49  1   
 51  21  50  1   
 52  22  51  1   
 53  22  52  1   
 54  23  53  1   
 55  24  26  ar  
 56  24  54  1   
 57  25  26  ar  
 58  25  55  1   
 59  26  56  1   
@<TRIPOS>SUBSTRUCTURE
  1 ****   2 GROUP 4 **** **** 0

# MOE 2024.06 (io_trps.svl 2023.06)
