@<TRIPOS>MOLECULE
NONAME
47 49 1 0 0 
SMALL
USER_CHARGES


@<TRIPOS>ATOM
  1 O       -0.4190     0.0080    -0.5710 O.2   1 <1>  -0.5700 
  2 C       -1.4230     0.6940    -0.5030 C.2   1 <1>   0.5440 
  3 N       -2.6250     0.0830    -0.2400 N.am  1 <1>  -0.6600 
  4 C       -1.3510     2.1310    -0.6950 C.ar  1 <1>   0.0860 
  5 C       -3.8910     0.7880     0.0470 C.3   1 <1>   0.1400 
  6 C       -2.7740    -1.3770    -0.0730 C.3   1 <1>   0.1400 
  7 C       -0.6850     2.9800     0.2010 C.ar  1 <1>  -0.1440 
  8 C       -1.9820     2.7060    -1.7990 C.ar  1 <1>  -0.1500 
  9 C       -4.7450    -0.2300     0.8090 C.3   1 <1>  -0.0800 
 10 C       -4.2280    -1.6090     0.3530 C.3   1 <1>  -0.0800 
 11 C       -0.6680     4.3490    -0.0120 C.ar  1 <1>  -0.1500 
 12 C        0.0270     2.4060     1.4200 C.3   1 <1>  -0.0970 
 13 C       -1.9670     4.0710    -2.0100 C.ar  1 <1>  -0.1500 
 14 C       -6.2880    -0.0330     0.7050 C.3   1 <1>   0.2800 
 15 C       -5.0950    -2.1870    -0.7760 C.3   1 <1>  -0.1600 
 16 C       -1.3110     4.8910    -1.1120 C.ar  1 <1>   0.0830 
 17 O       -6.6090     0.4960    -0.5310 O.3   1 <1>  -0.6800 
 18 C       -6.9960    -1.3990     0.7830 C.3   1 <1>  -0.1600 
 19 C       -6.8320     0.9870     1.7300 C.3   1 <1>  -0.1600 
 20 C       -6.5580    -2.3800    -0.3290 C.3   1 <1>  -0.1600 
 21 O       -1.3050     6.2130    -1.3180 O.3   1 <1>  -0.5330 
 22 C       -6.8100     0.5450     3.2050 C.3   1 <1>  -0.2400 
 23 H       -3.7230     1.6740     0.6360 H     1 <1>   0.0800 
 24 H       -4.3360     1.0640    -0.8920 H     1 <1>   0.0800 
 25 H       -2.5380    -1.8810    -0.9950 H     1 <1>   0.0800 
 26 H       -2.0960    -1.7110     0.6940 H     1 <1>   0.0800 
 27 H       -2.4900     2.0650    -2.4980 H     1 <1>   0.1500 
 28 H       -4.4620    -0.1460     1.8410 H     1 <1>   0.0800 
 29 H       -4.2440    -2.3030     1.1750 H     1 <1>   0.0800 
 30 H       -0.1560     4.9960     0.6770 H     1 <1>   0.1500 
 31 H        0.4160     3.1860     2.0490 H     1 <1>   0.0800 
 32 H        0.8450     1.7830     1.1040 H     1 <1>   0.0800 
 33 H       -0.6550     1.8090     2.0000 H     1 <1>   0.0800 
 34 H       -2.4590     4.5040    -2.8620 H     1 <1>   0.1500 
 35 H       -5.0700    -1.5050    -1.6100 H     1 <1>   0.0800 
 36 H       -4.6930    -3.1270    -1.1140 H     1 <1>   0.0800 
 37 H       -7.5730     0.4460    -0.6610 H     1 <1>   0.4000 
 38 H       -6.7510    -1.8480     1.7280 H     1 <1>   0.0800 
 39 H       -8.0640    -1.2730     0.7640 H     1 <1>   0.0800 
 40 H       -6.2630     1.8960     1.6400 H     1 <1>   0.0800 
 41 H       -7.8530     1.2190     1.4810 H     1 <1>   0.0800 
 42 H       -6.6940    -3.3860     0.0280 H     1 <1>   0.0800 
 43 H       -7.1930    -2.2550    -1.1890 H     1 <1>   0.0800 
 44 H       -0.8150     6.7110    -0.6410 H     1 <1>   0.4500 
 45 H       -5.8130     0.3170     3.5360 H     1 <1>   0.0800 
 46 H       -7.4340    -0.3160     3.3600 H     1 <1>   0.0800 
 47 H       -7.1880     1.3410     3.8230 H     1 <1>   0.0800 
@<TRIPOS>BOND
  1   1   2  2   
  2   2   3  am  
  3   2   4  1   
  4   3   5  1   
  5   3   6  1   
  6   4   7  ar  
  7   4   8  ar  
  8   5   9  1   
  9   5  23  1   
 10   5  24  1   
 11   6  10  1   
 12   6  25  1   
 13   6  26  1   
 14   7  11  ar  
 15   7  12  1   
 16   8  13  ar  
 17   8  27  1   
 18   9  10  1   
 19   9  14  1   
 20   9  28  1   
 21  10  15  1   
 22  10  29  1   
 23  11  16  ar  
 24  11  30  1   
 25  12  31  1   
 26  12  32  1   
 27  12  33  1   
 28  13  16  ar  
 29  13  34  1   
 30  14  17  1   
 31  14  18  1   
 32  14  19  1   
 33  15  20  1   
 34  15  35  1   
 35  15  36  1   
 36  16  21  1   
 37  17  37  1   
 38  18  20  1   
 39  18  38  1   
 40  18  39  1   
 41  19  22  1   
 42  19  40  1   
 43  19  41  1   
 44  20  42  1   
 45  20  43  1   
 46  21  44  1   
 47  22  45  1   
 48  22  46  1   
 49  22  47  1   
@<TRIPOS>SUBSTRUCTURE
  1 ****   5 GROUP 4 **** **** 0

# MOE 2024.06 (io_trps.svl 2023.06)
