@<TRIPOS>MOLECULE
NONAME
52 55 1 0 0 
SMALL
USER_CHARGES


@<TRIPOS>ATOM
  1 S       -1.4970     0.9260    -1.8540 S.3   1 <1>  -0.0800 
  2 C       -1.3040     2.0850    -0.5480 C.2   1 <1>  -0.1400 
  3 C       -3.1360     0.5650    -1.3310 C.2   1 <1>  -0.1100 
  4 C       -2.4190     2.1640     0.1870 C.2   1 <1>  -0.1810 
  5 C       -0.0180     2.8620    -0.3250 C.3   1 <1>   0.4600 
  6 C       -3.4690     1.2960    -0.2490 C.2   1 <1>  -0.1500 
  7 C       -2.4770     3.1140     1.3610 C.3   1 <1>   0.0210 
  8 O       -0.1240     3.6060     0.8790 O.3   1 <1>  -0.5600 
  9 C        1.1700     1.9120    -0.1390 C.3   1 <1>  -0.1600 
 10 C        0.2870     3.8340    -1.4750 C.3   1 <1>  -0.1600 
 11 C       -1.3780     4.1820     1.1940 C.3   1 <1>   0.1200 
 12 C        2.4920     2.6410     0.1240 C.3   1 <1>   0.3430 
 13 C        1.7110     4.4010    -1.4380 C.3   1 <1>   0.3430 
 14 N        2.3550     4.1060    -0.1240 N.4   1 <1>  -0.9590 
 15 C        3.6100     4.8650     0.1330 C.3   1 <1>   0.4860 
 16 C        3.3150     6.3440     0.0610 C.ar  1 <1>  -0.1430 
 17 C        2.5690     6.9800     1.0270 C.ar  1 <1>   0.1600 
 18 C        3.7680     7.1170    -0.9850 C.ar  1 <1>   0.1600 
 19 N        2.2690     8.2500     0.9500 N.ar  1 <1>  -0.6200 
 20 N        3.4800     8.3890    -1.0850 N.ar  1 <1>  -0.6200 
 21 C        2.7370     8.8950    -0.1120 C.ar  1 <1>   0.7200 
 22 N        2.4460    10.2050    -0.2520 N.pl3 1 <1>  -0.8690 
 23 C        1.9860    11.0790     0.8420 C.3   1 <1>   0.2090 
 24 C        1.5690    12.4270     0.2560 C.3   1 <1>  -0.1600 
 25 C        1.0670    13.3830     1.3440 C.3   1 <1>  -0.2400 
 26 H       -3.6860    -0.1670    -1.8960 H     1 <1>   0.1500 
 27 H       -4.4150     1.2590     0.2630 H     1 <1>   0.1500 
 28 H       -2.3320     2.5720     2.2780 H     1 <1>   0.0800 
 29 H       -3.4380     3.5950     1.3990 H     1 <1>   0.0800 
 30 H        1.2840     1.3110    -1.0230 H     1 <1>   0.0800 
 31 H        0.9620     1.2330     0.6690 H     1 <1>   0.0800 
 32 H       -0.4280     4.6350    -1.4800 H     1 <1>   0.0800 
 33 H        0.1670     3.3190    -2.4110 H     1 <1>   0.0800 
 34 H       -1.2670     4.7390     2.1090 H     1 <1>   0.0800 
 35 H       -1.6480     4.8670     0.4090 H     1 <1>   0.0800 
 36 H        3.2610     2.2250    -0.5070 H     1 <1>   0.0800 
 37 H        2.7770     2.4790     1.1510 H     1 <1>   0.0800 
 38 H        1.6640     5.4660    -1.6050 H     1 <1>   0.0800 
 39 H        2.2940     3.9620    -2.2320 H     1 <1>   0.0800 
 40 H        1.6460     4.4080     0.5740 H     1 <1>   0.4500 
 41 H        4.3570     4.6020    -0.5990 H     1 <1>   0.0800 
 42 H        3.9930     4.6250     1.1120 H     1 <1>   0.0800 
 43 H        2.1990     6.4420     1.8840 H     1 <1>   0.1500 
 44 H        4.3740     6.6910    -1.7670 H     1 <1>   0.1500 
 45 H        2.9800    10.6560    -0.9940 H     1 <1>   0.4000 
 46 H        2.7830    11.2110     1.5540 H     1 <1>   0.0800 
 47 H        1.1490    10.6210     1.3420 H     1 <1>   0.0800 
 48 H        0.7850    12.2690    -0.4640 H     1 <1>   0.0800 
 49 H        2.4110    12.8750    -0.2440 H     1 <1>   0.0800 
 50 H        0.2120    12.9650     1.8460 H     1 <1>   0.0800 
 51 H        0.7800    14.3210     0.9050 H     1 <1>   0.0800 
 52 H        1.8400    13.5680     2.0700 H     1 <1>   0.0800 
@<TRIPOS>BOND
  1   1   2  1   
  2   1   3  1   
  3   2   4  2   
  4   2   5  1   
  5   3   6  2   
  6   3  26  1   
  7   4   6  1   
  8   4   7  1   
  9   5   8  1   
 10   5   9  1   
 11   5  10  1   
 12   6  27  1   
 13   7  11  1   
 14   7  28  1   
 15   7  29  1   
 16   8  11  1   
 17   9  12  1   
 18   9  30  1   
 19   9  31  1   
 20  10  13  1   
 21  10  32  1   
 22  10  33  1   
 23  11  34  1   
 24  11  35  1   
 25  12  14  1   
 26  12  36  1   
 27  12  37  1   
 28  13  14  1   
 29  13  38  1   
 30  13  39  1   
 31  14  15  1   
 32  14  40  1   
 33  15  16  1   
 34  15  41  1   
 35  15  42  1   
 36  16  17  ar  
 37  16  18  ar  
 38  17  19  ar  
 39  17  43  1   
 40  18  20  ar  
 41  18  44  1   
 42  19  21  ar  
 43  20  21  ar  
 44  21  22  1   
 45  22  23  1   
 46  22  45  1   
 47  23  24  1   
 48  23  46  1   
 49  23  47  1   
 50  24  25  1   
 51  24  48  1   
 52  24  49  1   
 53  25  50  1   
 54  25  51  1   
 55  25  52  1   
@<TRIPOS>SUBSTRUCTURE
  1 ****  13 GROUP 4 **** **** 0

# MOE 2024.06 (io_trps.svl 2023.06)
