@<TRIPOS>MOLECULE
NONAME
47 48 1 0 0 
SMALL
USER_CHARGES


@<TRIPOS>ATOM
  1 S       -0.1980     0.2330     0.2900 S.o2  1 <1>   1.3330 
  2 O       -0.2050    -0.4210     1.5800 O.2   1 <1>  -0.6500 
  3 O       -0.8130     1.5330     0.1480 O.2   1 <1>  -0.6500 
  4 N       -0.9280    -0.8210    -0.8230 N.am  1 <1>  -0.8490 
  5 C        1.4790     0.3530    -0.3350 C.3   1 <1>  -0.0550 
  6 C       -2.3660    -0.5730    -0.9610 C.3   1 <1>   0.1160 
  7 C       -0.6940    -2.2380    -0.5210 C.3   1 <1>   0.1160 
  8 C        2.3750     1.3260     0.4580 C.3   1 <1>  -0.0800 
  9 C        3.7000     1.5430    -0.2530 C.3   1 <1>   0.2200 
 10 C        2.8430     0.7170     1.7800 C.3   1 <1>   0.1200 
 11 N        4.2780     2.8360     0.1710 N.am  1 <1>  -0.7300 
 12 C        4.5550     0.3900     0.2740 C.3   1 <1>   0.1200 
 13 O        3.9670    -0.0460     1.4660 O.3   1 <1>  -0.5600 
 14 C        4.5920     3.8930    -0.6340 C.2   1 <1>   0.7160 
 15 O        4.3560     3.8050    -1.8270 O.2   1 <1>  -0.5700 
 16 C        5.2000     5.0770    -0.0470 C.2   1 <1>   0.2030 
 17 N        5.4980     5.2310     1.2340 N.2   1 <1>  -0.7070 
 18 C        5.5600     6.2240    -0.7660 C.2   1 <1>  -0.1500 
 19 N        6.0360     6.4560     1.3260 N.pl3 1 <1>   0.3000 
 20 C        6.0860     7.0800     0.1320 C.2   1 <1>  -0.3320 
 21 C        6.6450     8.4750    -0.0810 C.3   1 <1>   0.0200 
 22 C        5.7660     9.5240     0.6080 C.3   1 <1>  -0.1600 
 23 C        6.2970    10.9430     0.3780 C.3   1 <1>  -0.2400 
 24 H        1.9280    -0.6210    -0.3440 H     1 <1>   0.0800 
 25 H        1.4230     0.6950    -1.3510 H     1 <1>   0.0800 
 26 H       -2.7940    -1.2470    -1.6830 H     1 <1>   0.0800 
 27 H       -2.5360     0.4350    -1.3030 H     1 <1>   0.0800 
 28 H       -2.8620    -0.7050    -0.0140 H     1 <1>   0.0800 
 29 H       -1.0970    -2.8540    -1.3070 H     1 <1>   0.0800 
 30 H       -1.1630    -2.5070     0.4110 H     1 <1>   0.0800 
 31 H        0.3620    -2.4330    -0.4450 H     1 <1>   0.0800 
 32 H        1.8500     2.2540     0.6080 H     1 <1>   0.0800 
 33 H        3.6110     1.5130    -1.3260 H     1 <1>   0.0800 
 34 H        2.1130     0.0890     2.2580 H     1 <1>   0.0800 
 35 H        3.1520     1.4880     2.4660 H     1 <1>   0.0800 
 36 H        4.5260     2.9420     1.1590 H     1 <1>   0.3700 
 37 H        5.5720     0.6870     0.4640 H     1 <1>   0.0800 
 38 H        4.5410    -0.4380    -0.4130 H     1 <1>   0.0800 
 39 H        5.4230     6.3510    -1.8260 H     1 <1>   0.1500 
 40 H        6.3630     6.8500     2.2170 H     1 <1>   0.2700 
 41 H        7.6500     8.5240     0.3020 H     1 <1>   0.0800 
 42 H        6.6840     8.6810    -1.1370 H     1 <1>   0.0800 
 43 H        4.7630     9.4530     0.2200 H     1 <1>   0.0800 
 44 H        5.7260     9.3300     1.6650 H     1 <1>   0.0800 
 45 H        6.3180    11.1720    -0.6730 H     1 <1>   0.0800 
 46 H        7.2920    11.0440     0.7750 H     1 <1>   0.0800 
 47 H        5.6600    11.6580     0.8680 H     1 <1>   0.0800 
@<TRIPOS>BOND
  1   1   2  2   
  2   1   3  2   
  3   1   4  am  
  4   1   5  1   
  5   4   6  1   
  6   4   7  1   
  7   5   8  1   
  8   5  24  1   
  9   5  25  1   
 10   6  26  1   
 11   6  27  1   
 12   6  28  1   
 13   7  29  1   
 14   7  30  1   
 15   7  31  1   
 16   8   9  1   
 17   8  10  1   
 18   8  32  1   
 19   9  11  1   
 20   9  12  1   
 21   9  33  1   
 22  10  13  1   
 23  10  34  1   
 24  10  35  1   
 25  11  14  am  
 26  11  36  1   
 27  12  13  1   
 28  12  37  1   
 29  12  38  1   
 30  14  15  2   
 31  14  16  1   
 32  16  17  2   
 33  16  18  1   
 34  17  19  1   
 35  18  20  2   
 36  18  39  1   
 37  19  20  1   
 38  19  40  1   
 39  20  21  1   
 40  21  22  1   
 41  21  41  1   
 42  21  42  1   
 43  22  23  1   
 44  22  43  1   
 45  22  44  1   
 46  23  45  1   
 47  23  46  1   
 48  23  47  1   
@<TRIPOS>SUBSTRUCTURE
  1 ****  11 GROUP 4 **** **** 0

# MOE 2024.06 (io_trps.svl 2023.06)
