@<TRIPOS>MOLECULE
NONAME
51 53 1 0 0 
SMALL
USER_CHARGES


@<TRIPOS>ATOM
  1 O       -0.5990     2.6270     2.9720 O.2   1 <1>  -0.5700 
  2 C       -0.0920     3.0690     1.9650 C.2   1 <1>   0.5690 
  3 N       -0.8430     3.3860     0.8560 N.am  1 <1>  -0.6600 
  4 C        1.4190     3.2810     1.9920 C.3   1 <1>   0.1810 
  5 C       -2.2970     3.0460     0.7760 C.3   1 <1>   0.1400 
  6 C       -0.3020     3.9220    -0.4230 C.3   1 <1>   0.1400 
  7 O        2.0690     2.5140     0.9880 O.3   1 <1>  -0.3620 
  8 C       -2.5460     1.9710    -0.3130 C.3   1 <1>   0.0000 
  9 C       -0.4870     2.8770    -1.5280 C.3   1 <1>  -0.1600 
 10 C        3.3660     2.7400     0.6710 C.ar  1 <1>   0.0820 
 11 C       -4.0430     1.6380    -0.4360 C.3   1 <1>   0.2000 
 12 C       -1.9600     2.4500    -1.6600 C.3   1 <1>  -0.1600 
 13 C       -1.9650     0.6150     0.1260 C.3   1 <1>  -0.1600 
 14 C        3.8170     2.2200    -0.5300 C.ar  1 <1>  -0.1500 
 15 C        4.2410     3.4610     1.4800 C.ar  1 <1>  -0.1500 
 16 O       -4.8330     2.7870    -0.3470 O.3   1 <1>  -0.5600 
 17 C       -4.3470     0.6600     0.7040 C.3   1 <1>  -0.1600 
 18 C       -3.0060     0.0090     1.0720 C.3   1 <1>  -0.1600 
 19 C        5.1240     2.4160    -0.9410 C.ar  1 <1>   0.0820 
 20 C        5.5500     3.6600     1.0740 C.ar  1 <1>  -0.1500 
 21 C       -6.1570     2.6230    -0.7450 C.3   1 <1>   0.0400 
 22 O        5.4770     1.8760    -2.1350 O.3   1 <1>  -0.3630 
 23 C        5.9940     3.1430    -0.1320 C.ar  1 <1>  -0.1500 
 24 C        6.7900     1.9970    -2.6350 C.3   1 <1>   0.0400 
 25 H        1.8060     2.9760     2.9470 H     1 <1>   0.0800 
 26 H        1.6330     4.3200     1.8260 H     1 <1>   0.0800 
 27 H       -2.6580     2.7010     1.7290 H     1 <1>   0.0800 
 28 H       -2.8410     3.9420     0.5340 H     1 <1>   0.0800 
 29 H       -0.8410     4.8180    -0.6800 H     1 <1>   0.0800 
 30 H        0.7380     4.1790    -0.3370 H     1 <1>   0.0800 
 31 H       -0.1450     3.2860    -2.4620 H     1 <1>   0.0800 
 32 H        0.1280     2.0220    -1.3030 H     1 <1>   0.0800 
 33 H       -4.2210     1.1610    -1.3850 H     1 <1>   0.0800 
 34 H       -2.0450     1.6760    -2.4020 H     1 <1>   0.0800 
 35 H       -2.5340     3.2940    -2.0030 H     1 <1>   0.0800 
 36 H       -1.8580    -0.0280    -0.7300 H     1 <1>   0.0800 
 37 H       -1.0040     0.7050     0.6020 H     1 <1>   0.0800 
 38 H        3.1450     1.6580    -1.1510 H     1 <1>   0.1500 
 39 H        3.9270     3.8650     2.4230 H     1 <1>   0.1500 
 40 H       -4.7330     1.1900     1.5570 H     1 <1>   0.0800 
 41 H       -5.0570    -0.0820     0.3860 H     1 <1>   0.0800 
 42 H       -2.7530     0.2560     2.0900 H     1 <1>   0.0800 
 43 H       -3.0410    -1.0620     0.9740 H     1 <1>   0.0800 
 44 H        6.2260     4.2170     1.6980 H     1 <1>   0.1500 
 45 H       -6.6530     3.5730    -0.6530 H     1 <1>   0.0800 
 46 H       -6.6370     1.9020    -0.1060 H     1 <1>   0.0800 
 47 H       -6.1830     2.2990    -1.7710 H     1 <1>   0.0800 
 48 H        7.0130     3.3130    -0.4210 H     1 <1>   0.1500 
 49 H        6.8360     1.4870    -3.5800 H     1 <1>   0.0800 
 50 H        7.4720     1.5400    -1.9400 H     1 <1>   0.0800 
 51 H        7.0170     3.0400    -2.7710 H     1 <1>   0.0800 
@<TRIPOS>BOND
  1   1   2  2   
  2   2   3  am  
  3   2   4  1   
  4   3   5  1   
  5   3   6  1   
  6   4   7  1   
  7   4  25  1   
  8   4  26  1   
  9   5   8  1   
 10   5  27  1   
 11   5  28  1   
 12   6   9  1   
 13   6  29  1   
 14   6  30  1   
 15   7  10  1   
 16   8  11  1   
 17   8  12  1   
 18   8  13  1   
 19   9  12  1   
 20   9  31  1   
 21   9  32  1   
 22  10  14  ar  
 23  10  15  ar  
 24  11  16  1   
 25  11  17  1   
 26  11  33  1   
 27  12  34  1   
 28  12  35  1   
 29  13  18  1   
 30  13  36  1   
 31  13  37  1   
 32  14  19  ar  
 33  14  38  1   
 34  15  20  ar  
 35  15  39  1   
 36  16  21  1   
 37  17  18  1   
 38  17  40  1   
 39  17  41  1   
 40  18  42  1   
 41  18  43  1   
 42  19  22  1   
 43  19  23  ar  
 44  20  23  ar  
 45  20  44  1   
 46  21  45  1   
 47  21  46  1   
 48  21  47  1   
 49  22  24  1   
 50  23  48  1   
 51  24  49  1   
 52  24  50  1   
 53  24  51  1   
@<TRIPOS>SUBSTRUCTURE
  1 ****   6 GROUP 4 **** **** 0

# MOE 2024.06 (io_trps.svl 2023.06)
