@<TRIPOS>MOLECULE
NONAME
49 52 1 0 0 
SMALL
USER_CHARGES


@<TRIPOS>ATOM
  1 O        0.1770    -0.4980    -0.7970 O.2   1 <1>  -0.5700 
  2 C        1.2290     0.0570    -0.5250 C.2   1 <1>   0.6900 
  3 N        2.2850    -0.5110     0.1290 N.am  1 <1>  -0.4770 
  4 N        1.5320     1.3350    -0.8480 N.am  1 <1>  -0.5470 
  5 C        3.2900     0.4510     0.2100 C.ar  1 <1>   0.1170 
  6 C        2.3010    -1.8790     0.6790 C.3   1 <1>   0.1400 
  7 C        2.8160     1.6020    -0.4000 C.ar  1 <1>   0.1170 
  8 C        4.5650     0.4170     0.7550 C.ar  1 <1>  -0.1500 
  9 C        2.5620    -2.8810    -0.4430 C.3   1 <1>  -0.0990 
 10 C        3.5970     2.7440    -0.4770 C.ar  1 <1>  -0.1500 
 11 C        5.3500     1.5560     0.6810 C.ar  1 <1>  -0.1500 
 12 C        2.2200    -4.2750     0.0290 C.2   1 <1>   0.5690 
 13 C        4.8690     2.7120     0.0700 C.ar  1 <1>  -0.1500 
 14 O        3.1050    -4.9490     0.4960 O.2   1 <1>  -0.5700 
 15 N        0.9380    -4.7390    -0.0610 N.am  1 <1>  -0.6600 
 16 C       -0.2560    -3.9980    -0.5570 C.3   1 <1>   0.1400 
 17 C        0.5640    -6.1240     0.3160 C.3   1 <1>   0.1400 
 18 C       -1.4420    -4.8340    -0.0800 C.3   1 <1>   0.2000 
 19 C       -0.9040    -6.2690    -0.1040 C.3   1 <1>  -0.0800 
 20 O       -1.7300    -4.4730     1.2280 O.3   1 <1>  -0.6800 
 21 C       -1.7010    -7.2750     0.7480 C.3   1 <1>   0.0200 
 22 C       -1.2260    -8.7090     0.5810 C.2   1 <1>  -0.0400 
 23 O       -1.7430    -9.6320     1.3480 O.3   1 <1>  -0.0190 
 24 C       -0.3360    -9.3040    -0.2300 C.2   1 <1>  -0.1500 
 25 N       -1.2460   -10.8090     1.0970 N.2   1 <1>  -0.4100 
 26 C       -0.3950   -10.6420     0.1510 C.2   1 <1>   0.1080 
 27 C        0.4280   -11.7550    -0.4600 C.3   1 <1>  -0.0590 
 28 H        0.8880     1.9470    -1.3430 H     1 <1>   0.3700 
 29 H        3.0570    -1.9660     1.4400 H     1 <1>   0.0800 
 30 H        1.3440    -2.0730     1.1330 H     1 <1>   0.0800 
 31 H        4.9320    -0.4780     1.2240 H     1 <1>   0.1500 
 32 H        3.6000    -2.8480    -0.7210 H     1 <1>   0.0800 
 33 H        1.9740    -2.6460    -1.3090 H     1 <1>   0.0800 
 34 H        3.2160     3.6300    -0.9510 H     1 <1>   0.1500 
 35 H        6.3430     1.5500     1.0990 H     1 <1>   0.1500 
 36 H        5.4950     3.5870     0.0230 H     1 <1>   0.1500 
 37 H       -0.3050    -2.9920    -0.1770 H     1 <1>   0.0800 
 38 H       -0.2330    -3.9730    -1.6320 H     1 <1>   0.0800 
 39 H        1.1990    -6.8350    -0.1840 H     1 <1>   0.0800 
 40 H        0.6760    -6.2390     1.3810 H     1 <1>   0.0800 
 41 H       -2.3270    -4.6940    -0.6780 H     1 <1>   0.0800 
 42 H       -0.9210    -6.6020    -1.1270 H     1 <1>   0.0800 
 43 H       -0.8920    -4.4130     1.7300 H     1 <1>   0.4000 
 44 H       -2.7410    -7.2280     0.4750 H     1 <1>   0.0800 
 45 H       -1.6290    -7.0130     1.7890 H     1 <1>   0.0800 
 46 H        0.2900    -8.8960    -1.0000 H     1 <1>   0.1500 
 47 H        1.4740   -11.5450    -0.3350 H     1 <1>   0.0800 
 48 H        0.2040   -11.8420    -1.5060 H     1 <1>   0.0800 
 49 H        0.1990   -12.6870     0.0240 H     1 <1>   0.0800 
@<TRIPOS>BOND
  1   1   2  2   
  2   2   3  am  
  3   2   4  am  
  4   3   5  1   
  5   3   6  1   
  6   4   7  1   
  7   4  28  1   
  8   5   7  ar  
  9   5   8  ar  
 10   6   9  1   
 11   6  29  1   
 12   6  30  1   
 13   7  10  ar  
 14   8  11  ar  
 15   8  31  1   
 16   9  12  1   
 17   9  32  1   
 18   9  33  1   
 19  10  13  ar  
 20  10  34  1   
 21  11  13  ar  
 22  11  35  1   
 23  12  14  2   
 24  12  15  am  
 25  13  36  1   
 26  15  16  1   
 27  15  17  1   
 28  16  18  1   
 29  16  37  1   
 30  16  38  1   
 31  17  19  1   
 32  17  39  1   
 33  17  40  1   
 34  18  19  1   
 35  18  20  1   
 36  18  41  1   
 37  19  21  1   
 38  19  42  1   
 39  20  43  1   
 40  21  22  1   
 41  21  44  1   
 42  21  45  1   
 43  22  23  1   
 44  22  24  2   
 45  23  25  1   
 46  24  26  1   
 47  24  46  1   
 48  25  26  2   
 49  26  27  1   
 50  27  47  1   
 51  27  48  1   
 52  27  49  1   
@<TRIPOS>SUBSTRUCTURE
  1 ****  15 GROUP 4 **** **** 0

# MOE 2024.06 (io_trps.svl 2023.06)
