@<TRIPOS>MOLECULE
NONAME
51 53 1 0 0 
SMALL
USER_CHARGES


@<TRIPOS>ATOM
  1 S        0.4510     0.1230     2.2200 S.o2  1 <1>   1.4470 
  2 O        1.1940    -0.8970     2.9300 O.2   1 <1>  -0.6500 
  3 O       -0.1010     1.2350     2.9630 O.2   1 <1>  -0.6500 
  4 N        1.5070     0.7660     1.0590 N.am  1 <1>  -0.8490 
  5 C       -0.8580    -0.6380     1.2190 C.ar  1 <1>  -0.0090 
  6 C        2.3880     1.8100     1.6280 C.3   1 <1>   0.1960 
  7 C        2.2430    -0.2840     0.3340 C.3   1 <1>   0.1960 
  8 C       -1.4630    -1.8240     1.6110 C.ar  1 <1>  -0.1500 
  9 C       -1.3000    -0.0550     0.0400 C.ar  1 <1>  -0.1500 
 10 C        3.1750     2.6630     0.5980 C.3   1 <1>   0.2200 
 11 C        2.9630     0.2060    -0.9380 C.3   1 <1>  -0.0190 
 12 C       -2.4620    -2.4060     0.8510 C.ar  1 <1>  -0.1500 
 13 C       -2.2980    -0.6350    -0.7240 C.ar  1 <1>  -0.1500 
 14 N        2.5510     2.6670    -0.7640 N.am  1 <1>  -0.6600 
 15 C        4.6630     2.2640     0.5200 C.3   1 <1>   0.1200 
 16 C        2.4030     1.5080    -1.4800 C.2   1 <1>   0.5690 
 17 C        4.4870     0.2900    -0.7780 C.3   1 <1>   0.1200 
 18 C       -2.9010    -1.8260    -0.3330 C.ar  1 <1>  -0.1430 
 19 C        1.9520     3.9540    -1.2110 C.3   1 <1>   0.0600 
 20 O        4.8500     0.8820     0.4310 O.3   1 <1>  -0.5600 
 21 O        1.8560     1.4810    -2.5580 O.2   1 <1>  -0.5700 
 22 C       -4.0180    -2.5140    -1.1490 C.3   1 <1>   0.1430 
 23 C       -5.2860    -2.6280    -0.2890 C.3   1 <1>  -0.2400 
 24 C       -3.5570    -3.9180    -1.5680 C.3   1 <1>  -0.2400 
 25 C       -4.3930    -1.7470    -2.4280 C.3   1 <1>  -0.2400 
 26 H        1.7800     2.5030     2.1840 H     1 <1>   0.0800 
 27 H        3.0680     1.3630     2.3350 H     1 <1>   0.0800 
 28 H        2.9450    -0.7640     0.9970 H     1 <1>   0.0800 
 29 H        1.5380    -1.0370     0.0250 H     1 <1>   0.0800 
 30 H       -1.1460    -2.3000     2.5240 H     1 <1>   0.1500 
 31 H       -0.8540     0.8690    -0.2920 H     1 <1>   0.1500 
 32 H        3.1670     3.6750     0.9620 H     1 <1>   0.0800 
 33 H        2.7940    -0.5360    -1.6970 H     1 <1>   0.0800 
 34 H       -2.8960    -3.3260     1.1990 H     1 <1>   0.1500 
 35 H       -2.5850    -0.1290    -1.6260 H     1 <1>   0.1500 
 36 H        5.1560     2.5790     1.4220 H     1 <1>   0.0800 
 37 H        5.1470     2.7450    -0.3130 H     1 <1>   0.0800 
 38 H        4.9380     0.8340    -1.5910 H     1 <1>   0.0800 
 39 H        4.8990    -0.7040    -0.7680 H     1 <1>   0.0800 
 40 H        2.7060     4.7200    -1.2370 H     1 <1>   0.0800 
 41 H        1.1690     4.2440    -0.5310 H     1 <1>   0.0800 
 42 H        1.5290     3.8560    -2.1960 H     1 <1>   0.0800 
 43 H       -6.0880    -3.0710    -0.8510 H     1 <1>   0.0800 
 44 H       -5.5960    -1.6510     0.0390 H     1 <1>   0.0800 
 45 H       -5.1130    -3.2350     0.5800 H     1 <1>   0.0800 
 46 H       -4.3070    -4.4000    -2.1690 H     1 <1>   0.0800 
 47 H       -3.3690    -4.5370    -0.7110 H     1 <1>   0.0800 
 48 H       -2.6500    -3.8500    -2.1410 H     1 <1>   0.0800 
 49 H       -5.1730    -2.2590    -2.9620 H     1 <1>   0.0800 
 50 H       -3.5430    -1.6630    -3.0820 H     1 <1>   0.0800 
 51 H       -4.7480    -0.7610    -2.1870 H     1 <1>   0.0800 
@<TRIPOS>BOND
  1   1   2  2   
  2   1   3  2   
  3   1   4  am  
  4   1   5  1   
  5   4   6  1   
  6   4   7  1   
  7   5   8  ar  
  8   5   9  ar  
  9   6  10  1   
 10   6  26  1   
 11   6  27  1   
 12   7  11  1   
 13   7  28  1   
 14   7  29  1   
 15   8  12  ar  
 16   8  30  1   
 17   9  13  ar  
 18   9  31  1   
 19  10  14  1   
 20  10  15  1   
 21  10  32  1   
 22  11  16  1   
 23  11  17  1   
 24  11  33  1   
 25  12  18  ar  
 26  12  34  1   
 27  13  18  ar  
 28  13  35  1   
 29  14  16  am  
 30  14  19  1   
 31  15  20  1   
 32  15  36  1   
 33  15  37  1   
 34  16  21  2   
 35  17  20  1   
 36  17  38  1   
 37  17  39  1   
 38  18  22  1   
 39  19  40  1   
 40  19  41  1   
 41  19  42  1   
 42  22  23  1   
 43  22  24  1   
 44  22  25  1   
 45  23  43  1   
 46  23  44  1   
 47  23  45  1   
 48  24  46  1   
 49  24  47  1   
 50  24  48  1   
 51  25  49  1   
 52  25  50  1   
 53  25  51  1   
@<TRIPOS>SUBSTRUCTURE
  1 ****   9 GROUP 4 **** **** 0

# MOE 2024.06 (io_trps.svl 2023.06)
