@<TRIPOS>MOLECULE
NONAME
43 45 1 0 0 
SMALL
USER_CHARGES


@<TRIPOS>ATOM
  1 O       -0.1860    -5.7200     1.0390 O.2   1 <1>  -0.5700 
  2 C       -0.5870    -4.7120     0.4990 C.2   1 <1>   0.5690 
  3 N       -0.1220    -4.3050    -0.7270 N.am  1 <1>  -0.6600 
  4 C       -1.6470    -3.8430     1.2150 C.3   1 <1>   0.3500 
  5 C       -0.7240    -3.1070    -1.3740 C.3   1 <1>   0.1400 
  6 C        0.9410    -5.0260    -1.4770 C.3   1 <1>   0.0600 
  7 N       -2.6870    -3.2350     0.2970 N.pl3 1 <1>  -0.8380 
  8 C       -1.0150    -2.7010     2.0150 C.3   1 <1>  -0.2400 
  9 C       -2.2460    -3.0220    -1.1280 C.3   1 <1>   0.2090 
 10 C       -3.9310    -3.8210     0.4170 C.ar  1 <1>   0.4100 
 11 N       -3.9790    -5.1090     0.1410 N.ar  1 <1>  -0.6200 
 12 C       -5.0560    -3.0890     0.8180 C.ar  1 <1>   0.1600 
 13 C       -5.1860    -5.6690     0.3100 C.ar  1 <1>   0.3960 
 14 N       -6.2640    -3.5950     0.9730 N.ar  1 <1>  -0.6200 
 15 C       -5.3870    -7.1040     0.0800 C.2   1 <1>   0.5440 
 16 C       -6.2840    -4.8960     0.7080 C.ar  1 <1>   0.1600 
 17 O       -6.5140    -7.5090    -0.1590 O.2   1 <1>  -0.5700 
 18 N       -4.3790    -8.0540     0.1330 N.am  1 <1>  -0.6600 
 19 C       -4.6170    -9.4860    -0.1540 C.3   1 <1>   0.1400 
 20 C       -2.9590    -7.8230     0.5000 C.3   1 <1>   0.1400 
 21 C       -3.2290   -10.1150    -0.2000 C.3   1 <1>  -0.1600 
 22 C       -2.3690    -9.2160     0.6820 C.3   1 <1>  -0.1600 
 23 H       -2.1410    -4.4900     1.9210 H     1 <1>   0.0800 
 24 H       -0.5480    -3.1410    -2.4350 H     1 <1>   0.0800 
 25 H       -0.2480    -2.2230    -0.9890 H     1 <1>   0.0800 
 26 H        1.3310    -5.8400    -0.8900 H     1 <1>   0.0800 
 27 H        1.7460    -4.3510    -1.7070 H     1 <1>   0.0800 
 28 H        0.5350    -5.4240    -2.3910 H     1 <1>   0.0800 
 29 H       -0.4970    -2.0230     1.3650 H     1 <1>   0.0800 
 30 H       -0.3110    -3.1050     2.7200 H     1 <1>   0.0800 
 31 H       -1.7760    -2.1690     2.5570 H     1 <1>   0.0800 
 32 H       -2.7200    -3.7570    -1.7580 H     1 <1>   0.0800 
 33 H       -2.5940    -2.0570    -1.4530 H     1 <1>   0.0800 
 34 H       -4.9180    -2.0420     1.0140 H     1 <1>   0.1500 
 35 H       -7.2340    -5.3900     0.8150 H     1 <1>   0.1500 
 36 H       -5.1420    -9.6070    -1.0870 H     1 <1>   0.0800 
 37 H       -5.2010    -9.9090     0.6460 H     1 <1>   0.0800 
 38 H       -2.8750    -7.2420     1.4020 H     1 <1>   0.0800 
 39 H       -2.4620    -7.3110    -0.3060 H     1 <1>   0.0800 
 40 H       -2.8680   -10.0870    -1.2130 H     1 <1>   0.0800 
 41 H       -3.2420   -11.1350     0.1400 H     1 <1>   0.0800 
 42 H       -2.4700    -9.5050     1.7130 H     1 <1>   0.0800 
 43 H       -1.3280    -9.2420     0.4110 H     1 <1>   0.0800 
@<TRIPOS>BOND
  1   1   2  2   
  2   2   3  am  
  3   2   4  1   
  4   3   5  1   
  5   3   6  1   
  6   4   7  1   
  7   4   8  1   
  8   4  23  1   
  9   5   9  1   
 10   5  24  1   
 11   5  25  1   
 12   6  26  1   
 13   6  27  1   
 14   6  28  1   
 15   7   9  1   
 16   7  10  1   
 17   8  29  1   
 18   8  30  1   
 19   8  31  1   
 20   9  32  1   
 21   9  33  1   
 22  10  11  ar  
 23  10  12  ar  
 24  11  13  ar  
 25  12  14  ar  
 26  12  34  1   
 27  13  15  1   
 28  13  16  ar  
 29  14  16  ar  
 30  15  17  2   
 31  15  18  am  
 32  16  35  1   
 33  18  19  1   
 34  18  20  1   
 35  19  21  1   
 36  19  36  1   
 37  19  37  1   
 38  20  22  1   
 39  20  38  1   
 40  20  39  1   
 41  21  22  1   
 42  21  40  1   
 43  21  41  1   
 44  22  42  1   
 45  22  43  1   
@<TRIPOS>SUBSTRUCTURE
  1 ****  11 GROUP 4 **** **** 0

# MOE 2024.06 (io_trps.svl 2023.06)
