@<TRIPOS>MOLECULE
NONAME
60 62 1 0 0 
SMALL
USER_CHARGES


@<TRIPOS>ATOM
  1 O        1.1510    -1.0250     1.0470 O.2   1 <1>  -0.5700 
  2 C        1.7400    -0.9550    -0.0100 C.2   1 <1>   0.5690 
  3 N        2.3400     0.2130    -0.4210 N.am  1 <1>  -0.6600 
  4 C        1.7880    -2.2490    -0.8260 C.3   1 <1>  -0.0190 
  5 C        3.1940     0.3720    -1.6430 C.3   1 <1>   0.1400 
  6 C        2.1460     1.4640     0.3790 C.3   1 <1>   0.1400 
  7 C        0.4480    -2.9920    -0.6690 C.3   1 <1>   0.3430 
  8 C        2.9950    -3.1230    -0.3980 C.3   1 <1>  -0.1600 
  9 C        4.6820     0.1400    -1.3250 C.3   1 <1>   0.1100 
 10 C        3.4020     2.3380     0.4920 C.3   1 <1>  -0.1600 
 11 N        0.4160    -3.6950     0.6470 N.4   1 <1>  -0.9590 
 12 C        2.6070    -4.5990    -0.2110 C.3   1 <1>  -0.1600 
 13 N        5.3290     1.2660    -0.6130 N.3   1 <1>  -0.8100 
 14 C        4.7020     1.5550     0.6930 C.3   1 <1>   0.1100 
 15 C        1.4350    -4.7860     0.7690 C.3   1 <1>   0.3430 
 16 C       -0.9540    -4.1530     1.0130 C.3   1 <1>   0.2630 
 17 C        6.7960     1.0220    -0.4630 C.3   1 <1>   0.2540 
 18 C        7.6160     2.3140    -0.2850 C.cat 1 <1>   0.6560 
 19 N        7.1250     3.5080    -0.5640 N.pl3 1 <1>  -0.7000 
 20 N        8.8740     2.4360     0.1450 N.pl3 1 <1>  -0.7640 
 21 C        8.0810     4.4450    -0.3120 C.2   1 <1>   0.1820 
 22 C        9.1750     3.7810     0.1310 C.2   1 <1>   0.1820 
 23 C        9.8130     1.3570     0.5640 C.3   1 <1>   0.2740 
 24 C        7.8080     5.9180    -0.5400 C.3   1 <1>  -0.0720 
 25 C       10.5310     4.3150     0.5590 C.3   1 <1>  -0.0720 
 26 H        1.8680    -2.0180    -1.8690 H     1 <1>   0.0800 
 27 H        3.0640     1.3570    -2.0590 H     1 <1>   0.0800 
 28 H        2.8910    -0.3190    -2.4050 H     1 <1>   0.0800 
 29 H        1.8360     1.2080     1.3780 H     1 <1>   0.0800 
 30 H        1.3510     2.0400    -0.0620 H     1 <1>   0.0800 
 31 H        0.3330    -3.7100    -1.4640 H     1 <1>   0.0800 
 32 H       -0.3610    -2.2810    -0.7300 H     1 <1>   0.0800 
 33 H        3.3920    -2.7590     0.5360 H     1 <1>   0.0800 
 34 H        3.7800    -3.0440    -1.1310 H     1 <1>   0.0800 
 35 H        5.1880     0.0020    -2.2660 H     1 <1>   0.0800 
 36 H        4.7900    -0.7680    -0.7580 H     1 <1>   0.0800 
 37 H        3.2590     2.9790     1.3440 H     1 <1>   0.0800 
 38 H        3.4850     2.9830    -0.3640 H     1 <1>   0.0800 
 39 H        0.6830    -2.9410     1.3160 H     1 <1>   0.4500 
 40 H        3.4540    -5.1570     0.1500 H     1 <1>   0.0800 
 41 H        2.3370    -5.0250    -1.1620 H     1 <1>   0.0800 
 42 H        4.5220     0.6470     1.2470 H     1 <1>   0.0800 
 43 H        5.3640     2.1710     1.2800 H     1 <1>   0.0800 
 44 H        0.9760    -5.7430     0.5790 H     1 <1>   0.0800 
 45 H        1.8140    -4.7980     1.7780 H     1 <1>   0.0800 
 46 H       -1.2950    -4.9050     0.3200 H     1 <1>   0.0800 
 47 H       -1.6410    -3.3220     0.9900 H     1 <1>   0.0800 
 48 H       -0.9550    -4.5700     2.0070 H     1 <1>   0.0800 
 49 H        7.1690     0.5390    -1.3490 H     1 <1>   0.0800 
 50 H        6.9700     0.3660     0.3720 H     1 <1>   0.0800 
 51 H        6.1670     3.6300    -0.9070 H     1 <1>   0.4500 
 52 H        9.3530     0.3880     0.4700 H     1 <1>   0.0800 
 53 H       10.1020     1.5030     1.5910 H     1 <1>   0.0800 
 54 H       10.6940     1.3800    -0.0540 H     1 <1>   0.0800 
 55 H        6.9850     6.2370     0.0740 H     1 <1>   0.0800 
 56 H        7.5580     6.0880    -1.5720 H     1 <1>   0.0800 
 57 H        8.6680     6.5120    -0.2940 H     1 <1>   0.0800 
 58 H       11.3030     3.9040    -0.0660 H     1 <1>   0.0800 
 59 H       10.7270     4.0460     1.5820 H     1 <1>   0.0800 
 60 H       10.5640     5.3850     0.4790 H     1 <1>   0.0800 
@<TRIPOS>BOND
  1   1   2  2   
  2   2   3  am  
  3   2   4  1   
  4   3   5  1   
  5   3   6  1   
  6   4   7  1   
  7   4   8  1   
  8   4  26  1   
  9   5   9  1   
 10   5  27  1   
 11   5  28  1   
 12   6  10  1   
 13   6  29  1   
 14   6  30  1   
 15   7  11  1   
 16   7  31  1   
 17   7  32  1   
 18   8  12  1   
 19   8  33  1   
 20   8  34  1   
 21   9  13  1   
 22   9  35  1   
 23   9  36  1   
 24  10  14  1   
 25  10  37  1   
 26  10  38  1   
 27  11  15  1   
 28  11  16  1   
 29  11  39  1   
 30  12  15  1   
 31  12  40  1   
 32  12  41  1   
 33  13  14  1   
 34  13  17  1   
 35  14  42  1   
 36  14  43  1   
 37  15  44  1   
 38  15  45  1   
 39  16  46  1   
 40  16  47  1   
 41  16  48  1   
 42  17  18  1   
 43  17  49  1   
 44  17  50  1   
 45  18  19  ar  
 46  18  20  ar  
 47  19  21  1   
 48  19  51  1   
 49  20  22  1   
 50  20  23  1   
 51  21  22  2   
 52  21  24  1   
 53  22  25  1   
 54  23  52  1   
 55  23  53  1   
 56  23  54  1   
 57  24  55  1   
 58  24  56  1   
 59  24  57  1   
 60  25  58  1   
 61  25  59  1   
 62  25  60  1   
@<TRIPOS>SUBSTRUCTURE
  1 ****   9 GROUP 4 **** **** 0

# MOE 2024.06 (io_trps.svl 2023.06)
