@<TRIPOS>MOLECULE
NONAME
49 51 1 0 0 
SMALL
USER_CHARGES


@<TRIPOS>ATOM
  1 O        1.6910     0.0390    -2.4320 O.2   1 <1>  -0.5700 
  2 C        2.0670    -0.3360    -1.3420 C.2   1 <1>   0.5440 
  3 N        2.7570     0.5460    -0.5390 N.am  1 <1>  -0.6600 
  4 C        1.8750    -1.7040    -0.9170 C.ar  1 <1>   0.0860 
  5 C        2.7630     0.4100     0.9640 C.3   1 <1>   0.2200 
  6 C        3.6810     1.5250    -1.1880 C.3   1 <1>   0.1400 
  7 C        0.7600    -2.1070    -0.1840 C.ar  1 <1>  -0.1500 
  8 C        2.8520    -2.6580    -1.1930 C.ar  1 <1>  -0.1500 
  9 C        2.7590     1.7720     1.6770 C.3   1 <1>   0.1200 
 10 C        3.9460    -0.4590     1.4520 C.3   1 <1>   0.3430 
 11 C        4.9430     1.8590    -0.3660 C.3   1 <1>  -0.0800 
 12 C        0.6440    -3.3970     0.3040 C.ar  1 <1>  -0.1440 
 13 C        2.7530    -3.9460    -0.7100 C.ar  1 <1>  -0.1500 
 14 O        4.0620     2.2410     1.8640 O.3   1 <1>  -0.5600 
 15 N        5.0030    -0.5840     0.4070 N.4   1 <1>  -0.9590 
 16 C        4.6490     2.8570     0.7660 C.3   1 <1>   0.1200 
 17 C        5.7880     0.6540     0.1030 C.3   1 <1>   0.3430 
 18 C        1.6520    -4.3260     0.0520 C.ar  1 <1>   0.0830 
 19 C       -0.5870    -3.7970     1.1060 C.3   1 <1>  -0.0970 
 20 C        5.9290    -1.7660     0.6320 C.3   1 <1>   0.2370 
 21 O        1.5120    -5.5720     0.5630 O.3   1 <1>  -0.3630 
 22 C        6.6680    -2.2100    -0.6310 C.2   1 <1>   0.9060 
 23 C        2.4330    -6.6020     0.2750 C.3   1 <1>   0.0400 
 24 O        7.6320    -1.5360    -1.0050 O.co2 1 <1>  -0.9000 
 25 O        6.1780    -3.1330    -1.2850 O.co2 1 <1>  -0.9000 
 26 H        1.8510    -0.0780     1.2590 H     1 <1>   0.0800 
 27 H        3.9920     1.1220    -2.1390 H     1 <1>   0.0800 
 28 H        3.1310     2.4270    -1.3970 H     1 <1>   0.0800 
 29 H       -0.0190    -1.3880    -0.0020 H     1 <1>   0.1500 
 30 H        3.7070    -2.3950    -1.7960 H     1 <1>   0.1500 
 31 H        2.3370     1.6530     2.6590 H     1 <1>   0.0800 
 32 H        2.1720     2.5010     1.1440 H     1 <1>   0.0800 
 33 H        3.5650    -1.4400     1.6810 H     1 <1>   0.0800 
 34 H        4.3610    -0.0480     2.3570 H     1 <1>   0.0800 
 35 H        5.5800     2.4050    -1.0390 H     1 <1>   0.0800 
 36 H        3.5490    -4.6310    -0.9450 H     1 <1>   0.1500 
 37 H        4.5000    -0.7940    -0.4700 H     1 <1>   0.4500 
 38 H        4.0110     3.6580     0.4320 H     1 <1>   0.0800 
 39 H        5.5720     3.2900     1.1130 H     1 <1>   0.0800 
 40 H        6.3620     0.9380     0.9690 H     1 <1>   0.0800 
 41 H        6.4920     0.4210    -0.6810 H     1 <1>   0.0800 
 42 H       -1.2760    -2.9780     1.2040 H     1 <1>   0.0800 
 43 H       -0.2940    -4.1220     2.0880 H     1 <1>   0.0800 
 44 H       -1.0910    -4.6100     0.6140 H     1 <1>   0.0800 
 45 H        6.6640    -1.5250     1.3770 H     1 <1>   0.0800 
 46 H        5.3610    -2.6140     0.9670 H     1 <1>   0.0800 
 47 H        2.0970    -7.4990     0.7630 H     1 <1>   0.0800 
 48 H        3.4010    -6.3220     0.6520 H     1 <1>   0.0800 
 49 H        2.4650    -6.7540    -0.7890 H     1 <1>   0.0800 
@<TRIPOS>BOND
  1   1   2  2   
  2   2   3  am  
  3   2   4  1   
  4   3   5  1   
  5   3   6  1   
  6   4   7  ar  
  7   4   8  ar  
  8   5   9  1   
  9   5  10  1   
 10   5  26  1   
 11   6  11  1   
 12   6  27  1   
 13   6  28  1   
 14   7  12  ar  
 15   7  29  1   
 16   8  13  ar  
 17   8  30  1   
 18   9  14  1   
 19   9  31  1   
 20   9  32  1   
 21  10  15  1   
 22  10  33  1   
 23  10  34  1   
 24  11  16  1   
 25  11  17  1   
 26  11  35  1   
 27  12  18  ar  
 28  12  19  1   
 29  13  18  ar  
 30  13  36  1   
 31  14  16  1   
 32  15  17  1   
 33  15  20  1   
 34  15  37  1   
 35  16  38  1   
 36  16  39  1   
 37  17  40  1   
 38  17  41  1   
 39  18  21  1   
 40  19  42  1   
 41  19  43  1   
 42  19  44  1   
 43  20  22  1   
 44  20  45  1   
 45  20  46  1   
 46  21  23  1   
 47  22  24  ar  
 48  22  25  ar  
 49  23  47  1   
 50  23  48  1   
 51  23  49  1   
@<TRIPOS>SUBSTRUCTURE
  1 ****   4 GROUP 4 **** **** 0

# MOE 2024.06 (io_trps.svl 2023.06)
