@<TRIPOS>MOLECULE
NONAME
53 56 1 0 0 
SMALL
USER_CHARGES


@<TRIPOS>ATOM
  1 O        1.2740     0.2550     0.2930 O.3   1 <1>  -0.3630 
  2 C        0.6340    -0.8780     0.6170 C.ar  1 <1>   0.7020 
  3 C        2.4080     0.2940    -0.5460 C.3   1 <1>   0.2000 
  4 N        1.0550    -2.0220     0.0770 N.ar  1 <1>  -0.6200 
  5 N       -0.3730    -0.7120     1.4640 N.ar  1 <1>  -0.6200 
  6 C        3.6530    -0.0780     0.2720 C.3   1 <1>  -0.1600 
  7 C        2.5130     1.7130    -1.1080 C.3   1 <1>  -0.1600 
  8 C        0.3860    -3.0940     0.4340 C.ar  1 <1>   0.1600 
  9 C       -1.0190    -1.8030     1.8000 C.ar  1 <1>   0.1600 
 10 C        4.9270     0.1250    -0.5470 C.3   1 <1>   0.2090 
 11 C        3.8040     1.8810    -1.9060 C.3   1 <1>   0.2090 
 12 C       -0.6740    -3.0370     1.3060 C.ar  1 <1>  -0.1500 
 13 N        4.9650     1.5320    -1.0350 N.pl3 1 <1>  -0.8380 
 14 C        5.7690     2.4840    -0.4960 C.ar  1 <1>   0.4100 
 15 N        5.2600     3.6870    -0.3150 N.ar  1 <1>  -0.6200 
 16 C        7.0980     2.1920    -0.1360 C.ar  1 <1>  -0.1500 
 17 C        6.0130     4.6090     0.2620 C.ar  1 <1>   0.7710 
 18 C        7.8590     3.1540     0.4390 C.ar  1 <1>   0.2180 
 19 N        7.2800     4.3620     0.6320 N.ar  1 <1>  -0.1790 
 20 N        5.4920     5.8400     0.4850 N.pl3 1 <1>  -0.8380 
 21 C        9.3070     2.9460     0.8650 C.3   1 <1>  -0.0170 
 22 C        4.0890     6.1670     0.1000 C.3   1 <1>   0.2090 
 23 C        6.1210     7.0120     1.1530 C.3   1 <1>   0.2090 
 24 C       10.2750     3.8380     0.0770 C.3   1 <1>  -0.2400 
 25 C        3.9460     7.6630     0.3440 C.3   1 <1>  -0.1600 
 26 C        4.9720     7.9740     1.4250 C.3   1 <1>  -0.1600 
 27 H        2.2670    -0.3970    -1.3610 H     1 <1>   0.0800 
 28 H        3.5950    -1.1060     0.5780 H     1 <1>   0.0800 
 29 H        3.7030     0.5390     1.1510 H     1 <1>   0.0800 
 30 H        2.5100     2.4260    -0.3030 H     1 <1>   0.0800 
 31 H        1.6710     1.9100    -1.7460 H     1 <1>   0.0800 
 32 H        0.6920    -4.0410     0.0210 H     1 <1>   0.1500 
 33 H       -1.8430    -1.7080     2.4870 H     1 <1>   0.1500 
 34 H        4.9370    -0.5470    -1.3900 H     1 <1>   0.0800 
 35 H        5.7780    -0.0970     0.0710 H     1 <1>   0.0800 
 36 H        3.8850     2.8930    -2.2650 H     1 <1>   0.0800 
 37 H        3.7950     1.2290    -2.7630 H     1 <1>   0.0800 
 38 H       -1.2110    -3.9220     1.5900 H     1 <1>   0.1500 
 39 H        7.4820     1.2110    -0.3410 H     1 <1>   0.1500 
 40 H        7.7750     5.1400     1.0440 H     1 <1>   0.4570 
 41 H        9.5810     1.9160     0.7050 H     1 <1>   0.0800 
 42 H        9.4070     3.1420     1.9190 H     1 <1>   0.0800 
 43 H        3.4090     5.6180     0.7310 H     1 <1>   0.0800 
 44 H        3.8970     5.9190    -0.9310 H     1 <1>   0.0800 
 45 H        6.8250     7.4740     0.4810 H     1 <1>   0.0800 
 46 H        6.6070     6.7370     2.0740 H     1 <1>   0.0800 
 47 H       10.1860     3.6500    -0.9800 H     1 <1>   0.0800 
 48 H       11.2890     3.6200     0.3680 H     1 <1>   0.0800 
 49 H       10.0930     4.8810     0.2610 H     1 <1>   0.0800 
 50 H        2.9450     7.9240     0.6390 H     1 <1>   0.0800 
 51 H        4.1910     8.1900    -0.5620 H     1 <1>   0.0800 
 52 H        5.2930     9.0010     1.4010 H     1 <1>   0.0800 
 53 H        4.5550     7.7620     2.3950 H     1 <1>   0.0800 
@<TRIPOS>BOND
  1   1   2  1   
  2   1   3  1   
  3   2   4  ar  
  4   2   5  ar  
  5   3   6  1   
  6   3   7  1   
  7   3  27  1   
  8   4   8  ar  
  9   5   9  ar  
 10   6  10  1   
 11   6  28  1   
 12   6  29  1   
 13   7  11  1   
 14   7  30  1   
 15   7  31  1   
 16   8  12  ar  
 17   8  32  1   
 18   9  12  ar  
 19   9  33  1   
 20  10  13  1   
 21  10  34  1   
 22  10  35  1   
 23  11  13  1   
 24  11  36  1   
 25  11  37  1   
 26  12  38  1   
 27  13  14  1   
 28  14  15  ar  
 29  14  16  ar  
 30  15  17  ar  
 31  16  18  ar  
 32  16  39  1   
 33  17  19  ar  
 34  17  20  1   
 35  18  19  ar  
 36  18  21  1   
 37  19  40  1   
 38  20  22  1   
 39  20  23  1   
 40  21  24  1   
 41  21  41  1   
 42  21  42  1   
 43  22  25  1   
 44  22  43  1   
 45  22  44  1   
 46  23  26  1   
 47  23  45  1   
 48  23  46  1   
 49  24  47  1   
 50  24  48  1   
 51  24  49  1   
 52  25  26  1   
 53  25  50  1   
 54  25  51  1   
 55  26  52  1   
 56  26  53  1   
@<TRIPOS>SUBSTRUCTURE
  1 ****  13 GROUP 4 **** **** 0

# MOE 2024.06 (io_trps.svl 2023.06)
