@<TRIPOS>MOLECULE
NONAME
51 52 1 0 0 
SMALL
USER_CHARGES


@<TRIPOS>ATOM
  1 CL      -1.0210    -0.6020     0.8660 Cl    1 <1>  -0.1770 
  2 C       -1.8600     0.5910    -0.1120 C.ar  1 <1>   0.1770 
  3 C       -1.5180     1.9330     0.0020 C.ar  1 <1>   0.0830 
  4 C       -2.8500     0.1540    -0.9760 C.ar  1 <1>  -0.1440 
  5 O       -0.5320     2.2410     0.8950 O.3   1 <1>  -0.3630 
  6 C       -2.2060     2.8730    -0.7800 C.ar  1 <1>   0.0830 
  7 C       -3.5120     1.0860    -1.7590 C.ar  1 <1>  -0.1500 
  8 C       -3.2040    -1.3190    -1.0640 C.3   1 <1>   0.4860 
  9 C        0.4360     3.2230     0.5910 C.3   1 <1>   0.0400 
 10 O       -1.9130     4.1990    -0.6500 O.3   1 <1>  -0.3630 
 11 C       -3.1920     2.4300    -1.6610 C.ar  1 <1>  -0.1500 
 12 N       -3.8820    -1.7560     0.1810 N.4   1 <1>  -0.9590 
 13 C       -2.6150     5.2050    -1.3490 C.3   1 <1>   0.0400 
 14 C       -4.1590    -3.2410     0.1080 C.3   1 <1>   0.3430 
 15 C       -5.1140    -0.9380     0.4410 C.3   1 <1>   0.3430 
 16 C       -5.5760    -3.5490    -0.4230 C.3   1 <1>   0.2000 
 17 C       -6.1270    -1.7080     1.2860 C.3   1 <1>  -0.1600 
 18 O       -5.7010    -3.0030    -1.7030 O.3   1 <1>  -0.6800 
 19 C       -6.6440    -2.9920     0.5610 C.3   1 <1>  -0.1060 
 20 C       -6.7500    -4.1220     1.6050 C.2   1 <1>   0.9060 
 21 C       -8.0380    -2.7330    -0.1100 C.3   1 <1>  -0.1600 
 22 O       -5.7180    -4.4330     2.2120 O.co2 1 <1>  -0.9000 
 23 O       -7.8050    -4.7330     1.7640 O.co2 1 <1>  -0.9000 
 24 C       -8.2320    -1.4370    -0.9310 C.3   1 <1>  -0.1600 
 25 C       -9.6120    -1.4250    -1.5920 C.3   1 <1>  -0.2400 
 26 H       -4.2800     0.7790    -2.4500 H     1 <1>   0.1500 
 27 H       -2.3040    -1.8940    -1.2110 H     1 <1>   0.0800 
 28 H       -3.8530    -1.4880    -1.9080 H     1 <1>   0.0800 
 29 H        1.3120     3.0230     1.1810 H     1 <1>   0.0800 
 30 H        0.0430     4.1900     0.8460 H     1 <1>   0.0800 
 31 H        0.6770     3.1730    -0.4560 H     1 <1>   0.0800 
 32 H       -3.7290     3.1210    -2.2850 H     1 <1>   0.1500 
 33 H       -3.2310    -1.6100     0.9640 H     1 <1>   0.4500 
 34 H       -2.2150     6.1570    -1.0520 H     1 <1>   0.0800 
 35 H       -3.6570     5.1520    -1.0870 H     1 <1>   0.0800 
 36 H       -2.4720     5.0640    -2.4060 H     1 <1>   0.0800 
 37 H       -3.4320    -3.7340    -0.5140 H     1 <1>   0.0800 
 38 H       -4.0650    -3.6620     1.0950 H     1 <1>   0.0800 
 39 H       -4.8450    -0.0180     0.9340 H     1 <1>   0.0800 
 40 H       -5.5830    -0.6920    -0.4980 H     1 <1>   0.0800 
 41 H       -5.6970    -4.6160    -0.5250 H     1 <1>   0.0800 
 42 H       -5.6470    -1.9580     2.2170 H     1 <1>   0.0800 
 43 H       -6.9510    -1.0710     1.5500 H     1 <1>   0.0800 
 44 H       -6.6200    -3.1570    -2.0080 H     1 <1>   0.4000 
 45 H       -8.2880    -3.5890    -0.7150 H     1 <1>   0.0800 
 46 H       -8.7770    -2.7070     0.6750 H     1 <1>   0.0800 
 47 H       -8.1650    -0.5790    -0.2850 H     1 <1>   0.0800 
 48 H       -7.4900    -1.3280    -1.6980 H     1 <1>   0.0800 
 49 H      -10.3850    -1.4960    -0.8470 H     1 <1>   0.0800 
 50 H       -9.7140    -2.2540    -2.2710 H     1 <1>   0.0800 
 51 H       -9.7530    -0.5120    -2.1440 H     1 <1>   0.0800 
@<TRIPOS>BOND
  1   1   2  1   
  2   2   3  ar  
  3   2   4  ar  
  4   3   5  1   
  5   3   6  ar  
  6   4   7  ar  
  7   4   8  1   
  8   5   9  1   
  9   6  10  1   
 10   6  11  ar  
 11   7  11  ar  
 12   7  26  1   
 13   8  12  1   
 14   8  27  1   
 15   8  28  1   
 16   9  29  1   
 17   9  30  1   
 18   9  31  1   
 19  10  13  1   
 20  11  32  1   
 21  12  14  1   
 22  12  15  1   
 23  12  33  1   
 24  13  34  1   
 25  13  35  1   
 26  13  36  1   
 27  14  16  1   
 28  14  37  1   
 29  14  38  1   
 30  15  17  1   
 31  15  39  1   
 32  15  40  1   
 33  16  18  1   
 34  16  19  1   
 35  16  41  1   
 36  17  19  1   
 37  17  42  1   
 38  17  43  1   
 39  18  44  1   
 40  19  20  1   
 41  19  21  1   
 42  20  22  ar  
 43  20  23  ar  
 44  21  24  1   
 45  21  45  1   
 46  21  46  1   
 47  24  25  1   
 48  24  47  1   
 49  24  48  1   
 50  25  49  1   
 51  25  50  1   
 52  25  51  1   
@<TRIPOS>SUBSTRUCTURE
  1 ****  15 GROUP 4 **** **** 0

# MOE 2024.06 (io_trps.svl 2023.06)
