@<TRIPOS>MOLECULE
NONAME
60 62 1 0 0 
SMALL
USER_CHARGES


@<TRIPOS>ATOM
  1 O        0.8940     0.9340     0.2320 O.3   1 <1>  -0.5600 
  2 C        2.0850     0.3740     0.6800 C.3   1 <1>   0.2800 
  3 C        0.7350     1.0780    -1.1440 C.3   1 <1>   0.1200 
  4 C        3.2950     1.0300    -0.0310 C.3   1 <1>  -0.1600 
  5 C        2.0370    -1.1430     0.4500 C.3   1 <1>  -0.2400 
  6 C        2.1080     0.6310     2.1890 C.3   1 <1>  -0.2400 
  7 C        1.7780     2.0510    -1.7130 C.3   1 <1>  -0.1600 
  8 C        2.9810     2.3520    -0.7830 C.3   1 <1>   0.1440 
  9 C        4.1780     2.8430    -1.6400 C.ar  1 <1>  -0.1440 
 10 C        2.6110     3.5060     0.1820 C.3   1 <1>  -0.1600 
 11 C        5.4800     2.3860    -1.4500 C.ar  1 <1>  -0.1500 
 12 C        3.9630     3.7720    -2.6560 C.ar  1 <1>  -0.1500 
 13 C        3.7210     3.8520     1.1810 C.3   1 <1>   0.2090 
 14 C        6.5170     2.8190    -2.2580 C.ar  1 <1>  -0.1500 
 15 C        4.9960     4.2010    -3.4710 C.ar  1 <1>  -0.1500 
 16 N        3.9460     5.3120     1.2010 N.pl3 1 <1>  -0.8690 
 17 C        6.2760     3.7190    -3.2770 C.ar  1 <1>  -0.1500 
 18 C        4.7850     6.0840     0.5050 C.ar  1 <1>   0.7710 
 19 N        4.9000     7.3220     0.9310 N.ar  1 <1>  -0.6200 
 20 N        5.4570     5.6040    -0.5550 N.ar  1 <1>  -0.1790 
 21 C        5.7580     8.1120     0.3130 C.ar  1 <1>   0.4100 
 22 C        6.3250     6.3930    -1.2300 C.ar  1 <1>   0.2110 
 23 N        5.8880     9.3650     0.8170 N.pl3 1 <1>  -0.8380 
 24 C        6.4970     7.6740    -0.8170 C.ar  1 <1>  -0.1440 
 25 C        7.1900     9.9060     1.2960 C.3   1 <1>   0.1290 
 26 C        4.7040    10.1350     1.2960 C.3   1 <1>   0.1290 
 27 C        7.4280     8.6100    -1.5850 C.3   1 <1>  -0.0970 
 28 H       -0.2600     1.4510    -1.3180 H     1 <1>   0.0800 
 29 H        0.8140     0.1100    -1.6070 H     1 <1>   0.0800 
 30 H        3.6680     0.3300    -0.7580 H     1 <1>   0.0800 
 31 H        4.0830     1.1580     0.6850 H     1 <1>   0.0800 
 32 H        2.0560    -1.3860    -0.5950 H     1 <1>   0.0800 
 33 H        1.1460    -1.5550     0.8890 H     1 <1>   0.0800 
 34 H        2.8870    -1.6120     0.9110 H     1 <1>   0.0800 
 35 H        2.0680     1.6800     2.4040 H     1 <1>   0.0800 
 36 H        2.9990     0.2210     2.6280 H     1 <1>   0.0800 
 37 H        1.2590     0.1590     2.6520 H     1 <1>   0.0800 
 38 H        1.2710     2.9610    -1.9810 H     1 <1>   0.0800 
 39 H        2.1370     1.6190    -2.6310 H     1 <1>   0.0800 
 40 H        1.7230     3.2550     0.7330 H     1 <1>   0.0800 
 41 H        2.3610     4.3760    -0.4000 H     1 <1>   0.0800 
 42 H        5.7230     1.6660    -0.6880 H     1 <1>   0.1500 
 43 H        2.9780     4.1650    -2.8440 H     1 <1>   0.1500 
 44 H        4.6430     3.3550     0.9390 H     1 <1>   0.0800 
 45 H        3.4340     3.5280     2.1680 H     1 <1>   0.0800 
 46 H        7.5140     2.4350    -2.1060 H     1 <1>   0.1500 
 47 H        4.7960     4.8970    -4.2700 H     1 <1>   0.1500 
 48 H        3.4520     5.8100     1.9510 H     1 <1>   0.4000 
 49 H        7.0780     4.0300    -3.9270 H     1 <1>   0.1500 
 50 H        5.2380     4.6540    -0.8660 H     1 <1>   0.4570 
 51 H        6.8450     5.9870    -2.0800 H     1 <1>   0.1500 
 52 H        7.9590     9.1570     1.2260 H     1 <1>   0.0800 
 53 H        7.1070    10.2050     2.3270 H     1 <1>   0.0800 
 54 H        7.4710    10.7610     0.7050 H     1 <1>   0.0800 
 55 H        3.8020     9.7450     0.8570 H     1 <1>   0.0800 
 56 H        4.8010    11.1700     1.0170 H     1 <1>   0.0800 
 57 H        4.6280    10.0610     2.3670 H     1 <1>   0.0800 
 58 H        6.9520     9.5640    -1.7310 H     1 <1>   0.0800 
 59 H        7.6740     8.2100    -2.5520 H     1 <1>   0.0800 
 60 H        8.3430     8.7610    -1.0410 H     1 <1>   0.0800 
@<TRIPOS>BOND
  1   1   2  1   
  2   1   3  1   
  3   2   4  1   
  4   2   5  1   
  5   2   6  1   
  6   3   7  1   
  7   3  28  1   
  8   3  29  1   
  9   4   8  1   
 10   4  30  1   
 11   4  31  1   
 12   5  32  1   
 13   5  33  1   
 14   5  34  1   
 15   6  35  1   
 16   6  36  1   
 17   6  37  1   
 18   7   8  1   
 19   7  38  1   
 20   7  39  1   
 21   8   9  1   
 22   8  10  1   
 23   9  11  ar  
 24   9  12  ar  
 25  10  13  1   
 26  10  40  1   
 27  10  41  1   
 28  11  14  ar  
 29  11  42  1   
 30  12  15  ar  
 31  12  43  1   
 32  13  16  1   
 33  13  44  1   
 34  13  45  1   
 35  14  17  ar  
 36  14  46  1   
 37  15  17  ar  
 38  15  47  1   
 39  16  18  1   
 40  16  48  1   
 41  17  49  1   
 42  18  19  ar  
 43  18  20  ar  
 44  19  21  ar  
 45  20  22  ar  
 46  20  50  1   
 47  21  23  1   
 48  21  24  ar  
 49  22  24  ar  
 50  22  51  1   
 51  23  25  1   
 52  23  26  1   
 53  24  27  1   
 54  25  52  1   
 55  25  53  1   
 56  25  54  1   
 57  26  55  1   
 58  26  56  1   
 59  26  57  1   
 60  27  58  1   
 61  27  59  1   
 62  27  60  1   
@<TRIPOS>SUBSTRUCTURE
  1 ****  20 GROUP 4 **** **** 0

# MOE 2024.06 (io_trps.svl 2023.06)
