@<TRIPOS>MOLECULE
NONAME
43 45 1 0 0 
SMALL
USER_CHARGES


@<TRIPOS>ATOM
  1 O        0.2480     0.8120    -0.3740 O.3   1 <1>  -0.3630 
  2 C        0.2980     2.1480    -0.2070 C.ar  1 <1>   0.3920 
  3 C       -0.9550     0.0760    -0.3620 C.3   1 <1>   0.0400 
  4 N        1.5050     2.6570    -0.2210 N.ar  1 <1>  -0.6200 
  5 C       -0.8260     2.9270    -0.0370 C.ar  1 <1>  -0.1500 
  6 C        1.5670     3.9610    -0.0560 C.ar  1 <1>   0.7200 
  7 C       -0.6250     4.2810     0.1190 C.ar  1 <1>   0.3920 
  8 N        0.5700     4.8130     0.1110 N.ar  1 <1>  -0.6200 
  9 N        2.8270     4.4560    -0.0720 N.pl3 1 <1>  -0.8690 
 10 O       -1.6310     5.1620     0.2900 O.3   1 <1>  -0.3630 
 11 C        3.1340     5.8470    -0.4880 C.3   1 <1>   0.2090 
 12 C       -2.9870     4.7790     0.3500 C.3   1 <1>   0.0400 
 13 C        3.0640     6.7800     0.7190 C.3   1 <1>   0.0960 
 14 N        3.2080     8.1750     0.2620 N.pl3 1 <1>   0.0480 
 15 C        4.4010     8.8370     0.0760 C.ar  1 <1>  -0.1520 
 16 C        2.1970     9.0070    -0.1470 C.2   1 <1>  -0.3320 
 17 C        4.1260    10.0970    -0.4460 C.ar  1 <1>   0.0000 
 18 C        5.7210     8.4430     0.3180 C.ar  1 <1>  -0.1500 
 19 C        2.7250    10.1780    -0.5760 C.2   1 <1>  -0.1500 
 20 C        0.7280     8.6150    -0.1030 C.3   1 <1>  -0.0600 
 21 C        5.1740    10.9780    -0.7300 C.ar  1 <1>  -0.1500 
 22 C        6.7440     9.3180     0.0330 C.ar  1 <1>  -0.1500 
 23 C        6.4710    10.5870    -0.4910 C.ar  1 <1>  -0.1500 
 24 H       -0.7100    -0.9620    -0.5040 H     1 <1>   0.0800 
 25 H       -1.5820     0.4150    -1.1670 H     1 <1>   0.0800 
 26 H       -1.4380     0.2080     0.5900 H     1 <1>   0.0800 
 27 H       -1.8050     2.5020    -0.0290 H     1 <1>   0.1500 
 28 H        3.4890     3.7410    -0.3740 H     1 <1>   0.4000 
 29 H        2.4210     6.1620    -1.2320 H     1 <1>   0.0800 
 30 H        4.1190     5.8830    -0.9190 H     1 <1>   0.0800 
 31 H       -3.5770     5.6660     0.5010 H     1 <1>   0.0800 
 32 H       -3.1260     4.1060     1.1780 H     1 <1>   0.0800 
 33 H       -3.2620     4.3130    -0.5800 H     1 <1>   0.0800 
 34 H        3.8490     6.5500     1.4130 H     1 <1>   0.0800 
 35 H        2.1190     6.6740     1.2160 H     1 <1>   0.0800 
 36 H        5.9290     7.4690     0.7220 H     1 <1>   0.1500 
 37 H        2.2080    11.0400    -0.9580 H     1 <1>   0.1500 
 38 H        0.5540     7.7370    -0.7000 H     1 <1>   0.0800 
 39 H        0.1190     9.4140    -0.4860 H     1 <1>   0.0800 
 40 H        0.4270     8.4100     0.9080 H     1 <1>   0.0800 
 41 H        4.9460    11.9480    -1.1320 H     1 <1>   0.1500 
 42 H        7.7670     9.0350     0.2120 H     1 <1>   0.1500 
 43 H        7.2870    11.2540    -0.7050 H     1 <1>   0.1500 
@<TRIPOS>BOND
  1   1   2  1   
  2   1   3  1   
  3   2   4  ar  
  4   2   5  ar  
  5   3  24  1   
  6   3  25  1   
  7   3  26  1   
  8   4   6  ar  
  9   5   7  ar  
 10   5  27  1   
 11   6   8  ar  
 12   6   9  1   
 13   7   8  ar  
 14   7  10  1   
 15   9  11  1   
 16   9  28  1   
 17  10  12  1   
 18  11  13  1   
 19  11  29  1   
 20  11  30  1   
 21  12  31  1   
 22  12  32  1   
 23  12  33  1   
 24  13  14  1   
 25  13  34  1   
 26  13  35  1   
 27  14  15  1   
 28  14  16  1   
 29  15  17  ar  
 30  15  18  ar  
 31  16  19  2   
 32  16  20  1   
 33  17  19  1   
 34  17  21  ar  
 35  18  22  ar  
 36  18  36  1   
 37  19  37  1   
 38  20  38  1   
 39  20  39  1   
 40  20  40  1   
 41  21  23  ar  
 42  21  41  1   
 43  22  23  ar  
 44  22  42  1   
 45  23  43  1   
@<TRIPOS>SUBSTRUCTURE
  1 ****  11 GROUP 4 **** **** 0

# MOE 2024.06 (io_trps.svl 2023.06)
