@<TRIPOS>MOLECULE
NONAME
50 52 1 0 0 
SMALL
USER_CHARGES


@<TRIPOS>ATOM
  1 CL      -1.1130     0.4290     0.3560 Cl    1 <1>  -0.1770 
  2 C       -1.0240     2.1030     0.8520 C.ar  1 <1>   0.1770 
  3 C       -1.5360     3.0970     0.0300 C.ar  1 <1>  -0.1440 
  4 C       -0.4530     2.3910     2.0750 C.ar  1 <1>  -0.1500 
  5 C       -1.4680     4.4230     0.4550 C.ar  1 <1>  -0.1440 
  6 C       -2.1590     2.7080    -1.2970 C.3   1 <1>   0.4870 
  7 C       -0.3910     3.7070     2.4940 C.ar  1 <1>  -0.1500 
  8 C       -0.8970     4.7110     1.6870 C.ar  1 <1>  -0.1500 
  9 C       -1.9970     5.5800    -0.3860 C.3   1 <1>  -0.0970 
 10 N       -3.6350     2.7660    -1.1610 N.4   1 <1>  -0.9590 
 11 C       -4.1860     1.7900    -0.1810 C.3   1 <1>   0.3430 
 12 C       -4.3720     2.7340    -2.4410 C.3   1 <1>   0.3430 
 13 C       -5.7120     1.9090    -0.1000 C.3   1 <1>  -0.1600 
 14 C       -5.8070     3.2200    -2.2040 C.3   1 <1>  -0.1600 
 15 C       -6.2640     3.2160    -0.7220 C.3   1 <1>   0.2800 
 16 O       -5.6230     4.3300    -0.1280 O.3   1 <1>  -0.5600 
 17 C       -7.8170     3.3870    -0.6170 C.3   1 <1>   0.2000 
 18 C       -5.9380     4.6220     1.2090 C.3   1 <1>   0.1200 
 19 O       -8.2260     4.3780    -1.5200 O.3   1 <1>  -0.6800 
 20 C       -8.2950     3.7780     0.8110 C.3   1 <1>   0.2800 
 21 C       -7.4340     4.9230     1.3540 C.3   1 <1>  -0.1600 
 22 O       -8.1320     2.7010     1.6580 O.3   1 <1>  -0.6800 
 23 C       -9.7880     4.1180     0.8820 C.3   1 <1>  -0.2400 
 24 H       -0.0620     1.6000     2.6900 H     1 <1>   0.1500 
 25 H       -1.8500     1.7180    -1.5910 H     1 <1>   0.0800 
 26 H       -1.8320     3.4000    -2.0550 H     1 <1>   0.0800 
 27 H        0.0520     3.9510     3.4460 H     1 <1>   0.1500 
 28 H       -0.8360     5.7300     2.0330 H     1 <1>   0.1500 
 29 H       -1.6520     6.5210     0.0060 H     1 <1>   0.0800 
 30 H       -3.0720     5.5930    -0.3770 H     1 <1>   0.0800 
 31 H       -1.6490     5.5070    -1.4010 H     1 <1>   0.0800 
 32 H       -3.8690     3.6850    -0.7410 H     1 <1>   0.4500 
 33 H       -3.9100     0.7840    -0.4550 H     1 <1>   0.0800 
 34 H       -3.7690     1.9970     0.7920 H     1 <1>   0.0800 
 35 H       -3.8960     3.3710    -3.1690 H     1 <1>   0.0800 
 36 H       -4.3860     1.7260    -2.8250 H     1 <1>   0.0800 
 37 H       -5.9990     1.7900     0.9250 H     1 <1>   0.0800 
 38 H       -6.1450     1.0740    -0.6210 H     1 <1>   0.0800 
 39 H       -6.4620     2.5910    -2.7790 H     1 <1>   0.0800 
 40 H       -5.9050     4.2110    -2.6090 H     1 <1>   0.0800 
 41 H       -8.3110     2.4810    -0.9190 H     1 <1>   0.0800 
 42 H       -5.6500     3.7950     1.8340 H     1 <1>   0.0800 
 43 H       -5.3610     5.4830     1.5000 H     1 <1>   0.0800 
 44 H       -7.7710     5.2160    -1.3040 H     1 <1>   0.4000 
 45 H       -7.6520     5.8280     0.8150 H     1 <1>   0.0800 
 46 H       -7.6690     5.1070     2.3870 H     1 <1>   0.0800 
 47 H       -8.6570     2.8460     2.4690 H     1 <1>   0.4000 
 48 H      -10.0050     4.9830     0.2820 H     1 <1>   0.0800 
 49 H      -10.0900     4.3360     1.8910 H     1 <1>   0.0800 
 50 H      -10.3750     3.3000     0.5030 H     1 <1>   0.0800 
@<TRIPOS>BOND
  1   1   2  1   
  2   2   3  ar  
  3   2   4  ar  
  4   3   5  ar  
  5   3   6  1   
  6   4   7  ar  
  7   4  24  1   
  8   5   8  ar  
  9   5   9  1   
 10   6  10  1   
 11   6  25  1   
 12   6  26  1   
 13   7   8  ar  
 14   7  27  1   
 15   8  28  1   
 16   9  29  1   
 17   9  30  1   
 18   9  31  1   
 19  10  11  1   
 20  10  12  1   
 21  10  32  1   
 22  11  13  1   
 23  11  33  1   
 24  11  34  1   
 25  12  14  1   
 26  12  35  1   
 27  12  36  1   
 28  13  15  1   
 29  13  37  1   
 30  13  38  1   
 31  14  15  1   
 32  14  39  1   
 33  14  40  1   
 34  15  16  1   
 35  15  17  1   
 36  16  18  1   
 37  17  19  1   
 38  17  20  1   
 39  17  41  1   
 40  18  21  1   
 41  18  42  1   
 42  18  43  1   
 43  19  44  1   
 44  20  21  1   
 45  20  22  1   
 46  20  23  1   
 47  21  45  1   
 48  21  46  1   
 49  22  47  1   
 50  23  48  1   
 51  23  49  1   
 52  23  50  1   
@<TRIPOS>SUBSTRUCTURE
  1 ****  16 GROUP 4 **** **** 0

# MOE 2024.06 (io_trps.svl 2023.06)
