@<TRIPOS>MOLECULE
NONAME
63 66 1 0 0 
SMALL
USER_CHARGES


@<TRIPOS>ATOM
  1 N        0.3190    -0.2060    -0.2000 N.ar  1 <1>  -0.1790 
  2 C        1.3610     0.6120     0.2050 C.ar  1 <1>   0.3610 
  3 C        0.3390    -1.5420    -0.1850 C.ar  1 <1>   0.4610 
  4 C        2.5410     0.0000     0.6670 C.ar  1 <1>   0.0000 
  5 C        1.2390     2.0150     0.1560 C.ar  1 <1>  -0.1440 
  6 N       -0.7470    -2.2290    -0.5950 N.pl3 1 <1>  -0.8690 
  7 C        1.5320    -2.1570     0.2700 C.ar  1 <1>  -0.1500 
  8 C        2.6040    -1.4280     0.6870 C.ar  1 <1>  -0.1430 
  9 C        3.5870     0.8340     1.0810 C.ar  1 <1>  -0.1500 
 10 C        2.2970     2.8040     0.5750 C.ar  1 <1>  -0.1430 
 11 C       -0.0650     2.6400    -0.3600 C.3   1 <1>  -0.0970 
 12 C       -0.9290    -3.7310    -0.6200 C.3   1 <1>   0.2090 
 13 C        3.8690    -2.1310     1.1690 C.3   1 <1>  -0.0970 
 14 C        3.4650     2.1980     1.0340 C.ar  1 <1>  -0.1500 
 15 C        2.2660     4.3290     0.5650 C.3   1 <1>  -0.0970 
 16 C       -2.3960    -4.2510    -0.4160 C.3   1 <1>   0.5030 
 17 N       -2.4230    -5.7610    -0.3730 N.4   1 <1>  -0.9590 
 18 C       -3.0040    -3.6970     0.8890 C.3   1 <1>  -0.1600 
 19 C       -3.3470    -3.7320    -1.5120 C.3   1 <1>  -0.1600 
 20 C       -1.8220    -6.4860    -1.5520 C.3   1 <1>   0.3430 
 21 C       -3.7320    -6.4250    -0.0280 C.3   1 <1>   0.3430 
 22 C       -4.4830    -3.3690     0.6290 C.3   1 <1>  -0.1600 
 23 C       -4.7250    -3.5380    -0.8720 C.3   1 <1>  -0.1600 
 24 C       -1.6660    -7.9980    -1.2530 C.3   1 <1>   0.1100 
 25 C       -3.5090    -7.9150     0.3280 C.3   1 <1>   0.1100 
 26 N       -2.1010    -8.3280     0.1230 N.3   1 <1>  -0.8100 
 27 C       -1.9180    -9.7570     0.4140 C.3   1 <1>   0.0300 
 28 H       -0.5140     0.2700    -0.5240 H     1 <1>   0.4570 
 29 H       -1.5670    -1.7360    -0.9690 H     1 <1>   0.4000 
 30 H        1.5860    -3.2280     0.2770 H     1 <1>   0.1500 
 31 H        4.5080     0.4110     1.4420 H     1 <1>   0.1500 
 32 H       -0.2600     2.3240    -1.3690 H     1 <1>   0.0800 
 33 H       -0.0330     3.7130    -0.3730 H     1 <1>   0.0800 
 34 H       -0.8900     2.3610     0.2720 H     1 <1>   0.0800 
 35 H       -0.3230    -4.1700     0.1530 H     1 <1>   0.0800 
 36 H       -0.5650    -4.0810    -1.5700 H     1 <1>   0.0800 
 37 H        4.7080    -1.8500     0.5570 H     1 <1>   0.0800 
 38 H        3.7660    -3.2010     1.1200 H     1 <1>   0.0800 
 39 H        4.0770    -1.8640     2.1900 H     1 <1>   0.0800 
 40 H        4.2900     2.8090     1.3610 H     1 <1>   0.1500 
 41 H        1.4640     4.6900     1.1840 H     1 <1>   0.0800 
 42 H        2.1300     4.6930    -0.4380 H     1 <1>   0.0800 
 43 H        3.1830     4.7430     0.9430 H     1 <1>   0.0800 
 44 H       -1.8310    -6.0850     0.4100 H     1 <1>   0.4500 
 45 H       -2.5220    -2.7780     1.1690 H     1 <1>   0.0800 
 46 H       -2.8830    -4.3730     1.7170 H     1 <1>   0.0800 
 47 H       -3.3950    -4.3740    -2.3720 H     1 <1>   0.0800 
 48 H       -3.0190    -2.7670    -1.8520 H     1 <1>   0.0800 
 49 H       -0.8480    -6.0900    -1.7830 H     1 <1>   0.0800 
 50 H       -2.4440    -6.3620    -2.4230 H     1 <1>   0.0800 
 51 H       -4.4120    -6.3560    -0.8610 H     1 <1>   0.0800 
 52 H       -4.1940    -5.9410     0.8150 H     1 <1>   0.0800 
 53 H       -4.6950    -2.3550     0.9280 H     1 <1>   0.0800 
 54 H       -5.1330    -4.0180     1.1920 H     1 <1>   0.0800 
 55 H       -5.3480    -4.3980    -1.0500 H     1 <1>   0.0800 
 56 H       -5.2290    -2.6790    -1.2840 H     1 <1>   0.0800 
 57 H       -0.6330    -8.2760    -1.3780 H     1 <1>   0.0800 
 58 H       -2.2410    -8.5650    -1.9660 H     1 <1>   0.0800 
 59 H       -4.1660    -8.5250    -0.2710 H     1 <1>   0.0800 
 60 H       -3.7770    -8.0710     1.3600 H     1 <1>   0.0800 
 61 H       -0.8820   -10.0280     0.3000 H     1 <1>   0.0800 
 62 H       -2.5120   -10.3630    -0.2500 H     1 <1>   0.0800 
 63 H       -2.2080    -9.9660     1.4300 H     1 <1>   0.0800 
@<TRIPOS>BOND
  1   1   2  ar  
  2   1   3  ar  
  3   1  28  1   
  4   2   4  ar  
  5   2   5  ar  
  6   3   6  1   
  7   3   7  ar  
  8   4   8  ar  
  9   4   9  ar  
 10   5  10  ar  
 11   5  11  1   
 12   6  12  1   
 13   6  29  1   
 14   7   8  ar  
 15   7  30  1   
 16   8  13  1   
 17   9  14  ar  
 18   9  31  1   
 19  10  14  ar  
 20  10  15  1   
 21  11  32  1   
 22  11  33  1   
 23  11  34  1   
 24  12  16  1   
 25  12  35  1   
 26  12  36  1   
 27  13  37  1   
 28  13  38  1   
 29  13  39  1   
 30  14  40  1   
 31  15  41  1   
 32  15  42  1   
 33  15  43  1   
 34  16  17  1   
 35  16  18  1   
 36  16  19  1   
 37  17  20  1   
 38  17  21  1   
 39  17  44  1   
 40  18  22  1   
 41  18  45  1   
 42  18  46  1   
 43  19  23  1   
 44  19  47  1   
 45  19  48  1   
 46  20  24  1   
 47  20  49  1   
 48  20  50  1   
 49  21  25  1   
 50  21  51  1   
 51  21  52  1   
 52  22  23  1   
 53  22  53  1   
 54  22  54  1   
 55  23  55  1   
 56  23  56  1   
 57  24  26  1   
 58  24  57  1   
 59  24  58  1   
 60  25  26  1   
 61  25  59  1   
 62  25  60  1   
 63  26  27  1   
 64  27  61  1   
 65  27  62  1   
 66  27  63  1   
@<TRIPOS>SUBSTRUCTURE
  1 ****   6 GROUP 4 **** **** 0

# MOE 2024.06 (io_trps.svl 2023.06)
