@<TRIPOS>MOLECULE
NONAME
55 58 1 0 0 
SMALL
USER_CHARGES


@<TRIPOS>ATOM
  1 O       -1.1150     1.3690     1.3670 O.2   1 <1>  -0.5700 
  2 C       -1.8350     1.3930     0.3940 C.2   1 <1>   0.5690 
  3 N       -3.0850     0.8160     0.4230 N.am  1 <1>  -0.6600 
  4 C       -1.3230     2.0530    -0.8860 C.3   1 <1>   0.0440 
  5 C       -4.0250     0.7110    -0.7290 C.3   1 <1>   0.1400 
  6 C       -3.6050     0.1590     1.6560 C.3   1 <1>   0.1400 
  7 C       -0.0600     2.8960    -0.7160 C.ar  1 <1>  -0.1440 
  8 C       -4.2630    -0.7660    -1.0520 C.3   1 <1>  -0.1600 
  9 C       -3.8480    -1.3270     1.3770 C.3   1 <1>  -0.1600 
 10 C       -0.1350     4.1860    -0.2000 C.ar  1 <1>   0.0820 
 11 C        1.1780     2.3850    -1.0750 C.ar  1 <1>  -0.1500 
 12 C       -4.7810    -1.5460     0.1730 C.3   1 <1>   0.4240 
 13 O       -1.3300     4.6960     0.1660 O.3   1 <1>  -0.3630 
 14 C        1.0100     4.9570    -0.0650 C.ar  1 <1>  -0.1500 
 15 C        2.3230     3.1520    -0.9330 C.ar  1 <1>  -0.1500 
 16 O       -5.9870    -0.9260     0.5650 O.3   1 <1>  -0.5600 
 17 C       -4.9840    -3.0600    -0.1260 C.ar  1 <1>  -0.1430 
 18 C       -1.5400     4.8310     1.5530 C.3   1 <1>   0.0400 
 19 C        2.2400     4.4390    -0.4300 C.ar  1 <1>  -0.1500 
 20 C       -7.1580    -1.3120    -0.0760 C.3   1 <1>   0.1200 
 21 C       -3.9200    -3.9010    -0.4800 C.ar  1 <1>   0.0820 
 22 C       -6.2590    -3.6190    -0.0450 C.ar  1 <1>  -0.1430 
 23 C       -7.4520    -2.7540     0.3070 C.3   1 <1>  -0.0160 
 24 O       -2.6700    -3.3760    -0.5870 O.3   1 <1>  -0.3620 
 25 C       -4.1450    -5.2540    -0.7260 C.ar  1 <1>  -0.1500 
 26 C       -6.4700    -4.9660    -0.2870 C.ar  1 <1>  -0.1500 
 27 C       -1.5130    -4.1790    -0.6700 C.3   1 <1>   0.0400 
 28 C       -5.4140    -5.7850    -0.6260 C.ar  1 <1>  -0.1500 
 29 H       -2.0920     2.6930    -1.2750 H     1 <1>   0.0800 
 30 H       -1.1430     1.2800    -1.6080 H     1 <1>   0.0800 
 31 H       -3.6420     1.2050    -1.6020 H     1 <1>   0.0800 
 32 H       -4.9560     1.1840    -0.4640 H     1 <1>   0.0800 
 33 H       -4.5250     0.6360     1.9480 H     1 <1>   0.0800 
 34 H       -2.9090     0.2620     2.4700 H     1 <1>   0.0800 
 35 H       -3.3320    -1.1780    -1.3880 H     1 <1>   0.0800 
 36 H       -4.9550    -0.8600    -1.8660 H     1 <1>   0.0800 
 37 H       -4.2790    -1.7940     2.2430 H     1 <1>   0.0800 
 38 H       -2.8930    -1.7820     1.2130 H     1 <1>   0.0800 
 39 H        1.2590     1.3850    -1.4630 H     1 <1>   0.1500 
 40 H        0.9350     5.9560     0.3220 H     1 <1>   0.1500 
 41 H        3.2780     2.7450    -1.2130 H     1 <1>   0.1500 
 42 H       -2.5610     5.1250     1.7130 H     1 <1>   0.0800 
 43 H       -0.8730     5.5810     1.9380 H     1 <1>   0.0800 
 44 H       -1.3510     3.8830     2.0280 H     1 <1>   0.0800 
 45 H        3.1290     5.0350    -0.3230 H     1 <1>   0.1500 
 46 H       -7.0370    -1.2080    -1.1390 H     1 <1>   0.0800 
 47 H       -7.9480    -0.6640     0.2590 H     1 <1>   0.0800 
 48 H       -8.3260    -3.0880    -0.2210 H     1 <1>   0.0800 
 49 H       -7.6470    -2.8140     1.3630 H     1 <1>   0.0800 
 50 H       -3.3450    -5.9150    -1.0010 H     1 <1>   0.1500 
 51 H       -7.4590    -5.3840    -0.2120 H     1 <1>   0.1500 
 52 H       -0.6560    -3.5320    -0.6170 H     1 <1>   0.0800 
 53 H       -1.5180    -4.7030    -1.6080 H     1 <1>   0.0800 
 54 H       -1.5040    -4.8650     0.1590 H     1 <1>   0.0800 
 55 H       -5.5810    -6.8310    -0.8140 H     1 <1>   0.1500 
@<TRIPOS>BOND
  1   1   2  2   
  2   2   3  am  
  3   2   4  1   
  4   3   5  1   
  5   3   6  1   
  6   4   7  1   
  7   4  29  1   
  8   4  30  1   
  9   5   8  1   
 10   5  31  1   
 11   5  32  1   
 12   6   9  1   
 13   6  33  1   
 14   6  34  1   
 15   7  10  ar  
 16   7  11  ar  
 17   8  12  1   
 18   8  35  1   
 19   8  36  1   
 20   9  12  1   
 21   9  37  1   
 22   9  38  1   
 23  10  13  1   
 24  10  14  ar  
 25  11  15  ar  
 26  11  39  1   
 27  12  16  1   
 28  12  17  1   
 29  13  18  1   
 30  14  19  ar  
 31  14  40  1   
 32  15  19  ar  
 33  15  41  1   
 34  16  20  1   
 35  17  21  ar  
 36  17  22  ar  
 37  18  42  1   
 38  18  43  1   
 39  18  44  1   
 40  19  45  1   
 41  20  23  1   
 42  20  46  1   
 43  20  47  1   
 44  21  24  1   
 45  21  25  ar  
 46  22  23  1   
 47  22  26  ar  
 48  23  48  1   
 49  23  49  1   
 50  24  27  1   
 51  25  28  ar  
 52  25  50  1   
 53  26  28  ar  
 54  26  51  1   
 55  27  52  1   
 56  27  53  1   
 57  27  54  1   
 58  28  55  1   
@<TRIPOS>SUBSTRUCTURE
  1 ****   3 GROUP 4 **** **** 0

# MOE 2024.06 (io_trps.svl 2023.06)
