@<TRIPOS>MOLECULE
NONAME
36 37 1 0 0 
SMALL
USER_CHARGES


@<TRIPOS>ATOM
  1 O       -0.6970    -0.6030     0.7170 O.2   1 <1>  -0.5700 
  2 C       -0.4480    -1.6650     0.1810 C.2   1 <1>   0.5440 
  3 N        0.8450    -1.9210    -0.1870 N.am  1 <1>  -0.7300 
  4 C       -1.5000    -2.6240    -0.0740 C.ar  1 <1>   0.0860 
  5 C        1.9890    -1.0190     0.0490 C.3   1 <1>   0.1400 
  6 C       -2.8320    -2.2150    -0.1360 C.ar  1 <1>   0.1600 
  7 C       -1.2590    -3.9830    -0.2690 C.ar  1 <1>  -0.1500 
  8 C        3.2190    -1.8640     0.3570 C.3   1 <1>  -0.2400 
  9 N       -3.8780    -2.9890    -0.3750 N.ar  1 <1>  -0.6200 
 10 C       -2.3330    -4.8030    -0.5180 C.ar  1 <1>  -0.1500 
 11 C       -3.6200    -4.2710    -0.5630 C.ar  1 <1>   0.4100 
 12 N       -4.7200    -5.0310    -0.8080 N.pl3 1 <1>  -0.8690 
 13 C       -4.9020    -6.3950    -0.2810 C.3   1 <1>   0.2090 
 14 C       -6.3830    -6.7570    -0.3280 C.3   1 <1>  -0.1600 
 15 C       -6.6230    -8.1830     0.1930 C.3   1 <1>   0.0080 
 16 C       -8.0870    -8.5550     0.1540 C.2   1 <1>   0.5690 
 17 N       -8.6350    -9.1590    -0.8360 N.2   1 <1>  -0.6190 
 18 N       -8.9060    -8.2990     1.1130 N.2   1 <1>  -0.6190 
 19 N       -9.8690    -9.2990    -0.4970 N.2   1 <1>  -0.2500 
 20 N      -10.0340    -8.7770     0.6870 N.2   1 <1>  -0.2500 
 21 H        1.0490    -2.7380    -0.7620 H     1 <1>   0.3700 
 22 H        1.7750    -0.3630     0.8780 H     1 <1>   0.0800 
 23 H        2.1570    -0.4180    -0.8280 H     1 <1>   0.0800 
 24 H       -3.0370    -1.1690     0.0220 H     1 <1>   0.1500 
 25 H       -0.2620    -4.3820    -0.2230 H     1 <1>   0.1500 
 26 H        3.0480    -2.4610     1.2350 H     1 <1>   0.0800 
 27 H        4.0590    -1.2190     0.5440 H     1 <1>   0.0800 
 28 H        3.4580    -2.5020    -0.4750 H     1 <1>   0.0800 
 29 H       -2.1970    -5.8530    -0.6860 H     1 <1>   0.1500 
 30 H       -5.5750    -4.4680    -0.7850 H     1 <1>   0.4000 
 31 H       -4.5430    -6.4390     0.7340 H     1 <1>   0.0800 
 32 H       -4.3370    -7.0860    -0.8840 H     1 <1>   0.0800 
 33 H       -6.7420    -6.6960    -1.3410 H     1 <1>   0.0800 
 34 H       -6.9480    -6.0700     0.2780 H     1 <1>   0.0800 
 35 H       -6.2890    -8.2700     1.2100 H     1 <1>   0.0800 
 36 H       -6.0850    -8.8940    -0.4060 H     1 <1>   0.0800 
@<TRIPOS>BOND
  1   1   2  2   
  2   2   3  am  
  3   2   4  1   
  4   3   5  1   
  5   3  21  1   
  6   4   6  ar  
  7   4   7  ar  
  8   5   8  1   
  9   5  22  1   
 10   5  23  1   
 11   6   9  ar  
 12   6  24  1   
 13   7  10  ar  
 14   7  25  1   
 15   8  26  1   
 16   8  27  1   
 17   8  28  1   
 18   9  11  ar  
 19  10  11  ar  
 20  10  29  1   
 21  11  12  1   
 22  12  13  1   
 23  12  30  1   
 24  13  14  1   
 25  13  31  1   
 26  13  32  1   
 27  14  15  1   
 28  14  33  1   
 29  14  34  1   
 30  15  16  1   
 31  15  35  1   
 32  15  36  1   
 33  16  17  1   
 34  16  18  2   
 35  17  19  1   
 36  18  20  1   
 37  19  20  2   
@<TRIPOS>SUBSTRUCTURE
  1 ****  11 GROUP 4 **** **** 0

# MOE 2024.06 (io_trps.svl 2023.06)
