@<TRIPOS>MOLECULE
NONAME
51 53 1 0 0 
SMALL
USER_CHARGES


@<TRIPOS>ATOM
  1 O       -1.6740     0.6630    -1.9630 O.2   1 <1>  -0.5700 
  2 C       -1.8710     1.0380    -0.8340 C.2   1 <1>   0.5690 
  3 N       -2.2150     0.1830     0.1570 N.am  1 <1>  -0.7300 
  4 C       -1.7220     2.5060    -0.5070 C.3   1 <1>  -0.0990 
  5 C       -2.3670    -1.2790    -0.0030 C.3   1 <1>   0.2200 
  6 C       -0.2610     2.8550    -0.2050 C.3   1 <1>  -0.0160 
  7 C       -3.8420    -1.6380     0.0680 C.3   1 <1>  -0.0800 
  8 C       -1.8180    -1.9840     1.2310 C.3   1 <1>   0.1200 
  9 C       -0.1250     4.3350     0.1370 C.ar  1 <1>  -0.1440 
 10 C       -4.0820    -1.7430     1.5800 C.3   1 <1>   0.1200 
 11 C       -4.1360    -2.9610    -0.6650 C.3   1 <1>  -0.0160 
 12 O       -2.8340    -1.9250     2.1870 O.3   1 <1>  -0.5600 
 13 C        0.1360     5.3060    -0.8260 C.ar  1 <1>  -0.1440 
 14 C       -0.2720     4.7160     1.4620 C.ar  1 <1>  -0.1500 
 15 C       -5.6150    -3.3090    -0.6140 C.ar  1 <1>  -0.1440 
 16 C        0.2420     6.6350    -0.4410 C.ar  1 <1>  -0.1500 
 17 C        0.3140     4.9600    -2.2990 C.3   1 <1>  -0.0970 
 18 C       -0.1650     6.0430     1.8340 C.ar  1 <1>  -0.1500 
 19 C       -6.5430    -2.6470    -1.3930 C.ar  1 <1>  -0.1500 
 20 C       -6.1090    -4.3030     0.2070 C.ar  1 <1>  -0.1500 
 21 C        0.0920     7.0120     0.8820 C.ar  1 <1>  -0.1440 
 22 C       -7.8810    -2.9960    -1.3110 C.ar  1 <1>   0.1600 
 23 C       -7.4670    -4.5740     0.2140 C.ar  1 <1>   0.1600 
 24 C        0.2150     8.4720     1.2800 C.3   1 <1>  -0.0970 
 25 N       -8.3660    -3.9430    -0.5250 N.ar  1 <1>  -0.6200 
 26 H       -2.3870     0.5220     1.1070 H     1 <1>   0.3700 
 27 H       -2.0660     3.0810    -1.3470 H     1 <1>   0.0800 
 28 H       -2.3390     2.7550     0.3360 H     1 <1>   0.0800 
 29 H       -1.8890    -1.6100    -0.9100 H     1 <1>   0.0800 
 30 H        0.3560     2.6000    -1.0480 H     1 <1>   0.0800 
 31 H        0.0840     2.2630     0.6250 H     1 <1>   0.0800 
 32 H       -4.4500    -0.8630    -0.3650 H     1 <1>   0.0800 
 33 H       -0.9290    -1.5170     1.6160 H     1 <1>   0.0800 
 34 H       -1.6240    -3.0220     1.0240 H     1 <1>   0.0800 
 35 H       -4.7220    -2.5650     1.8500 H     1 <1>   0.0800 
 36 H       -4.4980    -0.8280     1.9640 H     1 <1>   0.0800 
 37 H       -3.5620    -3.7630    -0.2340 H     1 <1>   0.0800 
 38 H       -3.8410    -2.8700    -1.6960 H     1 <1>   0.0800 
 39 H       -0.4720     3.9780     2.2180 H     1 <1>   0.1500 
 40 H        0.4460     7.3900    -1.1800 H     1 <1>   0.1500 
 41 H        0.3890     5.8490    -2.8980 H     1 <1>   0.0800 
 42 H       -0.5240     4.3900    -2.6550 H     1 <1>   0.0800 
 43 H        1.2120     4.3860    -2.4330 H     1 <1>   0.0800 
 44 H       -0.2810     6.3160     2.8680 H     1 <1>   0.1500 
 45 H       -6.2380    -1.8630    -2.0620 H     1 <1>   0.1500 
 46 H       -5.4530    -4.8700     0.8420 H     1 <1>   0.1500 
 47 H       -8.5890    -2.4670    -1.9260 H     1 <1>   0.1500 
 48 H       -7.8350    -5.3520     0.8610 H     1 <1>   0.1500 
 49 H       -0.3210     8.6620     2.1920 H     1 <1>   0.0800 
 50 H       -0.1910     9.1040     0.5110 H     1 <1>   0.0800 
 51 H        1.2500     8.7220     1.4270 H     1 <1>   0.0800 
@<TRIPOS>BOND
  1   1   2  2   
  2   2   3  am  
  3   2   4  1   
  4   3   5  1   
  5   3  26  1   
  6   4   6  1   
  7   4  27  1   
  8   4  28  1   
  9   5   7  1   
 10   5   8  1   
 11   5  29  1   
 12   6   9  1   
 13   6  30  1   
 14   6  31  1   
 15   7  10  1   
 16   7  11  1   
 17   7  32  1   
 18   8  12  1   
 19   8  33  1   
 20   8  34  1   
 21   9  13  ar  
 22   9  14  ar  
 23  10  12  1   
 24  10  35  1   
 25  10  36  1   
 26  11  15  1   
 27  11  37  1   
 28  11  38  1   
 29  13  16  ar  
 30  13  17  1   
 31  14  18  ar  
 32  14  39  1   
 33  15  19  ar  
 34  15  20  ar  
 35  16  21  ar  
 36  16  40  1   
 37  17  41  1   
 38  17  42  1   
 39  17  43  1   
 40  18  21  ar  
 41  18  44  1   
 42  19  22  ar  
 43  19  45  1   
 44  20  23  ar  
 45  20  46  1   
 46  21  24  1   
 47  22  25  ar  
 48  22  47  1   
 49  23  25  ar  
 50  23  48  1   
 51  24  49  1   
 52  24  50  1   
 53  24  51  1   
@<TRIPOS>SUBSTRUCTURE
  1 ****   3 GROUP 4 **** **** 0

# MOE 2024.06 (io_trps.svl 2023.06)
