@<TRIPOS>MOLECULE
NONAME
39 40 1 0 0 
SMALL
USER_CHARGES


@<TRIPOS>ATOM
  1 F        1.3940     0.8030     0.8260 F     1 <1>  -0.3400 
  2 C        0.9550     1.9650     0.3670 C.3   1 <1>   0.8800 
  3 F        0.8620     1.8260    -0.9490 F     1 <1>  -0.3400 
  4 O        1.9320     2.9400     0.6490 O.3   1 <1>  -0.3630 
  5 C        1.6610     4.2600     0.5430 C.ar  1 <1>   0.0830 
  6 C        0.5060     4.7780    -0.0360 C.ar  1 <1>  -0.1500 
  7 C        2.6060     5.1330     1.0560 C.ar  1 <1>  -0.1500 
  8 C        0.3150     6.1460    -0.0890 C.ar  1 <1>  -0.1500 
  9 C        2.4070     6.4990     0.9990 C.ar  1 <1>  -0.1500 
 10 C        1.2590     7.0420     0.4180 C.ar  1 <1>   0.0860 
 11 C        1.0430     8.4730     0.3340 C.2   1 <1>   0.5440 
 12 O       -0.0800     8.9280     0.4360 O.2   1 <1>  -0.5700 
 13 N        2.1160     9.3060     0.1130 N.am  1 <1>  -0.4940 
 14 C        2.1760    10.7230     0.1060 C.2   1 <1>  -0.0880 
 15 N        3.2570    11.4590    -0.2720 N.pl3 1 <1>   0.3140 
 16 C        1.2270    11.6190     0.4620 C.2   1 <1>  -0.1500 
 17 N        3.0230    12.7850    -0.1610 N.2   1 <1>  -0.7070 
 18 C        4.5520    10.9600    -0.7770 C.3   1 <1>   0.0960 
 19 C        1.8080    12.8660     0.2760 C.2   1 <1>   0.1080 
 20 C        5.4670    10.5310     0.3800 C.3   1 <1>  -0.1600 
 21 C        1.1300    14.1890     0.5430 C.3   1 <1>  -0.0590 
 22 C        6.7990     9.9780    -0.1370 C.3   1 <1>  -0.2400 
 23 H       -0.0060     2.1900     0.7930 H     1 <1>   0.0800 
 24 H       -0.2520     4.1430    -0.4580 H     1 <1>   0.1500 
 25 H        3.4970     4.7300     1.5060 H     1 <1>   0.1500 
 26 H       -0.5830     6.5430    -0.5340 H     1 <1>   0.1500 
 27 H        3.1500     7.1510     1.4240 H     1 <1>   0.1500 
 28 H        2.9870     8.8220    -0.0950 H     1 <1>   0.3700 
 29 H        0.2310    11.4230     0.8150 H     1 <1>   0.1500 
 30 H        5.0170    11.7510    -1.3370 H     1 <1>   0.0800 
 31 H        4.3660    10.1380    -1.4410 H     1 <1>   0.0800 
 32 H        4.9780     9.7800     0.9750 H     1 <1>   0.0800 
 33 H        5.6590    11.3860     1.0070 H     1 <1>   0.0800 
 34 H        0.1270    14.0330     0.8940 H     1 <1>   0.0800 
 35 H        1.1020    14.7650    -0.3630 H     1 <1>   0.0800 
 36 H        1.6850    14.7320     1.2850 H     1 <1>   0.0800 
 37 H        6.6380     9.1140    -0.7580 H     1 <1>   0.0800 
 38 H        7.4240     9.6920     0.6910 H     1 <1>   0.0800 
 39 H        7.3190    10.7260    -0.7110 H     1 <1>   0.0800 
@<TRIPOS>BOND
  1   1   2  1   
  2   2   3  1   
  3   2   4  1   
  4   2  23  1   
  5   4   5  1   
  6   5   6  ar  
  7   5   7  ar  
  8   6   8  ar  
  9   6  24  1   
 10   7   9  ar  
 11   7  25  1   
 12   8  10  ar  
 13   8  26  1   
 14   9  10  ar  
 15   9  27  1   
 16  10  11  1   
 17  11  12  2   
 18  11  13  am  
 19  13  14  1   
 20  13  28  1   
 21  14  15  1   
 22  14  16  2   
 23  15  17  1   
 24  15  18  1   
 25  16  19  1   
 26  16  29  1   
 27  17  19  2   
 28  18  20  1   
 29  18  30  1   
 30  18  31  1   
 31  19  21  1   
 32  20  22  1   
 33  20  32  1   
 34  20  33  1   
 35  21  34  1   
 36  21  35  1   
 37  21  36  1   
 38  22  37  1   
 39  22  38  1   
 40  22  39  1   
@<TRIPOS>SUBSTRUCTURE
  1 ****  10 GROUP 4 **** **** 0

# MOE 2024.06 (io_trps.svl 2023.06)
