@<TRIPOS>MOLECULE
NONAME
41 42 1 0 0 
SMALL
USER_CHARGES


@<TRIPOS>ATOM
  1 S        0.3730    -0.5330     0.8140 S.o2  1 <1>   1.5760 
  2 O        1.3010    -1.5010     1.3560 O.2   1 <1>  -0.6500 
  3 O       -0.6340     0.0590     1.6630 O.2   1 <1>  -0.6500 
  4 N       -0.3350    -1.1500    -0.5870 N.am  1 <1>  -0.8490 
  5 N        1.2970     0.7110     0.1480 N.am  1 <1>  -0.8490 
  6 C       -0.8750    -2.5120    -0.4110 C.3   1 <1>   0.1960 
  7 C       -1.2520    -0.2140    -1.2690 C.3   1 <1>   0.1960 
  8 C        1.7940     1.5630     1.2250 C.3   1 <1>   0.3390 
  9 C        2.3960     0.2030    -0.6850 C.3   1 <1>   0.1160 
 10 C       -2.2620    -2.5810     0.2700 C.3   1 <1>   0.2000 
 11 C       -2.7100    -0.6970    -1.3500 C.3   1 <1>  -0.1600 
 12 C        2.5350     2.7760     0.6760 C.ar  1 <1>  -0.1440 
 13 O       -2.8630    -3.7310    -0.2120 O.3   1 <1>  -0.6800 
 14 C       -3.1450    -1.3480    -0.0270 C.3   1 <1>  -0.1860 
 15 C        1.8750     3.6780    -0.1450 C.ar  1 <1>  -0.1500 
 16 C        3.8690     2.9930     0.9890 C.ar  1 <1>  -0.1500 
 17 C       -4.6470    -1.5760     0.0410 C.2   1 <1>   0.9060 
 18 C        2.5370     4.7840    -0.6480 C.ar  1 <1>  -0.1500 
 19 C        4.5330     4.0990     0.4860 C.ar  1 <1>  -0.1500 
 20 O       -5.3530    -0.7010     0.5460 O.co2 1 <1>  -0.9000 
 21 O       -5.1280    -2.6150    -0.4330 O.co2 1 <1>  -0.9000 
 22 C        3.8680     4.9950    -0.3320 C.ar  1 <1>  -0.1500 
 23 H       -0.9670    -2.9430    -1.3930 H     1 <1>   0.0800 
 24 H       -0.1790    -3.1210     0.1380 H     1 <1>   0.0800 
 25 H       -1.2400     0.7380    -0.7630 H     1 <1>   0.0800 
 26 H       -0.8870    -0.0430    -2.2670 H     1 <1>   0.0800 
 27 H        0.9670     1.9220     1.8150 H     1 <1>   0.0800 
 28 H        2.4390     0.9930     1.8740 H     1 <1>   0.0800 
 29 H        2.9050     1.0160    -1.1720 H     1 <1>   0.0800 
 30 H        2.0100    -0.4500    -1.4490 H     1 <1>   0.0800 
 31 H        3.1030    -0.3480    -0.0870 H     1 <1>   0.0800 
 32 H       -2.1580    -2.7010     1.3350 H     1 <1>   0.0800 
 33 H       -3.3480     0.1430    -1.5630 H     1 <1>   0.0800 
 34 H       -2.8250    -1.4020    -2.1540 H     1 <1>   0.0800 
 35 H       -3.8430    -3.5130    -0.3410 H     1 <1>   0.4000 
 36 H       -2.9420    -0.6320     0.7470 H     1 <1>   0.0800 
 37 H        0.8400     3.5120    -0.3950 H     1 <1>   0.1500 
 38 H        4.3980     2.3050     1.6240 H     1 <1>   0.1500 
 39 H        2.0180     5.4780    -1.2850 H     1 <1>   0.1500 
 40 H        5.5680     4.2630     0.7310 H     1 <1>   0.1500 
 41 H        4.3840     5.8540    -0.7230 H     1 <1>   0.1500 
@<TRIPOS>BOND
  1   1   2  2   
  2   1   3  2   
  3   1   4  am  
  4   1   5  am  
  5   4   6  1   
  6   4   7  1   
  7   5   8  1   
  8   5   9  1   
  9   6  10  1   
 10   6  23  1   
 11   6  24  1   
 12   7  11  1   
 13   7  25  1   
 14   7  26  1   
 15   8  12  1   
 16   8  27  1   
 17   8  28  1   
 18   9  29  1   
 19   9  30  1   
 20   9  31  1   
 21  10  13  1   
 22  10  14  1   
 23  10  32  1   
 24  11  14  1   
 25  11  33  1   
 26  11  34  1   
 27  12  15  ar  
 28  12  16  ar  
 29  13  35  1   
 30  14  17  1   
 31  14  36  1   
 32  15  18  ar  
 33  15  37  1   
 34  16  19  ar  
 35  16  38  1   
 36  17  20  ar  
 37  17  21  ar  
 38  18  22  ar  
 39  18  39  1   
 40  19  22  ar  
 41  19  40  1   
 42  22  41  1   
@<TRIPOS>SUBSTRUCTURE
  1 ****   1 GROUP 4 **** **** 0

# MOE 2024.06 (io_trps.svl 2023.06)
