@<TRIPOS>MOLECULE
NONAME
52 54 1 0 0 
SMALL
USER_CHARGES


@<TRIPOS>ATOM
  1 O        0.2130    -0.1700     0.1660 O.3   1 <1>  -0.5600 
  2 C        1.3840     0.5750     0.0230 C.3   1 <1>   0.2640 
  3 C        0.3900    -1.5410     0.1540 C.3   1 <1>   0.1200 
  4 C        1.0380     2.0520     0.1100 C.ar  1 <1>  -0.1440 
  5 C       -0.9930    -2.1530     0.3610 C.3   1 <1>  -0.1600 
  6 C        1.5790     2.8470     1.1100 C.ar  1 <1>  -0.1500 
  7 C        0.1800     2.6230    -0.8180 C.ar  1 <1>  -0.1500 
  8 C       -0.9310    -3.6780     0.3580 C.3   1 <1>   0.3430 
  9 C        1.2700     4.1940     1.1780 C.ar  1 <1>  -0.1500 
 10 C       -0.1300     3.9700    -0.7520 C.ar  1 <1>  -0.1500 
 11 N       -2.2690    -4.2390     0.6760 N.4   1 <1>  -0.9590 
 12 C        0.4160     4.7570     0.2460 C.ar  1 <1>  -0.1500 
 13 C       -3.3380    -3.9820    -0.3250 C.3   1 <1>   0.3430 
 14 C       -2.2720    -5.7170     0.8800 C.3   1 <1>   0.3430 
 15 C       -4.4400    -4.9590     0.0790 C.3   1 <1>   0.2000 
 16 C       -3.6700    -6.2190     0.4790 C.3   1 <1>  -0.0800 
 17 O       -5.0550    -4.4510     1.2180 O.3   1 <1>  -0.6800 
 18 C       -3.5910    -7.2280    -0.6820 C.3   1 <1>   0.0210 
 19 C       -2.8200    -8.4710    -0.2830 C.2   1 <1>   0.1080 
 20 N       -1.5460    -8.4620    -0.0380 N.2   1 <1>  -0.7070 
 21 C       -3.3770    -9.7370    -0.1380 C.2   1 <1>  -0.1500 
 22 N       -1.2500    -9.7460     0.2610 N.pl3 1 <1>   0.3000 
 23 C       -2.3450   -10.5320     0.2120 C.2   1 <1>  -0.3320 
 24 C       -2.3370   -12.0220     0.5010 C.3   1 <1>  -0.0600 
 25 H        2.0670     0.3000     0.8080 H     1 <1>   0.0800 
 26 H        1.8210     0.3540    -0.9350 H     1 <1>   0.0800 
 27 H        0.8080    -1.8260    -0.7980 H     1 <1>   0.0800 
 28 H        1.0600    -1.8110     0.9540 H     1 <1>   0.0800 
 29 H       -1.3750    -1.8090     1.3070 H     1 <1>   0.0800 
 30 H       -1.6340    -1.8070    -0.4300 H     1 <1>   0.0800 
 31 H        2.2430     2.4220     1.8420 H     1 <1>   0.1500 
 32 H       -0.2530     2.0140    -1.5920 H     1 <1>   0.1500 
 33 H       -0.2210    -4.0040     1.1020 H     1 <1>   0.0800 
 34 H       -0.6000    -4.0320    -0.6050 H     1 <1>   0.0800 
 35 H        1.6930     4.8050     1.9570 H     1 <1>   0.1500 
 36 H       -0.7970     4.4050    -1.4760 H     1 <1>   0.1500 
 37 H       -2.6260    -3.8240     1.5520 H     1 <1>   0.4500 
 38 H        0.1740     5.8040     0.2990 H     1 <1>   0.1500 
 39 H       -3.6890    -2.9630    -0.2940 H     1 <1>   0.0800 
 40 H       -2.9830    -4.2180    -1.3140 H     1 <1>   0.0800 
 41 H       -1.5250    -6.1710     0.2510 H     1 <1>   0.0800 
 42 H       -2.0550    -5.9650     1.9070 H     1 <1>   0.0800 
 43 H       -5.1830    -5.1040    -0.6880 H     1 <1>   0.0800 
 44 H       -4.1360    -6.7120     1.3150 H     1 <1>   0.0800 
 45 H       -5.8460    -4.9760     1.4620 H     1 <1>   0.4000 
 46 H       -3.1050    -6.7900    -1.5360 H     1 <1>   0.0800 
 47 H       -4.5820    -7.5190    -0.9800 H     1 <1>   0.0800 
 48 H       -4.4080   -10.0050    -0.2830 H     1 <1>   0.1500 
 49 H       -0.2980   -10.0590     0.4890 H     1 <1>   0.2700 
 50 H       -3.3280   -12.4260     0.3930 H     1 <1>   0.0800 
 51 H       -2.0010   -12.2070     1.5060 H     1 <1>   0.0800 
 52 H       -1.6850   -12.5320    -0.1860 H     1 <1>   0.0800 
@<TRIPOS>BOND
  1   1   2  1   
  2   1   3  1   
  3   2   4  1   
  4   2  25  1   
  5   2  26  1   
  6   3   5  1   
  7   3  27  1   
  8   3  28  1   
  9   4   6  ar  
 10   4   7  ar  
 11   5   8  1   
 12   5  29  1   
 13   5  30  1   
 14   6   9  ar  
 15   6  31  1   
 16   7  10  ar  
 17   7  32  1   
 18   8  11  1   
 19   8  33  1   
 20   8  34  1   
 21   9  12  ar  
 22   9  35  1   
 23  10  12  ar  
 24  10  36  1   
 25  11  13  1   
 26  11  14  1   
 27  11  37  1   
 28  12  38  1   
 29  13  15  1   
 30  13  39  1   
 31  13  40  1   
 32  14  16  1   
 33  14  41  1   
 34  14  42  1   
 35  15  16  1   
 36  15  17  1   
 37  15  43  1   
 38  16  18  1   
 39  16  44  1   
 40  17  45  1   
 41  18  19  1   
 42  18  46  1   
 43  18  47  1   
 44  19  20  2   
 45  19  21  1   
 46  20  22  1   
 47  21  23  2   
 48  21  48  1   
 49  22  23  1   
 50  22  49  1   
 51  23  24  1   
 52  24  50  1   
 53  24  51  1   
 54  24  52  1   
@<TRIPOS>SUBSTRUCTURE
  1 ****   8 GROUP 4 **** **** 0

# MOE 2024.06 (io_trps.svl 2023.06)
