@<TRIPOS>MOLECULE
NONAME
46 48 1 0 0 
SMALL
USER_CHARGES


@<TRIPOS>ATOM
  1 O        0.1060     0.5110    -0.9090 O.3   1 <1>  -0.0190 
  2 N        0.5690     1.5850    -0.3380 N.2   1 <1>  -0.4100 
  3 C        0.8360    -0.5380    -0.6380 C.2   1 <1>  -0.0400 
  4 C        1.6170     1.2210     0.3100 C.2   1 <1>   0.1080 
  5 C        1.8450    -0.1440     0.1540 C.2   1 <1>  -0.1500 
  6 C        0.4650    -1.8900    -1.2190 C.3   1 <1>   0.2900 
  7 C        2.4780     2.1560     1.1290 C.3   1 <1>  -0.0590 
  8 N       -0.3960    -2.6760    -0.3030 N.3   1 <1>  -0.8100 
  9 C       -0.5700    -4.0540    -0.7820 C.3   1 <1>   0.1100 
 10 C       -1.6900    -2.0050    -0.0620 C.3   1 <1>   0.1100 
 11 C       -1.3710    -4.8930     0.2450 C.3   1 <1>   0.4230 
 12 C       -2.4930    -2.7880     0.9810 C.3   1 <1>  -0.1600 
 13 N       -1.4340    -6.3790    -0.0840 N.4   1 <1>  -0.9590 
 14 C       -2.7530    -4.2620     0.5750 C.3   1 <1>   0.0000 
 15 C       -2.5120    -7.1210     0.6500 C.3   1 <1>   0.3430 
 16 C       -1.4940    -6.7140    -1.5440 C.3   1 <1>   0.2630 
 17 C       -3.3870    -5.0150     1.7820 C.3   1 <1>  -0.1600 
 18 C       -3.6900    -4.3280    -0.6650 C.3   1 <1>   0.1200 
 19 C       -2.8400    -6.4420     1.9790 C.3   1 <1>  -0.1600 
 20 O       -4.8540    -3.6030    -0.4720 O.3   1 <1>  -0.6800 
 21 H        2.6480    -0.7130     0.5840 H     1 <1>   0.1500 
 22 H        1.3780    -2.4330    -1.3900 H     1 <1>   0.0800 
 23 H       -0.0250    -1.7490    -2.1670 H     1 <1>   0.0800 
 24 H        2.5100     1.8220     2.1500 H     1 <1>   0.0800 
 25 H        2.0700     3.1500     1.1010 H     1 <1>   0.0800 
 26 H        3.4750     2.1770     0.7300 H     1 <1>   0.0800 
 27 H       -1.0670    -4.0350    -1.7360 H     1 <1>   0.0800 
 28 H        0.4030    -4.4970    -0.9040 H     1 <1>   0.0800 
 29 H       -1.5230    -1.0130     0.3250 H     1 <1>   0.0800 
 30 H       -2.2460    -1.9110    -0.9810 H     1 <1>   0.0800 
 31 H       -0.8080    -4.8110     1.1600 H     1 <1>   0.0800 
 32 H       -1.9370    -2.7490     1.9020 H     1 <1>   0.0800 
 33 H       -3.4200    -2.2720     1.1600 H     1 <1>   0.0800 
 34 H       -0.5430    -6.7560     0.2720 H     1 <1>   0.4500 
 35 H       -3.4090    -7.1460     0.0520 H     1 <1>   0.0800 
 36 H       -2.2030    -8.1390     0.8260 H     1 <1>   0.0800 
 37 H       -2.3880    -6.3080    -1.9880 H     1 <1>   0.0800 
 38 H       -1.4980    -7.7830    -1.6830 H     1 <1>   0.0800 
 39 H       -0.6380    -6.3110    -2.0610 H     1 <1>   0.0800 
 40 H       -3.2130    -4.4750     2.6980 H     1 <1>   0.0800 
 41 H       -4.4560    -5.0640     1.6670 H     1 <1>   0.0800 
 42 H       -3.9790    -5.3390    -0.8850 H     1 <1>   0.0800 
 43 H       -3.2170    -3.9130    -1.5370 H     1 <1>   0.0800 
 44 H       -3.5720    -7.0300     2.5070 H     1 <1>   0.0800 
 45 H       -1.9550    -6.4190     2.5920 H     1 <1>   0.0800 
 46 H       -5.3420    -3.8910     0.3240 H     1 <1>   0.4000 
@<TRIPOS>BOND
  1   1   2  1   
  2   1   3  1   
  3   2   4  2   
  4   3   5  2   
  5   3   6  1   
  6   4   5  1   
  7   4   7  1   
  8   5  21  1   
  9   6   8  1   
 10   6  22  1   
 11   6  23  1   
 12   7  24  1   
 13   7  25  1   
 14   7  26  1   
 15   8   9  1   
 16   8  10  1   
 17   9  11  1   
 18   9  27  1   
 19   9  28  1   
 20  10  12  1   
 21  10  29  1   
 22  10  30  1   
 23  11  13  1   
 24  11  14  1   
 25  11  31  1   
 26  12  14  1   
 27  12  32  1   
 28  12  33  1   
 29  13  15  1   
 30  13  16  1   
 31  13  34  1   
 32  14  17  1   
 33  14  18  1   
 34  15  19  1   
 35  15  35  1   
 36  15  36  1   
 37  16  37  1   
 38  16  38  1   
 39  16  39  1   
 40  17  19  1   
 41  17  40  1   
 42  17  41  1   
 43  18  20  1   
 44  18  42  1   
 45  18  43  1   
 46  19  44  1   
 47  19  45  1   
 48  20  46  1   
@<TRIPOS>SUBSTRUCTURE
  1 ****   8 GROUP 4 **** **** 0

# MOE 2024.06 (io_trps.svl 2023.06)
