@<TRIPOS>MOLECULE
NONAME
48 49 1 0 0 
SMALL
USER_CHARGES


@<TRIPOS>ATOM
  1 O       -1.8150     0.9140     1.6330 O.2   1 <1>  -0.5700 
  2 C       -2.0340     0.9340     0.4440 C.2   1 <1>   0.5690 
  3 N       -2.2920    -0.2400    -0.2340 N.am  1 <1>  -0.6600 
  4 C       -2.0690     2.3090    -0.2270 C.3   1 <1>   0.0440 
  5 C       -2.1550    -1.5380     0.4810 C.3   1 <1>   0.3200 
  6 C       -2.8090    -0.3380    -1.6390 C.3   1 <1>   0.1400 
  7 C       -0.7320     3.0670    -0.1450 C.ar  1 <1>  -0.1440 
  8 C       -3.5330    -2.0350     0.8650 C.2   1 <1>  -0.3320 
  9 C       -4.3420    -0.2280    -1.7360 C.3   1 <1>   0.1200 
 10 C        0.2770     2.8240    -1.0790 C.ar  1 <1>  -0.1430 
 11 C       -0.5090     4.0090     0.8610 C.ar  1 <1>  -0.1430 
 12 N       -4.1310    -3.1570     0.4150 N.pl3 1 <1>   0.0480 
 13 C       -4.4030    -1.4530     1.7200 C.2   1 <1>   0.0770 
 14 O       -4.8110     0.8300    -0.9740 O.3   1 <1>  -0.6800 
 15 C        1.4700     3.5250    -1.0090 C.ar  1 <1>  -0.1500 
 16 C        0.1300     1.7980    -2.1940 C.3   1 <1>  -0.0970 
 17 C        0.6930     4.6980     0.9100 C.ar  1 <1>  -0.1500 
 18 C       -1.5400     4.3220     1.9400 C.3   1 <1>  -0.0970 
 19 C       -5.3380    -3.1670     1.0240 C.2   1 <1>   0.0360 
 20 C       -3.6020    -4.1720    -0.5140 C.3   1 <1>   0.0160 
 21 N       -5.5420    -2.1610     1.8100 N.2   1 <1>  -0.5650 
 22 C        1.6850     4.4660    -0.0210 C.ar  1 <1>  -0.1430 
 23 C        2.9970     5.2260     0.0460 C.3   1 <1>  -0.0970 
 24 H       -2.8470     2.8690     0.2510 H     1 <1>   0.0800 
 25 H       -2.3740     2.2470    -1.2480 H     1 <1>   0.0800 
 26 H       -1.5600    -1.4200     1.3720 H     1 <1>   0.0800 
 27 H       -1.6470    -2.2450    -0.1490 H     1 <1>   0.0800 
 28 H       -2.5060    -1.2770    -2.0650 H     1 <1>   0.0800 
 29 H       -2.3700     0.4240    -2.2540 H     1 <1>   0.0800 
 30 H       -4.8170    -1.1260    -1.3830 H     1 <1>   0.0800 
 31 H       -4.6400    -0.0590    -2.7560 H     1 <1>   0.0800 
 32 H       -4.2580    -0.5420     2.2810 H     1 <1>   0.1500 
 33 H       -4.7130     0.5970    -0.0250 H     1 <1>   0.4000 
 34 H        2.2470     3.3390    -1.7290 H     1 <1>   0.1500 
 35 H       -0.0490     0.8260    -1.7730 H     1 <1>   0.0800 
 36 H        1.0260     1.7400    -2.7860 H     1 <1>   0.0800 
 37 H       -0.6800     2.0700    -2.8450 H     1 <1>   0.0800 
 38 H        0.8630     5.4240     1.6840 H     1 <1>   0.1500 
 39 H       -1.8510     3.4180     2.4300 H     1 <1>   0.0800 
 40 H       -2.3970     4.8030     1.5030 H     1 <1>   0.0800 
 41 H       -1.1330     4.9760     2.6880 H     1 <1>   0.0800 
 42 H       -6.0550    -3.9520     0.8600 H     1 <1>   0.1500 
 43 H       -3.3600    -3.7080    -1.4510 H     1 <1>   0.0800 
 44 H       -4.3430    -4.9350    -0.6740 H     1 <1>   0.0800 
 45 H       -2.7210    -4.6170    -0.0890 H     1 <1>   0.0800 
 46 H        3.4190     5.3360    -0.9360 H     1 <1>   0.0800 
 47 H        3.6930     4.6920     0.6680 H     1 <1>   0.0800 
 48 H        2.8410     6.2060     0.4600 H     1 <1>   0.0800 
@<TRIPOS>BOND
  1   1   2  2   
  2   2   3  am  
  3   2   4  1   
  4   3   5  1   
  5   3   6  1   
  6   4   7  1   
  7   4  24  1   
  8   4  25  1   
  9   5   8  1   
 10   5  26  1   
 11   5  27  1   
 12   6   9  1   
 13   6  28  1   
 14   6  29  1   
 15   7  10  ar  
 16   7  11  ar  
 17   8  12  1   
 18   8  13  2   
 19   9  14  1   
 20   9  30  1   
 21   9  31  1   
 22  10  15  ar  
 23  10  16  1   
 24  11  17  ar  
 25  11  18  1   
 26  12  19  1   
 27  12  20  1   
 28  13  21  1   
 29  13  32  1   
 30  14  33  1   
 31  15  22  ar  
 32  15  34  1   
 33  16  35  1   
 34  16  36  1   
 35  16  37  1   
 36  17  22  ar  
 37  17  38  1   
 38  18  39  1   
 39  18  40  1   
 40  18  41  1   
 41  19  21  2   
 42  19  42  1   
 43  20  43  1   
 44  20  44  1   
 45  20  45  1   
 46  22  23  1   
 47  23  46  1   
 48  23  47  1   
 49  23  48  1   
@<TRIPOS>SUBSTRUCTURE
  1 ****   2 GROUP 4 **** **** 0

# MOE 2024.06 (io_trps.svl 2023.06)
