@<TRIPOS>MOLECULE
NONAME
43 46 1 0 0 
SMALL
USER_CHARGES


@<TRIPOS>ATOM
  1 O       -0.4980     0.1900    -0.1680 O.2   1 <1>  -0.5700 
  2 C       -1.4690     0.8290     0.2060 C.2   1 <1>   0.7160 
  3 N       -2.6500     0.1320     0.3980 N.am  1 <1>  -0.6600 
  4 C       -1.3260     2.2660     0.4140 C.2   1 <1>   0.2030 
  5 C       -2.6800    -1.3580     0.5620 C.3   1 <1>   0.1400 
  6 C       -4.0160     0.7450     0.3750 C.3   1 <1>   0.1400 
  7 N       -2.1370     3.0790     1.0310 N.2   1 <1>  -0.4100 
  8 C       -0.2380     3.0080    -0.0240 C.2   1 <1>  -0.1500 
  9 C       -3.6950    -2.0080    -0.3950 C.3   1 <1>   0.3440 
 10 C       -4.9750    -0.0360    -0.5550 C.3   1 <1>   0.2950 
 11 O       -1.6620     4.3000     1.0200 O.3   1 <1>  -0.0190 
 12 C       -0.5130     4.2490     0.3830 C.2   1 <1>  -0.0400 
 13 O       -4.9500    -1.3990    -0.2470 O.3   1 <1>  -0.5600 
 14 C       -3.8140    -3.5030    -0.1150 C.ar  1 <1>  -0.1430 
 15 C       -6.4460     0.4100    -0.4810 C.3   1 <1>  -0.1950 
 16 C        0.2830     5.5260     0.2160 C.3   1 <1>  -0.0600 
 17 C       -3.0000    -4.3960    -0.7980 C.ar  1 <1>  -0.1500 
 18 C       -4.7130    -3.9940     0.8230 C.ar  1 <1>  -0.1500 
 19 C       -6.8730     1.8120    -0.1670 C.3   1 <1>  -0.2000 
 20 C       -7.1670     0.6980     0.7990 C.3   1 <1>  -0.2000 
 21 C       -3.0820    -5.7550    -0.5480 C.ar  1 <1>  -0.1500 
 22 C       -4.7950    -5.3530     1.0750 C.ar  1 <1>  -0.1500 
 23 C       -3.9790    -6.2350     0.3890 C.ar  1 <1>  -0.1500 
 24 H       -1.7100    -1.7860     0.3840 H     1 <1>   0.0800 
 25 H       -2.9580    -1.5950     1.5740 H     1 <1>   0.0800 
 26 H       -4.4070     0.7590     1.3760 H     1 <1>   0.0800 
 27 H       -3.9690     1.7560     0.0200 H     1 <1>   0.0800 
 28 H        0.6090     2.6210    -0.5620 H     1 <1>   0.1500 
 29 H       -3.3740    -1.8650    -1.4130 H     1 <1>   0.0800 
 30 H       -4.6390     0.0810    -1.5720 H     1 <1>   0.0800 
 31 H       -7.0190    -0.0950    -1.2400 H     1 <1>   0.1000 
 32 H        1.1940     5.3320    -0.3200 H     1 <1>   0.0800 
 33 H        0.5260     5.9330     1.1820 H     1 <1>   0.0800 
 34 H       -0.2970     6.2480    -0.3300 H     1 <1>   0.0800 
 35 H       -2.2960    -4.0380    -1.5300 H     1 <1>   0.1500 
 36 H       -5.3550    -3.3170     1.3600 H     1 <1>   0.1500 
 37 H       -6.1590     2.5590     0.1320 H     1 <1>   0.1000 
 38 H       -7.6920     2.2370    -0.7230 H     1 <1>   0.1000 
 39 H       -8.1800     0.3480     0.9000 H     1 <1>   0.1000 
 40 H       -6.6310     0.6590     1.7320 H     1 <1>   0.1000 
 41 H       -2.4470    -6.4400    -1.0830 H     1 <1>   0.1500 
 42 H       -5.4960    -5.7230     1.8020 H     1 <1>   0.1500 
 43 H       -4.0430    -7.2910     0.5830 H     1 <1>   0.1500 
@<TRIPOS>BOND
  1   1   2  2   
  2   2   3  am  
  3   2   4  1   
  4   3   5  1   
  5   3   6  1   
  6   4   7  2   
  7   4   8  1   
  8   5   9  1   
  9   5  24  1   
 10   5  25  1   
 11   6  10  1   
 12   6  26  1   
 13   6  27  1   
 14   7  11  1   
 15   8  12  2   
 16   8  28  1   
 17   9  13  1   
 18   9  14  1   
 19   9  29  1   
 20  10  13  1   
 21  10  15  1   
 22  10  30  1   
 23  11  12  1   
 24  12  16  1   
 25  14  17  ar  
 26  14  18  ar  
 27  15  19  1   
 28  15  20  1   
 29  15  31  1   
 30  16  32  1   
 31  16  33  1   
 32  16  34  1   
 33  17  21  ar  
 34  17  35  1   
 35  18  22  ar  
 36  18  36  1   
 37  19  20  1   
 38  19  37  1   
 39  19  38  1   
 40  20  39  1   
 41  20  40  1   
 42  21  23  ar  
 43  21  41  1   
 44  22  23  ar  
 45  22  42  1   
 46  23  43  1   
@<TRIPOS>SUBSTRUCTURE
  1 ****   3 GROUP 4 **** **** 0

# MOE 2024.06 (io_trps.svl 2023.06)
