@<TRIPOS>MOLECULE
NONAME
49 51 1 0 0 
SMALL
USER_CHARGES


@<TRIPOS>ATOM
  1 F       -3.0980    -0.8230     1.9810 F     1 <1>  -0.1900 
  2 C       -2.8040     0.0990     1.1030 C.ar  1 <1>   0.1900 
  3 C       -2.9320    -0.1930    -0.2530 C.ar  1 <1>   0.0860 
  4 C       -2.3960     1.3300     1.5770 C.ar  1 <1>  -0.1500 
  5 C       -2.6300     0.8330    -1.1560 C.ar  1 <1>  -0.1440 
  6 C       -3.3700    -1.5040    -0.6710 C.2   1 <1>   0.5440 
  7 C       -2.1030     2.3270     0.6660 C.ar  1 <1>  -0.1500 
  8 C       -2.2230     2.0750    -0.6920 C.ar  1 <1>  -0.1500 
  9 C       -2.7410     0.5940    -2.6570 C.3   1 <1>  -0.0960 
 10 O       -2.5790    -2.4310    -0.7100 O.2   1 <1>  -0.5700 
 11 N       -4.6890    -1.7650    -0.9840 N.am  1 <1>  -0.6600 
 12 C       -5.0930    -3.1230    -1.3860 C.3   1 <1>   0.1400 
 13 C       -5.8140    -1.0640    -0.3130 C.3   1 <1>   0.1400 
 14 C       -5.4720    -3.7990    -0.0580 C.3   1 <1>   0.4230 
 15 C       -6.3770    -1.9460     0.8350 C.3   1 <1>  -0.1600 
 16 N       -5.0090    -5.2300     0.0750 N.4   1 <1>  -0.9590 
 17 C       -6.9640    -3.3870     0.3580 C.3   1 <1>   0.0000 
 18 C       -5.5460    -6.0940    -0.9910 C.3   1 <1>   0.3430 
 19 C       -3.5110    -5.2920     0.1390 C.3   1 <1>   0.2630 
 20 C       -7.6010    -4.7780    -0.1730 C.3   1 <1>  -0.1600 
 21 C       -8.4230    -2.9500     0.8540 C.3   1 <1>   0.1200 
 22 C       -6.9630    -5.6370    -1.2930 C.3   1 <1>  -0.1600 
 23 O       -9.0030    -2.1230    -0.1060 O.3   1 <1>  -0.6800 
 24 H       -2.3100     1.5030     2.6350 H     1 <1>   0.1500 
 25 H       -1.7820     3.2970     1.0090 H     1 <1>   0.1500 
 26 H       -1.9900     2.8630    -1.3890 H     1 <1>   0.1500 
 27 H       -2.4360     1.4620    -3.2120 H     1 <1>   0.0800 
 28 H       -3.7580     0.3630    -2.9210 H     1 <1>   0.0800 
 29 H       -2.1120    -0.2300    -2.9460 H     1 <1>   0.0800 
 30 H       -5.9360    -3.0620    -2.0520 H     1 <1>   0.0800 
 31 H       -4.2840    -3.6220    -1.8880 H     1 <1>   0.0800 
 32 H       -5.4900    -0.1150     0.0780 H     1 <1>   0.0800 
 33 H       -6.5910    -0.8690    -1.0350 H     1 <1>   0.0800 
 34 H       -4.8060    -3.3270     0.6420 H     1 <1>   0.0800 
 35 H       -5.6360    -2.0510     1.6110 H     1 <1>   0.0800 
 36 H       -7.0460    -1.2390     1.2980 H     1 <1>   0.0800 
 37 H       -5.3870    -5.5640     0.9700 H     1 <1>   0.4500 
 38 H       -4.9440    -6.0180    -1.8820 H     1 <1>   0.0800 
 39 H       -5.5470    -7.1210    -0.6620 H     1 <1>   0.0800 
 40 H       -3.0770    -4.9390    -0.7830 H     1 <1>   0.0800 
 41 H       -3.1810    -6.3030     0.3130 H     1 <1>   0.0800 
 42 H       -3.1440    -4.6660     0.9370 H     1 <1>   0.0800 
 43 H       -7.7490    -5.4260     0.6770 H     1 <1>   0.0800 
 44 H       -8.5740    -4.6310    -0.6250 H     1 <1>   0.0800 
 45 H       -8.4380    -2.4440     1.8050 H     1 <1>   0.0800 
 46 H       -9.1310    -3.7420     1.0510 H     1 <1>   0.0800 
 47 H       -6.9650    -5.0860    -2.2180 H     1 <1>   0.0800 
 48 H       -7.5680    -6.5100    -1.4680 H     1 <1>   0.0800 
 49 H       -9.9000    -1.8400     0.1660 H     1 <1>   0.4000 
@<TRIPOS>BOND
  1   1   2  1   
  2   2   3  ar  
  3   2   4  ar  
  4   3   5  ar  
  5   3   6  1   
  6   4   7  ar  
  7   4  24  1   
  8   5   8  ar  
  9   5   9  1   
 10   6  10  2   
 11   6  11  am  
 12   7   8  ar  
 13   7  25  1   
 14   8  26  1   
 15   9  27  1   
 16   9  28  1   
 17   9  29  1   
 18  11  12  1   
 19  11  13  1   
 20  12  14  1   
 21  12  30  1   
 22  12  31  1   
 23  13  15  1   
 24  13  32  1   
 25  13  33  1   
 26  14  16  1   
 27  14  17  1   
 28  14  34  1   
 29  15  17  1   
 30  15  35  1   
 31  15  36  1   
 32  16  18  1   
 33  16  19  1   
 34  16  37  1   
 35  17  20  1   
 36  17  21  1   
 37  18  22  1   
 38  18  38  1   
 39  18  39  1   
 40  19  40  1   
 41  19  41  1   
 42  19  42  1   
 43  20  22  1   
 44  20  43  1   
 45  20  44  1   
 46  21  23  1   
 47  21  45  1   
 48  21  46  1   
 49  22  47  1   
 50  22  48  1   
 51  23  49  1   
@<TRIPOS>SUBSTRUCTURE
  1 ****  11 GROUP 4 **** **** 0

# MOE 2024.06 (io_trps.svl 2023.06)
