@<TRIPOS>MOLECULE
NONAME
42 44 1 0 0 
SMALL
USER_CHARGES


@<TRIPOS>ATOM
  1 O        0.8490    -1.0930     1.1580 O.3   1 <1>  -0.5600 
  2 C       -0.1850    -2.0320     1.2210 C.3   1 <1>   0.1200 
  3 C        1.1210    -0.5760    -0.1010 C.3   1 <1>   0.1200 
  4 C        0.3220    -3.4220     0.7890 C.3   1 <1>   0.1900 
  5 C        1.7140    -1.6430    -1.0360 C.3   1 <1>  -0.0800 
  6 N        0.2200    -3.6950    -0.6890 N.3   1 <1>  -0.8100 
  7 C        1.7710    -3.6470     1.2840 C.3   1 <1>   0.3430 
  8 C        0.6230    -2.5870    -1.5850 C.3   1 <1>   0.1100 
  9 C        2.9710    -2.3150    -0.4420 C.3   1 <1>   0.3430 
 10 C       -1.0960    -4.2280    -1.1000 C.3   1 <1>   0.2530 
 11 N        2.7220    -3.6720     0.1280 N.4   1 <1>  -0.9590 
 12 C       -1.3420    -5.6120    -0.4980 C.ar  1 <1>  -0.1440 
 13 C        3.9760    -4.4130     0.4350 C.3   1 <1>   0.2630 
 14 C       -2.2290    -5.8160     0.5630 C.ar  1 <1>   0.0730 
 15 C       -0.6620    -6.6910    -1.0430 C.ar  1 <1>  -0.1500 
 16 C       -2.9300    -4.7250     1.1810 C.1   1 <1>   0.4840 
 17 C       -2.4140    -7.1080     1.0440 C.ar  1 <1>  -0.1500 
 18 C       -0.8550    -7.9690    -0.5510 C.ar  1 <1>  -0.1500 
 19 N       -3.3960    -3.8010     1.6590 N.1   1 <1>  -0.5570 
 20 C       -1.7340    -8.1780     0.4940 C.ar  1 <1>  -0.1500 
 21 H       -0.4930    -2.0760     2.2520 H     1 <1>   0.0800 
 22 H       -1.0280    -1.7050     0.6370 H     1 <1>   0.0800 
 23 H        0.2170    -0.1500    -0.5040 H     1 <1>   0.0800 
 24 H        1.8290     0.2230     0.0400 H     1 <1>   0.0800 
 25 H       -0.2780    -4.1370     1.3180 H     1 <1>   0.0800 
 26 H        2.0590    -1.0800    -1.8850 H     1 <1>   0.0800 
 27 H        1.8020    -4.5960     1.7920 H     1 <1>   0.0800 
 28 H        2.0500    -2.8850     1.9930 H     1 <1>   0.0800 
 29 H        0.9720    -3.0190    -2.5080 H     1 <1>   0.0800 
 30 H       -0.2430    -1.9910    -1.8280 H     1 <1>   0.0800 
 31 H        3.3910    -1.6730     0.3160 H     1 <1>   0.0800 
 32 H        3.6990    -2.4080    -1.2300 H     1 <1>   0.0800 
 33 H       -1.8740    -3.5310    -0.8380 H     1 <1>   0.0800 
 34 H       -1.1160    -4.3310    -2.1720 H     1 <1>   0.0800 
 35 H        2.1530    -4.1660    -0.5870 H     1 <1>   0.4500 
 36 H        4.5330    -3.9030     1.2040 H     1 <1>   0.0800 
 37 H        4.5900    -4.4880    -0.4470 H     1 <1>   0.0800 
 38 H        3.7450    -5.4090     0.7780 H     1 <1>   0.0800 
 39 H        0.0230    -6.5400    -1.8610 H     1 <1>   0.1500 
 40 H       -3.0970    -7.2830     1.8590 H     1 <1>   0.1500 
 41 H       -0.3250    -8.8010    -0.9840 H     1 <1>   0.1500 
 42 H       -1.8890    -9.1730     0.8760 H     1 <1>   0.1500 
@<TRIPOS>BOND
  1   1   2  1   
  2   1   3  1   
  3   2   4  1   
  4   2  21  1   
  5   2  22  1   
  6   3   5  1   
  7   3  23  1   
  8   3  24  1   
  9   4   6  1   
 10   4   7  1   
 11   4  25  1   
 12   5   8  1   
 13   5   9  1   
 14   5  26  1   
 15   6   8  1   
 16   6  10  1   
 17   7  11  1   
 18   7  27  1   
 19   7  28  1   
 20   8  29  1   
 21   8  30  1   
 22   9  11  1   
 23   9  31  1   
 24   9  32  1   
 25  10  12  1   
 26  10  33  1   
 27  10  34  1   
 28  11  13  1   
 29  11  35  1   
 30  12  14  ar  
 31  12  15  ar  
 32  13  36  1   
 33  13  37  1   
 34  13  38  1   
 35  14  16  1   
 36  14  17  ar  
 37  15  18  ar  
 38  15  39  1   
 39  16  19  3   
 40  17  20  ar  
 41  17  40  1   
 42  18  20  ar  
 43  18  41  1   
 44  20  42  1   
@<TRIPOS>SUBSTRUCTURE
  1 ****   6 GROUP 4 **** **** 0

# MOE 2024.06 (io_trps.svl 2023.06)
