@<TRIPOS>MOLECULE
NONAME
47 50 1 0 0 
SMALL
USER_CHARGES


@<TRIPOS>ATOM
  1 O        1.7580    -1.0080    -2.4350 O.2   1 <1>  -0.5700 
  2 C        2.2030    -1.1910    -1.3200 C.2   1 <1>   0.5440 
  3 N        3.0200    -0.2180    -0.7750 N.am  1 <1>  -0.6600 
  4 C        1.8530    -2.4130    -0.6230 C.ar  1 <1>   0.0860 
  5 C        3.5620    -0.2980     0.6380 C.3   1 <1>   0.2200 
  6 C        3.2850     1.0220    -1.5840 C.3   1 <1>   0.1400 
  7 C        0.5530    -2.6750    -0.2480 C.ar  1 <1>  -0.1500 
  8 C        2.8300    -3.3820    -0.3160 C.ar  1 <1>  -0.1500 
  9 C        3.1350     0.9090     1.4910 C.3   1 <1>   0.1200 
 10 C        5.0990    -0.4870     0.6530 C.3   1 <1>   0.3430 
 11 C        4.3690     1.9720    -1.0390 C.3   1 <1>  -0.0800 
 12 C        0.1880    -3.8470     0.4400 C.ar  1 <1>   0.0000 
 13 C        2.5010    -4.5300     0.3540 C.ar  1 <1>  -0.1500 
 14 O        4.0210     1.9760     1.3530 O.3   1 <1>  -0.5600 
 15 N        5.7320    -0.1340    -0.6640 N.4   1 <1>  -0.9590 
 16 C        3.8960     2.7410     0.2030 C.3   1 <1>   0.1200 
 17 C        5.7660     1.3480    -0.8470 C.3   1 <1>   0.3430 
 18 C        1.1830    -4.7970     0.7560 C.ar  1 <1>   0.3100 
 19 C       -1.1330    -4.1260     0.8320 C.ar  1 <1>  -0.1500 
 20 C        7.1600    -0.6640    -0.6840 C.3   1 <1>   0.2370 
 21 N        0.9200    -5.9460     1.4250 N.ar  1 <1>  -0.6200 
 22 C       -1.3750    -5.2890     1.4970 C.ar  1 <1>  -0.1500 
 23 C        8.0440    -0.1360     0.4490 C.2   1 <1>   0.9060 
 24 C       -0.3130    -6.1640     1.7690 C.ar  1 <1>   0.1600 
 25 O        7.9870    -0.7200     1.5350 O.co2 1 <1>  -0.9000 
 26 O        8.6540     0.9190     0.2600 O.co2 1 <1>  -0.9000 
 27 H        3.1350    -1.1510     1.1310 H     1 <1>   0.0800 
 28 H        3.5690     0.7210    -2.5790 H     1 <1>   0.0800 
 29 H        2.3580     1.5630    -1.6790 H     1 <1>   0.0800 
 30 H       -0.2180    -1.9650    -0.4930 H     1 <1>   0.1500 
 31 H        3.8450    -3.2090    -0.6280 H     1 <1>   0.1500 
 32 H        3.1650     0.6290     2.5300 H     1 <1>   0.0800 
 33 H        2.1330     1.2280     1.2580 H     1 <1>   0.0800 
 34 H        5.3140    -1.5170     0.8820 H     1 <1>   0.0800 
 35 H        5.5360     0.1030     1.4440 H     1 <1>   0.0800 
 36 H        4.4910     2.7300    -1.7920 H     1 <1>   0.0800 
 37 H        3.2440    -5.2710     0.5900 H     1 <1>   0.1500 
 38 H        5.1530    -0.5480    -1.4050 H     1 <1>   0.4500 
 39 H        2.8750     3.0700     0.1070 H     1 <1>   0.0800 
 40 H        4.5160     3.6100     0.3460 H     1 <1>   0.0800 
 41 H        6.2560     1.8070     0.0000 H     1 <1>   0.0800 
 42 H        6.3630     1.5720    -1.7150 H     1 <1>   0.0800 
 43 H       -1.9190    -3.4280     0.6030 H     1 <1>   0.1500 
 44 H        7.1520    -1.7350    -0.6030 H     1 <1>   0.0800 
 45 H        7.6370    -0.3960    -1.6090 H     1 <1>   0.0800 
 46 H       -2.3650    -5.5560     1.8210 H     1 <1>   0.1500 
 47 H       -0.5370    -7.0760     2.2970 H     1 <1>   0.1500 
@<TRIPOS>BOND
  1   1   2  2   
  2   2   3  am  
  3   2   4  1   
  4   3   5  1   
  5   3   6  1   
  6   4   7  ar  
  7   4   8  ar  
  8   5   9  1   
  9   5  10  1   
 10   5  27  1   
 11   6  11  1   
 12   6  28  1   
 13   6  29  1   
 14   7  12  ar  
 15   7  30  1   
 16   8  13  ar  
 17   8  31  1   
 18   9  14  1   
 19   9  32  1   
 20   9  33  1   
 21  10  15  1   
 22  10  34  1   
 23  10  35  1   
 24  11  16  1   
 25  11  17  1   
 26  11  36  1   
 27  12  18  ar  
 28  12  19  ar  
 29  13  18  ar  
 30  13  37  1   
 31  14  16  1   
 32  15  17  1   
 33  15  20  1   
 34  15  38  1   
 35  16  39  1   
 36  16  40  1   
 37  17  41  1   
 38  17  42  1   
 39  18  21  ar  
 40  19  22  ar  
 41  19  43  1   
 42  20  23  1   
 43  20  44  1   
 44  20  45  1   
 45  21  24  ar  
 46  22  24  ar  
 47  22  46  1   
 48  23  25  ar  
 49  23  26  ar  
 50  24  47  1   
@<TRIPOS>SUBSTRUCTURE
  1 ****   5 GROUP 4 **** **** 0

# MOE 2024.06 (io_trps.svl 2023.06)
