@<TRIPOS>MOLECULE
NONAME
50 51 1 0 0 
SMALL
USER_CHARGES


@<TRIPOS>ATOM
  1 S        0.8580     0.9560     0.6840 S.o2  1 <1>   1.3330 
  2 O        0.4550     1.1910    -0.6840 O.2   1 <1>  -0.6500 
  3 O       -0.0710     0.2940     1.5720 O.2   1 <1>  -0.6500 
  4 N        2.3340     0.1050     0.6840 N.am  1 <1>  -0.8490 
  5 C        1.2680     2.5030     1.4720 C.3   1 <1>  -0.1350 
  6 C        3.1040     0.1950    -0.5860 C.3   1 <1>   0.2760 
  7 C        2.0890    -1.2870     1.1070 C.3   1 <1>   0.1960 
  8 C        4.3830    -0.6730    -0.5190 C.3   1 <1>  -0.1600 
  9 C        3.5130     1.6560    -0.8850 C.3   1 <1>  -0.1600 
 10 C        3.3770    -2.0930     1.2400 C.3   1 <1>  -0.1600 
 11 C        4.1240    -2.1140    -0.0860 C.3   1 <1>  -0.1600 
 12 C        4.3460     1.8330    -2.1570 C.3   1 <1>   0.2090 
 13 N        4.5510     3.2760    -2.3870 N.pl3 1 <1>  -0.8690 
 14 C        5.4580     3.9980    -1.6780 C.ar  1 <1>   0.4100 
 15 N        4.9540     5.0680    -1.0910 N.ar  1 <1>  -0.6200 
 16 C        6.7970     3.6310    -1.5840 C.ar  1 <1>  -0.1500 
 17 C        5.8050     5.7900    -0.3810 C.ar  1 <1>   0.1600 
 18 C        7.6650     4.3920    -0.8390 C.ar  1 <1>  -0.1500 
 19 C        7.1620     5.5210    -0.1940 C.ar  1 <1>   0.0860 
 20 C        7.9760     6.3880     0.6290 C.2   1 <1>   0.5440 
 21 O        7.6100     7.5190     0.8850 O.2   1 <1>  -0.5700 
 22 N        9.1620     5.9530     1.1560 N.am  1 <1>  -0.7300 
 23 C       10.0760     6.7690     1.9790 C.3   1 <1>   0.1400 
 24 C       11.5110     6.3910     1.6330 C.3   1 <1>  -0.2400 
 25 H        0.3860     3.1050     1.5680 H     1 <1>   0.0800 
 26 H        1.9920     3.0530     0.9080 H     1 <1>   0.0800 
 27 H        1.6630     2.3190     2.4510 H     1 <1>   0.0800 
 28 H        2.4860    -0.1720    -1.3900 H     1 <1>   0.0800 
 29 H        1.4290    -1.7660     0.4010 H     1 <1>   0.0800 
 30 H        1.6080    -1.2950     2.0710 H     1 <1>   0.0800 
 31 H        5.0760    -0.2210     0.1690 H     1 <1>   0.0800 
 32 H        4.8530    -0.7110    -1.4830 H     1 <1>   0.0800 
 33 H        4.0700     2.0410    -0.0500 H     1 <1>   0.0800 
 34 H        2.6400     2.2590    -1.0290 H     1 <1>   0.0800 
 35 H        3.1370    -3.0990     1.5370 H     1 <1>   0.0800 
 36 H        3.9890    -1.6570     2.0100 H     1 <1>   0.0800 
 37 H        5.0560    -2.6420     0.0240 H     1 <1>   0.0800 
 38 H        3.5330    -2.6200    -0.8310 H     1 <1>   0.0800 
 39 H        3.8270     1.4140    -3.0020 H     1 <1>   0.0800 
 40 H        5.3020     1.3500    -2.0640 H     1 <1>   0.0800 
 41 H        3.6710     3.7930    -2.4670 H     1 <1>   0.4000 
 42 H        7.1370     2.7600    -2.1100 H     1 <1>   0.1500 
 43 H        5.4040     6.6690     0.0970 H     1 <1>   0.1500 
 44 H        8.7040     4.1280    -0.7680 H     1 <1>   0.1500 
 45 H        9.4160     4.9690     1.0720 H     1 <1>   0.3700 
 46 H        9.8790     6.5820     3.0220 H     1 <1>   0.0800 
 47 H        9.9120     7.8160     1.7820 H     1 <1>   0.0800 
 48 H       11.6930     5.3550     1.8540 H     1 <1>   0.0800 
 49 H       12.1890     6.9870     2.2160 H     1 <1>   0.0800 
 50 H       11.7030     6.5800     0.5920 H     1 <1>   0.0800 
@<TRIPOS>BOND
  1   1   2  2   
  2   1   3  2   
  3   1   4  am  
  4   1   5  1   
  5   4   6  1   
  6   4   7  1   
  7   5  25  1   
  8   5  26  1   
  9   5  27  1   
 10   6   8  1   
 11   6   9  1   
 12   6  28  1   
 13   7  10  1   
 14   7  29  1   
 15   7  30  1   
 16   8  11  1   
 17   8  31  1   
 18   8  32  1   
 19   9  12  1   
 20   9  33  1   
 21   9  34  1   
 22  10  11  1   
 23  10  35  1   
 24  10  36  1   
 25  11  37  1   
 26  11  38  1   
 27  12  13  1   
 28  12  39  1   
 29  12  40  1   
 30  13  14  1   
 31  13  41  1   
 32  14  15  ar  
 33  14  16  ar  
 34  15  17  ar  
 35  16  18  ar  
 36  16  42  1   
 37  17  19  ar  
 38  17  43  1   
 39  18  19  ar  
 40  18  44  1   
 41  19  20  1   
 42  20  21  2   
 43  20  22  am  
 44  22  23  1   
 45  22  45  1   
 46  23  24  1   
 47  23  46  1   
 48  23  47  1   
 49  24  48  1   
 50  24  49  1   
 51  24  50  1   
@<TRIPOS>SUBSTRUCTURE
  1 ****   9 GROUP 4 **** **** 0

# MOE 2024.06 (io_trps.svl 2023.06)
