@<TRIPOS>MOLECULE
NONAME
52 54 1 0 0 
SMALL
USER_CHARGES


@<TRIPOS>ATOM
  1 O       -2.5540     2.2750    -1.9330 O.2   1 <1>  -0.5700 
  2 C       -2.4160     2.4680    -0.7390 C.2   1 <1>   0.5440 
  3 N       -3.3600     1.9580     0.1340 N.am  1 <1>  -0.6600 
  4 C       -1.2630     3.2170    -0.2670 C.ar  1 <1>   0.0860 
  5 C       -4.6980     1.5450    -0.3920 C.3   1 <1>   0.2200 
  6 C       -2.9350     1.4220     1.4630 C.3   1 <1>   0.0600 
  7 C       -1.3680     4.1560     0.7590 C.ar  1 <1>  -0.1500 
  8 C       -0.0040     3.0270    -0.8330 C.ar  1 <1>  -0.1500 
  9 C       -5.4330     2.7260    -1.0290 C.3   1 <1>  -0.1600 
 10 C       -5.6920     1.0580     0.6680 C.3   1 <1>  -0.1600 
 11 C       -0.2670     4.8610     1.2090 C.ar  1 <1>  -0.1500 
 12 C        1.1020     3.7280    -0.3870 C.ar  1 <1>  -0.1500 
 13 C       -6.9080     2.3110    -1.0500 C.3   1 <1>  -0.0800 
 14 C       -7.0690     1.2220     0.0120 C.3   1 <1>  -0.0800 
 15 C        0.9790     4.6510     0.6390 C.ar  1 <1>  -0.1430 
 16 C       -7.9060     3.4140    -0.6740 C.3   1 <1>  -0.1600 
 17 C       -8.1910     1.7050     0.9440 C.3   1 <1>  -0.1600 
 18 C        2.1950     5.4210     1.1230 C.3   1 <1>   0.2630 
 19 C       -9.0090     2.7030     0.1160 C.3   1 <1>   0.4230 
 20 O        3.0020     4.5390     1.8110 O.3   1 <1>  -0.6800 
 21 N       -9.9440     1.9820    -0.8090 N.4   1 <1>  -0.9590 
 22 C      -10.6560     2.9060    -1.7490 C.3   1 <1>   0.2630 
 23 C      -10.9670     1.1670    -0.0780 C.3   1 <1>   0.2630 
 24 H       -4.5620     0.7730    -1.1330 H     1 <1>   0.0800 
 25 H       -3.1880     0.3780     1.5380 H     1 <1>   0.0800 
 26 H       -3.4230     1.9670     2.2520 H     1 <1>   0.0800 
 27 H       -1.8700     1.5110     1.5920 H     1 <1>   0.0800 
 28 H       -2.3310     4.3350     1.2030 H     1 <1>   0.1500 
 29 H        0.1010     2.3160    -1.6350 H     1 <1>   0.1500 
 30 H       -5.2840     3.5990    -0.4180 H     1 <1>   0.0800 
 31 H       -5.0710     2.9240    -2.0230 H     1 <1>   0.0800 
 32 H       -5.5080     0.0340     0.9420 H     1 <1>   0.0800 
 33 H       -5.6230     1.6880     1.5360 H     1 <1>   0.0800 
 34 H       -0.3850     5.5770     2.0050 H     1 <1>   0.1500 
 35 H        2.0630     3.5540    -0.8400 H     1 <1>   0.1500 
 36 H       -7.1490     1.8980    -2.0160 H     1 <1>   0.0800 
 37 H       -7.3490     0.3000    -0.4720 H     1 <1>   0.0800 
 38 H       -8.2410     3.9730    -1.5270 H     1 <1>   0.0800 
 39 H       -7.4320     4.1100    -0.0040 H     1 <1>   0.0800 
 40 H       -7.7640     2.2530     1.7670 H     1 <1>   0.0800 
 41 H       -8.7530     0.8930     1.3630 H     1 <1>   0.0800 
 42 H        1.9160     6.2160     1.7930 H     1 <1>   0.0800 
 43 H        2.7590     5.8260     0.3010 H     1 <1>   0.0800 
 44 H       -9.5530     3.3900     0.7450 H     1 <1>   0.0800 
 45 H        2.4360     3.8990     2.2830 H     1 <1>   0.4000 
 46 H       -9.3540     1.3460    -1.3640 H     1 <1>   0.4500 
 47 H      -11.2060     3.6520    -1.1970 H     1 <1>   0.0800 
 48 H      -11.3480     2.3520    -2.3630 H     1 <1>   0.0800 
 49 H       -9.9570     3.4030    -2.4000 H     1 <1>   0.0800 
 50 H      -11.5400     1.7930     0.5860 H     1 <1>   0.0800 
 51 H      -10.4950     0.3900     0.5000 H     1 <1>   0.0800 
 52 H      -11.6400     0.7000    -0.7780 H     1 <1>   0.0800 
@<TRIPOS>BOND
  1   1   2  2   
  2   2   3  am  
  3   2   4  1   
  4   3   5  1   
  5   3   6  1   
  6   4   7  ar  
  7   4   8  ar  
  8   5   9  1   
  9   5  10  1   
 10   5  24  1   
 11   6  25  1   
 12   6  26  1   
 13   6  27  1   
 14   7  11  ar  
 15   7  28  1   
 16   8  12  ar  
 17   8  29  1   
 18   9  13  1   
 19   9  30  1   
 20   9  31  1   
 21  10  14  1   
 22  10  32  1   
 23  10  33  1   
 24  11  15  ar  
 25  11  34  1   
 26  12  15  ar  
 27  12  35  1   
 28  13  14  1   
 29  13  16  1   
 30  13  36  1   
 31  14  17  1   
 32  14  37  1   
 33  15  18  1   
 34  16  19  1   
 35  16  38  1   
 36  16  39  1   
 37  17  19  1   
 38  17  40  1   
 39  17  41  1   
 40  18  20  1   
 41  18  42  1   
 42  18  43  1   
 43  19  21  1   
 44  19  44  1   
 45  20  45  1   
 46  21  22  1   
 47  21  23  1   
 48  21  46  1   
 49  22  47  1   
 50  22  48  1   
 51  22  49  1   
 52  23  50  1   
 53  23  51  1   
 54  23  52  1   
@<TRIPOS>SUBSTRUCTURE
  1 ****   3 GROUP 4 **** **** 0

# MOE 2024.06 (io_trps.svl 2023.06)
