@<TRIPOS>MOLECULE
NONAME
50 52 1 0 0 
SMALL
USER_CHARGES


@<TRIPOS>ATOM
  1 O       -0.5510    -0.3420     2.3020 O.2   1 <1>  -0.5700 
  2 C       -1.0660     0.5210     1.6300 C.2   1 <1>   0.5690 
  3 N       -1.9920     0.1910     0.6670 N.am  1 <1>  -0.6600 
  4 C       -0.6480     1.9630     1.9000 C.3   1 <1>   0.0440 
  5 C       -2.1900    -1.2280     0.2610 C.3   1 <1>   0.1400 
  6 C       -2.8400     1.1670    -0.0750 C.3   1 <1>   0.1400 
  7 C       -0.1020     2.6690     0.6620 C.ar  1 <1>  -0.1440 
  8 C       -3.6710    -1.6300     0.4290 C.3   1 <1>   0.4230 
  9 C       -4.3130     0.7800     0.1060 C.3   1 <1>  -0.1600 
 10 C        0.8680     2.0530    -0.1180 C.ar  1 <1>  -0.1500 
 11 C       -0.5710     3.9260     0.3010 C.ar  1 <1>  -0.1500 
 12 N       -3.9370    -3.1100     0.1770 N.4   1 <1>  -0.9590 
 13 C       -4.6340    -0.6760    -0.3380 C.3   1 <1>   0.0000 
 14 C        1.3500     2.6760    -1.2550 C.ar  1 <1>  -0.1500 
 15 C       -0.0910     4.5530    -0.8360 C.ar  1 <1>  -0.1500 
 16 C       -5.3770    -3.4400    -0.0780 C.3   1 <1>   0.3430 
 17 C       -3.0750    -3.7530    -0.8700 C.3   1 <1>   0.2630 
 18 C       -6.1050    -1.0040     0.0590 C.3   1 <1>  -0.1600 
 19 C       -4.4370    -0.8270    -1.8730 C.3   1 <1>   0.1200 
 20 C        0.8660     3.9210    -1.6130 C.ar  1 <1>   0.0820 
 21 C       -6.2990    -2.4320     0.6050 C.3   1 <1>  -0.1600 
 22 O       -5.1310     0.1440    -2.5770 O.3   1 <1>  -0.6800 
 23 O        1.3360     4.5110    -2.7210 O.3   1 <1>  -0.5330 
 24 H       -1.4920     2.4940     2.2990 H     1 <1>   0.0800 
 25 H        0.1170     1.9640     2.6550 H     1 <1>   0.0800 
 26 H       -1.8730    -1.3290    -0.7610 H     1 <1>   0.0800 
 27 H       -1.5810    -1.8770     0.8650 H     1 <1>   0.0800 
 28 H       -2.6980     2.1660     0.2960 H     1 <1>   0.0800 
 29 H       -2.5670     1.1660    -1.1180 H     1 <1>   0.0800 
 30 H       -3.8840    -1.4620     1.4720 H     1 <1>   0.0800 
 31 H       -4.5510     0.9080     1.1480 H     1 <1>   0.0800 
 32 H       -4.9220     1.4840    -0.4350 H     1 <1>   0.0800 
 33 H        1.2530     1.0860     0.1550 H     1 <1>   0.1500 
 34 H       -1.3120     4.4240     0.9010 H     1 <1>   0.1500 
 35 H       -3.6980    -3.5660     1.0710 H     1 <1>   0.4500 
 36 H        2.0980     2.2050    -1.8660 H     1 <1>   0.1500 
 37 H       -0.4610     5.5240    -1.1100 H     1 <1>   0.1500 
 38 H       -5.5750    -3.4190    -1.1370 H     1 <1>   0.0800 
 39 H       -5.5950    -4.4350     0.2800 H     1 <1>   0.0800 
 40 H       -3.2380    -3.2920    -1.8300 H     1 <1>   0.0800 
 41 H       -3.3060    -4.8030    -0.9500 H     1 <1>   0.0800 
 42 H       -2.0320    -3.6570    -0.6140 H     1 <1>   0.0800 
 43 H       -6.4540    -0.3220     0.8170 H     1 <1>   0.0800 
 44 H       -6.7550    -0.8630    -0.7860 H     1 <1>   0.0800 
 45 H       -4.7790    -1.7830    -2.2250 H     1 <1>   0.0800 
 46 H       -3.4030    -0.7150    -2.1490 H     1 <1>   0.0800 
 47 H       -7.3230    -2.7290     0.4550 H     1 <1>   0.0800 
 48 H       -6.1190    -2.4520     1.6670 H     1 <1>   0.0800 
 49 H       -6.0980     0.0710    -2.4560 H     1 <1>   0.4000 
 50 H        0.9450     5.3870    -2.8840 H     1 <1>   0.4500 
@<TRIPOS>BOND
  1   1   2  2   
  2   2   3  am  
  3   2   4  1   
  4   3   5  1   
  5   3   6  1   
  6   4   7  1   
  7   4  24  1   
  8   4  25  1   
  9   5   8  1   
 10   5  26  1   
 11   5  27  1   
 12   6   9  1   
 13   6  28  1   
 14   6  29  1   
 15   7  10  ar  
 16   7  11  ar  
 17   8  12  1   
 18   8  13  1   
 19   8  30  1   
 20   9  13  1   
 21   9  31  1   
 22   9  32  1   
 23  10  14  ar  
 24  10  33  1   
 25  11  15  ar  
 26  11  34  1   
 27  12  16  1   
 28  12  17  1   
 29  12  35  1   
 30  13  18  1   
 31  13  19  1   
 32  14  20  ar  
 33  14  36  1   
 34  15  20  ar  
 35  15  37  1   
 36  16  21  1   
 37  16  38  1   
 38  16  39  1   
 39  17  40  1   
 40  17  41  1   
 41  17  42  1   
 42  18  21  1   
 43  18  43  1   
 44  18  44  1   
 45  19  22  1   
 46  19  45  1   
 47  19  46  1   
 48  20  23  1   
 49  21  47  1   
 50  21  48  1   
 51  22  49  1   
 52  23  50  1   
@<TRIPOS>SUBSTRUCTURE
  1 ****   6 GROUP 4 **** **** 0

# MOE 2024.06 (io_trps.svl 2023.06)
