@<TRIPOS>MOLECULE
NONAME
45 48 1 0 0 
SMALL
USER_CHARGES


@<TRIPOS>ATOM
  1 O       -0.3450     0.4560     0.2480 O.2   1 <1>  -0.5700 
  2 C       -0.2270     1.6470     0.3910 C.2   1 <1>   0.5690 
  3 N       -1.2920     2.4090     0.7200 N.am  1 <1>  -0.7300 
  4 C        1.1320     2.3160     0.1620 C.3   1 <1>   0.1810 
  5 C       -1.2170     3.8750     0.9300 C.3   1 <1>   0.3640 
  6 O        1.2150     3.6200     0.6990 O.3   1 <1>  -0.5600 
  7 C       -2.4060     4.5420     0.2400 C.ar  1 <1>  -0.1440 
  8 C        0.1130     4.4620     0.3930 C.3   1 <1>   0.2610 
  9 C       -2.8310     4.1450    -1.0220 C.ar  1 <1>  -0.1500 
 10 C       -3.0700     5.5810     0.8760 C.ar  1 <1>  -0.1500 
 11 C        0.3360     5.8890     0.9190 C.2   1 <1>   0.5690 
 12 C       -3.9000     4.7750    -1.6340 C.ar  1 <1>  -0.1500 
 13 C       -4.1380     6.2130     0.2640 C.ar  1 <1>  -0.1500 
 14 O       -0.0880     6.1700     2.0220 O.2   1 <1>  -0.5700 
 15 N        0.9830     6.8130     0.1290 N.am  1 <1>  -0.5090 
 16 C       -4.5550     5.8100    -0.9910 C.ar  1 <1>  -0.1500 
 17 C        0.9930     8.2580     0.4530 C.3   1 <1>   0.0540 
 18 C        1.9690     6.4160    -0.9250 C.3   1 <1>   0.1400 
 19 C        2.3510     8.6960     1.0240 C.3   1 <1>  -0.0650 
 20 C        0.3020     9.1350    -0.5450 C.3   1 <1>  -0.2000 
 21 C       -0.2720     8.9620     0.8280 C.3   1 <1>  -0.2000 
 22 C        3.1550     7.3970    -1.0130 C.3   1 <1>  -0.1600 
 23 C        3.5340     7.9540     0.3690 C.3   1 <1>  -0.1600 
 24 H       -2.1950     1.9620     0.8800 H     1 <1>   0.3700 
 25 H        1.3260     2.3730    -0.8930 H     1 <1>   0.0800 
 26 H        1.9010     1.7240     0.6240 H     1 <1>   0.0800 
 27 H       -1.2790     4.0540     1.9910 H     1 <1>   0.0800 
 28 H        0.0410     4.5160    -0.6770 H     1 <1>   0.0800 
 29 H       -2.3350     3.3410    -1.5390 H     1 <1>   0.1500 
 30 H       -2.7540     5.9130     1.8520 H     1 <1>   0.1500 
 31 H       -4.2240     4.4600    -2.6110 H     1 <1>   0.1500 
 32 H       -4.6440     7.0190     0.7670 H     1 <1>   0.1500 
 33 H       -5.3860     6.3010    -1.4660 H     1 <1>   0.1500 
 34 H        2.3600     5.4420    -0.6890 H     1 <1>   0.0800 
 35 H        1.4710     6.3630    -1.8770 H     1 <1>   0.0800 
 36 H        2.4660     9.7570     0.8870 H     1 <1>   0.0800 
 37 H        2.3560     8.5090     2.0830 H     1 <1>   0.0800 
 38 H        0.7180    10.0950    -0.7940 H     1 <1>   0.1000 
 39 H       -0.2170     8.6810    -1.3700 H     1 <1>   0.1000 
 40 H       -1.1700     8.3810     0.9490 H     1 <1>   0.1000 
 41 H       -0.2190     9.7850     1.5170 H     1 <1>   0.1000 
 42 H        3.9980     6.8950    -1.4530 H     1 <1>   0.0800 
 43 H        2.8910     8.2110    -1.6650 H     1 <1>   0.0800 
 44 H        4.3800     8.6140     0.2890 H     1 <1>   0.0800 
 45 H        3.8170     7.1310     1.0030 H     1 <1>   0.0800 
@<TRIPOS>BOND
  1   1   2  2   
  2   2   3  am  
  3   2   4  1   
  4   3   5  1   
  5   3  24  1   
  6   4   6  1   
  7   4  25  1   
  8   4  26  1   
  9   5   7  1   
 10   5   8  1   
 11   5  27  1   
 12   6   8  1   
 13   7   9  ar  
 14   7  10  ar  
 15   8  11  1   
 16   8  28  1   
 17   9  12  ar  
 18   9  29  1   
 19  10  13  ar  
 20  10  30  1   
 21  11  14  2   
 22  11  15  am  
 23  12  16  ar  
 24  12  31  1   
 25  13  16  ar  
 26  13  32  1   
 27  15  17  1   
 28  15  18  1   
 29  16  33  1   
 30  17  19  1   
 31  17  20  1   
 32  17  21  1   
 33  18  22  1   
 34  18  34  1   
 35  18  35  1   
 36  19  23  1   
 37  19  36  1   
 38  19  37  1   
 39  20  21  1   
 40  20  38  1   
 41  20  39  1   
 42  21  40  1   
 43  21  41  1   
 44  22  23  1   
 45  22  42  1   
 46  22  43  1   
 47  23  44  1   
 48  23  45  1   
@<TRIPOS>SUBSTRUCTURE
  1 ****  11 GROUP 4 **** **** 0

# MOE 2024.06 (io_trps.svl 2023.06)
