@<TRIPOS>MOLECULE
NONAME
51 54 1 0 0 
SMALL
USER_CHARGES


@<TRIPOS>ATOM
  1 S       -0.0350    -1.7060     2.8760 S.3   1 <1>  -0.0800 
  2 C        0.0150    -3.1060     1.8210 C.2   1 <1>  -0.1100 
  3 C       -1.1560    -0.8880     1.8040 C.2   1 <1>  -0.1100 
  4 C       -0.7780    -2.9280     0.7470 C.2   1 <1>  -0.1810 
  5 C       -1.4440    -1.6580     0.7390 C.2   1 <1>  -0.1500 
  6 C       -0.9850    -3.9330    -0.3730 C.3   1 <1>   0.0210 
  7 C       -2.4000    -4.5250    -0.3160 C.3   1 <1>  -0.0990 
  8 C       -2.6750    -5.5680    -1.3890 C.2   1 <1>   0.5690 
  9 O       -1.8170    -5.7790    -2.2150 O.2   1 <1>  -0.5700 
 10 N       -3.8710    -6.2420    -1.4010 N.am  1 <1>  -0.6600 
 11 C       -4.1390    -7.3280    -2.3860 C.3   1 <1>   0.1400 
 12 C       -4.9990    -6.0280    -0.4520 C.3   1 <1>   0.1400 
 13 C       -4.3830    -8.6410    -1.6380 C.3   1 <1>  -0.1600 
 14 C       -5.2430    -7.3160     0.3370 C.3   1 <1>  -0.1600 
 15 C       -5.5080    -8.5180    -0.5940 C.3   1 <1>   0.4240 
 16 O       -6.6440    -8.1870    -1.3640 O.3   1 <1>  -0.5600 
 17 C       -5.7100    -9.8480     0.1890 C.ar  1 <1>  -0.1430 
 18 C       -7.8980    -8.4380    -0.8190 C.3   1 <1>   0.1200 
 19 C       -4.7000   -10.4090     0.9810 C.ar  1 <1>   0.0830 
 20 C       -6.9310   -10.5180     0.1130 C.ar  1 <1>  -0.1430 
 21 C       -8.0690    -9.9450    -0.7060 C.3   1 <1>  -0.0170 
 22 O       -3.5090    -9.7630     1.0880 O.3   1 <1>  -0.3620 
 23 C       -4.9200   -11.6100     1.6540 C.ar  1 <1>  -0.1500 
 24 C       -7.1380   -11.7130     0.7830 C.ar  1 <1>  -0.1500 
 25 C       -2.3790   -10.3390     1.7050 C.3   1 <1>   0.0400 
 26 C       -6.1330   -12.2600     1.5520 C.ar  1 <1>  -0.1500 
 27 H        0.6410    -3.9270     2.1210 H     1 <1>   0.1500 
 28 H       -1.4840     0.0960     2.0880 H     1 <1>   0.1500 
 29 H       -2.1030    -1.3820    -0.0650 H     1 <1>   0.1500 
 30 H       -0.2630    -4.7270    -0.2810 H     1 <1>   0.0800 
 31 H       -0.8230    -3.4510    -1.3220 H     1 <1>   0.0800 
 32 H       -3.1160    -3.7330    -0.4250 H     1 <1>   0.0800 
 33 H       -2.5380    -4.9820     0.6460 H     1 <1>   0.0800 
 34 H       -3.3090    -7.4470    -3.0610 H     1 <1>   0.0800 
 35 H       -5.0050    -7.0680    -2.9710 H     1 <1>   0.0800 
 36 H       -5.8820    -5.7700    -1.0130 H     1 <1>   0.0800 
 37 H       -4.7970    -5.2220     0.2290 H     1 <1>   0.0800 
 38 H       -3.4590    -8.9240    -1.1760 H     1 <1>   0.0800 
 39 H       -4.6390    -9.4160    -2.3370 H     1 <1>   0.0800 
 40 H       -6.0660    -7.1870     1.0120 H     1 <1>   0.0800 
 41 H       -4.3740    -7.4970     0.9380 H     1 <1>   0.0800 
 42 H       -8.6360    -8.0220    -1.4810 H     1 <1>   0.0800 
 43 H       -7.9730    -7.9630     0.1430 H     1 <1>   0.0800 
 44 H       -8.0680   -10.3820    -1.6890 H     1 <1>   0.0800 
 45 H       -9.0130   -10.1580    -0.2380 H     1 <1>   0.0800 
 46 H       -4.1620   -12.0580     2.2660 H     1 <1>   0.1500 
 47 H       -8.0830   -12.2220     0.7080 H     1 <1>   0.1500 
 48 H       -1.5510    -9.6650     1.5790 H     1 <1>   0.0800 
 49 H       -2.1620   -11.2780     1.2270 H     1 <1>   0.0800 
 50 H       -2.5840   -10.4740     2.7520 H     1 <1>   0.0800 
 51 H       -6.2960   -13.1880     2.0720 H     1 <1>   0.1500 
@<TRIPOS>BOND
  1   1   2  1   
  2   1   3  1   
  3   2   4  2   
  4   2  27  1   
  5   3   5  2   
  6   3  28  1   
  7   4   5  1   
  8   4   6  1   
  9   5  29  1   
 10   6   7  1   
 11   6  30  1   
 12   6  31  1   
 13   7   8  1   
 14   7  32  1   
 15   7  33  1   
 16   8   9  2   
 17   8  10  am  
 18  10  11  1   
 19  10  12  1   
 20  11  13  1   
 21  11  34  1   
 22  11  35  1   
 23  12  14  1   
 24  12  36  1   
 25  12  37  1   
 26  13  15  1   
 27  13  38  1   
 28  13  39  1   
 29  14  15  1   
 30  14  40  1   
 31  14  41  1   
 32  15  16  1   
 33  15  17  1   
 34  16  18  1   
 35  17  19  ar  
 36  17  20  ar  
 37  18  21  1   
 38  18  42  1   
 39  18  43  1   
 40  19  22  1   
 41  19  23  ar  
 42  20  21  1   
 43  20  24  ar  
 44  21  44  1   
 45  21  45  1   
 46  22  25  1   
 47  23  26  ar  
 48  23  46  1   
 49  24  26  ar  
 50  24  47  1   
 51  25  48  1   
 52  25  49  1   
 53  25  50  1   
 54  26  51  1   
@<TRIPOS>SUBSTRUCTURE
  1 ****  14 GROUP 4 **** **** 0

# MOE 2024.06 (io_trps.svl 2023.06)
