@<TRIPOS>MOLECULE
NONAME
54 57 1 0 0 
SMALL
USER_CHARGES


@<TRIPOS>ATOM
  1 O        2.1840     1.9170     0.9020 O.3   1 <1>  -0.0190 
  2 N        2.8440     0.8010     0.8510 N.2   1 <1>  -0.4100 
  3 C        1.0900     1.8720     0.1890 C.2   1 <1>  -0.0400 
  4 C        2.1550     0.0130     0.1060 C.2   1 <1>   0.1080 
  5 C        1.0050     0.6490    -0.3550 C.2   1 <1>  -0.1500 
  6 C        0.1940     3.0930     0.1030 C.3   1 <1>   0.0200 
  7 C        2.5490    -1.4110    -0.2200 C.3   1 <1>  -0.0590 
  8 C        0.8990     4.2400    -0.6470 C.3   1 <1>  -0.0800 
  9 C        0.0850     5.5250    -0.7910 C.3   1 <1>   0.2000 
 10 C        2.2050     4.6900     0.0230 C.3   1 <1>   0.3430 
 11 O       -0.5090     5.8350     0.4390 O.3   1 <1>  -0.5600 
 12 C        1.1740     6.5650    -1.0580 C.3   1 <1>   0.3430 
 13 N        2.3300     6.1640    -0.1920 N.4   1 <1>  -0.9590 
 14 C       -1.9060     5.8380     0.4410 C.3   1 <1>   0.0400 
 15 C        2.2930     6.8770     1.1170 C.3   1 <1>   0.4860 
 16 C        2.4740     8.3630     0.8770 C.ar  1 <1>  -0.1440 
 17 C        3.7000     8.8970     0.5750 C.ar  1 <1>  -0.1500 
 18 C        1.3580     9.2080     0.9660 C.ar  1 <1>  -0.1500 
 19 C        3.8650    10.2750     0.3340 C.ar  1 <1>   0.0000 
 20 C        1.4900    10.5490     0.7380 C.ar  1 <1>  -0.1500 
 21 C        2.7370    11.1180     0.4120 C.ar  1 <1>   0.0000 
 22 C        5.1150    10.8470     0.0150 C.ar  1 <1>  -0.1500 
 23 C        2.9010    12.4940     0.1650 C.ar  1 <1>  -0.1500 
 24 C        5.2470    12.1880    -0.2200 C.ar  1 <1>  -0.1500 
 25 C        4.1210    13.0300    -0.1460 C.ar  1 <1>   0.0820 
 26 O        4.1790    14.3660    -0.3680 O.3   1 <1>  -0.3620 
 27 C        5.3920    15.0170    -0.6750 C.3   1 <1>   0.0400 
 28 H        0.2560     0.2220    -0.9960 H     1 <1>   0.1500 
 29 H       -0.7110     2.8270    -0.4130 H     1 <1>   0.0800 
 30 H       -0.0700     3.3940     1.1030 H     1 <1>   0.0800 
 31 H        1.7860    -2.0870     0.1200 H     1 <1>   0.0800 
 32 H        3.4740    -1.6590     0.2700 H     1 <1>   0.0800 
 33 H        2.6760    -1.5230    -1.2800 H     1 <1>   0.0800 
 34 H        1.1500     3.8880    -1.6330 H     1 <1>   0.0800 
 35 H       -0.6520     5.4880    -1.5770 H     1 <1>   0.0800 
 36 H        3.0440     4.1590    -0.3970 H     1 <1>   0.0800 
 37 H        2.1570     4.4730     1.0780 H     1 <1>   0.0800 
 38 H        0.8230     7.5620    -0.8500 H     1 <1>   0.0800 
 39 H        1.4660     6.5060    -2.0930 H     1 <1>   0.0800 
 40 H        3.2130     6.4100    -0.6550 H     1 <1>   0.4500 
 41 H       -2.2420     6.0620     1.4390 H     1 <1>   0.0800 
 42 H       -2.2700     4.8680     0.1490 H     1 <1>   0.0800 
 43 H       -2.2640     6.5960    -0.2360 H     1 <1>   0.0800 
 44 H        1.3530     6.6970     1.6140 H     1 <1>   0.0800 
 45 H        3.0870     6.5210     1.7530 H     1 <1>   0.0800 
 46 H        4.5780     8.2780     0.5150 H     1 <1>   0.1500 
 47 H        0.3930     8.7990     1.2190 H     1 <1>   0.1500 
 48 H        0.6380    11.2030     0.8060 H     1 <1>   0.1500 
 49 H        5.9760    10.2060    -0.0400 H     1 <1>   0.1500 
 50 H        2.0440    13.1390     0.2240 H     1 <1>   0.1500 
 51 H        6.2120    12.5900    -0.4600 H     1 <1>   0.1500 
 52 H        5.1850    16.0650    -0.7990 H     1 <1>   0.0800 
 53 H        5.7830    14.6120    -1.5910 H     1 <1>   0.0800 
 54 H        6.0810    14.8740     0.1380 H     1 <1>   0.0800 
@<TRIPOS>BOND
  1   1   2  1   
  2   1   3  1   
  3   2   4  2   
  4   3   5  2   
  5   3   6  1   
  6   4   5  1   
  7   4   7  1   
  8   5  28  1   
  9   6   8  1   
 10   6  29  1   
 11   6  30  1   
 12   7  31  1   
 13   7  32  1   
 14   7  33  1   
 15   8   9  1   
 16   8  10  1   
 17   8  34  1   
 18   9  11  1   
 19   9  12  1   
 20   9  35  1   
 21  10  13  1   
 22  10  36  1   
 23  10  37  1   
 24  11  14  1   
 25  12  13  1   
 26  12  38  1   
 27  12  39  1   
 28  13  15  1   
 29  13  40  1   
 30  14  41  1   
 31  14  42  1   
 32  14  43  1   
 33  15  16  1   
 34  15  44  1   
 35  15  45  1   
 36  16  17  ar  
 37  16  18  ar  
 38  17  19  ar  
 39  17  46  1   
 40  18  20  ar  
 41  18  47  1   
 42  19  21  ar  
 43  19  22  ar  
 44  20  21  ar  
 45  20  48  1   
 46  21  23  ar  
 47  22  24  ar  
 48  22  49  1   
 49  23  25  ar  
 50  23  50  1   
 51  24  25  ar  
 52  24  51  1   
 53  25  26  1   
 54  26  27  1   
 55  27  52  1   
 56  27  53  1   
 57  27  54  1   
@<TRIPOS>SUBSTRUCTURE
  1 ****  13 GROUP 4 **** **** 0

# MOE 2024.06 (io_trps.svl 2023.06)
