@<TRIPOS>MOLECULE
NONAME
50 53 1 0 0 
SMALL
USER_CHARGES


@<TRIPOS>ATOM
  1 O        0.5410    -1.2390    -1.4230 O.3   1 <1>  -0.6800 
  2 C        0.3870    -1.7420    -0.1390 C.3   1 <1>   0.1200 
  3 C        1.7060    -1.6460     0.6820 C.3   1 <1>   0.0000 
  4 C        2.9580    -2.1830    -0.0740 C.3   1 <1>   0.4230 
  5 C        1.9530    -0.1650     1.0840 C.3   1 <1>  -0.1600 
  6 C        1.5280    -2.4770     1.9850 C.3   1 <1>  -0.1600 
  7 N        2.8380    -3.6520    -0.4820 N.4   1 <1>  -0.9590 
  8 C        3.4430    -1.2080    -1.1960 C.3   1 <1>   0.3430 
  9 C        2.3550     0.7430    -0.0810 C.3   1 <1>   0.3430 
 10 C        2.1190    -3.9000     1.9030 C.3   1 <1>  -0.1600 
 11 C        2.0580    -4.4890     0.4930 C.3   1 <1>   0.3430 
 12 C        2.2960    -3.8860    -1.8640 C.3   1 <1>   0.2630 
 13 N        3.5920     0.2080    -0.7160 N.4   1 <1>  -0.9590 
 14 C        4.0930     1.1340    -1.7590 C.3   1 <1>   0.5240 
 15 C        4.8490     2.2330    -1.0500 C.2   1 <1>  -0.1810 
 16 C        5.5440     2.1600     0.1190 C.2   1 <1>  -0.0260 
 17 C        4.9960     3.5430    -1.4770 C.2   1 <1>   0.1390 
 18 N        5.7400     1.0990     0.9880 N.2   1 <1>  -0.5760 
 19 N        6.0710     3.4200     0.3220 N.pl3 1 <1>   0.6010 
 20 N        5.7160     4.2620    -0.6660 N.2   1 <1>  -0.7070 
 21 C        6.4880     1.3500     2.0210 C.2   1 <1>   0.3760 
 22 C        6.8560     3.6550     1.4290 C.2   1 <1>  -0.1810 
 23 C        7.0710     2.6220     2.2850 C.2   1 <1>  -0.1360 
 24 H       -0.3380    -1.1550    -1.8620 H     1 <1>   0.4000 
 25 H       -0.3960    -1.1810     0.3460 H     1 <1>   0.0800 
 26 H        0.0520    -2.7610    -0.2280 H     1 <1>   0.0800 
 27 H        3.7460    -2.1530     0.6600 H     1 <1>   0.0800 
 28 H        2.7310    -0.1000     1.8260 H     1 <1>   0.0800 
 29 H        1.0630     0.2400     1.5370 H     1 <1>   0.0800 
 30 H        1.9970    -1.9890     2.8230 H     1 <1>   0.0800 
 31 H        0.4810    -2.5440     2.2350 H     1 <1>   0.0800 
 32 H        3.7940    -4.0410    -0.4650 H     1 <1>   0.4500 
 33 H        2.7350    -1.2260    -2.0060 H     1 <1>   0.0800 
 34 H        4.3920    -1.5540    -1.5680 H     1 <1>   0.0800 
 35 H        2.5360     1.7410     0.2880 H     1 <1>   0.0800 
 36 H        1.5570     0.7910    -0.8050 H     1 <1>   0.0800 
 37 H        1.5780    -4.5440     2.5770 H     1 <1>   0.0800 
 38 H        3.1430    -3.8960     2.2360 H     1 <1>   0.0800 
 39 H        1.0250    -4.5380     0.1890 H     1 <1>   0.0800 
 40 H        2.4430    -5.4980     0.5030 H     1 <1>   0.0800 
 41 H        1.2940    -3.4970    -1.9490 H     1 <1>   0.0800 
 42 H        2.2680    -4.9420    -2.0800 H     1 <1>   0.0800 
 43 H        2.9150    -3.4080    -2.6050 H     1 <1>   0.0800 
 44 H        4.3430     0.2710     0.0050 H     1 <1>   0.4500 
 45 H        4.7700     0.6220    -2.4240 H     1 <1>   0.0800 
 46 H        3.2760     1.5400    -2.3350 H     1 <1>   0.0800 
 47 H        4.5730     3.9570    -2.3800 H     1 <1>   0.1500 
 48 H        6.6850     0.5640     2.7290 H     1 <1>   0.0600 
 49 H        7.2480     4.6500     1.5370 H     1 <1>   0.1500 
 50 H        7.6750     2.7290     3.1690 H     1 <1>   0.1500 
@<TRIPOS>BOND
  1   1   2  1   
  2   1  24  1   
  3   2   3  1   
  4   2  25  1   
  5   2  26  1   
  6   3   4  1   
  7   3   5  1   
  8   3   6  1   
  9   4   7  1   
 10   4   8  1   
 11   4  27  1   
 12   5   9  1   
 13   5  28  1   
 14   5  29  1   
 15   6  10  1   
 16   6  30  1   
 17   6  31  1   
 18   7  11  1   
 19   7  12  1   
 20   7  32  1   
 21   8  13  1   
 22   8  33  1   
 23   8  34  1   
 24   9  13  1   
 25   9  35  1   
 26   9  36  1   
 27  10  11  1   
 28  10  37  1   
 29  10  38  1   
 30  11  39  1   
 31  11  40  1   
 32  12  41  1   
 33  12  42  1   
 34  12  43  1   
 35  13  14  1   
 36  13  44  1   
 37  14  15  1   
 38  14  45  1   
 39  14  46  1   
 40  15  16  2   
 41  15  17  1   
 42  16  18  1   
 43  16  19  1   
 44  17  20  2   
 45  17  47  1   
 46  18  21  2   
 47  19  20  1   
 48  19  22  1   
 49  21  23  1   
 50  21  48  1   
 51  22  23  2   
 52  22  49  1   
 53  23  50  1   
@<TRIPOS>SUBSTRUCTURE
  1 ****  13 GROUP 4 **** **** 0

# MOE 2024.06 (io_trps.svl 2023.06)
