@<TRIPOS>MOLECULE
NONAME
46 48 1 0 0 
SMALL
USER_CHARGES


@<TRIPOS>ATOM
  1 O        1.1900    -1.0410     1.0670 O.3   1 <1>  -0.0190 
  2 N        1.1990    -2.3200     1.2930 N.2   1 <1>  -0.4100 
  3 C        1.0550    -0.9470    -0.2340 C.2   1 <1>   0.2980 
  4 C        1.0870    -2.8980     0.1670 C.2   1 <1>   0.3350 
  5 N        1.0000    -2.0610    -0.8570 N.2   1 <1>  -0.5650 
  6 C        0.9540     0.4400    -0.8500 C.3   1 <1>   0.3000 
  7 C        0.9690    -4.4080    -0.0140 C.3   1 <1>   0.5240 
  8 O       -0.3310     0.9460    -0.6250 O.3   1 <1>  -0.5600 
  9 N       -0.4670    -4.8440     0.0510 N.4   1 <1>  -0.8520 
 10 C       -0.5420     2.2230    -1.1390 C.3   1 <1>   0.0400 
 11 C       -0.7170    -6.2980     0.1780 C.3   1 <1>   0.2960 
 12 C       -1.2720    -4.2760    -1.0610 C.3   1 <1>   0.5240 
 13 C        0.2280    -7.1900     0.9110 C.3   1 <1>  -0.2000 
 14 C        0.1170    -7.2720    -0.5860 C.3   1 <1>  -0.2000 
 15 C       -2.6930    -4.1930    -0.5660 C.2   1 <1>  -0.1810 
 16 C       -3.2010    -3.1680     0.2260 C.2   1 <1>   0.1080 
 17 C       -3.7320    -5.0400    -0.7530 C.2   1 <1>  -0.3320 
 18 N       -4.4380    -3.3710     0.5330 N.2   1 <1>  -0.7070 
 19 C       -2.4650    -1.9300     0.7020 C.3   1 <1>  -0.0590 
 20 N       -4.7790    -4.5160    -0.0740 N.pl3 1 <1>   0.3140 
 21 C       -3.8160    -6.3320    -1.5540 C.3   1 <1>  -0.0600 
 22 C       -6.1460    -5.0450     0.0270 C.3   1 <1>   0.0160 
 23 H        1.1190     0.3830    -1.9110 H     1 <1>   0.0800 
 24 H        1.6750     1.1000    -0.3990 H     1 <1>   0.0800 
 25 H        1.5290    -4.8770     0.7750 H     1 <1>   0.0800 
 26 H        1.4050    -4.6890    -0.9570 H     1 <1>   0.0800 
 27 H       -0.8680    -4.4050     0.8920 H     1 <1>   0.4500 
 28 H       -1.5540     2.5110    -0.9140 H     1 <1>   0.0800 
 29 H       -0.4010     2.2080    -2.2070 H     1 <1>   0.0800 
 30 H        0.1410     2.9140    -0.6750 H     1 <1>   0.0800 
 31 H       -1.7690    -6.5190     0.2890 H     1 <1>   0.1000 
 32 H       -1.2120    -4.9060    -1.9330 H     1 <1>   0.0800 
 33 H       -0.9410    -3.2860    -1.3260 H     1 <1>   0.0800 
 34 H       -0.1790    -8.0060     1.4850 H     1 <1>   0.1000 
 35 H        1.1430    -6.8210     1.3380 H     1 <1>   0.1000 
 36 H        0.9560    -6.9500    -1.1760 H     1 <1>   0.1000 
 37 H       -0.3550    -8.1480    -0.9990 H     1 <1>   0.1000 
 38 H       -1.9090    -1.4870    -0.1030 H     1 <1>   0.0800 
 39 H       -1.8030    -2.1730     1.5110 H     1 <1>   0.0800 
 40 H       -3.1760    -1.2040     1.0540 H     1 <1>   0.0800 
 41 H       -2.8830    -6.5480    -2.0410 H     1 <1>   0.0800 
 42 H       -4.5760    -6.2450    -2.3110 H     1 <1>   0.0800 
 43 H       -4.0670    -7.1560    -0.9090 H     1 <1>   0.0800 
 44 H       -6.1150    -6.0320     0.4450 H     1 <1>   0.0800 
 45 H       -6.5880    -5.0690    -0.9510 H     1 <1>   0.0800 
 46 H       -6.7240    -4.4020     0.6650 H     1 <1>   0.0800 
@<TRIPOS>BOND
  1   1   2  1   
  2   1   3  1   
  3   2   4  2   
  4   3   5  2   
  5   3   6  1   
  6   4   5  1   
  7   4   7  1   
  8   6   8  1   
  9   6  23  1   
 10   6  24  1   
 11   7   9  1   
 12   7  25  1   
 13   7  26  1   
 14   8  10  1   
 15   9  11  1   
 16   9  12  1   
 17   9  27  1   
 18  10  28  1   
 19  10  29  1   
 20  10  30  1   
 21  11  13  1   
 22  11  14  1   
 23  11  31  1   
 24  12  15  1   
 25  12  32  1   
 26  12  33  1   
 27  13  14  1   
 28  13  34  1   
 29  13  35  1   
 30  14  36  1   
 31  14  37  1   
 32  15  16  1   
 33  15  17  2   
 34  16  18  2   
 35  16  19  1   
 36  17  20  1   
 37  17  21  1   
 38  18  20  1   
 39  19  38  1   
 40  19  39  1   
 41  19  40  1   
 42  20  22  1   
 43  21  41  1   
 44  21  42  1   
 45  21  43  1   
 46  22  44  1   
 47  22  45  1   
 48  22  46  1   
@<TRIPOS>SUBSTRUCTURE
  1 ****  12 GROUP 4 **** **** 0

# MOE 2024.06 (io_trps.svl 2023.06)
