@<TRIPOS>MOLECULE
NONAME
51 54 1 0 0 
SMALL
USER_CHARGES


@<TRIPOS>ATOM
  1 O       -0.6930     0.9160    -1.7300 O.2   1 <1>  -0.5700 
  2 C       -1.6710     1.2230    -1.0650 C.2   1 <1>   0.6300 
  3 N       -2.8830     0.6120    -1.3630 N.am  1 <1>  -0.6600 
  4 C       -1.5240     2.1750     0.0160 C.2   1 <1>   0.4500 
  5 C       -3.0110    -0.4420    -2.4080 C.3   1 <1>   0.1400 
  6 C       -4.1460     0.8530    -0.6130 C.3   1 <1>   0.1400 
  7 N       -1.6520     1.8210     1.2830 N.2   1 <1>  -0.6210 
  8 C       -1.2480     3.5350    -0.3870 C.2   1 <1>   0.6300 
  9 C       -3.4230    -1.7560    -1.7400 C.3   1 <1>  -0.1600 
 10 C       -4.5570    -0.4430     0.0880 C.3   1 <1>  -0.1600 
 11 C       -1.4600     2.7960     2.2170 C.2   1 <1>   0.0210 
 12 O       -1.2190     3.9500    -1.5370 O.2   1 <1>  -0.5700 
 13 N       -1.0500     4.4650     0.5980 N.am  1 <1>  -0.5390 
 14 C       -4.7080    -1.6050    -0.9120 C.3   1 <1>   0.4240 
 15 C       -1.1620     4.0890     1.9110 C.2   1 <1>  -0.0410 
 16 O       -5.7060    -1.2510    -1.8410 O.3   1 <1>  -0.5600 
 17 C       -5.0430    -2.9260    -0.1880 C.ar  1 <1>  -0.1430 
 18 C       -7.0330    -1.4870    -1.4850 C.3   1 <1>   0.1200 
 19 C       -6.2450    -3.5860    -0.4070 C.ar  1 <1>  -0.1430 
 20 C       -4.1420    -3.4840     0.7110 C.ar  1 <1>  -0.1500 
 21 C       -7.2520    -2.9930    -1.3730 C.3   1 <1>  -0.0170 
 22 C       -6.5310    -4.7720     0.2510 C.ar  1 <1>  -0.1500 
 23 C       -4.4080    -4.6700     1.3720 C.ar  1 <1>   0.0820 
 24 C       -5.6270    -5.3290     1.1520 C.ar  1 <1>   0.0820 
 25 O       -3.4200    -5.0930     2.2100 O.3   1 <1>  -0.3620 
 26 O       -5.9140    -6.4790     1.8300 O.3   1 <1>  -0.3620 
 27 C       -3.1470    -6.4670     2.3710 C.3   1 <1>   0.0400 
 28 C       -7.1870    -7.0840     1.7780 C.3   1 <1>   0.0400 
 29 H       -2.0830    -0.5800    -2.9370 H     1 <1>   0.0800 
 30 H       -3.7580    -0.1410    -3.1240 H     1 <1>   0.0800 
 31 H       -4.9140     1.1550    -1.3050 H     1 <1>   0.0800 
 32 H       -4.0310     1.6360     0.1150 H     1 <1>   0.0800 
 33 H       -2.6120    -2.0780    -1.1140 H     1 <1>   0.0800 
 34 H       -3.5730    -2.5140    -2.4870 H     1 <1>   0.0800 
 35 H       -5.4730    -0.2990     0.6270 H     1 <1>   0.0800 
 36 H       -3.8010    -0.6860     0.8120 H     1 <1>   0.0800 
 37 H       -1.5550     2.4840     3.2450 H     1 <1>   0.1500 
 38 H       -0.8400     5.4150     0.2830 H     1 <1>   0.3700 
 39 H       -1.0100     4.8390     2.6700 H     1 <1>   0.1500 
 40 H       -7.6600    -1.0720    -2.2530 H     1 <1>   0.0800 
 41 H       -7.2430    -0.9940    -0.5520 H     1 <1>   0.0800 
 42 H       -3.2040    -3.0010     0.9140 H     1 <1>   0.1500 
 43 H       -7.1350    -3.4440    -2.3410 H     1 <1>   0.0800 
 44 H       -8.2530    -3.1790    -1.0290 H     1 <1>   0.0800 
 45 H       -7.4690    -5.2490     0.0470 H     1 <1>   0.1500 
 46 H       -2.1410    -6.5680     2.7340 H     1 <1>   0.0800 
 47 H       -3.2500    -6.9610     1.4210 H     1 <1>   0.0800 
 48 H       -3.8350    -6.8750     3.0900 H     1 <1>   0.0800 
 49 H       -7.1830    -7.9260     2.4470 H     1 <1>   0.0800 
 50 H       -7.3740    -7.4180     0.7730 H     1 <1>   0.0800 
 51 H       -7.9260    -6.3700     2.0950 H     1 <1>   0.0800 
@<TRIPOS>BOND
  1   1   2  2   
  2   2   3  am  
  3   2   4  1   
  4   3   5  1   
  5   3   6  1   
  6   4   7  2   
  7   4   8  1   
  8   5   9  1   
  9   5  29  1   
 10   5  30  1   
 11   6  10  1   
 12   6  31  1   
 13   6  32  1   
 14   7  11  1   
 15   8  12  2   
 16   8  13  am  
 17   9  14  1   
 18   9  33  1   
 19   9  34  1   
 20  10  14  1   
 21  10  35  1   
 22  10  36  1   
 23  11  15  2   
 24  11  37  1   
 25  13  15  1   
 26  13  38  1   
 27  14  16  1   
 28  14  17  1   
 29  15  39  1   
 30  16  18  1   
 31  17  19  ar  
 32  17  20  ar  
 33  18  21  1   
 34  18  40  1   
 35  18  41  1   
 36  19  21  1   
 37  19  22  ar  
 38  20  23  ar  
 39  20  42  1   
 40  21  43  1   
 41  21  44  1   
 42  22  24  ar  
 43  22  45  1   
 44  23  24  ar  
 45  23  25  1   
 46  24  26  1   
 47  25  27  1   
 48  26  28  1   
 49  27  46  1   
 50  27  47  1   
 51  27  48  1   
 52  28  49  1   
 53  28  50  1   
 54  28  51  1   
@<TRIPOS>SUBSTRUCTURE
  1 ****  10 GROUP 4 **** **** 0

# MOE 2024.06 (io_trps.svl 2023.06)
