@<TRIPOS>MOLECULE
NONAME
56 58 1 0 0 
SMALL
USER_CHARGES


@<TRIPOS>ATOM
  1 O       -1.8360     0.1260     2.2310 O.2   1 <1>  -0.5700 
  2 C       -2.0710     0.5650     1.1210 C.2   1 <1>   0.5440 
  3 N       -2.3270    -0.3150     0.0930 N.am  1 <1>  -0.6600 
  4 C       -2.1420     1.9990     0.9350 C.ar  1 <1>   0.0860 
  5 C       -2.2540    -1.8030     0.2970 C.3   1 <1>   0.3640 
  6 C       -2.7760     0.1480    -1.2570 C.3   1 <1>   0.1400 
  7 C       -1.2120     2.7120     0.1660 C.ar  1 <1>   0.0830 
  8 C       -3.1680     2.7150     1.5510 C.ar  1 <1>  -0.1500 
  9 C       -0.9250    -2.3940    -0.2110 C.ar  1 <1>  -0.1440 
 10 C       -3.4830    -2.5190    -0.3530 C.3   1 <1>   0.2000 
 11 C       -3.1620    -1.0210    -2.1750 C.3   1 <1>   0.1200 
 12 O       -0.2030     2.0210    -0.4190 O.3   1 <1>  -0.3630 
 13 C       -1.3360     4.0930     0.0190 C.ar  1 <1>  -0.1500 
 14 C       -3.2870     4.0830     1.4050 C.ar  1 <1>  -0.1500 
 15 C       -0.6710    -3.7400     0.0220 C.ar  1 <1>  -0.1500 
 16 C        0.0440    -1.6480    -0.8770 C.ar  1 <1>  -0.1500 
 17 O       -4.0210    -1.8820    -1.4950 O.3   1 <1>  -0.5600 
 18 C       -4.6340    -2.6580     0.6500 C.3   1 <1>   0.1200 
 19 C        0.9710     2.6510    -0.8770 C.3   1 <1>   0.1200 
 20 C       -2.3690     4.7740     0.6350 C.ar  1 <1>  -0.1500 
 21 C        0.4950    -4.3430    -0.4210 C.ar  1 <1>   0.0830 
 22 C        1.2230    -2.2340    -1.3070 C.ar  1 <1>  -0.1500 
 23 O       -4.3420    -3.6470     1.5850 O.3   1 <1>  -0.6800 
 24 C        1.9590     1.5670    -1.2950 C.3   1 <1>  -0.2400 
 25 O        0.6320    -5.6730    -0.1940 O.3   1 <1>  -0.3630 
 26 C        1.4640    -3.5750    -1.0730 C.ar  1 <1>   0.0830 
 27 C        0.7150    -6.5020    -1.3330 C.3   1 <1>   0.0400 
 28 O        2.6530    -4.0790    -1.4830 O.3   1 <1>  -0.3630 
 29 C        3.5440    -4.4670    -0.4610 C.3   1 <1>   0.0400 
 30 H       -2.2810    -2.0160     1.3520 H     1 <1>   0.0800 
 31 H       -3.6280     0.7940    -1.1420 H     1 <1>   0.0800 
 32 H       -1.9900     0.7140    -1.7240 H     1 <1>   0.0800 
 33 H       -3.8770     2.1780     2.1580 H     1 <1>   0.1500 
 34 H       -3.2000    -3.5040    -0.6720 H     1 <1>   0.0800 
 35 H       -2.2950    -1.5720    -2.4960 H     1 <1>   0.0800 
 36 H       -3.6780    -0.6550    -3.0440 H     1 <1>   0.0800 
 37 H       -0.6390     4.6550    -0.5720 H     1 <1>   0.1500 
 38 H       -4.0890     4.6110     1.8910 H     1 <1>   0.1500 
 39 H       -1.3810    -4.3460     0.5550 H     1 <1>   0.1500 
 40 H       -0.0980    -0.5990    -1.0580 H     1 <1>   0.1500 
 41 H       -5.5450    -2.9340     0.1480 H     1 <1>   0.0800 
 42 H       -4.7800    -1.7310     1.1790 H     1 <1>   0.0800 
 43 H        0.7210     3.2780    -1.7160 H     1 <1>   0.0800 
 44 H        1.3740     3.2430    -0.0730 H     1 <1>   0.0800 
 45 H       -2.4600     5.8410     0.5200 H     1 <1>   0.1500 
 46 H        1.9650    -1.6480    -1.8170 H     1 <1>   0.1500 
 47 H       -4.4600    -4.5370     1.1980 H     1 <1>   0.4000 
 48 H        1.5570     0.9940    -2.1110 H     1 <1>   0.0800 
 49 H        2.1660     0.9170    -0.4630 H     1 <1>   0.0800 
 50 H        2.8810     2.0180    -1.6150 H     1 <1>   0.0800 
 51 H        0.6640    -7.5250    -1.0080 H     1 <1>   0.0800 
 52 H        1.6480    -6.3250    -1.8370 H     1 <1>   0.0800 
 53 H       -0.1100    -6.2790    -1.9860 H     1 <1>   0.0800 
 54 H        4.4700    -4.7650    -0.9160 H     1 <1>   0.0800 
 55 H        3.1210    -5.2910     0.0860 H     1 <1>   0.0800 
 56 H        3.7050    -3.6290     0.1940 H     1 <1>   0.0800 
@<TRIPOS>BOND
  1   1   2  2   
  2   2   3  am  
  3   2   4  1   
  4   3   5  1   
  5   3   6  1   
  6   4   7  ar  
  7   4   8  ar  
  8   5   9  1   
  9   5  10  1   
 10   5  30  1   
 11   6  11  1   
 12   6  31  1   
 13   6  32  1   
 14   7  12  1   
 15   7  13  ar  
 16   8  14  ar  
 17   8  33  1   
 18   9  15  ar  
 19   9  16  ar  
 20  10  17  1   
 21  10  18  1   
 22  10  34  1   
 23  11  17  1   
 24  11  35  1   
 25  11  36  1   
 26  12  19  1   
 27  13  20  ar  
 28  13  37  1   
 29  14  20  ar  
 30  14  38  1   
 31  15  21  ar  
 32  15  39  1   
 33  16  22  ar  
 34  16  40  1   
 35  18  23  1   
 36  18  41  1   
 37  18  42  1   
 38  19  24  1   
 39  19  43  1   
 40  19  44  1   
 41  20  45  1   
 42  21  25  1   
 43  21  26  ar  
 44  22  26  ar  
 45  22  46  1   
 46  23  47  1   
 47  24  48  1   
 48  24  49  1   
 49  24  50  1   
 50  25  27  1   
 51  26  28  1   
 52  27  51  1   
 53  27  52  1   
 54  27  53  1   
 55  28  29  1   
 56  29  54  1   
 57  29  55  1   
 58  29  56  1   
@<TRIPOS>SUBSTRUCTURE
  1 ****   3 GROUP 4 **** **** 0

# MOE 2024.06 (io_trps.svl 2023.06)
