@<TRIPOS>MOLECULE
NONAME
34 36 1 0 0 
SMALL
USER_CHARGES


@<TRIPOS>ATOM
  1 CL       0.2810     0.1120    -0.5260 Cl    1 <1>  -0.1770 
  2 C        0.2060     1.8430    -0.3650 C.ar  1 <1>   0.1770 
  3 C        1.3670     2.5700    -0.3270 C.ar  1 <1>  -0.1500 
  4 C       -1.0360     2.4590    -0.2780 C.ar  1 <1>  -0.1500 
  5 C        1.3090     3.9600    -0.1980 C.ar  1 <1>   0.3610 
  6 C       -1.1040     3.8260    -0.1500 C.ar  1 <1>  -0.1500 
  7 N        2.4660     4.7180    -0.1590 N.ar  1 <1>  -0.1790 
  8 C        0.0620     4.6130    -0.1060 C.ar  1 <1>   0.0000 
  9 C        2.4990     6.0470    -0.0390 C.ar  1 <1>   0.4610 
 10 C        0.0640     6.0350     0.0280 C.ar  1 <1>  -0.1430 
 11 N        3.6840     6.6930    -0.0140 N.pl3 1 <1>  -0.8380 
 12 C        1.2480     6.7080     0.0590 C.ar  1 <1>  -0.1500 
 13 C       -1.2520     6.7970     0.1380 C.3   1 <1>  -0.0970 
 14 C        5.0710     6.0980    -0.0410 C.3   1 <1>   0.2090 
 15 C        3.8400     8.1760     0.2040 C.3   1 <1>   0.2090 
 16 C        6.0360     7.2260     0.3380 C.3   1 <1>   0.2600 
 17 C        5.3100     8.4980    -0.0860 C.3   1 <1>   0.2000 
 18 F        6.1210     7.2380     1.6660 F     1 <1>  -0.3400 
 19 O        5.4690     8.6800    -1.4600 O.3   1 <1>  -0.6800 
 20 H        2.3070     2.0540    -0.3980 H     1 <1>   0.1500 
 21 H       -1.9260     1.8540    -0.3120 H     1 <1>   0.1500 
 22 H       -2.0730     4.2910    -0.0830 H     1 <1>   0.1500 
 23 H        3.3580     4.2410    -0.2180 H     1 <1>   0.4570 
 24 H        1.2510     7.7770     0.1630 H     1 <1>   0.1500 
 25 H       -1.0830     7.8550     0.2350 H     1 <1>   0.0800 
 26 H       -1.8030     6.4680     1.0020 H     1 <1>   0.0800 
 27 H       -1.8510     6.6360    -0.7410 H     1 <1>   0.0800 
 28 H        5.1740     5.2730     0.6430 H     1 <1>   0.0800 
 29 H        5.2960     5.7720    -1.0430 H     1 <1>   0.0800 
 30 H        3.1890     8.7560    -0.4290 H     1 <1>   0.0800 
 31 H        3.6270     8.4020     1.2360 H     1 <1>   0.0800 
 32 H        7.0370     7.1290    -0.0430 H     1 <1>   0.0800 
 33 H        5.6740     9.3770     0.4170 H     1 <1>   0.0800 
 34 H        4.8790     8.0810    -1.9610 H     1 <1>   0.4000 
@<TRIPOS>BOND
  1   1   2  1   
  2   2   3  ar  
  3   2   4  ar  
  4   3   5  ar  
  5   3  20  1   
  6   4   6  ar  
  7   4  21  1   
  8   5   7  ar  
  9   5   8  ar  
 10   6   8  ar  
 11   6  22  1   
 12   7   9  ar  
 13   7  23  1   
 14   8  10  ar  
 15   9  11  1   
 16   9  12  ar  
 17  10  12  ar  
 18  10  13  1   
 19  11  14  1   
 20  11  15  1   
 21  12  24  1   
 22  13  25  1   
 23  13  26  1   
 24  13  27  1   
 25  14  16  1   
 26  14  28  1   
 27  14  29  1   
 28  15  17  1   
 29  15  30  1   
 30  15  31  1   
 31  16  17  1   
 32  16  18  1   
 33  16  32  1   
 34  17  19  1   
 35  17  33  1   
 36  19  34  1   
@<TRIPOS>SUBSTRUCTURE
  1 ****   7 GROUP 4 **** **** 0

# MOE 2024.06 (io_trps.svl 2023.06)
