@<TRIPOS>MOLECULE
NONAME
36 38 1 0 0 
SMALL
USER_CHARGES


@<TRIPOS>ATOM
  1 N       -9.9430     0.4210    -0.1330 N.ar  1 <1>  -0.1790 
  2 C      -11.1260     0.6420    -0.7500 C.ar  1 <1>   0.4610 
  3 C       -8.9010    -0.2390    -0.6890 C.ar  1 <1>   0.4610 
  4 N      -12.0880     1.3160    -0.0580 N.pl3 1 <1>  -0.5690 
  5 C      -11.2810     0.1520    -2.0440 C.ar  1 <1>  -0.1500 
  6 N       -7.7720    -0.3920     0.0610 N.pl3 1 <1>  -0.5690 
  7 C       -9.0620    -0.7270    -1.9830 C.ar  1 <1>  -0.1500 
  8 C      -11.9890     2.0480     1.1400 C.2   1 <1>  -0.0500 
  9 C      -13.5440     1.2140    -0.3710 C.3   1 <1>   0.5780 
 10 C      -10.2510    -0.5340    -2.6660 C.ar  1 <1>  -0.1500 
 11 C       -7.4000     0.2320     1.2660 C.2   1 <1>  -0.0500 
 12 C       -6.7670    -1.4690    -0.1850 C.3   1 <1>   0.5780 
 13 C      -13.1960     2.3160     1.6310 C.2   1 <1>  -0.0500 
 14 N      -14.2080     1.7830     0.8380 N.pl3 1 <1>  -0.8380 
 15 C       -6.3620    -0.3890     1.8190 C.2   1 <1>  -0.0500 
 16 N       -5.9520    -1.4850     1.0640 N.pl3 1 <1>  -0.8380 
 17 C      -15.3730     2.6690     0.5830 C.3   1 <1>   0.1290 
 18 C       -4.4860    -1.6400     0.8810 C.3   1 <1>   0.1290 
 19 H       -9.8490     0.7240     0.8290 H     1 <1>   0.4570 
 20 H      -12.2010     0.3080    -2.5770 H     1 <1>   0.1500 
 21 H       -8.2590    -1.2520    -2.4680 H     1 <1>   0.1500 
 22 H      -11.0440     2.3490     1.5590 H     1 <1>   0.1500 
 23 H      -13.8370     0.1860    -0.5040 H     1 <1>   0.0800 
 24 H      -13.7830     1.7940    -1.2460 H     1 <1>   0.0800 
 25 H      -10.3730    -0.9110    -3.6710 H     1 <1>   0.1500 
 26 H       -7.9030     1.1040     1.6460 H     1 <1>   0.1500 
 27 H       -6.1540    -1.2250    -1.0370 H     1 <1>   0.0800 
 28 H       -7.2500    -2.4210    -0.3240 H     1 <1>   0.0800 
 29 H      -13.4380     2.8740     2.5240 H     1 <1>   0.1500 
 30 H       -5.8460    -0.1320     2.7320 H     1 <1>   0.1500 
 31 H      -16.1220     2.1410     0.0180 H     1 <1>   0.0800 
 32 H      -15.0630     3.5440     0.0370 H     1 <1>   0.0800 
 33 H      -15.8040     2.9760     1.5200 H     1 <1>   0.0800 
 34 H       -4.2750    -2.5470     0.3430 H     1 <1>   0.0800 
 35 H       -4.0060    -1.6930     1.8430 H     1 <1>   0.0800 
 36 H       -4.0870    -0.7990     0.3380 H     1 <1>   0.0800 
@<TRIPOS>BOND
  1   1   2  ar  
  2   1   3  ar  
  3   1  19  1   
  4   2   4  1   
  5   2   5  ar  
  6   3   6  1   
  7   3   7  ar  
  8   4   8  1   
  9   4   9  1   
 10   5  10  ar  
 11   5  20  1   
 12   6  11  1   
 13   6  12  1   
 14   7  10  ar  
 15   7  21  1   
 16   8  13  2   
 17   8  22  1   
 18   9  14  1   
 19   9  23  1   
 20   9  24  1   
 21  10  25  1   
 22  11  15  2   
 23  11  26  1   
 24  12  16  1   
 25  12  27  1   
 26  12  28  1   
 27  13  14  1   
 28  13  29  1   
 29  14  17  1   
 30  15  16  1   
 31  15  30  1   
 32  16  18  1   
 33  17  31  1   
 34  17  32  1   
 35  17  33  1   
 36  18  34  1   
 37  18  35  1   
 38  18  36  1   
@<TRIPOS>SUBSTRUCTURE
  1 ****   1 GROUP 4 **** **** 0

# MOE 2024.06 (io_trps.svl 2023.06)
