@<TRIPOS>MOLECULE
NONAME
44 44 1 0 0 
SMALL
USER_CHARGES


@<TRIPOS>ATOM
  1 O       -0.8380    -0.2360    -1.1680 O.2   1 <1>  -0.5700 
  2 C       -1.8160     0.4670    -1.0650 C.2   1 <1>   0.5690 
  3 N       -3.0730    -0.0230    -1.3120 N.am  1 <1>  -0.6600 
  4 C       -1.6260     1.9210    -0.6400 C.3   1 <1>  -0.0990 
  5 C       -3.2540    -1.4140    -1.8140 C.3   1 <1>   0.3200 
  6 C       -4.3310     0.7790    -1.1980 C.3   1 <1>   0.1400 
  7 C       -0.1970     2.2730    -0.1860 C.3   1 <1>  -0.1600 
  8 C       -3.9210    -2.2630    -0.7500 C.2   1 <1>  -0.3320 
  9 C       -4.9250     0.6900     0.2140 C.3   1 <1>   0.1200 
 10 C       -0.0900     3.7460     0.2430 C.3   1 <1>  -0.1600 
 11 N       -3.3370    -2.6480     0.4030 N.pl3 1 <1>   0.0480 
 12 C       -5.1670    -2.7870    -0.7430 C.2   1 <1>   0.0770 
 13 O       -5.8900     1.6770     0.3650 O.3   1 <1>  -0.6800 
 14 C        1.2900     4.1140     0.8180 C.3   1 <1>  -0.0800 
 15 C       -4.2830    -3.3780     1.0360 C.2   1 <1>   0.0360 
 16 C       -1.9700    -2.3640     0.8780 C.3   1 <1>   0.0160 
 17 N       -5.3940    -3.4840     0.3840 N.2   1 <1>  -0.5650 
 18 C        1.2570     5.5460     1.3650 C.3   1 <1>  -0.2400 
 19 C        2.4070     3.9940    -0.2280 C.3   1 <1>  -0.2400 
 20 H       -2.2990     2.1320     0.1690 H     1 <1>   0.0800 
 21 H       -1.8880     2.5480    -1.4720 H     1 <1>   0.0800 
 22 H       -2.3110    -1.8550    -2.0880 H     1 <1>   0.0800 
 23 H       -3.8660    -1.3920    -2.6990 H     1 <1>   0.0800 
 24 H       -5.0570     0.4160    -1.9050 H     1 <1>   0.0800 
 25 H       -4.1250     1.8060    -1.4380 H     1 <1>   0.0800 
 26 H        0.4800     2.0770    -0.9990 H     1 <1>   0.0800 
 27 H        0.0810     1.6370     0.6370 H     1 <1>   0.0800 
 28 H       -4.1730     0.8360     0.9690 H     1 <1>   0.0800 
 29 H       -5.4040    -0.2620     0.3650 H     1 <1>   0.0800 
 30 H       -0.8350     3.9380     0.9960 H     1 <1>   0.0800 
 31 H       -0.3060     4.3810    -0.6000 H     1 <1>   0.0800 
 32 H       -5.9300    -2.6970    -1.4990 H     1 <1>   0.1500 
 33 H       -5.4830     2.5590     0.4730 H     1 <1>   0.4000 
 34 H        1.5140     3.4490     1.6370 H     1 <1>   0.0800 
 35 H       -4.1070    -3.8250     1.9990 H     1 <1>   0.1500 
 36 H       -1.2690    -2.5530     0.0850 H     1 <1>   0.0800 
 37 H       -1.7380    -2.9940     1.7160 H     1 <1>   0.0800 
 38 H       -1.9040    -1.3330     1.1730 H     1 <1>   0.0800 
 39 H        1.0380     6.2460     0.5780 H     1 <1>   0.0800 
 40 H        2.2080     5.8020     1.7970 H     1 <1>   0.0800 
 41 H        0.5060     5.6390     2.1290 H     1 <1>   0.0800 
 42 H        2.1860     4.5990    -1.0890 H     1 <1>   0.0800 
 43 H        2.5290     2.9740    -0.5430 H     1 <1>   0.0800 
 44 H        3.3430     4.3220     0.1890 H     1 <1>   0.0800 
@<TRIPOS>BOND
  1   1   2  2   
  2   2   3  am  
  3   2   4  1   
  4   3   5  1   
  5   3   6  1   
  6   4   7  1   
  7   4  20  1   
  8   4  21  1   
  9   5   8  1   
 10   5  22  1   
 11   5  23  1   
 12   6   9  1   
 13   6  24  1   
 14   6  25  1   
 15   7  10  1   
 16   7  26  1   
 17   7  27  1   
 18   8  11  1   
 19   8  12  2   
 20   9  13  1   
 21   9  28  1   
 22   9  29  1   
 23  10  14  1   
 24  10  30  1   
 25  10  31  1   
 26  11  15  1   
 27  11  16  1   
 28  12  17  1   
 29  12  32  1   
 30  13  33  1   
 31  14  18  1   
 32  14  19  1   
 33  14  34  1   
 34  15  17  2   
 35  15  35  1   
 36  16  36  1   
 37  16  37  1   
 38  16  38  1   
 39  18  39  1   
 40  18  40  1   
 41  18  41  1   
 42  19  42  1   
 43  19  43  1   
 44  19  44  1   
@<TRIPOS>SUBSTRUCTURE
  1 ****   2 GROUP 4 **** **** 0

# MOE 2024.06 (io_trps.svl 2023.06)
