@<TRIPOS>MOLECULE
NONAME
42 44 1 0 0 
SMALL
USER_CHARGES


@<TRIPOS>ATOM
  1 O       -0.4490     0.2680     0.3520 O.2   1 <1>  -0.5700 
  2 C       -1.4930     0.8910     0.2660 C.2   1 <1>   0.7150 
  3 N       -2.6570     0.1600     0.1370 N.am  1 <1>  -0.6600 
  4 C       -1.4720     2.3420     0.2890 C.2   1 <1>   0.0550 
  5 C       -3.9850     0.6930    -0.2590 C.3   1 <1>   0.1400 
  6 C       -2.6760    -1.3240     0.1570 C.3   1 <1>   0.1400 
  7 O       -2.5450     3.0410     0.6460 O.3   1 <1>  -0.2800 
  8 C       -0.4760     3.2110     0.0050 C.2   1 <1>   0.0460 
  9 C       -4.7760    -0.5300    -0.7210 C.3   1 <1>   0.2000 
 10 C       -4.1480    -1.7120     0.0120 C.3   1 <1>  -0.0800 
 11 C       -2.1140     4.2800     0.5510 C.2   1 <1>   0.2980 
 12 N       -0.9040     4.4560     0.1760 N.2   1 <1>  -0.5650 
 13 C        0.9520     2.9790    -0.4490 C.3   1 <1>  -0.0590 
 14 O       -6.1190    -0.4220    -0.4000 O.3   1 <1>  -0.6800 
 15 C       -4.3640    -3.0550    -0.7020 C.3   1 <1>   0.0210 
 16 C       -3.0780     5.3900     0.8920 C.3   1 <1>  -0.0600 
 17 C       -3.6070    -4.1700    -0.0070 C.2   1 <1>   0.1080 
 18 N       -3.7660    -4.4540     1.2490 N.2   1 <1>  -0.7070 
 19 C       -2.6670    -4.9940    -0.6160 C.2   1 <1>  -0.1500 
 20 N       -2.9230    -5.4780     1.4760 N.pl3 1 <1>   0.3000 
 21 C       -2.2450    -5.8230     0.3610 C.2   1 <1>  -0.3320 
 22 C       -1.2190    -6.9400     0.2980 C.3   1 <1>  -0.0600 
 23 H       -4.4510     1.1470     0.5990 H     1 <1>   0.0800 
 24 H       -3.8860     1.4100    -1.0550 H     1 <1>   0.0800 
 25 H       -2.0950    -1.6940    -0.6700 H     1 <1>   0.0800 
 26 H       -2.2620    -1.7020     1.0770 H     1 <1>   0.0800 
 27 H       -4.6880    -0.6350    -1.7890 H     1 <1>   0.0800 
 28 H       -4.5530    -1.7760     1.0080 H     1 <1>   0.0800 
 29 H        1.1440     1.9390    -0.6300 H     1 <1>   0.0800 
 30 H        1.6290     3.3310     0.3070 H     1 <1>   0.0800 
 31 H        1.1330     3.5250    -1.3560 H     1 <1>   0.0800 
 32 H       -6.2410    -0.4800     0.5680 H     1 <1>   0.4000 
 33 H       -4.0360    -2.9870    -1.7230 H     1 <1>   0.0800 
 34 H       -5.4120    -3.2970    -0.7010 H     1 <1>   0.0800 
 35 H       -2.5950     6.3430     0.7740 H     1 <1>   0.0800 
 36 H       -3.4040     5.2850     1.9100 H     1 <1>   0.0800 
 37 H       -3.9290     5.3440     0.2380 H     1 <1>   0.0800 
 38 H       -2.3610    -4.9570    -1.6460 H     1 <1>   0.1500 
 39 H       -2.8340    -5.9180     2.3990 H     1 <1>   0.2700 
 40 H       -0.8190    -7.0180    -0.6970 H     1 <1>   0.0800 
 41 H       -1.6740    -7.8780     0.5600 H     1 <1>   0.0800 
 42 H       -0.4090    -6.7400     0.9770 H     1 <1>   0.0800 
@<TRIPOS>BOND
  1   1   2  2   
  2   2   3  am  
  3   2   4  1   
  4   3   5  1   
  5   3   6  1   
  6   4   7  1   
  7   4   8  2   
  8   5   9  1   
  9   5  23  1   
 10   5  24  1   
 11   6  10  1   
 12   6  25  1   
 13   6  26  1   
 14   7  11  1   
 15   8  12  1   
 16   8  13  1   
 17   9  10  1   
 18   9  14  1   
 19   9  27  1   
 20  10  15  1   
 21  10  28  1   
 22  11  12  2   
 23  11  16  1   
 24  13  29  1   
 25  13  30  1   
 26  13  31  1   
 27  14  32  1   
 28  15  17  1   
 29  15  33  1   
 30  15  34  1   
 31  16  35  1   
 32  16  36  1   
 33  16  37  1   
 34  17  18  2   
 35  17  19  1   
 36  18  20  1   
 37  19  21  2   
 38  19  38  1   
 39  20  21  1   
 40  20  39  1   
 41  21  22  1   
 42  22  40  1   
 43  22  41  1   
 44  22  42  1   
@<TRIPOS>SUBSTRUCTURE
  1 ****   3 GROUP 4 **** **** 0

# MOE 2024.06 (io_trps.svl 2023.06)
