@<TRIPOS>MOLECULE
NONAME
45 47 1 0 0 
SMALL
USER_CHARGES


@<TRIPOS>ATOM
  1 O        0.6250     0.5900    -0.6980 O.co2 1 <1>  -0.9000 
  2 C        0.1770     1.7230    -0.9700 C.2   1 <1>   1.0330 
  3 O       -0.4830     1.8550    -2.0190 O.co2 1 <1>  -0.9000 
  4 C        0.4420     2.8280    -0.0460 C.2   1 <1>  -0.0060 
  5 N        0.0700     4.1500    -0.1500 N.2   1 <1>  -0.5650 
  6 C        1.1280     2.7090     1.1100 C.2   1 <1>  -0.0100 
  7 C        0.5510     4.6960     0.9050 C.2   1 <1>   0.2980 
  8 O        1.1880     3.8680     1.7010 O.3   1 <1>  -0.2800 
  9 C        0.4140     6.1620     1.3140 C.3   1 <1>   0.2900 
 10 N        1.5850     7.0310     1.0140 N.3   1 <1>  -0.8100 
 11 C        2.8260     6.5340     1.6440 C.3   1 <1>   0.2540 
 12 C        1.2860     8.4470     1.3460 C.3   1 <1>   0.1100 
 13 C        4.0440     7.3180     1.1810 C.ar  1 <1>  -0.1430 
 14 C        1.8540     9.4360     0.3140 C.3   1 <1>   0.2000 
 15 C        4.4600     7.2140    -0.1370 C.ar  1 <1>  -0.1500 
 16 C        4.7440     8.1380     2.0530 C.ar  1 <1>  -0.1500 
 17 O        1.3240    10.6990     0.5540 O.3   1 <1>  -0.5600 
 18 C        1.4680     9.1440    -1.1310 C.3   1 <1>  -0.1600 
 19 C        5.5600     7.9230    -0.5920 C.ar  1 <1>  -0.1430 
 20 C        5.8440     8.8490     1.6050 C.ar  1 <1>  -0.1500 
 21 C        1.4670    11.4840    -0.5840 C.3   1 <1>   0.1200 
 22 C        1.4300    10.5230    -1.7700 C.3   1 <1>  -0.1600 
 23 C        6.2500     8.7420     0.2870 C.ar  1 <1>  -0.1500 
 24 C        6.0000     7.8090    -2.0390 C.3   1 <1>  -0.0970 
 25 H        1.5830     1.8390     1.5470 H     1 <1>   0.1500 
 26 H        0.1940     6.2020     2.3660 H     1 <1>   0.0800 
 27 H       -0.4390     6.5500     0.7840 H     1 <1>   0.0800 
 28 H        2.9900     5.5080     1.3640 H     1 <1>   0.0800 
 29 H        2.7370     6.5770     2.7160 H     1 <1>   0.0800 
 30 H        1.6690     8.6900     2.3210 H     1 <1>   0.0800 
 31 H        0.2200     8.5960     1.3600 H     1 <1>   0.0800 
 32 H        2.9220     9.5200     0.4070 H     1 <1>   0.0800 
 33 H        3.9070     6.5780    -0.8080 H     1 <1>   0.1500 
 34 H        4.4340     8.2310     3.0780 H     1 <1>   0.1500 
 35 H        0.4950     8.6860    -1.1610 H     1 <1>   0.0800 
 36 H        2.1790     8.4840    -1.5950 H     1 <1>   0.0800 
 37 H        6.3830     9.4870     2.2830 H     1 <1>   0.1500 
 38 H        2.4170    11.9880    -0.5220 H     1 <1>   0.0800 
 39 H        0.6660    12.2020    -0.6120 H     1 <1>   0.0800 
 40 H        0.5330    10.6590    -2.3480 H     1 <1>   0.0800 
 41 H        2.2860    10.6850    -2.4000 H     1 <1>   0.0800 
 42 H        7.1040     9.3000    -0.0530 H     1 <1>   0.1500 
 43 H        5.6460     6.8880    -2.4690 H     1 <1>   0.0800 
 44 H        7.0720     7.8250    -2.1060 H     1 <1>   0.0800 
 45 H        5.6010     8.6310    -2.6050 H     1 <1>   0.0800 
@<TRIPOS>BOND
  1   1   2  ar  
  2   2   3  ar  
  3   2   4  1   
  4   4   5  1   
  5   4   6  2   
  6   5   7  2   
  7   6   8  1   
  8   6  25  1   
  9   7   8  1   
 10   7   9  1   
 11   9  10  1   
 12   9  26  1   
 13   9  27  1   
 14  10  11  1   
 15  10  12  1   
 16  11  13  1   
 17  11  28  1   
 18  11  29  1   
 19  12  14  1   
 20  12  30  1   
 21  12  31  1   
 22  13  15  ar  
 23  13  16  ar  
 24  14  17  1   
 25  14  18  1   
 26  14  32  1   
 27  15  19  ar  
 28  15  33  1   
 29  16  20  ar  
 30  16  34  1   
 31  17  21  1   
 32  18  22  1   
 33  18  35  1   
 34  18  36  1   
 35  19  23  ar  
 36  19  24  1   
 37  20  23  ar  
 38  20  37  1   
 39  21  22  1   
 40  21  38  1   
 41  21  39  1   
 42  22  40  1   
 43  22  41  1   
 44  23  42  1   
 45  24  43  1   
 46  24  44  1   
 47  24  45  1   
@<TRIPOS>SUBSTRUCTURE
  1 ****  10 GROUP 4 **** **** 0

# MOE 2024.06 (io_trps.svl 2023.06)
