@<TRIPOS>MOLECULE
NONAME
51 54 1 0 0 
SMALL
USER_CHARGES


@<TRIPOS>ATOM
  1 N       -0.3650     1.6330    -0.4740 N.2   1 <1>  -0.7070 
  2 N       -0.4040     2.7060     0.3570 N.pl3 1 <1>   0.5930 
  3 C       -1.5540     1.1290    -0.4590 C.2   1 <1>   0.1080 
  4 C        0.7290     3.5610     0.5110 C.ar  1 <1>  -0.0230 
  5 C       -1.6690     2.8560     0.8510 C.2   1 <1>  -0.3320 
  6 C       -2.4190     1.8530     0.3500 C.2   1 <1>  -0.1500 
  7 C       -1.9260    -0.1050    -1.2470 C.3   1 <1>  -0.0590 
  8 C        1.5000     3.8830    -0.6010 C.ar  1 <1>  -0.1500 
  9 C        1.1080     4.0760     1.7480 C.ar  1 <1>  -0.1500 
 10 C       -2.1440     3.9660     1.7780 C.3   1 <1>  -0.0600 
 11 C        2.5980     4.7230    -0.5020 C.ar  1 <1>  -0.1430 
 12 C        2.2060     4.9090     1.8590 C.ar  1 <1>  -0.1500 
 13 C        2.9480     5.2350     0.7390 C.ar  1 <1>  -0.1500 
 14 C        3.4300     5.0760    -1.7250 C.3   1 <1>   0.4860 
 15 N        2.7270     6.0610    -2.6090 N.4   1 <1>  -0.9590 
 16 C        2.1600     7.2090    -1.8370 C.3   1 <1>   0.5230 
 17 C        1.7240     5.4290    -3.5130 C.3   1 <1>   0.2630 
 18 C        3.2990     8.0770    -1.3280 C.2   1 <1>   0.0060 
 19 N        4.5340     7.9660    -1.7220 N.2   1 <1>  -0.5650 
 20 N        3.0990     9.0570    -0.4130 N.pl3 1 <1>   0.2940 
 21 C        5.1740     8.9250    -1.0270 C.2   1 <1>   0.0770 
 22 C        4.3160     9.5950    -0.2280 C.2   1 <1>  -0.3020 
 23 C        1.8370     9.5080     0.2190 C.3   1 <1>  -0.0910 
 24 C        1.7610     9.5870     1.7140 C.3   1 <1>  -0.2000 
 25 C        0.9710     8.5480     0.9840 C.3   1 <1>  -0.2000 
 26 H       -3.4590     1.6360     0.5150 H     1 <1>   0.1500 
 27 H       -1.2930    -0.9220    -0.9530 H     1 <1>   0.0800 
 28 H       -1.7900     0.0820    -2.2960 H     1 <1>   0.0800 
 29 H       -2.9510    -0.3720    -1.0670 H     1 <1>   0.0800 
 30 H        1.2270     3.4460    -1.5460 H     1 <1>   0.1500 
 31 H        0.5550     3.8150     2.6320 H     1 <1>   0.1500 
 32 H       -1.8440     4.9270     1.4000 H     1 <1>   0.0800 
 33 H       -1.7410     3.8300     2.7650 H     1 <1>   0.0800 
 34 H       -3.2170     3.9500     1.8510 H     1 <1>   0.0800 
 35 H        2.4880     5.2970     2.8250 H     1 <1>   0.1500 
 36 H        3.8040     5.8830     0.8470 H     1 <1>   0.1500 
 37 H        3.6600     4.1800    -2.2780 H     1 <1>   0.0800 
 38 H        4.3640     5.5020    -1.3910 H     1 <1>   0.0800 
 39 H        3.4840     6.5030    -3.1570 H     1 <1>   0.4500 
 40 H        1.5630     6.8530    -1.0140 H     1 <1>   0.0800 
 41 H        1.5340     7.8060    -2.4780 H     1 <1>   0.0800 
 42 H        0.8990     5.0340    -2.9430 H     1 <1>   0.0800 
 43 H        2.1770     4.6220    -4.0680 H     1 <1>   0.0800 
 44 H        1.3430     6.1530    -4.2140 H     1 <1>   0.0800 
 45 H        6.2350     9.0910    -1.1370 H     1 <1>   0.1500 
 46 H        4.4980    10.4120     0.4460 H     1 <1>   0.1500 
 47 H        1.3720    10.3020    -0.3410 H     1 <1>   0.1000 
 48 H        1.2240    10.4020     2.1700 H     1 <1>   0.1000 
 49 H        2.6050     9.2720     2.3050 H     1 <1>   0.1000 
 50 H        1.2640     7.5250     1.1350 H     1 <1>   0.1000 
 51 H       -0.1000     8.6690     0.9680 H     1 <1>   0.1000 
@<TRIPOS>BOND
  1   1   2  1   
  2   1   3  2   
  3   2   4  1   
  4   2   5  1   
  5   3   6  1   
  6   3   7  1   
  7   4   8  ar  
  8   4   9  ar  
  9   5   6  2   
 10   5  10  1   
 11   6  26  1   
 12   7  27  1   
 13   7  28  1   
 14   7  29  1   
 15   8  11  ar  
 16   8  30  1   
 17   9  12  ar  
 18   9  31  1   
 19  10  32  1   
 20  10  33  1   
 21  10  34  1   
 22  11  13  ar  
 23  11  14  1   
 24  12  13  ar  
 25  12  35  1   
 26  13  36  1   
 27  14  15  1   
 28  14  37  1   
 29  14  38  1   
 30  15  16  1   
 31  15  17  1   
 32  15  39  1   
 33  16  18  1   
 34  16  40  1   
 35  16  41  1   
 36  17  42  1   
 37  17  43  1   
 38  17  44  1   
 39  18  19  2   
 40  18  20  1   
 41  19  21  1   
 42  20  22  1   
 43  20  23  1   
 44  21  22  2   
 45  21  45  1   
 46  22  46  1   
 47  23  24  1   
 48  23  25  1   
 49  23  47  1   
 50  24  25  1   
 51  24  48  1   
 52  24  49  1   
 53  25  50  1   
 54  25  51  1   
@<TRIPOS>SUBSTRUCTURE
  1 ****  11 GROUP 4 **** **** 0

# MOE 2024.06 (io_trps.svl 2023.06)
