@<TRIPOS>MOLECULE
NONAME
46 49 1 0 0 
SMALL
USER_CHARGES


@<TRIPOS>ATOM
  1 O       -3.3050     1.0140    -1.6290 O.2   1 <1>  -0.5700 
  2 C       -2.5930     0.8460    -0.6690 C.2   1 <1>   0.6300 
  3 N       -2.2220    -0.3900    -0.2610 N.am  1 <1>  -0.7300 
  4 C       -2.0890     2.0520     0.1100 C.3   1 <1>  -0.0950 
  5 C       -2.6880    -1.6480    -0.8810 C.3   1 <1>   0.2200 
  6 C       -3.0870     2.8350     0.9180 C.3   1 <1>  -0.2000 
  7 C       -2.0510     1.9990     1.6150 C.3   1 <1>  -0.2000 
  8 C       -0.9940     2.7590    -0.7030 C.3   1 <1>   0.2150 
  9 C       -3.9580    -2.1000    -0.1820 C.3   1 <1>  -0.0800 
 10 C       -1.7270    -2.7840    -0.5500 C.3   1 <1>   0.1200 
 11 O       -0.4710     3.8390    -0.0080 O.3   1 <1>  -0.6800 
 12 C       -3.4130    -2.8750     1.0210 C.3   1 <1>   0.1200 
 13 C       -4.8260    -2.9790    -1.1040 C.3   1 <1>  -0.0170 
 14 O       -2.1040    -3.2580     0.7080 O.3   1 <1>  -0.5600 
 15 C       -6.1590    -3.3280    -0.4510 C.ar  1 <1>  -0.1440 
 16 C       -7.2140    -2.3900    -0.3400 C.ar  1 <1>   0.0000 
 17 C       -6.3710    -4.5780     0.0530 C.ar  1 <1>  -0.1500 
 18 C       -8.4040    -2.8130     0.3020 C.ar  1 <1>   0.3100 
 19 C       -7.1610    -1.0630    -0.8280 C.ar  1 <1>  -0.1500 
 20 C       -7.5900    -4.8950     0.6640 C.ar  1 <1>   0.1600 
 21 N       -8.5750    -4.0650     0.7970 N.ar  1 <1>  -0.6200 
 22 C       -9.4640    -1.9020     0.4380 C.ar  1 <1>  -0.1500 
 23 C       -8.2130    -0.2010    -0.6800 C.ar  1 <1>  -0.1500 
 24 C       -9.3800    -0.6220    -0.0380 C.ar  1 <1>  -0.1500 
 25 H       -1.6830    -0.5010     0.6000 H     1 <1>   0.3700 
 26 H       -2.8110    -1.5110    -1.9430 H     1 <1>   0.0800 
 27 H       -3.0110     3.9050     0.9840 H     1 <1>   0.1000 
 28 H       -4.1110     2.5010     0.9190 H     1 <1>   0.1000 
 29 H       -2.3890     1.1190     2.1340 H     1 <1>   0.1000 
 30 H       -1.2510     2.4950     2.1360 H     1 <1>   0.1000 
 31 H       -1.3950     3.1210    -1.6350 H     1 <1>   0.0800 
 32 H       -0.1830     2.0820    -0.9120 H     1 <1>   0.0800 
 33 H       -4.5390    -1.2570     0.1470 H     1 <1>   0.0800 
 34 H       -0.7000    -2.4670    -0.5260 H     1 <1>   0.0800 
 35 H       -1.8420    -3.5930    -1.2500 H     1 <1>   0.0800 
 36 H       -1.1960     4.4300     0.2690 H     1 <1>   0.4000 
 37 H       -3.9890    -3.7520     1.2540 H     1 <1>   0.0800 
 38 H       -3.3640    -2.2400     1.8890 H     1 <1>   0.0800 
 39 H       -4.2950    -3.8830    -1.3480 H     1 <1>   0.0800 
 40 H       -5.0140    -2.4680    -2.0320 H     1 <1>   0.0800 
 41 H       -5.6180    -5.3430     0.0000 H     1 <1>   0.1500 
 42 H       -6.2770    -0.7140    -1.3300 H     1 <1>   0.1500 
 43 H       -7.7150    -5.8930     1.0480 H     1 <1>   0.1500 
 44 H      -10.3510    -2.2490     0.9330 H     1 <1>   0.1500 
 45 H       -8.1560     0.8070    -1.0560 H     1 <1>   0.1500 
 46 H      -10.2000     0.0660     0.0730 H     1 <1>   0.1500 
@<TRIPOS>BOND
  1   1   2  2   
  2   2   3  am  
  3   2   4  1   
  4   3   5  1   
  5   3  25  1   
  6   4   6  1   
  7   4   7  1   
  8   4   8  1   
  9   5   9  1   
 10   5  10  1   
 11   5  26  1   
 12   6   7  1   
 13   6  27  1   
 14   6  28  1   
 15   7  29  1   
 16   7  30  1   
 17   8  11  1   
 18   8  31  1   
 19   8  32  1   
 20   9  12  1   
 21   9  13  1   
 22   9  33  1   
 23  10  14  1   
 24  10  34  1   
 25  10  35  1   
 26  11  36  1   
 27  12  14  1   
 28  12  37  1   
 29  12  38  1   
 30  13  15  1   
 31  13  39  1   
 32  13  40  1   
 33  15  16  ar  
 34  15  17  ar  
 35  16  18  ar  
 36  16  19  ar  
 37  17  20  ar  
 38  17  41  1   
 39  18  21  ar  
 40  18  22  ar  
 41  19  23  ar  
 42  19  42  1   
 43  20  21  ar  
 44  20  43  1   
 45  22  24  ar  
 46  22  44  1   
 47  23  24  ar  
 48  23  45  1   
 49  24  46  1   
@<TRIPOS>SUBSTRUCTURE
  1 ****   9 GROUP 4 **** **** 0

# MOE 2024.06 (io_trps.svl 2023.06)
