@<TRIPOS>MOLECULE
NONAME
47 48 1 0 0 
SMALL
USER_CHARGES


@<TRIPOS>ATOM
  1 O        1.3520    -1.7000     1.7100 O.2   1 <1>  -0.5700 
  2 C        1.5590    -1.5650     0.5300 C.2   1 <1>   0.5690 
  3 N        0.6060    -1.7970    -0.4100 N.am  1 <1>  -0.7300 
  4 C        2.9310    -1.1140     0.0710 C.3   1 <1>  -0.0990 
  5 C       -0.7810    -2.2410    -0.1210 C.3   1 <1>   0.0600 
  6 C        2.9790     0.3990    -0.2060 C.3   1 <1>  -0.0800 
  7 C        4.3540     0.8800    -0.6650 C.3   1 <1>   0.2090 
  8 C        2.6900     1.2500     1.0280 C.3   1 <1>  -0.1600 
  9 N        4.4690     2.2840    -0.1800 N.pl3 1 <1>  -0.8380 
 10 C        3.3250     2.5960     0.7150 C.3   1 <1>   0.2090 
 11 C        5.6550     2.9490    -0.1360 C.ar  1 <1>   0.4100 
 12 N        6.7290     2.2020     0.0220 N.ar  1 <1>  -0.6200 
 13 C        5.7380     4.3650    -0.2430 C.ar  1 <1>  -0.1440 
 14 C        7.9000     2.7940     0.1580 C.ar  1 <1>   0.7710 
 15 C        6.9580     4.9480    -0.0660 C.ar  1 <1>   0.2180 
 16 C        4.4880     5.1830    -0.5900 C.3   1 <1>  -0.0970 
 17 N        8.0150     4.1290     0.1380 N.ar  1 <1>  -0.1790 
 18 N        9.0210     2.0380     0.3320 N.pl3 1 <1>  -0.8380 
 19 C        7.2530     6.4430    -0.0860 C.3   1 <1>  -0.0970 
 20 C       10.4430     2.5050     0.2680 C.3   1 <1>   0.1290 
 21 C        8.9240     0.5550     0.5430 C.3   1 <1>   0.1290 
 22 H        0.8350    -1.6700    -1.3970 H     1 <1>   0.3700 
 23 H        3.1950    -1.6580    -0.8160 H     1 <1>   0.0800 
 24 H        3.6430    -1.3680     0.8360 H     1 <1>   0.0800 
 25 H       -0.9270    -2.3500     0.9400 H     1 <1>   0.0800 
 26 H       -0.9650    -3.1900    -0.5950 H     1 <1>   0.0800 
 27 H       -1.4810    -1.5150    -0.4940 H     1 <1>   0.0800 
 28 H        2.2670     0.6470    -0.9750 H     1 <1>   0.0800 
 29 H        4.4490     0.8390    -1.7360 H     1 <1>   0.0800 
 30 H        5.1240     0.2760    -0.2140 H     1 <1>   0.0800 
 31 H        3.1720     0.8320     1.8950 H     1 <1>   0.0800 
 32 H        1.6370     1.3410     1.2280 H     1 <1>   0.0800 
 33 H        3.6520     3.0930     1.6120 H     1 <1>   0.0800 
 34 H        2.6180     3.2140     0.1900 H     1 <1>   0.0800 
 35 H        3.8600     4.6300    -1.2680 H     1 <1>   0.0800 
 36 H        4.7300     6.1050    -1.0840 H     1 <1>   0.0800 
 37 H        3.9250     5.4020     0.3000 H     1 <1>   0.0800 
 38 H        8.9490     4.4790     0.2930 H     1 <1>   0.4570 
 39 H        6.3670     7.0240     0.0940 H     1 <1>   0.0800 
 40 H        7.6590     6.7270    -1.0410 H     1 <1>   0.0800 
 41 H        7.9600     6.7000     0.6830 H     1 <1>   0.0800 
 42 H       10.5310     3.4580    -0.2210 H     1 <1>   0.0800 
 43 H       11.0320     1.7960    -0.2910 H     1 <1>   0.0800 
 44 H       10.8500     2.5730     1.2640 H     1 <1>   0.0800 
 45 H        7.9740     0.2810     0.9720 H     1 <1>   0.0800 
 46 H        9.6950     0.2220     1.2170 H     1 <1>   0.0800 
 47 H        9.0360     0.0440    -0.3980 H     1 <1>   0.0800 
@<TRIPOS>BOND
  1   1   2  2   
  2   2   3  am  
  3   2   4  1   
  4   3   5  1   
  5   3  22  1   
  6   4   6  1   
  7   4  23  1   
  8   4  24  1   
  9   5  25  1   
 10   5  26  1   
 11   5  27  1   
 12   6   7  1   
 13   6   8  1   
 14   6  28  1   
 15   7   9  1   
 16   7  29  1   
 17   7  30  1   
 18   8  10  1   
 19   8  31  1   
 20   8  32  1   
 21   9  10  1   
 22   9  11  1   
 23  10  33  1   
 24  10  34  1   
 25  11  12  ar  
 26  11  13  ar  
 27  12  14  ar  
 28  13  15  ar  
 29  13  16  1   
 30  14  17  ar  
 31  14  18  1   
 32  15  17  ar  
 33  15  19  1   
 34  16  35  1   
 35  16  36  1   
 36  16  37  1   
 37  17  38  1   
 38  18  20  1   
 39  18  21  1   
 40  19  39  1   
 41  19  40  1   
 42  19  41  1   
 43  20  42  1   
 44  20  43  1   
 45  20  44  1   
 46  21  45  1   
 47  21  46  1   
 48  21  47  1   
@<TRIPOS>SUBSTRUCTURE
  1 ****   9 GROUP 4 **** **** 0

# MOE 2024.06 (io_trps.svl 2023.06)
