@<TRIPOS>MOLECULE
NONAME
50 52 1 0 0 
SMALL
USER_CHARGES


@<TRIPOS>ATOM
  1 O       -1.8900     0.5170     0.0770 O.2   1 <1>  -0.5700 
  2 C       -1.3290     1.5750     0.2450 C.2   1 <1>   0.5690 
  3 N       -2.0140     2.7320     0.5050 N.am  1 <1>  -0.6600 
  4 C        0.1990     1.6010     0.1260 C.3   1 <1>   0.1810 
  5 C       -1.2870     4.0280     0.6990 C.3   1 <1>   0.3640 
  6 C       -3.4760     2.7490     0.7990 C.3   1 <1>   0.0600 
  7 O        0.7940     2.7230     0.7340 O.3   1 <1>  -0.5600 
  8 C       -1.9370     5.1820    -0.0850 C.ar  1 <1>  -0.1430 
  9 C        0.2190     3.9570     0.3490 C.3   1 <1>   0.2610 
 10 C       -2.2970     5.1340    -1.4360 C.ar  1 <1>  -0.1430 
 11 C       -2.1480     6.3600     0.6210 C.ar  1 <1>  -0.1500 
 12 C        0.9660     5.1510     0.9670 C.2   1 <1>   0.5690 
 13 C       -2.8560     6.2560    -2.0320 C.ar  1 <1>  -0.1500 
 14 C       -2.1260     3.9010    -2.3200 C.3   1 <1>  -0.0960 
 15 C       -2.7020     7.4720     0.0160 C.ar  1 <1>  -0.1500 
 16 O        0.6720     5.5040     2.0900 O.2   1 <1>  -0.5700 
 17 N        1.9090     5.8400     0.2380 N.am  1 <1>  -0.6600 
 18 C       -3.0580     7.4190    -1.3150 C.ar  1 <1>  -0.1500 
 19 C        2.3160     7.2120     0.6570 C.3   1 <1>   0.1400 
 20 C        2.5460     5.3300    -1.0080 C.3   1 <1>   0.0600 
 21 C        1.2150     8.2220     0.3010 C.3   1 <1>   0.0000 
 22 C        0.9440     8.4240    -1.2140 C.3   1 <1>   0.0000 
 23 C        1.6570     9.7080     0.3420 C.3   1 <1>   0.0000 
 24 C        0.7390     9.9270    -0.8900 C.3   1 <1>   0.0000 
 25 H        0.4760     1.5910    -0.9120 H     1 <1>   0.0800 
 26 H        0.6030     0.7250     0.5990 H     1 <1>   0.0800 
 27 H       -1.3630     4.2510     1.7490 H     1 <1>   0.0800 
 28 H       -3.9850     3.3960     0.1070 H     1 <1>   0.0800 
 29 H       -3.6400     3.1080     1.8000 H     1 <1>   0.0800 
 30 H       -3.8930     1.7600     0.7150 H     1 <1>   0.0800 
 31 H        0.3140     4.0300    -0.7150 H     1 <1>   0.0800 
 32 H       -1.8710     6.4290     1.6610 H     1 <1>   0.1500 
 33 H       -3.1440     6.2330    -3.0680 H     1 <1>   0.1500 
 34 H       -2.1910     4.1640    -3.3610 H     1 <1>   0.0800 
 35 H       -2.9030     3.1890    -2.1080 H     1 <1>   0.0800 
 36 H       -1.1770     3.4300    -2.1640 H     1 <1>   0.0800 
 37 H       -2.8530     8.3750     0.5820 H     1 <1>   0.1500 
 38 H       -3.4910     8.2810    -1.7930 H     1 <1>   0.1500 
 39 H        2.4800     7.2270     1.7210 H     1 <1>   0.0800 
 40 H        3.2390     7.4850     0.1760 H     1 <1>   0.0800 
 41 H        3.5760     5.6400    -1.0490 H     1 <1>   0.0800 
 42 H        2.0270     5.7170    -1.8680 H     1 <1>   0.0800 
 43 H        2.5230     4.2540    -1.0310 H     1 <1>   0.0800 
 44 H        0.3080     8.0720     0.8620 H     1 <1>   0.0000 
 45 H        1.8110     8.2520    -1.8280 H     1 <1>   0.0000 
 46 H        0.0580     7.9280    -1.5680 H     1 <1>   0.0000 
 47 H        1.3360    10.2340     1.2230 H     1 <1>   0.0000 
 48 H        2.6990     9.8500     0.1090 H     1 <1>   0.0000 
 49 H       -0.2770    10.1580    -0.6160 H     1 <1>   0.0000 
 50 H        1.1510    10.5920    -1.6280 H     1 <1>   0.0000 
@<TRIPOS>BOND
  1   1   2  2   
  2   2   3  am  
  3   2   4  1   
  4   3   5  1   
  5   3   6  1   
  6   4   7  1   
  7   4  25  1   
  8   4  26  1   
  9   5   8  1   
 10   5   9  1   
 11   5  27  1   
 12   6  28  1   
 13   6  29  1   
 14   6  30  1   
 15   7   9  1   
 16   8  10  ar  
 17   8  11  ar  
 18   9  12  1   
 19   9  31  1   
 20  10  13  ar  
 21  10  14  1   
 22  11  15  ar  
 23  11  32  1   
 24  12  16  2   
 25  12  17  am  
 26  13  18  ar  
 27  13  33  1   
 28  14  34  1   
 29  14  35  1   
 30  14  36  1   
 31  15  18  ar  
 32  15  37  1   
 33  17  19  1   
 34  17  20  1   
 35  18  38  1   
 36  19  21  1   
 37  19  39  1   
 38  19  40  1   
 39  20  41  1   
 40  20  42  1   
 41  20  43  1   
 42  21  22  1   
 43  21  23  1   
 44  21  44  1   
 45  22  24  1   
 46  22  45  1   
 47  22  46  1   
 48  23  24  1   
 49  23  47  1   
 50  23  48  1   
 51  24  49  1   
 52  24  50  1   
@<TRIPOS>SUBSTRUCTURE
  1 ****   8 GROUP 4 **** **** 0

# MOE 2024.06 (io_trps.svl 2023.06)
