@<TRIPOS>MOLECULE
NONAME
57 59 1 0 0 
SMALL
USER_CHARGES


@<TRIPOS>ATOM
  1 CL       1.0480     0.0350    -1.6280 Cl    1 <1>  -0.1770 
  2 C        2.4540    -0.5780    -0.7880 C.ar  1 <1>   0.1770 
  3 C        2.9970     0.1260     0.2780 C.ar  1 <1>  -0.1440 
  4 C        3.0050    -1.7700    -1.2220 C.ar  1 <1>  -0.1500 
  5 C        4.1260    -0.3850     0.9020 C.ar  1 <1>  -0.1500 
  6 C        2.3950     1.4300     0.7660 C.3   1 <1>   0.2840 
  7 C        4.1270    -2.2730    -0.5870 C.ar  1 <1>  -0.1500 
  8 C        4.6870    -1.5780     0.4720 C.ar  1 <1>  -0.1500 
  9 N        3.0300     2.5390     0.0290 N.am  1 <1>  -0.7300 
 10 C        3.7830     3.5110     0.6000 C.2   1 <1>   0.5690 
 11 O        3.9300     3.5770     1.7960 O.2   1 <1>  -0.5700 
 12 C        4.4670     4.5280    -0.3120 C.3   1 <1>  -0.0190 
 13 C        5.8990     4.0780    -0.6550 C.3   1 <1>  -0.1600 
 14 C        4.4870     5.9450     0.2990 C.3   1 <1>  -0.1600 
 15 C        6.6230     5.1010    -1.5370 C.3   1 <1>   0.1400 
 16 C        5.2210     6.9350    -0.6070 C.3   1 <1>   0.1400 
 17 N        6.5980     6.4330    -0.8700 N.am  1 <1>  -0.6600 
 18 C        7.7730     7.0850    -0.5630 C.2   1 <1>   0.5690 
 19 O        8.8350     6.6750    -0.9730 O.2   1 <1>  -0.5700 
 20 C        7.7830     8.3550     0.3060 C.3   1 <1>  -0.0190 
 21 C        7.5570     9.6050    -0.5790 C.3   1 <1>  -0.1600 
 22 C        9.0530     8.4820     1.1920 C.3   1 <1>  -0.1600 
 23 C        8.0170    10.8840     0.1240 C.3   1 <1>   0.2000 
 24 C       10.1040     9.4260     0.5860 C.3   1 <1>  -0.1600 
 25 O        7.6830    11.9590    -0.7140 O.3   1 <1>  -0.5600 
 26 C        9.5430    10.8490     0.4190 C.3   1 <1>   0.2000 
 27 C        7.5790    13.1940    -0.0750 C.3   1 <1>   0.0400 
 28 O       10.2210    11.4490    -0.6250 O.3   1 <1>  -0.6800 
 29 H        2.5600    -2.2950    -2.0480 H     1 <1>   0.1500 
 30 H        4.5740     0.1480     1.7240 H     1 <1>   0.1500 
 31 H        2.5670     1.5390     1.8240 H     1 <1>   0.0800 
 32 H        1.3320     1.4510     0.6040 H     1 <1>   0.0800 
 33 H        4.5650    -3.2000    -0.9160 H     1 <1>   0.1500 
 34 H        5.5620    -1.9650     0.9660 H     1 <1>   0.1500 
 35 H        2.9670     2.4610    -0.9860 H     1 <1>   0.3700 
 36 H        3.9040     4.5770    -1.2270 H     1 <1>   0.0800 
 37 H        5.8720     3.1300    -1.1620 H     1 <1>   0.0800 
 38 H        6.4630     3.9460     0.2530 H     1 <1>   0.0800 
 39 H        4.9770     5.9230     1.2570 H     1 <1>   0.0800 
 40 H        3.4780     6.2820     0.4570 H     1 <1>   0.0800 
 41 H        6.1370     5.1780    -2.4940 H     1 <1>   0.0800 
 42 H        7.6340     4.7730    -1.7050 H     1 <1>   0.0800 
 43 H        5.2280     7.9060    -0.1500 H     1 <1>   0.0800 
 44 H        4.7000     7.0230    -1.5450 H     1 <1>   0.0800 
 45 H        6.9680     8.2750     0.9990 H     1 <1>   0.0800 
 46 H        6.5180     9.6880    -0.8390 H     1 <1>   0.0800 
 47 H        8.1220     9.4980    -1.4900 H     1 <1>   0.0800 
 48 H        8.7710     8.8640     2.1580 H     1 <1>   0.0800 
 49 H        9.4900     7.5110     1.3560 H     1 <1>   0.0800 
 50 H        7.4690    10.9780     1.0460 H     1 <1>   0.0800 
 51 H       10.3980     9.0320    -0.3730 H     1 <1>   0.0800 
 52 H       10.9760     9.4590     1.2140 H     1 <1>   0.0800 
 53 H        9.7400    11.4230     1.3080 H     1 <1>   0.0800 
 54 H        7.3230    13.9320    -0.8150 H     1 <1>   0.0800 
 55 H        8.5220    13.4480     0.3770 H     1 <1>   0.0800 
 56 H        6.8020    13.1460     0.6690 H     1 <1>   0.0800 
 57 H        9.5300    11.8540    -1.1980 H     1 <1>   0.4000 
@<TRIPOS>BOND
  1   1   2  1   
  2   2   3  ar  
  3   2   4  ar  
  4   3   5  ar  
  5   3   6  1   
  6   4   7  ar  
  7   4  29  1   
  8   5   8  ar  
  9   5  30  1   
 10   6   9  1   
 11   6  31  1   
 12   6  32  1   
 13   7   8  ar  
 14   7  33  1   
 15   8  34  1   
 16   9  10  am  
 17   9  35  1   
 18  10  11  2   
 19  10  12  1   
 20  12  13  1   
 21  12  14  1   
 22  12  36  1   
 23  13  15  1   
 24  13  37  1   
 25  13  38  1   
 26  14  16  1   
 27  14  39  1   
 28  14  40  1   
 29  15  17  1   
 30  15  41  1   
 31  15  42  1   
 32  16  17  1   
 33  16  43  1   
 34  16  44  1   
 35  17  18  am  
 36  18  19  2   
 37  18  20  1   
 38  20  21  1   
 39  20  22  1   
 40  20  45  1   
 41  21  23  1   
 42  21  46  1   
 43  21  47  1   
 44  22  24  1   
 45  22  48  1   
 46  22  49  1   
 47  23  25  1   
 48  23  26  1   
 49  23  50  1   
 50  24  26  1   
 51  24  51  1   
 52  24  52  1   
 53  25  27  1   
 54  26  28  1   
 55  26  53  1   
 56  27  54  1   
 57  27  55  1   
 58  27  56  1   
 59  28  57  1   
@<TRIPOS>SUBSTRUCTURE
  1 ****  13 GROUP 4 **** **** 0

# MOE 2024.06 (io_trps.svl 2023.06)
