@<TRIPOS>MOLECULE
NONAME
52 54 1 0 0 
SMALL
USER_CHARGES


@<TRIPOS>ATOM
  1 O       -1.1580     0.0390     1.1110 O.2   1 <1>  -0.5700 
  2 C       -1.5310     0.7440     0.2060 C.2   1 <1>   0.5690 
  3 N       -0.9890     1.9670    -0.0030 N.am  1 <1>  -0.7300 
  4 C       -2.6450     0.2780    -0.7320 C.3   1 <1>  -0.0190 
  5 C        0.0070     2.5950     0.8770 C.3   1 <1>   0.2840 
  6 C       -4.0010     0.8740    -0.3120 C.3   1 <1>  -0.1600 
  7 C       -2.7480    -1.2590    -0.8190 C.3   1 <1>  -0.1600 
  8 C       -0.1510     4.0990     0.7490 C.ar  1 <1>  -0.1440 
  9 C       -5.1350     0.4070    -1.2280 C.3   1 <1>   0.1400 
 10 C       -3.8960    -1.7000    -1.7300 C.3   1 <1>   0.1400 
 11 C        0.6670     4.8230    -0.1050 C.ar  1 <1>  -0.1500 
 12 C       -1.1250     4.7600     1.4820 C.ar  1 <1>  -0.1500 
 13 N       -5.1670    -1.0820    -1.2570 N.am  1 <1>  -0.6600 
 14 C        0.5140     6.1940    -0.2240 C.ar  1 <1>  -0.1500 
 15 C       -1.2780     6.1310     1.3640 C.ar  1 <1>  -0.1500 
 16 C       -6.2780    -1.7700    -0.8310 C.2   1 <1>   0.5690 
 17 C       -0.4590     6.8480     0.5110 C.ar  1 <1>  -0.1500 
 18 O       -7.2800    -1.1950    -0.4770 O.2   1 <1>  -0.5700 
 19 C       -6.2670    -3.2960    -0.7880 C.3   1 <1>  -0.0990 
 20 C       -7.5820    -3.9290    -0.2910 C.3   1 <1>  -0.1600 
 21 C       -7.4770    -5.4600    -0.2210 C.3   1 <1>   0.0960 
 22 N       -8.7600    -6.0700     0.1780 N.pl3 1 <1>   0.3140 
 23 N       -9.4520    -6.8690    -0.6550 N.2   1 <1>  -0.7070 
 24 C       -9.3850    -5.9460     1.3660 C.2   1 <1>  -0.3020 
 25 C      -10.5000    -7.2290     0.0210 C.2   1 <1>   0.1390 
 26 C      -10.5150    -6.6820     1.2980 C.2   1 <1>  -0.1500 
 27 H       -1.3460     2.5870    -0.7310 H     1 <1>   0.3700 
 28 H       -2.4080     0.6430    -1.7160 H     1 <1>   0.0800 
 29 H        0.9950     2.2900     0.5780 H     1 <1>   0.0800 
 30 H       -0.1530     2.2850     1.8970 H     1 <1>   0.0800 
 31 H       -3.9510     1.9480    -0.3340 H     1 <1>   0.0800 
 32 H       -4.2280     0.5800     0.6990 H     1 <1>   0.0800 
 33 H       -2.9110    -1.6690     0.1640 H     1 <1>   0.0800 
 34 H       -1.8220    -1.6610    -1.1890 H     1 <1>   0.0800 
 35 H       -4.9810     0.7740    -2.2280 H     1 <1>   0.0800 
 36 H       -6.0700     0.8050    -0.8710 H     1 <1>   0.0800 
 37 H       -3.9550    -2.7720    -1.7360 H     1 <1>   0.0800 
 38 H       -3.7060    -1.3740    -2.7390 H     1 <1>   0.0800 
 39 H        1.4260     4.3240    -0.6820 H     1 <1>   0.1500 
 40 H       -1.7670     4.2080     2.1460 H     1 <1>   0.1500 
 41 H        1.1520     6.7510    -0.8870 H     1 <1>   0.1500 
 42 H       -2.0350     6.6390     1.9360 H     1 <1>   0.1500 
 43 H       -0.5770     7.9140     0.4200 H     1 <1>   0.1500 
 44 H       -5.4660    -3.6000    -0.1390 H     1 <1>   0.0800 
 45 H       -6.0640    -3.6570    -1.7790 H     1 <1>   0.0800 
 46 H       -8.3790    -3.6570    -0.9630 H     1 <1>   0.0800 
 47 H       -7.8150    -3.5400     0.6850 H     1 <1>   0.0800 
 48 H       -6.7290    -5.7530     0.4920 H     1 <1>   0.0800 
 49 H       -7.2080    -5.8550    -1.1840 H     1 <1>   0.0800 
 50 H       -9.0010    -5.3530     2.1750 H     1 <1>   0.1500 
 51 H      -11.2640    -7.8780    -0.3730 H     1 <1>   0.1500 
 52 H      -11.2740    -6.8300     2.0440 H     1 <1>   0.1500 
@<TRIPOS>BOND
  1   1   2  2   
  2   2   3  am  
  3   2   4  1   
  4   3   5  1   
  5   3  27  1   
  6   4   6  1   
  7   4   7  1   
  8   4  28  1   
  9   5   8  1   
 10   5  29  1   
 11   5  30  1   
 12   6   9  1   
 13   6  31  1   
 14   6  32  1   
 15   7  10  1   
 16   7  33  1   
 17   7  34  1   
 18   8  11  ar  
 19   8  12  ar  
 20   9  13  1   
 21   9  35  1   
 22   9  36  1   
 23  10  13  1   
 24  10  37  1   
 25  10  38  1   
 26  11  14  ar  
 27  11  39  1   
 28  12  15  ar  
 29  12  40  1   
 30  13  16  am  
 31  14  17  ar  
 32  14  41  1   
 33  15  17  ar  
 34  15  42  1   
 35  16  18  2   
 36  16  19  1   
 37  17  43  1   
 38  19  20  1   
 39  19  44  1   
 40  19  45  1   
 41  20  21  1   
 42  20  46  1   
 43  20  47  1   
 44  21  22  1   
 45  21  48  1   
 46  21  49  1   
 47  22  23  1   
 48  22  24  1   
 49  23  25  2   
 50  24  26  2   
 51  24  50  1   
 52  25  26  1   
 53  25  51  1   
 54  26  52  1   
@<TRIPOS>SUBSTRUCTURE
  1 ****   6 GROUP 4 **** **** 0

# MOE 2024.06 (io_trps.svl 2023.06)
