@<TRIPOS>MOLECULE
NONAME
48 50 1 0 0 
SMALL
USER_CHARGES


@<TRIPOS>ATOM
  1 S       -0.0450    -0.6020    -0.6150 S.3   1 <1>  -0.3320 
  2 C       -0.6200     1.0870    -0.4100 C.ar  1 <1>   0.1020 
  3 C       -0.9290    -1.2250    -2.1290 C.3   1 <1>   0.1310 
  4 C       -0.8470     1.5380     0.8740 C.ar  1 <1>  -0.1500 
  5 C       -0.8380     1.9040    -1.5080 C.ar  1 <1>  -0.1500 
  6 C       -1.6630    -2.5290    -1.8410 C.2   1 <1>   0.5690 
  7 C       -1.3220     2.8230     1.0730 C.ar  1 <1>   0.0830 
  8 C       -1.3130     3.1890    -1.3080 C.ar  1 <1>  -0.1500 
  9 O       -1.1680    -3.5360    -2.2940 O.2   1 <1>  -0.5700 
 10 N       -2.8550    -2.5590    -1.1480 N.am  1 <1>  -0.6600 
 11 O       -1.5500     3.1960     2.3550 O.3   1 <1>  -0.3630 
 12 C       -1.5570     3.6490    -0.0240 C.ar  1 <1>  -0.1500 
 13 C       -3.4610    -1.3540    -0.4950 C.3   1 <1>   0.2200 
 14 C       -3.5930    -3.8560    -1.0260 C.3   1 <1>   0.0600 
 15 C       -1.7750     4.5490     2.6960 C.3   1 <1>   0.0400 
 16 C       -4.0240    -1.5920     0.9090 C.3   1 <1>  -0.1600 
 17 C       -4.6260    -0.7910    -1.3000 C.3   1 <1>  -0.1600 
 18 C       -5.0890    -0.5030     1.1040 C.3   1 <1>  -0.0800 
 19 C       -5.4250     0.0430    -0.2940 C.3   1 <1>  -0.0800 
 20 C       -4.6180     0.6990     1.9390 C.3   1 <1>  -0.1600 
 21 C       -5.0380     1.5290    -0.2690 C.3   1 <1>  -0.1600 
 22 C       -5.1700     1.9050     1.1960 C.3   1 <1>   0.2000 
 23 O       -4.4330     3.0310     1.4800 O.3   1 <1>  -0.6800 
 24 H       -1.6240    -0.4760    -2.4510 H     1 <1>   0.0800 
 25 H       -0.1810    -1.3780    -2.8840 H     1 <1>   0.0800 
 26 H       -0.6610     0.8960     1.7150 H     1 <1>   0.1500 
 27 H       -0.6340     1.5550    -2.5030 H     1 <1>   0.1500 
 28 H       -1.4900     3.8350    -2.1520 H     1 <1>   0.1500 
 29 H       -1.9340     4.6470     0.1030 H     1 <1>   0.1500 
 30 H       -2.7320    -0.5730    -0.4010 H     1 <1>   0.0800 
 31 H       -4.6550    -3.6950    -1.0820 H     1 <1>   0.0800 
 32 H       -3.3510    -4.3200    -0.0870 H     1 <1>   0.0800 
 33 H       -3.3150    -4.5280    -1.8200 H     1 <1>   0.0800 
 34 H       -1.8330     4.6170     3.7670 H     1 <1>   0.0800 
 35 H       -2.7030     4.8760     2.2630 H     1 <1>   0.0800 
 36 H       -0.9520     5.1410     2.3360 H     1 <1>   0.0800 
 37 H       -4.5160    -2.5430     0.9790 H     1 <1>   0.0800 
 38 H       -3.2470    -1.5470     1.6510 H     1 <1>   0.0800 
 39 H       -4.2890    -0.2050    -2.1360 H     1 <1>   0.0800 
 40 H       -5.2480    -1.5910    -1.6570 H     1 <1>   0.0800 
 41 H       -5.9740    -0.9250     1.5520 H     1 <1>   0.0800 
 42 H       -6.4830    -0.0460    -0.4820 H     1 <1>   0.0800 
 43 H       -3.5430     0.7430     1.9550 H     1 <1>   0.0800 
 44 H       -4.9940     0.6530     2.9450 H     1 <1>   0.0800 
 45 H       -5.6880     2.1200    -0.8890 H     1 <1>   0.0800 
 46 H       -4.0160     1.6550    -0.5830 H     1 <1>   0.0800 
 47 H       -6.2000     2.0880     1.4550 H     1 <1>   0.0800 
 48 H       -3.4760     2.8110     1.4880 H     1 <1>   0.4000 
@<TRIPOS>BOND
  1   1   2  1   
  2   1   3  1   
  3   2   4  ar  
  4   2   5  ar  
  5   3   6  1   
  6   3  24  1   
  7   3  25  1   
  8   4   7  ar  
  9   4  26  1   
 10   5   8  ar  
 11   5  27  1   
 12   6   9  2   
 13   6  10  am  
 14   7  11  1   
 15   7  12  ar  
 16   8  12  ar  
 17   8  28  1   
 18  10  13  1   
 19  10  14  1   
 20  11  15  1   
 21  12  29  1   
 22  13  16  1   
 23  13  17  1   
 24  13  30  1   
 25  14  31  1   
 26  14  32  1   
 27  14  33  1   
 28  15  34  1   
 29  15  35  1   
 30  15  36  1   
 31  16  18  1   
 32  16  37  1   
 33  16  38  1   
 34  17  19  1   
 35  17  39  1   
 36  17  40  1   
 37  18  19  1   
 38  18  20  1   
 39  18  41  1   
 40  19  21  1   
 41  19  42  1   
 42  20  22  1   
 43  20  43  1   
 44  20  44  1   
 45  21  22  1   
 46  21  45  1   
 47  21  46  1   
 48  22  23  1   
 49  22  47  1   
 50  23  48  1   
@<TRIPOS>SUBSTRUCTURE
  1 ****  13 GROUP 4 **** **** 0

# MOE 2024.06 (io_trps.svl 2023.06)
