@<TRIPOS>MOLECULE
NONAME
52 55 1 0 0 
SMALL
USER_CHARGES


@<TRIPOS>ATOM
  1 O       -2.4720     0.2500     0.0800 O.2   1 <1>  -0.5700 
  2 C       -2.5960     1.1010    -0.7860 C.2   1 <1>   0.5440 
  3 N       -3.5170     0.8300    -1.7700 N.am  1 <1>  -0.6600 
  4 C       -1.9000     2.3720    -0.7170 C.ar  1 <1>   0.0860 
  5 C       -4.8830     1.4010    -1.5680 C.3   1 <1>   0.1400 
  6 C       -3.5650    -0.5620    -2.3300 C.3   1 <1>   0.1400 
  7 C       -1.3760     2.8320     0.4820 C.ar  1 <1>  -0.1500 
  8 C       -1.7480     3.1860    -1.8630 C.ar  1 <1>  -0.1500 
  9 C       -5.7000     0.5420    -0.5620 C.3   1 <1>   0.4230 
 10 C       -4.6110    -1.4450    -1.6040 C.3   1 <1>   0.3430 
 11 C       -0.7420     4.0650     0.5470 C.ar  1 <1>   0.2270 
 12 C       -1.1150     4.4060    -1.8140 C.ar  1 <1>  -0.1500 
 13 N       -5.0570    -0.8080    -0.3160 N.4   1 <1>  -0.9590 
 14 C       -7.1660     0.3790    -1.0210 C.3   1 <1>   0.1200 
 15 N       -0.1860     4.6930     1.6190 N.2   1 <1>  -0.5650 
 16 C       -0.6130     4.8420    -0.5870 C.ar  1 <1>  -0.1520 
 17 C       -5.9050    -1.6410     0.5940 C.3   1 <1>   0.4230 
 18 O       -7.8800    -0.4260    -0.1260 O.3   1 <1>  -0.5600 
 19 C        0.2640     5.8000     1.1450 C.2   1 <1>   0.0060 
 20 N        0.0420     5.9570    -0.1850 N.pl3 1 <1>   0.0330 
 21 C       -7.3600    -1.7140     0.0720 C.3   1 <1>   0.1200 
 22 C       -5.2700    -3.0240     0.8120 C.3   1 <1>  -0.1600 
 23 C        0.9780     6.8430     1.9770 C.3   1 <1>  -0.0600 
 24 C       -5.8960    -3.7760     1.9970 C.3   1 <1>  -0.1600 
 25 C       -5.1820    -5.1100     2.2330 C.3   1 <1>  -0.2400 
 26 H       -4.8100     2.4100    -1.1970 H     1 <1>   0.0800 
 27 H       -5.3860     1.4470    -2.5190 H     1 <1>   0.0800 
 28 H       -3.7870    -0.5230    -3.3830 H     1 <1>   0.0800 
 29 H       -2.5940    -1.0180    -2.2260 H     1 <1>   0.0800 
 30 H       -1.4480     2.2540     1.3850 H     1 <1>   0.1500 
 31 H       -2.1360     2.8340    -2.8030 H     1 <1>   0.1500 
 32 H       -5.7230     1.0800     0.3720 H     1 <1>   0.0800 
 33 H       -4.1680    -2.4080    -1.4130 H     1 <1>   0.0800 
 34 H       -5.4600    -1.5970    -2.2490 H     1 <1>   0.0800 
 35 H       -1.0020     5.0180    -2.6930 H     1 <1>   0.1500 
 36 H       -4.1610    -0.5840     0.1700 H     1 <1>   0.4500 
 37 H       -7.2250    -0.0640    -2.0000 H     1 <1>   0.0800 
 38 H       -7.6540     1.3380    -1.0500 H     1 <1>   0.0800 
 39 H       -5.9410    -1.1520     1.5540 H     1 <1>   0.0800 
 40 H        0.3160     6.7530    -0.7670 H     1 <1>   0.2700 
 41 H       -7.9910    -2.2020     0.7940 H     1 <1>   0.0800 
 42 H       -7.4180    -2.2590    -0.8530 H     1 <1>   0.0800 
 43 H       -5.3770    -3.6270    -0.0720 H     1 <1>   0.0800 
 44 H       -4.2210    -2.8940     1.0180 H     1 <1>   0.0800 
 45 H        1.0420     6.5100     2.9980 H     1 <1>   0.0800 
 46 H        0.4360     7.7710     1.9520 H     1 <1>   0.0800 
 47 H        1.9730     6.9980     1.6030 H     1 <1>   0.0800 
 48 H       -5.8220    -3.1810     2.8920 H     1 <1>   0.0800 
 49 H       -6.9380    -3.9750     1.8130 H     1 <1>   0.0800 
 50 H       -4.1410    -4.9520     2.4560 H     1 <1>   0.0800 
 51 H       -5.2580    -5.7430     1.3660 H     1 <1>   0.0800 
 52 H       -5.6300    -5.6240     3.0660 H     1 <1>   0.0800 
@<TRIPOS>BOND
  1   1   2  2   
  2   2   3  am  
  3   2   4  1   
  4   3   5  1   
  5   3   6  1   
  6   4   7  ar  
  7   4   8  ar  
  8   5   9  1   
  9   5  26  1   
 10   5  27  1   
 11   6  10  1   
 12   6  28  1   
 13   6  29  1   
 14   7  11  ar  
 15   7  30  1   
 16   8  12  ar  
 17   8  31  1   
 18   9  13  1   
 19   9  14  1   
 20   9  32  1   
 21  10  13  1   
 22  10  33  1   
 23  10  34  1   
 24  11  15  1   
 25  11  16  ar  
 26  12  16  ar  
 27  12  35  1   
 28  13  17  1   
 29  13  36  1   
 30  14  18  1   
 31  14  37  1   
 32  14  38  1   
 33  15  19  2   
 34  16  20  1   
 35  17  21  1   
 36  17  22  1   
 37  17  39  1   
 38  18  21  1   
 39  19  20  1   
 40  19  23  1   
 41  20  40  1   
 42  21  41  1   
 43  21  42  1   
 44  22  24  1   
 45  22  43  1   
 46  22  44  1   
 47  23  45  1   
 48  23  46  1   
 49  23  47  1   
 50  24  25  1   
 51  24  48  1   
 52  24  49  1   
 53  25  50  1   
 54  25  51  1   
 55  25  52  1   
@<TRIPOS>SUBSTRUCTURE
  1 ****   2 GROUP 4 **** **** 0

# MOE 2024.06 (io_trps.svl 2023.06)
