@<TRIPOS>MOLECULE
NONAME
51 54 1 0 0 
SMALL
USER_CHARGES


@<TRIPOS>ATOM
  1 O       -1.0290     5.0360     2.0640 O.2   1 <1>  -0.5700 
  2 C       -0.7900     4.0740     1.3510 C.2   1 <1>   0.5440 
  3 N       -1.8550     3.2610     0.9910 N.am  1 <1>  -0.6600 
  4 C        0.5940     3.8340     0.9320 C.ar  1 <1>   0.3960 
  5 C       -3.2710     3.7390     1.0690 C.3   1 <1>   0.1400 
  6 C       -1.7170     1.9400     0.3200 C.3   1 <1>   0.1400 
  7 N        0.8730     3.5120    -0.3450 N.ar  1 <1>  -0.6200 
  8 C        1.6090     3.9620     1.8810 C.ar  1 <1>  -0.1500 
  9 C       -3.8670     3.8770    -0.3450 C.3   1 <1>   0.1440 
 10 C       -2.2700     2.0340    -1.1070 C.3   1 <1>  -0.1600 
 11 C        2.1370     3.3160    -0.6620 C.ar  1 <1>   0.1670 
 12 C        2.9270     3.7530     1.5450 C.ar  1 <1>  -0.1500 
 13 C       -5.3130     4.3170    -0.2150 C.ar  1 <1>   0.1660 
 14 C       -3.7240     2.5430    -1.1130 C.3   1 <1>  -0.1600 
 15 C       -3.2300     5.0650    -1.1170 C.3   1 <1>  -0.1600 
 16 C        3.1870     3.4210     0.2350 C.ar  1 <1>  -0.1500 
 17 C        2.4050     2.9570    -2.1080 C.3   1 <1>  -0.0970 
 18 N       -6.3080     3.5540     0.1650 N.ar  1 <1>  -0.6200 
 19 C       -5.4650     5.6330    -0.5290 C.ar  1 <1>  -0.1430 
 20 C       -4.1560     6.2750    -0.9140 C.3   1 <1>  -0.0170 
 21 C       -7.4990     4.1540     0.2120 C.ar  1 <1>   0.7200 
 22 C       -6.7260     6.1660    -0.4490 C.ar  1 <1>   0.1600 
 23 N       -7.7520     5.4340    -0.0810 N.ar  1 <1>  -0.6200 
 24 N       -8.5730     3.3780     0.6040 N.pl3 1 <1>  -0.8380 
 25 C       -9.9810     3.8240     0.4140 C.3   1 <1>   0.1290 
 26 C       -8.3960     2.0470     1.2490 C.3   1 <1>   0.1290 
 27 H       -3.3320     4.6840     1.5800 H     1 <1>   0.0800 
 28 H       -3.8490     3.0270     1.6330 H     1 <1>   0.0800 
 29 H       -2.2780     1.2100     0.8780 H     1 <1>   0.0800 
 30 H       -0.6910     1.6180     0.3020 H     1 <1>   0.0800 
 31 H        1.3450     4.2310     2.8880 H     1 <1>   0.1500 
 32 H       -2.2270     1.0630    -1.5670 H     1 <1>   0.0800 
 33 H       -1.6420     2.6940    -1.6790 H     1 <1>   0.0800 
 34 H        3.7170     3.8490     2.2700 H     1 <1>   0.1500 
 35 H       -4.0740     2.6580    -2.1240 H     1 <1>   0.0800 
 36 H       -4.3480     1.8050    -0.6400 H     1 <1>   0.0800 
 37 H       -3.2050     4.8370    -2.1680 H     1 <1>   0.0800 
 38 H       -2.2250     5.2780    -0.7970 H     1 <1>   0.0800 
 39 H        4.1990     3.2490    -0.0850 H     1 <1>   0.1500 
 40 H        1.8780     2.0540    -2.3570 H     1 <1>   0.0800 
 41 H        3.4540     2.8080    -2.2840 H     1 <1>   0.0800 
 42 H        2.0540     3.7480    -2.7440 H     1 <1>   0.0800 
 43 H       -4.2430     6.8630    -1.8100 H     1 <1>   0.0800 
 44 H       -3.8010     6.8890    -0.1030 H     1 <1>   0.0800 
 45 H       -6.8960     7.2010    -0.6870 H     1 <1>   0.1500 
 46 H      -10.0590     4.4720    -0.4420 H     1 <1>   0.0800 
 47 H      -10.3080     4.3590     1.2880 H     1 <1>   0.0800 
 48 H      -10.6210     2.9750     0.2550 H     1 <1>   0.0800 
 49 H       -7.4650     2.0110     1.7890 H     1 <1>   0.0800 
 50 H       -8.3920     1.2810     0.4940 H     1 <1>   0.0800 
 51 H       -9.1960     1.8620     1.9430 H     1 <1>   0.0800 
@<TRIPOS>BOND
  1   1   2  2   
  2   2   3  am  
  3   2   4  1   
  4   3   5  1   
  5   3   6  1   
  6   4   7  ar  
  7   4   8  ar  
  8   5   9  1   
  9   5  27  1   
 10   5  28  1   
 11   6  10  1   
 12   6  29  1   
 13   6  30  1   
 14   7  11  ar  
 15   8  12  ar  
 16   8  31  1   
 17   9  13  1   
 18   9  14  1   
 19   9  15  1   
 20  10  14  1   
 21  10  32  1   
 22  10  33  1   
 23  11  16  ar  
 24  11  17  1   
 25  12  16  ar  
 26  12  34  1   
 27  13  18  ar  
 28  13  19  ar  
 29  14  35  1   
 30  14  36  1   
 31  15  20  1   
 32  15  37  1   
 33  15  38  1   
 34  16  39  1   
 35  17  40  1   
 36  17  41  1   
 37  17  42  1   
 38  18  21  ar  
 39  19  20  1   
 40  19  22  ar  
 41  20  43  1   
 42  20  44  1   
 43  21  23  ar  
 44  21  24  1   
 45  22  23  ar  
 46  22  45  1   
 47  24  25  1   
 48  24  26  1   
 49  25  46  1   
 50  25  47  1   
 51  25  48  1   
 52  26  49  1   
 53  26  50  1   
 54  26  51  1   
@<TRIPOS>SUBSTRUCTURE
  1 ****   5 GROUP 4 **** **** 0

# MOE 2024.06 (io_trps.svl 2023.06)
