@<TRIPOS>MOLECULE
NONAME
47 48 1 0 0 
SMALL
USER_CHARGES


@<TRIPOS>ATOM
  1 S       -0.1880     0.0760     0.0880 S.o2  1 <1>   1.3330 
  2 O       -0.0730    -0.7570     1.2640 O.2   1 <1>  -0.6500 
  3 O       -0.8530     1.3550     0.1860 O.2   1 <1>  -0.6500 
  4 N       -0.9620    -0.8360    -1.1170 N.am  1 <1>  -0.8490 
  5 C        1.4360     0.3570    -0.6210 C.3   1 <1>  -0.0550 
  6 C       -2.4120    -0.6230    -1.1290 C.3   1 <1>   0.1160 
  7 C       -0.6690    -2.2720    -1.0390 C.3   1 <1>   0.1160 
  8 C        2.3400     1.2510     0.2500 C.3   1 <1>  -0.0800 
  9 C        3.5980     1.6520    -0.5010 C.3   1 <1>   0.2200 
 10 C        2.9220     0.4930     1.4460 C.3   1 <1>   0.1200 
 11 N        4.1380     2.8930     0.0960 N.am  1 <1>  -0.7300 
 12 C        4.5340     0.4840    -0.2080 C.3   1 <1>   0.1200 
 13 O        4.1370    -0.0490     1.0210 O.3   1 <1>  -0.5600 
 14 C        4.1480     4.1170    -0.5050 C.2   1 <1>   0.5440 
 15 O        3.7410     4.2140    -1.6450 O.2   1 <1>  -0.5700 
 16 C        4.6350     5.2680     0.2300 C.ar  1 <1>   0.0860 
 17 C        3.7650     6.0340     1.0160 C.ar  1 <1>  -0.1440 
 18 C        5.9880     5.6280     0.1860 C.ar  1 <1>  -0.1440 
 19 C        4.2410     7.1120     1.7410 C.ar  1 <1>  -0.1500 
 20 C        2.2800     5.6950     1.0810 C.3   1 <1>  -0.0970 
 21 C        6.4490     6.7090     0.9170 C.ar  1 <1>  -0.1500 
 22 C        6.9710     4.8390    -0.6710 C.3   1 <1>  -0.0970 
 23 C        5.5800     7.4500     1.6950 C.ar  1 <1>  -0.1500 
 24 H        1.9200    -0.5830    -0.7960 H     1 <1>   0.0800 
 25 H        1.2980     0.8370    -1.5710 H     1 <1>   0.0800 
 26 H       -2.8690    -1.2030    -1.9130 H     1 <1>   0.0800 
 27 H       -2.6310     0.4160    -1.3100 H     1 <1>   0.0800 
 28 H       -2.8410    -0.9070    -0.1820 H     1 <1>   0.0800 
 29 H       -1.1080    -2.7840    -1.8780 H     1 <1>   0.0800 
 30 H       -1.0660    -2.6880    -0.1270 H     1 <1>   0.0800 
 31 H        0.3940    -2.4360    -1.0590 H     1 <1>   0.0800 
 32 H        1.7810     2.1170     0.5620 H     1 <1>   0.0800 
 33 H        3.4380     1.7850    -1.5580 H     1 <1>   0.0800 
 34 H        2.2930    -0.3020     1.8070 H     1 <1>   0.0800 
 35 H        3.1350     1.1690     2.2560 H     1 <1>   0.0800 
 36 H        4.4980     2.8020     1.0480 H     1 <1>   0.3700 
 37 H        5.5650     0.7850    -0.1560 H     1 <1>   0.0800 
 38 H        4.4170    -0.2880    -0.9480 H     1 <1>   0.0800 
 39 H        3.5740     7.7010     2.3460 H     1 <1>   0.1500 
 40 H        1.7400     6.4200     1.6630 H     1 <1>   0.0800 
 41 H        2.1380     4.7280     1.5270 H     1 <1>   0.0800 
 42 H        1.8610     5.6830     0.0890 H     1 <1>   0.0800 
 43 H        7.4890     6.9850     0.8850 H     1 <1>   0.1500 
 44 H        7.9550     5.2690    -0.6290 H     1 <1>   0.0800 
 45 H        6.6460     4.8410    -1.6960 H     1 <1>   0.0800 
 46 H        7.0290     3.8220    -0.3270 H     1 <1>   0.0800 
 47 H        5.9450     8.2890     2.2610 H     1 <1>   0.1500 
@<TRIPOS>BOND
  1   1   2  2   
  2   1   3  2   
  3   1   4  am  
  4   1   5  1   
  5   4   6  1   
  6   4   7  1   
  7   5   8  1   
  8   5  24  1   
  9   5  25  1   
 10   6  26  1   
 11   6  27  1   
 12   6  28  1   
 13   7  29  1   
 14   7  30  1   
 15   7  31  1   
 16   8   9  1   
 17   8  10  1   
 18   8  32  1   
 19   9  11  1   
 20   9  12  1   
 21   9  33  1   
 22  10  13  1   
 23  10  34  1   
 24  10  35  1   
 25  11  14  am  
 26  11  36  1   
 27  12  13  1   
 28  12  37  1   
 29  12  38  1   
 30  14  15  2   
 31  14  16  1   
 32  16  17  ar  
 33  16  18  ar  
 34  17  19  ar  
 35  17  20  1   
 36  18  21  ar  
 37  18  22  1   
 38  19  23  ar  
 39  19  39  1   
 40  20  40  1   
 41  20  41  1   
 42  20  42  1   
 43  21  23  ar  
 44  21  43  1   
 45  22  44  1   
 46  22  45  1   
 47  22  46  1   
 48  23  47  1   
@<TRIPOS>SUBSTRUCTURE
  1 ****  11 GROUP 4 **** **** 0

# MOE 2024.06 (io_trps.svl 2023.06)
