@<TRIPOS>MOLECULE
NONAME
52 55 1 0 0 
SMALL
USER_CHARGES


@<TRIPOS>ATOM
  1 O       -0.8060     0.1640    -1.8840 O.2   1 <1>  -0.5700 
  2 C       -1.5760     0.7730    -1.1740 C.2   1 <1>   0.5770 
  3 N       -2.5610     0.0840    -0.5060 N.am  1 <1>  -0.6600 
  4 C       -1.4560     2.3100    -1.0940 C.3   1 <1>   0.0530 
  5 C       -3.5150     0.6060     0.5020 C.3   1 <1>   0.1400 
  6 C       -2.7040    -1.3860    -0.6360 C.3   1 <1>   0.1400 
  7 C       -0.4890     2.9500    -2.1470 C.3   1 <1>   0.0000 
  8 C       -2.6060     3.0290    -1.8630 C.3   1 <1>   0.0000 
  9 C       -1.2330     2.8930     0.3130 C.3   1 <1>   0.1200 
 10 C       -4.3840    -0.5920     0.8760 C.3   1 <1>   0.2000 
 11 C       -3.5280    -1.8220     0.5780 C.3   1 <1>  -0.0800 
 12 C       -1.6940     3.0250    -3.1170 C.3   1 <1>   0.0000 
 13 O       -0.2720     2.1520     0.9920 O.3   1 <1>  -0.5600 
 14 O       -4.7390    -0.5640     2.2160 O.3   1 <1>  -0.6800 
 15 C       -4.3780    -3.0840     0.3420 C.3   1 <1>  -0.0170 
 16 C        0.0910     2.6820     2.2260 C.3   1 <1>   0.0400 
 17 C       -3.6140    -4.3850     0.0650 C.ar  1 <1>  -0.1440 
 18 C       -4.3120    -5.5280    -0.4010 C.ar  1 <1>   0.0000 
 19 C       -2.2670    -4.5200     0.2560 C.ar  1 <1>  -0.1500 
 20 C       -3.5650    -6.7030    -0.6640 C.ar  1 <1>   0.3100 
 21 C       -5.7100    -5.5790    -0.6130 C.ar  1 <1>  -0.1500 
 22 C       -1.6250    -5.7310    -0.0300 C.ar  1 <1>   0.1600 
 23 N       -2.2250    -6.7880    -0.4750 N.ar  1 <1>  -0.6200 
 24 C       -4.2310    -7.8440    -1.1390 C.ar  1 <1>  -0.1500 
 25 C       -6.3300    -6.7090    -1.0730 C.ar  1 <1>  -0.1500 
 26 C       -5.5830    -7.8570    -1.3430 C.ar  1 <1>  -0.1500 
 27 H       -2.9650     0.9430     1.3620 H     1 <1>   0.0800 
 28 H       -4.1120     1.4010     0.0920 H     1 <1>   0.0800 
 29 H       -3.2220    -1.6050    -1.5540 H     1 <1>   0.0800 
 30 H       -1.7370    -1.8600    -0.6570 H     1 <1>   0.0800 
 31 H       -0.1450     3.9320    -1.8710 H     1 <1>   0.0000 
 32 H        0.3110     2.3200    -2.4920 H     1 <1>   0.0000 
 33 H       -3.5010     2.4450    -1.9860 H     1 <1>   0.0000 
 34 H       -2.7980     4.0260    -1.5050 H     1 <1>   0.0000 
 35 H       -2.1420     2.8730     0.8840 H     1 <1>   0.0800 
 36 H       -0.8970     3.9130     0.2460 H     1 <1>   0.0800 
 37 H       -5.2850    -0.5850     0.2860 H     1 <1>   0.0800 
 38 H       -2.8520    -1.9790     1.3990 H     1 <1>   0.0800 
 39 H       -1.8090     2.1360    -3.7140 H     1 <1>   0.0000 
 40 H       -1.7370     3.9350    -3.6880 H     1 <1>   0.0000 
 41 H       -3.9470    -0.6620     2.7800 H     1 <1>   0.4000 
 42 H       -5.0270    -2.8840    -0.4930 H     1 <1>   0.0800 
 43 H       -5.0010    -3.2430     1.2060 H     1 <1>   0.0800 
 44 H        0.8240     2.0280     2.6660 H     1 <1>   0.0800 
 45 H       -0.7760     2.7360     2.8600 H     1 <1>   0.0800 
 46 H        0.5200     3.6580     2.0810 H     1 <1>   0.0800 
 47 H       -1.6470    -3.7270     0.6260 H     1 <1>   0.1500 
 48 H       -6.3110    -4.7140    -0.4060 H     1 <1>   0.1500 
 49 H       -0.5620    -5.7850     0.1300 H     1 <1>   0.1500 
 50 H       -3.6350    -8.7160    -1.3350 H     1 <1>   0.1500 
 51 H       -7.3950    -6.7290    -1.2310 H     1 <1>   0.1500 
 52 H       -6.0810    -8.7400    -1.7070 H     1 <1>   0.1500 
@<TRIPOS>BOND
  1   1   2  2   
  2   2   3  am  
  3   2   4  1   
  4   3   5  1   
  5   3   6  1   
  6   4   7  1   
  7   4   8  1   
  8   4   9  1   
  9   5  10  1   
 10   5  27  1   
 11   5  28  1   
 12   6  11  1   
 13   6  29  1   
 14   6  30  1   
 15   7  12  1   
 16   7  31  1   
 17   7  32  1   
 18   8  12  1   
 19   8  33  1   
 20   8  34  1   
 21   9  13  1   
 22   9  35  1   
 23   9  36  1   
 24  10  11  1   
 25  10  14  1   
 26  10  37  1   
 27  11  15  1   
 28  11  38  1   
 29  12  39  1   
 30  12  40  1   
 31  13  16  1   
 32  14  41  1   
 33  15  17  1   
 34  15  42  1   
 35  15  43  1   
 36  16  44  1   
 37  16  45  1   
 38  16  46  1   
 39  17  18  ar  
 40  17  19  ar  
 41  18  20  ar  
 42  18  21  ar  
 43  19  22  ar  
 44  19  47  1   
 45  20  23  ar  
 46  20  24  ar  
 47  21  25  ar  
 48  21  48  1   
 49  22  23  ar  
 50  22  49  1   
 51  24  26  ar  
 52  24  50  1   
 53  25  26  ar  
 54  25  51  1   
 55  26  52  1   
@<TRIPOS>SUBSTRUCTURE
  1 ****   6 GROUP 4 **** **** 0

# MOE 2024.06 (io_trps.svl 2023.06)
