@<TRIPOS>MOLECULE
NONAME
50 52 1 0 0 
SMALL
USER_CHARGES


@<TRIPOS>ATOM
  1 S       -0.9470     0.4280     1.2150 S.3   1 <1>  -0.4600 
  2 C       -1.8070     1.3240    -0.0840 C.3   1 <1>   0.0700 
  3 C        0.7490     0.9750     0.9830 C.3   1 <1>   0.0700 
  4 C       -1.5760     2.8160     0.1620 C.3   1 <1>  -0.1600 
  5 C        0.7720     2.4980     1.1270 C.3   1 <1>  -0.1600 
  6 C       -0.0920     3.2340     0.0780 C.3   1 <1>   0.4230 
  7 N       -0.0100     4.7290     0.2530 N.4   1 <1>  -0.9590 
  8 C       -0.6060     5.4630    -0.9150 C.3   1 <1>   0.3430 
  9 C        1.3680     5.2550     0.5370 C.3   1 <1>   0.3430 
 10 C       -0.6900     6.9570    -0.6270 C.3   1 <1>  -0.1600 
 11 C        1.3170     6.7440     0.8490 C.3   1 <1>  -0.1600 
 12 C        0.6930     7.5080    -0.3090 C.3   1 <1>   0.2890 
 13 N        0.5620     8.9100     0.0790 N.pl3 1 <1>  -0.8690 
 14 C        1.4690     9.8860    -0.2660 C.ar  1 <1>   0.4100 
 15 N        2.7000     9.4510    -0.5330 N.ar  1 <1>  -0.6200 
 16 C        1.0810    11.2410    -0.3150 C.ar  1 <1>   0.0860 
 17 C        3.5880    10.3660    -0.8650 C.ar  1 <1>   0.1600 
 18 C       -0.2690    11.6580    -0.0010 C.2   1 <1>   0.5440 
 19 C        2.0490    12.1700    -0.6770 C.ar  1 <1>  -0.1500 
 20 C        3.3200    11.7200    -0.9530 C.ar  1 <1>  -0.1500 
 21 O       -1.2330    10.9660    -0.2870 O.2   1 <1>  -0.5700 
 22 N       -0.4960    12.8500     0.6350 N.am  1 <1>  -0.7300 
 23 C       -1.8280    13.4040     0.9920 C.3   1 <1>   0.0600 
 24 H       -2.8490     1.0620    -0.0080 H     1 <1>   0.0800 
 25 H       -1.4130     0.9910    -1.0290 H     1 <1>   0.0800 
 26 H        1.0680     0.6460     0.0090 H     1 <1>   0.0800 
 27 H        1.3410     0.4930     1.7430 H     1 <1>   0.0800 
 28 H       -1.9710     3.0600     1.1330 H     1 <1>   0.0800 
 29 H       -2.1620     3.3290    -0.5750 H     1 <1>   0.0800 
 30 H        1.8040     2.7740     1.0250 H     1 <1>   0.0800 
 31 H        0.4430     2.7510     2.1200 H     1 <1>   0.0800 
 32 H        0.2830     2.9760    -0.9000 H     1 <1>   0.0800 
 33 H       -0.5810     4.9550     1.0790 H     1 <1>   0.4500 
 34 H       -1.6000     5.1050    -1.1240 H     1 <1>   0.0800 
 35 H       -0.0010     5.3010    -1.7930 H     1 <1>   0.0800 
 36 H        2.0100     5.0860    -0.3130 H     1 <1>   0.0800 
 37 H        1.7940     4.7530     1.3900 H     1 <1>   0.0800 
 38 H       -1.3620     7.1310     0.1940 H     1 <1>   0.0800 
 39 H       -1.0780     7.4620    -1.4940 H     1 <1>   0.0800 
 40 H        2.3190     7.1030     1.0040 H     1 <1>   0.0800 
 41 H        0.7590     6.9110     1.7530 H     1 <1>   0.0800 
 42 H        1.3210     7.4290    -1.1840 H     1 <1>   0.0800 
 43 H       -0.4090     9.2660     0.0930 H     1 <1>   0.4000 
 44 H        4.5870    10.0250    -1.0810 H     1 <1>   0.1500 
 45 H        1.8130    13.2170    -0.7510 H     1 <1>   0.1500 
 46 H        4.0990    12.4050    -1.2360 H     1 <1>   0.1500 
 47 H        0.3060    13.3780     0.9860 H     1 <1>   0.3700 
 48 H       -2.6150    12.7970     0.5770 H     1 <1>   0.0800 
 49 H       -1.9230    14.4030     0.6040 H     1 <1>   0.0800 
 50 H       -1.9380    13.4270     2.0630 H     1 <1>   0.0800 
@<TRIPOS>BOND
  1   1   2  1   
  2   1   3  1   
  3   2   4  1   
  4   2  24  1   
  5   2  25  1   
  6   3   5  1   
  7   3  26  1   
  8   3  27  1   
  9   4   6  1   
 10   4  28  1   
 11   4  29  1   
 12   5   6  1   
 13   5  30  1   
 14   5  31  1   
 15   6   7  1   
 16   6  32  1   
 17   7   8  1   
 18   7   9  1   
 19   7  33  1   
 20   8  10  1   
 21   8  34  1   
 22   8  35  1   
 23   9  11  1   
 24   9  36  1   
 25   9  37  1   
 26  10  12  1   
 27  10  38  1   
 28  10  39  1   
 29  11  12  1   
 30  11  40  1   
 31  11  41  1   
 32  12  13  1   
 33  12  42  1   
 34  13  14  1   
 35  13  43  1   
 36  14  15  ar  
 37  14  16  ar  
 38  15  17  ar  
 39  16  18  1   
 40  16  19  ar  
 41  17  20  ar  
 42  17  44  1   
 43  18  21  2   
 44  18  22  am  
 45  19  20  ar  
 46  19  45  1   
 47  20  46  1   
 48  22  23  1   
 49  22  47  1   
 50  23  48  1   
 51  23  49  1   
 52  23  50  1   
@<TRIPOS>SUBSTRUCTURE
  1 ****  12 GROUP 4 **** **** 0

# MOE 2024.06 (io_trps.svl 2023.06)
