@<TRIPOS>MOLECULE
NONAME
37 38 1 0 0 
SMALL
USER_CHARGES


@<TRIPOS>ATOM
  1 O        0.1220     0.6650    -0.9430 O.2   1 <1>  -0.5700 
  2 C       -0.6470     1.5150    -0.5310 C.2   1 <1>   0.7150 
  3 N       -1.9840     1.2130    -0.4840 N.am  1 <1>  -0.7300 
  4 C       -0.1900     2.8190    -0.0950 C.2   1 <1>   0.0550 
  5 C       -2.6030    -0.0750    -0.8920 C.3   1 <1>   0.0600 
  6 O        1.1010     3.1420    -0.1200 O.3   1 <1>  -0.2800 
  7 C       -0.8830     3.8910     0.3860 C.2   1 <1>  -0.1500 
  8 C        1.2530     4.3700     0.3240 C.2   1 <1>  -0.0400 
  9 C        0.0510     4.8910     0.6570 C.2   1 <1>  -0.1500 
 10 C        2.6570     4.9520     0.3860 C.3   1 <1>   0.3890 
 11 N        2.6090     6.3920     0.7270 N.pl3 1 <1>  -0.8690 
 12 C        3.7440     7.1620     0.5270 C.ar  1 <1>   0.4100 
 13 N        4.9020     6.5780     0.7690 N.ar  1 <1>  -0.6200 
 14 C        3.6160     8.5160     0.0700 C.ar  1 <1>   0.4100 
 15 C        5.9270     7.3910     0.5460 C.ar  1 <1>   0.1600 
 16 N        4.6560     9.3020    -0.1500 N.ar  1 <1>  -0.6200 
 17 N        2.3500     9.0800    -0.1550 N.pl3 1 <1>  -0.8380 
 18 C        5.8090     8.6960     0.1040 C.ar  1 <1>   0.1600 
 19 C        2.2120     9.9890    -1.3270 C.3   1 <1>   0.1290 
 20 C        1.6860     9.6030     1.0660 C.3   1 <1>   0.1290 
 21 H       -2.6220     1.9280    -0.1360 H     1 <1>   0.3700 
 22 H       -1.8510    -0.7630    -1.2430 H     1 <1>   0.0800 
 23 H       -3.3100     0.0960    -1.6850 H     1 <1>   0.0800 
 24 H       -3.1100    -0.5180    -0.0520 H     1 <1>   0.0800 
 25 H       -1.9410     3.9870     0.5420 H     1 <1>   0.1500 
 26 H       -0.1650     5.8670     1.0550 H     1 <1>   0.1500 
 27 H        3.1380     4.8250    -0.5690 H     1 <1>   0.0800 
 28 H        3.2320     4.4270     1.1300 H     1 <1>   0.0800 
 29 H        1.8140     6.8610     0.2810 H     1 <1>   0.4000 
 30 H        6.9090     6.9900     0.7260 H     1 <1>   0.1500 
 31 H        6.7020     9.2760    -0.0480 H     1 <1>   0.1500 
 32 H        2.7540     9.5870    -2.1660 H     1 <1>   0.0800 
 33 H        2.6150    10.9590    -1.0900 H     1 <1>   0.0800 
 34 H        1.1760    10.0880    -1.5970 H     1 <1>   0.0800 
 35 H        1.8150     8.9130     1.8820 H     1 <1>   0.0800 
 36 H        0.6330     9.7330     0.8850 H     1 <1>   0.0800 
 37 H        2.1200    10.5490     1.3410 H     1 <1>   0.0800 
@<TRIPOS>BOND
  1   1   2  2   
  2   2   3  am  
  3   2   4  1   
  4   3   5  1   
  5   3  21  1   
  6   4   6  1   
  7   4   7  2   
  8   5  22  1   
  9   5  23  1   
 10   5  24  1   
 11   6   8  1   
 12   7   9  1   
 13   7  25  1   
 14   8   9  2   
 15   8  10  1   
 16   9  26  1   
 17  10  11  1   
 18  10  27  1   
 19  10  28  1   
 20  11  12  1   
 21  11  29  1   
 22  12  13  ar  
 23  12  14  ar  
 24  13  15  ar  
 25  14  16  ar  
 26  14  17  1   
 27  15  18  ar  
 28  15  30  1   
 29  16  18  ar  
 30  17  19  1   
 31  17  20  1   
 32  18  31  1   
 33  19  32  1   
 34  19  33  1   
 35  19  34  1   
 36  20  35  1   
 37  20  36  1   
 38  20  37  1   
@<TRIPOS>SUBSTRUCTURE
  1 ****  10 GROUP 4 **** **** 0

# MOE 2024.06 (io_trps.svl 2023.06)
