@<TRIPOS>MOLECULE
NONAME
44 46 1 0 0 
SMALL
USER_CHARGES


@<TRIPOS>ATOM
  1 S       -0.1970    -0.1720     0.5410 S.3   1 <1>  -0.0800 
  2 C       -1.6280    -0.7690    -0.2350 C.2   1 <1>   0.4420 
  3 C       -0.6540     1.4100     0.0120 C.2   1 <1>   0.1980 
  4 N       -2.2980     0.1700    -0.7980 N.2   1 <1>  -0.3380 
  5 N       -1.8410    -2.1290    -0.1600 N.am  1 <1>  -0.4940 
  6 N       -1.7380     1.4090    -0.6520 N.2   1 <1>  -0.3380 
  7 C        0.2530     2.5660     0.3850 C.3   1 <1>   0.0200 
  8 C       -2.9210    -2.8780    -0.5620 C.2   1 <1>   0.5440 
  9 C       -0.2880     3.8940    -0.1420 C.3   1 <1>   0.1200 
 10 O       -3.9490    -2.3300    -0.8990 O.2   1 <1>  -0.5700 
 11 C       -2.8300    -4.3230    -0.5340 C.ar  1 <1>   0.0860 
 12 O        0.5940     4.9000     0.2370 O.3   1 <1>  -0.5600 
 13 C       -3.9340    -5.0980    -0.2130 C.ar  1 <1>  -0.1500 
 14 C       -1.6170    -4.9880    -0.8250 C.ar  1 <1>  -0.1500 
 15 C        0.2140     6.1660    -0.1850 C.3   1 <1>   0.1200 
 16 C       -3.8440    -6.4890    -0.1540 C.ar  1 <1>   0.0000 
 17 C       -1.5090    -6.3570    -0.7720 C.ar  1 <1>  -0.1500 
 18 C        1.2710     7.1480     0.3030 C.3   1 <1>  -0.2400 
 19 C       -2.6330    -7.1100    -0.4290 C.ar  1 <1>  -0.1520 
 20 C       -4.7650    -7.5190     0.1440 C.2   1 <1>  -0.1810 
 21 N       -2.8060    -8.4610    -0.3020 N.pl3 1 <1>   0.0330 
 22 C       -4.1070    -8.7010     0.0470 C.2   1 <1>  -0.3320 
 23 C       -6.2150    -7.2460     0.4970 C.3   1 <1>  -0.0590 
 24 C       -4.6030   -10.1210     0.2600 C.3   1 <1>  -0.0600 
 25 H       -1.1060    -2.6540     0.3020 H     1 <1>   0.3700 
 26 H        1.2290     2.3930    -0.0300 H     1 <1>   0.0800 
 27 H        0.3300     2.6180     1.4560 H     1 <1>   0.0800 
 28 H       -1.2570     4.1000     0.2810 H     1 <1>   0.0800 
 29 H       -0.3540     3.8730    -1.2170 H     1 <1>   0.0800 
 30 H       -4.8780    -4.6290    -0.0040 H     1 <1>   0.1500 
 31 H       -0.7570    -4.4090    -1.1080 H     1 <1>   0.1500 
 32 H       -0.7480     6.4010     0.2400 H     1 <1>   0.0800 
 33 H        0.1560     6.1730    -1.2600 H     1 <1>   0.0800 
 34 H       -0.5810    -6.8550    -0.9960 H     1 <1>   0.1500 
 35 H        1.3300     7.1230     1.3770 H     1 <1>   0.0800 
 36 H        1.0120     8.1450    -0.0040 H     1 <1>   0.0800 
 37 H        2.2290     6.8960    -0.1150 H     1 <1>   0.0800 
 38 H       -2.0820    -9.1690    -0.4510 H     1 <1>   0.2700 
 39 H       -6.2640    -6.6340     1.3790 H     1 <1>   0.0800 
 40 H       -6.7480    -8.1590     0.6830 H     1 <1>   0.0800 
 41 H       -6.6930    -6.7280    -0.3140 H     1 <1>   0.0800 
 42 H       -5.6420   -10.1300     0.5300 H     1 <1>   0.0800 
 43 H       -4.0440   -10.5920     1.0490 H     1 <1>   0.0800 
 44 H       -4.4820   -10.6920    -0.6430 H     1 <1>   0.0800 
@<TRIPOS>BOND
  1   1   2  1   
  2   1   3  1   
  3   2   4  2   
  4   2   5  1   
  5   3   6  2   
  6   3   7  1   
  7   4   6  1   
  8   5   8  am  
  9   5  25  1   
 10   7   9  1   
 11   7  26  1   
 12   7  27  1   
 13   8  10  2   
 14   8  11  1   
 15   9  12  1   
 16   9  28  1   
 17   9  29  1   
 18  11  13  ar  
 19  11  14  ar  
 20  12  15  1   
 21  13  16  ar  
 22  13  30  1   
 23  14  17  ar  
 24  14  31  1   
 25  15  18  1   
 26  15  32  1   
 27  15  33  1   
 28  16  19  ar  
 29  16  20  1   
 30  17  19  ar  
 31  17  34  1   
 32  18  35  1   
 33  18  36  1   
 34  18  37  1   
 35  19  21  1   
 36  20  22  2   
 37  20  23  1   
 38  21  22  1   
 39  21  38  1   
 40  22  24  1   
 41  23  39  1   
 42  23  40  1   
 43  23  41  1   
 44  24  42  1   
 45  24  43  1   
 46  24  44  1   
@<TRIPOS>SUBSTRUCTURE
  1 ****   5 GROUP 4 **** **** 0

# MOE 2024.06 (io_trps.svl 2023.06)
