@<TRIPOS>MOLECULE
NONAME
54 57 1 0 0 
SMALL
USER_CHARGES


@<TRIPOS>ATOM
  1 O       -2.7560     2.5900    -2.1440 O.2   1 <1>  -0.5700 
  2 C       -2.6760     2.9350    -0.9790 C.2   1 <1>   0.5440 
  3 N       -3.4840     2.3160    -0.0430 N.am  1 <1>  -0.6600 
  4 C       -1.7280     3.9740    -0.6100 C.ar  1 <1>   0.0860 
  5 C       -4.7030     1.5770    -0.4980 C.3   1 <1>   0.2200 
  6 C       -2.9300     1.9730     1.3020 C.3   1 <1>   0.0600 
  7 C       -2.0230     4.9320     0.3610 C.ar  1 <1>  -0.1500 
  8 C       -0.4810     4.0610    -1.2290 C.ar  1 <1>  -0.1500 
  9 C       -5.6620     2.4940    -1.2600 C.3   1 <1>  -0.1600 
 10 C       -5.5810     1.0310     0.6330 C.3   1 <1>  -0.1600 
 11 C       -1.1170     5.9170     0.7060 C.ar  1 <1>  -0.1500 
 12 C        0.4310     5.0420    -0.8900 C.ar  1 <1>  -0.1500 
 13 C       -7.0200     1.7870    -1.2000 C.3   1 <1>  -0.0800 
 14 C       -6.9600     0.8300    -0.0080 C.3   1 <1>  -0.0800 
 15 C        0.1260     5.9850     0.0860 C.ar  1 <1>  -0.0230 
 16 C       -8.2260     2.7020    -0.9430 C.3   1 <1>  -0.1600 
 17 C       -8.1610     1.1900     0.8820 C.3   1 <1>  -0.1600 
 18 N        1.0580     6.9950     0.4350 N.pl3 1 <1>   0.3260 
 19 C       -9.1620     1.8870    -0.0470 C.3   1 <1>   0.4230 
 20 C        0.8660     8.3120     0.5900 C.2   1 <1>   0.0360 
 21 C        2.3670     6.8850     0.7040 C.2   1 <1>   0.0360 
 22 N       -9.9260     0.8800    -0.8530 N.4   1 <1>  -0.9590 
 23 N        1.9440     8.9340     0.9190 N.2   1 <1>  -0.3380 
 24 N        2.9100     8.0160     0.9920 N.2   1 <1>  -0.3380 
 25 C      -10.8100     1.5140    -1.8850 C.3   1 <1>   0.2630 
 26 C      -10.7630    -0.0280    -0.0040 C.3   1 <1>   0.2630 
 27 H       -4.4030     0.7650    -1.1410 H     1 <1>   0.0800 
 28 H       -3.5090     2.4520     2.0720 H     1 <1>   0.0800 
 29 H       -1.9070     2.2950     1.3900 H     1 <1>   0.0800 
 30 H       -2.9530     0.9070     1.4480 H     1 <1>   0.0800 
 31 H       -2.9840     4.9000     0.8450 H     1 <1>   0.1500 
 32 H       -0.2350     3.3410    -1.9920 H     1 <1>   0.1500 
 33 H       -5.7000     3.4480    -0.7640 H     1 <1>   0.0800 
 34 H       -5.3440     2.6360    -2.2780 H     1 <1>   0.0800 
 35 H       -5.1950     0.1080     1.0250 H     1 <1>   0.0800 
 36 H       -5.6450     1.7640     1.4170 H     1 <1>   0.0800 
 37 H       -1.3810     6.6340     1.4650 H     1 <1>   0.1500 
 38 H        1.3810     5.0750    -1.3970 H     1 <1>   0.1500 
 39 H       -7.1660     1.2160    -2.1020 H     1 <1>   0.0800 
 40 H       -7.0450    -0.1820    -0.3680 H     1 <1>   0.0800 
 41 H       -8.6640     3.0670    -1.8520 H     1 <1>   0.0800 
 42 H       -7.9080     3.5600    -0.3760 H     1 <1>   0.0800 
 43 H       -7.8580     1.9130     1.6190 H     1 <1>   0.0800 
 44 H       -8.5470     0.3400     1.4110 H     1 <1>   0.0800 
 45 H       -9.8380     2.5230     0.5030 H     1 <1>   0.0800 
 46 H       -0.0920     8.7750     0.4450 H     1 <1>   0.1500 
 47 H        2.8820     5.9440     0.6790 H     1 <1>   0.1500 
 48 H       -9.2170     0.3130    -1.3390 H     1 <1>   0.4500 
 49 H      -11.5030     2.1950    -1.4170 H     1 <1>   0.0800 
 50 H      -11.3720     0.7570    -2.4090 H     1 <1>   0.0800 
 51 H      -10.2250     2.0570    -2.6080 H     1 <1>   0.0800 
 52 H      -11.4550     0.5470     0.5900 H     1 <1>   0.0800 
 53 H      -10.1440    -0.6130     0.6550 H     1 <1>   0.0800 
 54 H      -11.3240    -0.7070    -0.6260 H     1 <1>   0.0800 
@<TRIPOS>BOND
  1   1   2  2   
  2   2   3  am  
  3   2   4  1   
  4   3   5  1   
  5   3   6  1   
  6   4   7  ar  
  7   4   8  ar  
  8   5   9  1   
  9   5  10  1   
 10   5  27  1   
 11   6  28  1   
 12   6  29  1   
 13   6  30  1   
 14   7  11  ar  
 15   7  31  1   
 16   8  12  ar  
 17   8  32  1   
 18   9  13  1   
 19   9  33  1   
 20   9  34  1   
 21  10  14  1   
 22  10  35  1   
 23  10  36  1   
 24  11  15  ar  
 25  11  37  1   
 26  12  15  ar  
 27  12  38  1   
 28  13  14  1   
 29  13  16  1   
 30  13  39  1   
 31  14  17  1   
 32  14  40  1   
 33  15  18  1   
 34  16  19  1   
 35  16  41  1   
 36  16  42  1   
 37  17  19  1   
 38  17  43  1   
 39  17  44  1   
 40  18  20  1   
 41  18  21  1   
 42  19  22  1   
 43  19  45  1   
 44  20  23  2   
 45  20  46  1   
 46  21  24  2   
 47  21  47  1   
 48  22  25  1   
 49  22  26  1   
 50  22  48  1   
 51  23  24  1   
 52  25  49  1   
 53  25  50  1   
 54  25  51  1   
 55  26  52  1   
 56  26  53  1   
 57  26  54  1   
@<TRIPOS>SUBSTRUCTURE
  1 ****   3 GROUP 4 **** **** 0

# MOE 2024.06 (io_trps.svl 2023.06)
