@<TRIPOS>MOLECULE
NONAME
54 56 1 0 0 
SMALL
USER_CHARGES


@<TRIPOS>ATOM
  1 S        0.2270     0.5780    -1.9170 S.o2  1 <1>   1.4470 
  2 O        1.0950     1.4870    -2.6360 O.2   1 <1>  -0.6500 
  3 O       -0.7950    -0.0800    -2.7020 O.2   1 <1>  -0.6500 
  4 N       -0.5960     1.5230    -0.7650 N.am  1 <1>  -0.8490 
  5 C        1.2560    -0.5880    -0.9250 C.ar  1 <1>  -0.0090 
  6 C       -1.1810     0.8790     0.4300 C.3   1 <1>   0.1960 
  7 C       -1.3910     2.6140    -1.3240 C.3   1 <1>   0.1960 
  8 C        2.0890    -0.1320     0.1170 C.ar  1 <1>  -0.1440 
  9 C        1.2270    -1.9700    -1.1680 C.ar  1 <1>  -0.1430 
 10 C       -2.6980     0.5370     0.3840 C.3   1 <1>   0.0000 
 11 C       -2.8420     2.1860    -1.5570 C.3   1 <1>  -0.1600 
 12 C        2.7730    -1.0280     0.9430 C.ar  1 <1>  -0.1430 
 13 C        2.2820     1.3680     0.3850 C.3   1 <1>  -0.0970 
 14 C        1.9340    -2.8470    -0.3660 C.ar  1 <1>  -0.1500 
 15 C        0.4430    -2.6070    -2.3120 C.3   1 <1>  -0.0970 
 16 C       -3.1470     0.2340     1.8320 C.3   1 <1>   0.2000 
 17 C       -3.4860     1.7070    -0.2510 C.3   1 <1>  -0.1600 
 18 C       -2.9680    -0.8120    -0.3130 C.3   1 <1>  -0.1600 
 19 C        2.7000    -2.3940     0.6940 C.ar  1 <1>   0.0830 
 20 C        3.6180    -0.5390     2.1280 C.3   1 <1>  -0.0970 
 21 O       -4.5280     0.2640     1.9310 O.3   1 <1>  -0.6800 
 22 C       -2.7100    -1.2070     2.0970 C.3   1 <1>  -0.1600 
 23 C       -2.6920    -1.9030     0.7300 C.3   1 <1>  -0.1600 
 24 O        3.3960    -3.2430     1.4960 O.3   1 <1>  -0.3630 
 25 C        3.4550    -4.6330     1.2620 C.3   1 <1>   0.0400 
 26 H       -0.6200    -0.0010     0.6880 H     1 <1>   0.0800 
 27 H       -1.0380     1.5730     1.2390 H     1 <1>   0.0800 
 28 H       -1.3750     3.4390    -0.6320 H     1 <1>   0.0800 
 29 H       -0.9550     2.9570    -2.2480 H     1 <1>   0.0800 
 30 H       -3.3950     3.0250    -1.9390 H     1 <1>   0.0800 
 31 H       -2.8790     1.4090    -2.3010 H     1 <1>   0.0800 
 32 H        3.2990     1.5800     0.6580 H     1 <1>   0.0800 
 33 H        1.6370     1.6870     1.1830 H     1 <1>   0.0800 
 34 H        2.0890     1.9810    -0.4700 H     1 <1>   0.0800 
 35 H        1.8800    -3.8970    -0.5770 H     1 <1>   0.1500 
 36 H        0.7040    -3.6410    -2.4440 H     1 <1>   0.0800 
 37 H        0.6570    -2.1060    -3.2400 H     1 <1>   0.0800 
 38 H       -0.6130    -2.5570    -2.1160 H     1 <1>   0.0800 
 39 H       -2.7530     0.9280     2.5550 H     1 <1>   0.0800 
 40 H       -4.5060     1.4200    -0.4420 H     1 <1>   0.0800 
 41 H       -3.5100     2.5290     0.4430 H     1 <1>   0.0800 
 42 H       -4.0030    -0.8670    -0.6010 H     1 <1>   0.0800 
 43 H       -2.3840    -0.9640    -1.1940 H     1 <1>   0.0800 
 44 H        3.1360     0.2740     2.6370 H     1 <1>   0.0800 
 45 H        4.5810    -0.2160     1.7760 H     1 <1>   0.0800 
 46 H        3.7700    -1.3090     2.8610 H     1 <1>   0.0800 
 47 H       -4.9020    -0.3900     1.3110 H     1 <1>   0.4000 
 48 H       -1.7130    -1.2020     2.5010 H     1 <1>   0.0800 
 49 H       -3.3550    -1.7010     2.8040 H     1 <1>   0.0800 
 50 H       -1.7260    -2.3480     0.5590 H     1 <1>   0.0800 
 51 H       -3.4410    -2.6750     0.6770 H     1 <1>   0.0800 
 52 H        4.0920    -5.0700     2.0100 H     1 <1>   0.0800 
 53 H        3.8700    -4.8050     0.2850 H     1 <1>   0.0800 
 54 H        2.4650    -5.0430     1.3420 H     1 <1>   0.0800 
@<TRIPOS>BOND
  1   1   2  2   
  2   1   3  2   
  3   1   4  am  
  4   1   5  1   
  5   4   6  1   
  6   4   7  1   
  7   5   8  ar  
  8   5   9  ar  
  9   6  10  1   
 10   6  26  1   
 11   6  27  1   
 12   7  11  1   
 13   7  28  1   
 14   7  29  1   
 15   8  12  ar  
 16   8  13  1   
 17   9  14  ar  
 18   9  15  1   
 19  10  16  1   
 20  10  17  1   
 21  10  18  1   
 22  11  17  1   
 23  11  30  1   
 24  11  31  1   
 25  12  19  ar  
 26  12  20  1   
 27  13  32  1   
 28  13  33  1   
 29  13  34  1   
 30  14  19  ar  
 31  14  35  1   
 32  15  36  1   
 33  15  37  1   
 34  15  38  1   
 35  16  21  1   
 36  16  22  1   
 37  16  39  1   
 38  17  40  1   
 39  17  41  1   
 40  18  23  1   
 41  18  42  1   
 42  18  43  1   
 43  19  24  1   
 44  20  44  1   
 45  20  45  1   
 46  20  46  1   
 47  21  47  1   
 48  22  23  1   
 49  22  48  1   
 50  22  49  1   
 51  23  50  1   
 52  23  51  1   
 53  24  25  1   
 54  25  52  1   
 55  25  53  1   
 56  25  54  1   
@<TRIPOS>SUBSTRUCTURE
  1 ****   5 GROUP 4 **** **** 0

# MOE 2024.06 (io_trps.svl 2023.06)
