@<TRIPOS>MOLECULE
NONAME
25 25 1 0 0 
SMALL
USER_CHARGES


@<TRIPOS>ATOM
  1 C       -0.1610    -0.0120    -0.3020 C.2   1 <1>  -0.2880 
  2 C       -1.1950     0.6710     0.2030 C.2   1 <1>  -0.2880 
  3 C       -0.0490    -1.5160    -0.5310 C.3   1 <1>   0.0580 
  4 C       -1.2140     2.1750     0.3930 C.3   1 <1>  -0.1020 
  5 C       -1.3400    -2.2780    -0.1880 C.3   1 <1>  -0.1600 
  6 C        1.1300    -2.0700     0.2840 C.3   1 <1>  -0.1600 
  7 C       -1.1780    -3.7910    -0.3990 C.3   1 <1>  -0.1600 
  8 C        1.2980    -3.5840     0.0850 C.3   1 <1>  -0.1600 
  9 C        0.0030    -4.3360     0.4150 C.3   1 <1>  -0.1600 
 10 H        0.7400     0.4920    -0.6080 H     1 <1>   0.1500 
 11 H       -2.1140     0.2090     0.5210 H     1 <1>   0.1500 
 12 H        0.1600    -1.6710    -1.5760 H     1 <1>   0.0800 
 13 H       -1.3600     2.4110     1.4320 H     1 <1>   0.0800 
 14 H       -2.0160     2.6070    -0.1780 H     1 <1>   0.0800 
 15 H       -0.2870     2.6120     0.0690 H     1 <1>   0.0800 
 16 H       -2.1440    -1.9160    -0.8050 H     1 <1>   0.0800 
 17 H       -1.5990    -2.0960     0.8400 H     1 <1>   0.0800 
 18 H        0.9620    -1.8650     1.3280 H     1 <1>   0.0800 
 19 H        2.0360    -1.5710    -0.0070 H     1 <1>   0.0800 
 20 H       -1.0140    -3.9900    -1.4440 H     1 <1>   0.0800 
 21 H       -2.0820    -4.2940    -0.1040 H     1 <1>   0.0800 
 22 H        2.0940    -3.9440     0.7150 H     1 <1>   0.0800 
 23 H        1.5730    -3.7800    -0.9370 H     1 <1>   0.0800 
 24 H        0.1310    -5.3850     0.2070 H     1 <1>   0.0800 
 25 H       -0.2110    -4.2320     1.4650 H     1 <1>   0.0800 
@<TRIPOS>BOND
  1   1   2  2   
  2   1   3  1   
  3   1  10  1   
  4   2   4  1   
  5   2  11  1   
  6   3   5  1   
  7   3   6  1   
  8   3  12  1   
  9   4  13  1   
 10   4  14  1   
 11   4  15  1   
 12   5   7  1   
 13   5  16  1   
 14   5  17  1   
 15   6   8  1   
 16   6  18  1   
 17   6  19  1   
 18   7   9  1   
 19   7  20  1   
 20   7  21  1   
 21   8   9  1   
 22   8  22  1   
 23   8  23  1   
 24   9  24  1   
 25   9  25  1   
@<TRIPOS>SUBSTRUCTURE
  1 ****   3 GROUP 4 **** **** 0

# MOE 2024.06 (io_trps.svl 2023.06)
