@<TRIPOS>MOLECULE
NONAME
52 54 1 0 0 
SMALL
USER_CHARGES


@<TRIPOS>ATOM
  1 CL      -0.1520    -0.2290    -0.0210 Cl    1 <1>  -0.1770 
  2 C       -0.3300    -1.9570     0.1430 C.ar  1 <1>   0.1770 
  3 C       -1.3770    -2.4640     0.8880 C.ar  1 <1>  -0.1500 
  4 C        0.5790    -2.7940    -0.4760 C.ar  1 <1>  -0.1500 
  5 C       -1.5150    -3.8360     1.0160 C.ar  1 <1>  -0.1500 
  6 C        0.4360    -4.1650    -0.3450 C.ar  1 <1>  -0.1500 
  7 C       -0.6110    -4.6910     0.4000 C.ar  1 <1>  -0.1430 
  8 C       -0.7750    -6.1950     0.5400 C.3   1 <1>  -0.0160 
  9 C       -1.7750    -6.7100    -0.4960 C.3   1 <1>   0.1400 
 10 N       -1.9210    -8.1870    -0.3870 N.am  1 <1>  -0.7300 
 11 C       -2.8930    -8.7980     0.3500 C.2   1 <1>   0.5690 
 12 O       -3.6890    -8.1630     0.9960 O.2   1 <1>  -0.5700 
 13 C       -3.0270   -10.3300     0.3510 C.3   1 <1>   0.4040 
 14 N       -3.7960   -10.9500    -0.8150 N.4   1 <1>  -0.9590 
 15 C       -5.2530   -10.6060    -0.9300 C.3   1 <1>   0.4230 
 16 C       -3.6410   -12.4370    -0.7820 C.3   1 <1>   0.2630 
 17 C       -6.0280   -10.5210     0.3840 C.3   1 <1>  -0.1600 
 18 C       -5.5020    -9.2790    -1.6390 C.3   1 <1>  -0.1600 
 19 C       -7.2870    -9.7210     0.0300 C.3   1 <1>  -0.0800 
 20 C       -6.9020    -8.8380    -1.1850 C.3   1 <1>  -0.0800 
 21 C       -7.8840    -8.9710     1.2430 C.3   1 <1>   0.1400 
 22 C       -6.9910    -7.3240    -0.9050 C.3   1 <1>  -0.0990 
 23 N       -8.6930    -7.8280     0.7770 N.am  1 <1>  -0.7300 
 24 C       -8.2950    -7.0000    -0.2110 C.2   1 <1>   0.5690 
 25 O       -8.9460    -6.0410    -0.5340 O.2   1 <1>  -0.5700 
 26 H       -2.0720    -1.7930     1.3600 H     1 <1>   0.1500 
 27 H        1.3860    -2.3740    -1.0490 H     1 <1>   0.1500 
 28 H       -2.3310    -4.2330     1.5970 H     1 <1>   0.1500 
 29 H        1.1460    -4.8160    -0.8260 H     1 <1>   0.1500 
 30 H       -1.1330    -6.4230     1.5290 H     1 <1>   0.0800 
 31 H        0.1770    -6.6760     0.4040 H     1 <1>   0.0800 
 32 H       -1.4400    -6.4520    -1.4860 H     1 <1>   0.0800 
 33 H       -2.7290    -6.2340    -0.3350 H     1 <1>   0.0800 
 34 H       -1.1790    -8.7140    -0.8540 H     1 <1>   0.3700 
 35 H       -3.4970   -10.6110     1.2780 H     1 <1>   0.0800 
 36 H       -2.0310   -10.7340     0.3690 H     1 <1>   0.0800 
 37 H       -3.3640   -10.6010    -1.6820 H     1 <1>   0.4500 
 38 H       -5.7370   -11.3600    -1.5310 H     1 <1>   0.0800 
 39 H       -4.0980   -12.8420     0.1070 H     1 <1>   0.0800 
 40 H       -2.5980   -12.7090    -0.7880 H     1 <1>   0.0800 
 41 H       -4.1140   -12.8820    -1.6430 H     1 <1>   0.0800 
 42 H       -6.2840   -11.4960     0.7610 H     1 <1>   0.0800 
 43 H       -5.4850    -9.9780     1.1330 H     1 <1>   0.0800 
 44 H       -4.7850    -8.5340    -1.3590 H     1 <1>   0.0800 
 45 H       -5.4760    -9.4010    -2.7070 H     1 <1>   0.0800 
 46 H       -8.0370   -10.4180    -0.3100 H     1 <1>   0.0800 
 47 H       -7.6060    -9.0550    -1.9740 H     1 <1>   0.0800 
 48 H       -7.0990    -8.5860     1.8730 H     1 <1>   0.0800 
 49 H       -8.4950    -9.6360     1.8280 H     1 <1>   0.0800 
 50 H       -6.9280    -6.7680    -1.8230 H     1 <1>   0.0800 
 51 H       -6.1910    -7.0080    -0.2600 H     1 <1>   0.0800 
 52 H       -9.5460    -7.5800     1.2840 H     1 <1>   0.3700 
@<TRIPOS>BOND
  1   1   2  1   
  2   2   3  ar  
  3   2   4  ar  
  4   3   5  ar  
  5   3  26  1   
  6   4   6  ar  
  7   4  27  1   
  8   5   7  ar  
  9   5  28  1   
 10   6   7  ar  
 11   6  29  1   
 12   7   8  1   
 13   8   9  1   
 14   8  30  1   
 15   8  31  1   
 16   9  10  1   
 17   9  32  1   
 18   9  33  1   
 19  10  11  am  
 20  10  34  1   
 21  11  12  2   
 22  11  13  1   
 23  13  14  1   
 24  13  35  1   
 25  13  36  1   
 26  14  15  1   
 27  14  16  1   
 28  14  37  1   
 29  15  17  1   
 30  15  18  1   
 31  15  38  1   
 32  16  39  1   
 33  16  40  1   
 34  16  41  1   
 35  17  19  1   
 36  17  42  1   
 37  17  43  1   
 38  18  20  1   
 39  18  44  1   
 40  18  45  1   
 41  19  20  1   
 42  19  21  1   
 43  19  46  1   
 44  20  22  1   
 45  20  47  1   
 46  21  23  1   
 47  21  48  1   
 48  21  49  1   
 49  22  24  1   
 50  22  50  1   
 51  22  51  1   
 52  23  24  am  
 53  23  52  1   
 54  24  25  2   
@<TRIPOS>SUBSTRUCTURE
  1 ****  12 GROUP 4 **** **** 0

# MOE 2024.06 (io_trps.svl 2023.06)
