@<TRIPOS>MOLECULE
NONAME
43 45 1 0 0 
SMALL
USER_CHARGES


@<TRIPOS>ATOM
  1 S       -0.5890     0.4860    -2.2040 S.3   1 <1>  -0.0800 
  2 C       -1.2350     1.2570    -0.7480 C.2   1 <1>  -0.0450 
  3 C       -1.3610    -1.0370    -1.8330 C.2   1 <1>  -0.1100 
  4 C       -1.9930     0.3470    -0.0770 C.2   1 <1>  -0.1810 
  5 C       -0.9190     2.6460    -0.5080 C.2   1 <1>   0.7150 
  6 C       -2.0570    -0.9410    -0.6870 C.2   1 <1>  -0.1500 
  7 C       -2.7470     0.6020     1.2170 C.3   1 <1>  -0.0590 
  8 O       -1.8080     3.4100    -0.1700 O.2   1 <1>  -0.5700 
  9 N        0.3630     3.1470    -0.6230 N.am  1 <1>  -0.6600 
 10 C        1.5830     2.2910    -0.4740 C.3   1 <1>   0.1400 
 11 C        0.5920     4.6060    -0.8100 C.3   1 <1>   0.1400 
 12 C        2.4710     2.7260     0.7020 C.3   1 <1>   0.1400 
 13 C        0.9460     5.2590     0.5300 C.3   1 <1>  -0.1600 
 14 N        3.1560     4.0240     0.4230 N.am  1 <1>  -0.6600 
 15 C        2.4460     5.2640     0.8550 C.3   1 <1>   0.1400 
 16 C        4.3330     4.0360    -0.3000 C.2   1 <1>   0.5440 
 17 O        4.6740     3.0220    -0.8780 O.2   1 <1>  -0.5700 
 18 C        5.1640     5.2140    -0.4150 C.ar  1 <1>   0.0860 
 19 C        5.6040     5.6340    -1.6690 C.ar  1 <1>   0.1600 
 20 C        5.5610     5.9650     0.6830 C.ar  1 <1>  -0.1500 
 21 N        6.3470     6.7050    -1.9160 N.ar  1 <1>  -0.6200 
 22 C        6.3370     7.0790     0.4550 C.ar  1 <1>   0.0820 
 23 C        6.6980     7.4050    -0.8480 C.ar  1 <1>   0.1600 
 24 O        6.7240     7.8250     1.5080 O.3   1 <1>  -0.5330 
 25 H       -1.2130    -1.8520    -2.5180 H     1 <1>   0.1500 
 26 H       -2.6250    -1.7400    -0.2420 H     1 <1>   0.1500 
 27 H       -2.5740     1.6010     1.5760 H     1 <1>   0.0800 
 28 H       -2.4270    -0.0920     1.9730 H     1 <1>   0.0800 
 29 H       -3.8020     0.4780     1.0540 H     1 <1>   0.0800 
 30 H        2.1530     2.3130    -1.3860 H     1 <1>   0.0800 
 31 H        1.2940     1.2720    -0.2970 H     1 <1>   0.0800 
 32 H       -0.3070     5.0570    -1.1960 H     1 <1>   0.0800 
 33 H        1.3730     4.7660    -1.5350 H     1 <1>   0.0800 
 34 H        3.2190     1.9680     0.8610 H     1 <1>   0.0800 
 35 H        1.8850     2.7950     1.6010 H     1 <1>   0.0800 
 36 H        0.3930     4.7840     1.3210 H     1 <1>   0.0800 
 37 H        0.6190     6.2830     0.5030 H     1 <1>   0.0800 
 38 H        2.5820     5.3980     1.9150 H     1 <1>   0.0800 
 39 H        2.8820     6.1140     0.3600 H     1 <1>   0.0800 
 40 H        5.3170     5.0380    -2.5200 H     1 <1>   0.1500 
 41 H        5.2770     5.6880     1.6820 H     1 <1>   0.1500 
 42 H        7.3030     8.2770    -1.0190 H     1 <1>   0.1500 
 43 H        7.3010     8.5770     1.2800 H     1 <1>   0.4500 
@<TRIPOS>BOND
  1   1   2  1   
  2   1   3  1   
  3   2   4  2   
  4   2   5  1   
  5   3   6  2   
  6   3  25  1   
  7   4   6  1   
  8   4   7  1   
  9   5   8  2   
 10   5   9  am  
 11   6  26  1   
 12   7  27  1   
 13   7  28  1   
 14   7  29  1   
 15   9  10  1   
 16   9  11  1   
 17  10  12  1   
 18  10  30  1   
 19  10  31  1   
 20  11  13  1   
 21  11  32  1   
 22  11  33  1   
 23  12  14  1   
 24  12  34  1   
 25  12  35  1   
 26  13  15  1   
 27  13  36  1   
 28  13  37  1   
 29  14  15  1   
 30  14  16  am  
 31  15  38  1   
 32  15  39  1   
 33  16  17  2   
 34  16  18  1   
 35  18  19  ar  
 36  18  20  ar  
 37  19  21  ar  
 38  19  40  1   
 39  20  22  ar  
 40  20  41  1   
 41  21  23  ar  
 42  22  23  ar  
 43  22  24  1   
 44  23  42  1   
 45  24  43  1   
@<TRIPOS>SUBSTRUCTURE
  1 ****  14 GROUP 4 **** **** 0

# MOE 2024.06 (io_trps.svl 2023.06)
