@<TRIPOS>MOLECULE
NONAME
58 60 1 0 0 
SMALL
USER_CHARGES


@<TRIPOS>ATOM
  1 O       -3.1970     2.2110    -1.8560 O.2   1 <1>  -0.5700 
  2 C       -2.9130     1.3390    -1.0510 C.2   1 <1>   0.5440 
  3 N       -3.5310     0.1070    -1.1870 N.am  1 <1>  -0.6600 
  4 C       -1.9260     1.6280    -0.0130 C.ar  1 <1>   0.3960 
  5 C       -3.0300    -1.1140    -0.4560 C.3   1 <1>   0.3640 
  6 C       -4.8230     0.0030    -1.9290 C.3   1 <1>   0.1400 
  7 N       -2.2160     1.4390     1.2720 N.ar  1 <1>  -0.6200 
  8 C       -0.6750     2.0870    -0.3810 C.ar  1 <1>  -0.1500 
  9 C       -1.5260    -1.2560    -0.7270 C.ar  1 <1>  -0.1440 
 10 C       -3.7320    -2.4590    -0.8280 C.3   1 <1>   0.2000 
 11 C       -5.0910    -1.4160    -2.4270 C.3   1 <1>   0.1200 
 12 C       -1.2440     1.7030     2.1130 C.ar  1 <1>   0.7200 
 13 C        0.2580     2.3320     0.5960 C.ar  1 <1>   0.1660 
 14 C       -0.6360    -1.3930     0.3290 C.ar  1 <1>  -0.1500 
 15 C       -1.0320    -1.2280    -2.0220 C.ar  1 <1>  -0.1500 
 16 O       -5.0210    -2.2960    -1.3530 O.3   1 <1>  -0.5600 
 17 C       -3.8820    -3.4030     0.3770 C.3   1 <1>   0.1200 
 18 N       -0.0290     2.1460     1.8640 N.ar  1 <1>  -0.6200 
 19 N       -1.5260     1.5070     3.4010 N.pl3 1 <1>  -0.9000 
 20 C        1.6580     2.8230     0.2180 C.3   1 <1>   0.0630 
 21 C        0.7360    -1.5000     0.1150 C.ar  1 <1>   0.0830 
 22 C        0.3260    -1.3380    -2.2520 C.ar  1 <1>  -0.1500 
 23 O       -2.6640    -3.6400     1.0070 O.3   1 <1>  -0.6800 
 24 C        2.7270     1.7880     0.5950 C.3   1 <1>  -0.2400 
 25 C        1.9700     4.1760     0.8710 C.3   1 <1>  -0.2400 
 26 O        1.6000    -1.6060     1.1660 O.3   1 <1>  -0.3630 
 27 C        1.2210    -1.4790    -1.2050 C.ar  1 <1>   0.0830 
 28 C        1.2100    -1.2870     2.4850 C.3   1 <1>   0.0400 
 29 O        2.5270    -1.5760    -1.5900 O.3   1 <1>  -0.3630 
 30 C        3.5100    -2.1750    -0.7760 C.3   1 <1>   0.0400 
 31 H       -3.1850    -0.9470     0.5960 H     1 <1>   0.0800 
 32 H       -5.6230     0.3040    -1.2760 H     1 <1>   0.0800 
 33 H       -4.8180     0.6710    -2.7720 H     1 <1>   0.0800 
 34 H       -0.4510     2.2340    -1.4210 H     1 <1>   0.1500 
 35 H       -3.1560    -2.9640    -1.5830 H     1 <1>   0.0800 
 36 H       -4.3770    -1.7070    -3.1780 H     1 <1>   0.0800 
 37 H       -6.0810    -1.4800    -2.8430 H     1 <1>   0.0800 
 38 H       -1.0380    -1.4110     1.3250 H     1 <1>   0.1500 
 39 H       -1.7020    -1.1110    -2.8560 H     1 <1>   0.1500 
 40 H       -4.2840    -4.3490     0.0600 H     1 <1>   0.0800 
 41 H       -4.5410    -2.9630     1.1060 H     1 <1>   0.0800 
 42 H       -2.5170     1.5040     3.6270 H     1 <1>   0.4000 
 43 H       -0.9230     2.0120     4.0440 H     1 <1>   0.4000 
 44 H        1.6980     2.9570    -0.8490 H     1 <1>   0.0800 
 45 H        0.7050    -1.3140    -3.2580 H     1 <1>   0.1500 
 46 H       -2.0270    -4.0690     0.3990 H     1 <1>   0.4000 
 47 H        2.7280     1.6180     1.6570 H     1 <1>   0.0800 
 48 H        3.7020     2.1260     0.2950 H     1 <1>   0.0800 
 49 H        2.5220     0.8550     0.1010 H     1 <1>   0.0800 
 50 H        1.9770     4.0810     1.9430 H     1 <1>   0.0800 
 51 H        1.2220     4.8980     0.5980 H     1 <1>   0.0800 
 52 H        2.9310     4.5360     0.5500 H     1 <1>   0.0800 
 53 H        2.0850    -1.3110     3.1080 H     1 <1>   0.0800 
 54 H        0.4990    -2.0170     2.8280 H     1 <1>   0.0800 
 55 H        0.7840    -0.3000     2.4960 H     1 <1>   0.0800 
 56 H        4.3710    -2.3780    -1.3860 H     1 <1>   0.0800 
 57 H        3.1190    -3.0920    -0.3720 H     1 <1>   0.0800 
 58 H        3.7740    -1.4910     0.0100 H     1 <1>   0.0800 
@<TRIPOS>BOND
  1   1   2  2   
  2   2   3  am  
  3   2   4  1   
  4   3   5  1   
  5   3   6  1   
  6   4   7  ar  
  7   4   8  ar  
  8   5   9  1   
  9   5  10  1   
 10   5  31  1   
 11   6  11  1   
 12   6  32  1   
 13   6  33  1   
 14   7  12  ar  
 15   8  13  ar  
 16   8  34  1   
 17   9  14  ar  
 18   9  15  ar  
 19  10  16  1   
 20  10  17  1   
 21  10  35  1   
 22  11  16  1   
 23  11  36  1   
 24  11  37  1   
 25  12  18  ar  
 26  12  19  1   
 27  13  18  ar  
 28  13  20  1   
 29  14  21  ar  
 30  14  38  1   
 31  15  22  ar  
 32  15  39  1   
 33  17  23  1   
 34  17  40  1   
 35  17  41  1   
 36  19  42  1   
 37  19  43  1   
 38  20  24  1   
 39  20  25  1   
 40  20  44  1   
 41  21  26  1   
 42  21  27  ar  
 43  22  27  ar  
 44  22  45  1   
 45  23  46  1   
 46  24  47  1   
 47  24  48  1   
 48  24  49  1   
 49  25  50  1   
 50  25  51  1   
 51  25  52  1   
 52  26  28  1   
 53  27  29  1   
 54  28  53  1   
 55  28  54  1   
 56  28  55  1   
 57  29  30  1   
 58  30  56  1   
 59  30  57  1   
 60  30  58  1   
@<TRIPOS>SUBSTRUCTURE
  1 ****   9 GROUP 4 **** **** 0

# MOE 2024.06 (io_trps.svl 2023.06)
