@<TRIPOS>MOLECULE
NONAME
47 49 1 0 0 
SMALL
USER_CHARGES


@<TRIPOS>ATOM
  1 O       -2.9080     0.6310    -2.4230 O.2   1 <1>  -0.5700 
  2 C       -2.5570     1.0060    -1.3180 C.2   1 <1>   0.7150 
  3 N       -2.6440     0.0800    -0.2970 N.am  1 <1>  -0.6600 
  4 C       -2.1410     2.3760    -1.1070 C.2   1 <1>   0.0550 
  5 C       -3.3630     0.3970     0.9720 C.3   1 <1>   0.1400 
  6 C       -2.5870    -1.3770    -0.6060 C.3   1 <1>   0.1400 
  7 O       -1.6410     2.7920     0.0560 O.3   1 <1>  -0.2800 
  8 C       -2.1590     3.4330    -1.9640 C.2   1 <1>  -0.1500 
  9 C       -4.7860    -0.2150     0.9760 C.3   1 <1>   0.4230 
 10 C       -4.0090    -1.9610    -0.6540 C.3   1 <1>   0.3430 
 11 C       -1.3380     4.0690    -0.0360 C.2   1 <1>  -0.0400 
 12 C       -1.6440     4.5270    -1.2700 C.2   1 <1>  -0.1500 
 13 N       -4.7790    -1.6960     0.6240 N.4   1 <1>  -0.9590 
 14 C       -5.7230     0.5720     0.0280 C.3   1 <1>   0.1200 
 15 C       -0.7340     4.7710     1.1700 C.3   1 <1>   0.3000 
 16 C       -6.1980    -2.1990     0.5780 C.3   1 <1>   0.4230 
 17 O       -7.0080     0.0210     0.0550 O.3   1 <1>  -0.5600 
 18 O       -0.2960     6.0340     0.8070 O.3   1 <1>  -0.6800 
 19 C       -7.0830    -1.3200    -0.3390 C.3   1 <1>   0.1200 
 20 C       -6.2340    -3.6880     0.1950 C.3   1 <1>  -0.1600 
 21 C       -7.5910    -4.3400     0.5040 C.3   1 <1>  -0.1600 
 22 C       -7.5610    -5.8380     0.1880 C.3   1 <1>  -0.2400 
 23 H       -2.7990     0.0100     1.8020 H     1 <1>   0.0800 
 24 H       -3.4400     1.4620     1.1080 H     1 <1>   0.0800 
 25 H       -2.1030    -1.5350    -1.5560 H     1 <1>   0.0800 
 26 H       -2.0020    -1.8820     0.1430 H     1 <1>   0.0800 
 27 H       -2.4990     3.4420    -2.9860 H     1 <1>   0.1500 
 28 H       -5.1850    -0.0950     1.9690 H     1 <1>   0.0800 
 29 H       -3.9420    -3.0210    -0.8320 H     1 <1>   0.0800 
 30 H       -4.5240    -1.5180    -1.4910 H     1 <1>   0.0800 
 31 H       -1.5280     5.5220    -1.6650 H     1 <1>   0.1500 
 32 H       -4.3020    -2.1920     1.3840 H     1 <1>   0.4500 
 33 H       -5.3640     0.5630    -0.9870 H     1 <1>   0.0800 
 34 H       -5.8040     1.5960     0.3500 H     1 <1>   0.0800 
 35 H        0.1110     4.2170     1.5420 H     1 <1>   0.0800 
 36 H       -1.4640     4.8790     1.9530 H     1 <1>   0.0800 
 37 H       -6.6120    -2.1190     1.5710 H     1 <1>   0.0800 
 38 H        0.3210     5.9580     0.0550 H     1 <1>   0.4000 
 39 H       -8.1150    -1.6150    -0.2600 H     1 <1>   0.0800 
 40 H       -6.7860    -1.3970    -1.3700 H     1 <1>   0.0800 
 41 H       -6.0300    -3.8090    -0.8550 H     1 <1>   0.0800 
 42 H       -5.4810    -4.2140     0.7550 H     1 <1>   0.0800 
 43 H       -7.8360    -4.2110     1.5460 H     1 <1>   0.0800 
 44 H       -8.3740    -3.8850    -0.0800 H     1 <1>   0.0800 
 45 H       -6.8160    -6.3400     0.7790 H     1 <1>   0.0800 
 46 H       -7.3470    -6.0050    -0.8540 H     1 <1>   0.0800 
 47 H       -8.5180    -6.2790     0.4090 H     1 <1>   0.0800 
@<TRIPOS>BOND
  1   1   2  2   
  2   2   3  am  
  3   2   4  1   
  4   3   5  1   
  5   3   6  1   
  6   4   7  1   
  7   4   8  2   
  8   5   9  1   
  9   5  23  1   
 10   5  24  1   
 11   6  10  1   
 12   6  25  1   
 13   6  26  1   
 14   7  11  1   
 15   8  12  1   
 16   8  27  1   
 17   9  13  1   
 18   9  14  1   
 19   9  28  1   
 20  10  13  1   
 21  10  29  1   
 22  10  30  1   
 23  11  12  2   
 24  11  15  1   
 25  12  31  1   
 26  13  16  1   
 27  13  32  1   
 28  14  17  1   
 29  14  33  1   
 30  14  34  1   
 31  15  18  1   
 32  15  35  1   
 33  15  36  1   
 34  16  19  1   
 35  16  20  1   
 36  16  37  1   
 37  17  19  1   
 38  18  38  1   
 39  19  39  1   
 40  19  40  1   
 41  20  21  1   
 42  20  41  1   
 43  20  42  1   
 44  21  22  1   
 45  21  43  1   
 46  21  44  1   
 47  22  45  1   
 48  22  46  1   
 49  22  47  1   
@<TRIPOS>SUBSTRUCTURE
  1 ****   5 GROUP 4 **** **** 0

# MOE 2024.06 (io_trps.svl 2023.06)
