@<TRIPOS>MOLECULE
NONAME
47 50 1 0 0 
SMALL
USER_CHARGES


@<TRIPOS>ATOM
  1 O       -2.1470    -0.8740    -2.9540 O.2   1 <1>  -0.5700 
  2 C       -2.3270    -1.1680    -1.8050 C.2   1 <1>   0.5690 
  3 N       -2.2240    -0.2370    -0.8410 N.am  1 <1>  -0.7300 
  4 C       -2.7120    -2.5780    -1.4460 C.3   1 <1>  -0.0190 
  5 C       -2.4060    -0.4700     0.6100 C.3   1 <1>   0.2200 
  6 C       -1.6580    -3.2440    -0.5330 C.3   1 <1>   0.1200 
  7 C       -4.1600    -2.5690    -0.9390 C.3   1 <1>   0.3430 
  8 C       -1.3820    -1.5190     1.1160 C.3   1 <1>   0.1200 
  9 C       -3.8850    -0.8380     0.9230 C.3   1 <1>   0.3430 
 10 O       -1.7510    -2.8420     0.8110 O.3   1 <1>  -0.5600 
 11 N       -4.2900    -2.2340     0.5250 N.4   1 <1>  -0.9590 
 12 C       -5.5940    -2.6470     1.1020 C.3   1 <1>   0.4810 
 13 C       -5.7840    -4.1180     0.8120 C.2   1 <1>  -0.2760 
 14 C       -6.6950    -4.6100    -0.0410 C.2   1 <1>  -0.1780 
 15 C       -4.8480    -5.0760     1.5490 C.3   1 <1>   0.2580 
 16 C       -6.7430    -6.0200    -0.3160 C.ar  1 <1>   0.0280 
 17 O       -4.6310    -6.2390     0.7750 O.3   1 <1>  -0.3630 
 18 C       -5.6720    -6.8120     0.1040 C.ar  1 <1>   0.0820 
 19 C       -7.7930    -6.6190    -1.0040 C.ar  1 <1>  -0.1500 
 20 C       -5.6420    -8.1780    -0.1730 C.ar  1 <1>   0.0820 
 21 C       -7.7730    -7.9740    -1.2740 C.ar  1 <1>  -0.1500 
 22 O       -4.5600    -8.8900     0.2530 O.3   1 <1>  -0.3620 
 23 C       -6.7040    -8.7540    -0.8640 C.ar  1 <1>  -0.1500 
 24 C       -4.4510   -10.2760     0.0200 C.3   1 <1>   0.0400 
 25 H       -1.9070     0.6900    -1.1470 H     1 <1>   0.3700 
 26 H       -2.7100    -3.1260    -2.3710 H     1 <1>   0.0800 
 27 H       -2.1870     0.4620     1.1040 H     1 <1>   0.0800 
 28 H       -0.6600    -3.0410    -0.8870 H     1 <1>   0.0800 
 29 H       -1.8010    -4.3120    -0.5460 H     1 <1>   0.0800 
 30 H       -4.5570    -3.5570    -1.1100 H     1 <1>   0.0800 
 31 H       -4.7440    -1.8810    -1.5290 H     1 <1>   0.0800 
 32 H       -1.3170    -1.4600     2.1890 H     1 <1>   0.0800 
 33 H       -0.4000    -1.3250     0.7160 H     1 <1>   0.0800 
 34 H       -4.5290    -0.1200     0.4410 H     1 <1>   0.0800 
 35 H       -4.0240    -0.7350     1.9860 H     1 <1>   0.0800 
 36 H       -3.5580    -2.8340     0.9540 H     1 <1>   0.4500 
 37 H       -5.6120    -2.4770     2.1670 H     1 <1>   0.0800 
 38 H       -6.3910    -2.0810     0.6480 H     1 <1>   0.0800 
 39 H       -7.4090    -4.0000    -0.5690 H     1 <1>   0.1500 
 40 H       -5.2770    -5.3830     2.4880 H     1 <1>   0.0800 
 41 H       -3.8800    -4.6450     1.7300 H     1 <1>   0.0800 
 42 H       -8.6270    -6.0240    -1.3300 H     1 <1>   0.1500 
 43 H       -8.5920    -8.4280    -1.8060 H     1 <1>   0.1500 
 44 H       -6.7190    -9.8020    -1.0930 H     1 <1>   0.1500 
 45 H       -3.5220   -10.6120     0.4440 H     1 <1>   0.0800 
 46 H       -4.4520   -10.4530    -1.0410 H     1 <1>   0.0800 
 47 H       -5.2740   -10.7770     0.4980 H     1 <1>   0.0800 
@<TRIPOS>BOND
  1   1   2  2   
  2   2   3  am  
  3   2   4  1   
  4   3   5  1   
  5   3  25  1   
  6   4   6  1   
  7   4   7  1   
  8   4  26  1   
  9   5   8  1   
 10   5   9  1   
 11   5  27  1   
 12   6  10  1   
 13   6  28  1   
 14   6  29  1   
 15   7  11  1   
 16   7  30  1   
 17   7  31  1   
 18   8  10  1   
 19   8  32  1   
 20   8  33  1   
 21   9  11  1   
 22   9  34  1   
 23   9  35  1   
 24  11  12  1   
 25  11  36  1   
 26  12  13  1   
 27  12  37  1   
 28  12  38  1   
 29  13  14  2   
 30  13  15  1   
 31  14  16  1   
 32  14  39  1   
 33  15  17  1   
 34  15  40  1   
 35  15  41  1   
 36  16  18  ar  
 37  16  19  ar  
 38  17  18  1   
 39  18  20  ar  
 40  19  21  ar  
 41  19  42  1   
 42  20  22  1   
 43  20  23  ar  
 44  21  23  ar  
 45  21  43  1   
 46  22  24  1   
 47  23  44  1   
 48  24  45  1   
 49  24  46  1   
 50  24  47  1   
@<TRIPOS>SUBSTRUCTURE
  1 ****  13 GROUP 4 **** **** 0

# MOE 2024.06 (io_trps.svl 2023.06)
