@<TRIPOS>MOLECULE
NONAME
51 52 1 0 0 
SMALL
USER_CHARGES


@<TRIPOS>ATOM
  1 CL       0.2380     0.5560    -0.6060 Cl    1 <1>  -0.1770 
  2 C        1.2630    -0.8200    -0.2940 C.ar  1 <1>   0.1770 
  3 C        2.3850    -1.0170    -1.0720 C.ar  1 <1>  -0.1500 
  4 C        0.9280    -1.6860     0.7260 C.ar  1 <1>  -0.1500 
  5 C        3.2100    -2.1140    -0.8320 C.ar  1 <1>   0.0830 
  6 C        1.7340    -2.7870     0.9710 C.ar  1 <1>  -0.1440 
  7 O        4.3340    -2.3140    -1.5780 O.3   1 <1>  -0.3620 
  8 C        2.8720    -3.0120     0.2010 C.ar  1 <1>   0.0830 
  9 C        1.3760    -3.7590     2.0790 C.3   1 <1>   0.4870 
 10 C        4.7510    -1.4150    -2.5850 C.3   1 <1>   0.0400 
 11 O        3.5710    -4.1370     0.5460 O.3   1 <1>  -0.3630 
 12 N        0.9290    -5.0350     1.4640 N.4   1 <1>  -0.9590 
 13 C        4.5320    -4.7480    -0.2900 C.3   1 <1>   0.0400 
 14 C       -0.2500    -4.9040     0.5490 C.3   1 <1>   0.3430 
 15 C        0.6730    -6.1420     2.4210 C.3   1 <1>   0.3430 
 16 C       -1.2100    -6.0460     0.9160 C.3   1 <1>   0.2000 
 17 C       -0.3970    -7.0260     1.7690 C.3   1 <1>  -0.0800 
 18 O       -2.2430    -5.5450     1.6980 O.3   1 <1>  -0.6800 
 19 C        0.1870    -8.2130     0.9570 C.3   1 <1>  -0.0550 
 20 S        1.2970    -7.7840    -0.3880 S.o2  1 <1>   1.3330 
 21 O        2.4200    -7.1010     0.2150 O.2   1 <1>  -0.6500 
 22 O        0.5340    -7.0850    -1.3940 O.2   1 <1>  -0.6500 
 23 N        1.8030    -9.2810    -0.9930 N.am  1 <1>  -0.8490 
 24 C        0.8700    -9.8680    -1.9630 C.3   1 <1>   0.1160 
 25 C        3.1510    -9.2340    -1.5710 C.3   1 <1>   0.1160 
 26 H        2.5860    -0.3030    -1.8460 H     1 <1>   0.1500 
 27 H        0.0460    -1.4830     1.3080 H     1 <1>   0.1500 
 28 H        0.5970    -3.3460     2.6980 H     1 <1>   0.0800 
 29 H        2.2490    -3.9320     2.6890 H     1 <1>   0.0800 
 30 H        5.6690    -1.7860    -3.0030 H     1 <1>   0.0800 
 31 H        4.9170    -0.4470    -2.1470 H     1 <1>   0.0800 
 32 H        3.9960    -1.3700    -3.3510 H     1 <1>   0.0800 
 33 H        1.7430    -5.3280     0.8760 H     1 <1>   0.4500 
 34 H        4.7740    -5.7110     0.1220 H     1 <1>   0.0800 
 35 H        5.4150    -4.1340    -0.3160 H     1 <1>   0.0800 
 36 H        4.1180    -4.8670    -1.2760 H     1 <1>   0.0800 
 37 H       -0.7440    -3.9530     0.6600 H     1 <1>   0.0800 
 38 H        0.0760    -5.0080    -0.4740 H     1 <1>   0.0800 
 39 H        1.5770    -6.6940     2.6290 H     1 <1>   0.0800 
 40 H        0.2860    -5.7400     3.3430 H     1 <1>   0.0800 
 41 H       -1.6530    -6.4960     0.0420 H     1 <1>   0.0800 
 42 H       -1.0180    -7.4570     2.5350 H     1 <1>   0.0800 
 43 H       -1.9390    -5.1490     2.5360 H     1 <1>   0.4000 
 44 H       -0.6310    -8.7810     0.5560 H     1 <1>   0.0800 
 45 H        0.7130    -8.8610     1.6320 H     1 <1>   0.0800 
 46 H        1.2010   -10.8530    -2.2450 H     1 <1>   0.0800 
 47 H        0.8090    -9.2540    -2.8480 H     1 <1>   0.0800 
 48 H       -0.1130    -9.9530    -1.5330 H     1 <1>   0.0800 
 49 H        3.4450   -10.2120    -1.9130 H     1 <1>   0.0800 
 50 H        3.8630    -8.9140    -0.8270 H     1 <1>   0.0800 
 51 H        3.1820    -8.5460    -2.4000 H     1 <1>   0.0800 
@<TRIPOS>BOND
  1   1   2  1   
  2   2   3  ar  
  3   2   4  ar  
  4   3   5  ar  
  5   3  26  1   
  6   4   6  ar  
  7   4  27  1   
  8   5   7  1   
  9   5   8  ar  
 10   6   8  ar  
 11   6   9  1   
 12   7  10  1   
 13   8  11  1   
 14   9  12  1   
 15   9  28  1   
 16   9  29  1   
 17  10  30  1   
 18  10  31  1   
 19  10  32  1   
 20  11  13  1   
 21  12  14  1   
 22  12  15  1   
 23  12  33  1   
 24  13  34  1   
 25  13  35  1   
 26  13  36  1   
 27  14  16  1   
 28  14  37  1   
 29  14  38  1   
 30  15  17  1   
 31  15  39  1   
 32  15  40  1   
 33  16  17  1   
 34  16  18  1   
 35  16  41  1   
 36  17  19  1   
 37  17  42  1   
 38  18  43  1   
 39  19  20  1   
 40  19  44  1   
 41  19  45  1   
 42  20  21  2   
 43  20  22  2   
 44  20  23  am  
 45  23  24  1   
 46  23  25  1   
 47  24  46  1   
 48  24  47  1   
 49  24  48  1   
 50  25  49  1   
 51  25  50  1   
 52  25  51  1   
@<TRIPOS>SUBSTRUCTURE
  1 ****  12 GROUP 4 **** **** 0

# MOE 2024.06 (io_trps.svl 2023.06)
