@<TRIPOS>MOLECULE
NONAME
44 47 1 0 0 
SMALL
USER_CHARGES


@<TRIPOS>ATOM
  1 CL       1.4730     0.7440    -2.1930 Cl    1 <1>  -0.1770 
  2 C        2.0310    -0.5700    -1.1910 C.ar  1 <1>   0.1770 
  3 C        1.6070    -1.8560    -1.4680 C.ar  1 <1>  -0.1500 
  4 C        2.8860    -0.2960    -0.1390 C.ar  1 <1>  -0.1500 
  5 C        2.0260    -2.9350    -0.6830 C.ar  1 <1>   0.0860 
  6 C        3.3290    -1.3420     0.6510 C.ar  1 <1>  -0.1500 
  7 C        2.8990    -2.6270     0.3660 C.ar  1 <1>   0.1900 
  8 C        1.5640    -4.2790    -0.9820 C.2   1 <1>   0.5440 
  9 F        3.3510    -3.5790     1.1350 F     1 <1>  -0.1900 
 10 O        1.2910    -4.5870    -2.1250 O.2   1 <1>  -0.5700 
 11 N        1.3270    -5.2330    -0.0190 N.am  1 <1>  -0.6600 
 12 C        0.4970    -4.9390     1.1840 C.3   1 <1>   0.1400 
 13 C        1.3700    -6.6790    -0.3790 C.3   1 <1>   0.1400 
 14 C       -0.9410    -5.4890     1.0120 C.3   1 <1>   0.4230 
 15 C       -0.0570    -7.2040    -0.6030 C.3   1 <1>   0.3430 
 16 N       -0.9520    -6.9510     0.5930 N.4   1 <1>  -0.9590 
 17 C       -1.7410    -4.6250     0.0070 C.3   1 <1>   0.1200 
 18 C       -2.3680    -7.3900     0.3660 C.3   1 <1>   0.5180 
 19 O       -3.0430    -5.1190    -0.1300 O.3   1 <1>  -0.5600 
 20 C       -2.3950    -8.8450    -0.1180 C.3   1 <1>  -0.1950 
 21 C       -3.1230    -6.4400    -0.5910 C.3   1 <1>   0.1200 
 22 C       -3.4560    -9.7800     0.3730 C.3   1 <1>  -0.2000 
 23 C       -2.0260    -9.9820     0.7860 C.3   1 <1>  -0.2000 
 24 H        0.9490    -2.0220    -2.3040 H     1 <1>   0.1500 
 25 H        3.1980     0.7170     0.0500 H     1 <1>   0.1500 
 26 H        4.0010    -1.1660     1.4730 H     1 <1>   0.1500 
 27 H        0.9580    -5.3890     2.0460 H     1 <1>   0.0800 
 28 H        0.4570    -3.8770     1.3590 H     1 <1>   0.0800 
 29 H        1.9480    -6.8180    -1.2780 H     1 <1>   0.0800 
 30 H        1.8540    -7.2330     0.4060 H     1 <1>   0.0800 
 31 H       -1.4380    -5.3950     1.9630 H     1 <1>   0.0800 
 32 H       -0.0100    -8.2600    -0.8120 H     1 <1>   0.0800 
 33 H       -0.4590    -6.7110    -1.4730 H     1 <1>   0.0800 
 34 H       -0.5920    -7.5150     1.3690 H     1 <1>   0.4500 
 35 H       -1.2740    -4.6070    -0.9630 H     1 <1>   0.0800 
 36 H       -1.8170    -3.6120     0.3650 H     1 <1>   0.0800 
 37 H       -2.8860    -7.3570     1.3100 H     1 <1>   0.0800 
 38 H       -2.1640    -8.9380    -1.1670 H     1 <1>   0.1000 
 39 H       -4.1640    -6.7090    -0.6300 H     1 <1>   0.0800 
 40 H       -2.7220    -6.4840    -1.5890 H     1 <1>   0.0800 
 41 H       -4.1600    -9.4600     1.1240 H     1 <1>   0.1000 
 42 H       -3.8910   -10.4880    -0.3130 H     1 <1>   0.1000 
 43 H       -1.5030   -10.8330     0.3800 H     1 <1>   0.1000 
 44 H       -1.7860    -9.8160     1.8220 H     1 <1>   0.1000 
@<TRIPOS>BOND
  1   1   2  1   
  2   2   3  ar  
  3   2   4  ar  
  4   3   5  ar  
  5   3  24  1   
  6   4   6  ar  
  7   4  25  1   
  8   5   7  ar  
  9   5   8  1   
 10   6   7  ar  
 11   6  26  1   
 12   7   9  1   
 13   8  10  2   
 14   8  11  am  
 15  11  12  1   
 16  11  13  1   
 17  12  14  1   
 18  12  27  1   
 19  12  28  1   
 20  13  15  1   
 21  13  29  1   
 22  13  30  1   
 23  14  16  1   
 24  14  17  1   
 25  14  31  1   
 26  15  16  1   
 27  15  32  1   
 28  15  33  1   
 29  16  18  1   
 30  16  34  1   
 31  17  19  1   
 32  17  35  1   
 33  17  36  1   
 34  18  20  1   
 35  18  21  1   
 36  18  37  1   
 37  19  21  1   
 38  20  22  1   
 39  20  23  1   
 40  20  38  1   
 41  21  39  1   
 42  21  40  1   
 43  22  23  1   
 44  22  41  1   
 45  22  42  1   
 46  23  43  1   
 47  23  44  1   
@<TRIPOS>SUBSTRUCTURE
  1 ****  11 GROUP 4 **** **** 0

# MOE 2024.06 (io_trps.svl 2023.06)
