@<TRIPOS>MOLECULE
NONAME
42 43 1 0 0 
SMALL
USER_CHARGES


@<TRIPOS>ATOM
  1 CL      -0.1840    -0.9600    -1.6350 Cl    1 <1>  -0.1770 
  2 C       -0.3780    -2.5700    -0.9910 C.ar  1 <1>   0.1770 
  3 C        0.5350    -3.5500    -1.3300 C.ar  1 <1>  -0.1500 
  4 C       -1.4420    -2.8400    -0.1510 C.ar  1 <1>  -0.1500 
  5 C        0.3790    -4.8270    -0.8180 C.ar  1 <1>  -0.1500 
  6 C       -1.5930    -4.1190     0.3590 C.ar  1 <1>  -0.1500 
  7 C       -0.6830    -5.1150     0.0280 C.ar  1 <1>  -0.1430 
  8 C       -0.8610    -6.5160     0.5890 C.3   1 <1>  -0.0160 
  9 C       -1.8300    -7.3200    -0.2860 C.3   1 <1>  -0.0990 
 10 C       -2.1220    -8.6840     0.3220 C.2   1 <1>   0.5690 
 11 O       -1.1700    -9.4060     0.4980 O.2   1 <1>  -0.5700 
 12 N       -3.3890    -9.0830     0.6720 N.am  1 <1>  -0.6600 
 13 C       -3.5930   -10.3570     1.4220 C.3   1 <1>   0.3200 
 14 C       -4.6580    -8.3690     0.2960 C.3   1 <1>   0.1400 
 15 C       -4.3500   -11.3510     0.5640 C.2   1 <1>  -0.3320 
 16 C       -5.1930    -7.4960     1.4410 C.3   1 <1>   0.1200 
 17 N       -3.8580   -11.9430    -0.5430 N.pl3 1 <1>   0.0480 
 18 C       -5.6050   -11.8260     0.7270 C.2   1 <1>   0.0770 
 19 O       -4.1710    -6.7260     1.9750 O.3   1 <1>  -0.6800 
 20 C       -4.8630   -12.7330    -0.9820 C.2   1 <1>   0.0360 
 21 C       -2.5210   -11.7870    -1.1470 C.3   1 <1>   0.0160 
 22 N       -5.9290   -12.6890    -0.2510 N.2   1 <1>  -0.5650 
 23 H        1.3540    -3.3140    -1.9850 H     1 <1>   0.1500 
 24 H       -2.1380    -2.0610     0.0990 H     1 <1>   0.1500 
 25 H        1.0870    -5.5950    -1.0790 H     1 <1>   0.1500 
 26 H       -2.4210    -4.3370     1.0130 H     1 <1>   0.1500 
 27 H       -1.2450    -6.4500     1.5920 H     1 <1>   0.0800 
 28 H        0.0900    -7.0180     0.6380 H     1 <1>   0.0800 
 29 H       -1.3920    -7.4670    -1.2560 H     1 <1>   0.0800 
 30 H       -2.7190    -6.7380    -0.4150 H     1 <1>   0.0800 
 31 H       -4.1550   -10.1510     2.3160 H     1 <1>   0.0800 
 32 H       -2.6530   -10.7860     1.7260 H     1 <1>   0.0800 
 33 H       -5.4150    -9.0840     0.0260 H     1 <1>   0.0800 
 34 H       -4.5080    -7.7610    -0.5770 H     1 <1>   0.0800 
 35 H       -5.5950    -8.1120     2.2270 H     1 <1>   0.0800 
 36 H       -5.9650    -6.8350     1.0880 H     1 <1>   0.0800 
 37 H       -6.3100   -11.5880     1.5060 H     1 <1>   0.1500 
 38 H       -3.4260    -7.3140     2.2140 H     1 <1>   0.4000 
 39 H       -4.7660   -13.3390    -1.8650 H     1 <1>   0.1500 
 40 H       -1.7710   -11.8690    -0.3820 H     1 <1>   0.0800 
 41 H       -2.4520   -10.8210    -1.6110 H     1 <1>   0.0800 
 42 H       -2.3640   -12.5530    -1.8840 H     1 <1>   0.0800 
@<TRIPOS>BOND
  1   1   2  1   
  2   2   3  ar  
  3   2   4  ar  
  4   3   5  ar  
  5   3  23  1   
  6   4   6  ar  
  7   4  24  1   
  8   5   7  ar  
  9   5  25  1   
 10   6   7  ar  
 11   6  26  1   
 12   7   8  1   
 13   8   9  1   
 14   8  27  1   
 15   8  28  1   
 16   9  10  1   
 17   9  29  1   
 18   9  30  1   
 19  10  11  2   
 20  10  12  am  
 21  12  13  1   
 22  12  14  1   
 23  13  15  1   
 24  13  31  1   
 25  13  32  1   
 26  14  16  1   
 27  14  33  1   
 28  14  34  1   
 29  15  17  1   
 30  15  18  2   
 31  16  19  1   
 32  16  35  1   
 33  16  36  1   
 34  17  20  1   
 35  17  21  1   
 36  18  22  1   
 37  18  37  1   
 38  19  38  1   
 39  20  22  2   
 40  20  39  1   
 41  21  40  1   
 42  21  41  1   
 43  21  42  1   
@<TRIPOS>SUBSTRUCTURE
  1 ****   9 GROUP 4 **** **** 0

# MOE 2024.06 (io_trps.svl 2023.06)
