@<TRIPOS>MOLECULE
NONAME
51 55 1 0 0 
SMALL
USER_CHARGES


@<TRIPOS>ATOM
  1 S       -0.3600     0.7570     2.5500 S.3   1 <1>  -0.0800 
  2 C       -1.1500     1.1560     1.0320 C.2   1 <1>  -0.1400 
  3 C       -1.6170    -0.4120     2.9330 C.2   1 <1>  -0.1100 
  4 C       -2.2750     0.4450     0.8820 C.2   1 <1>  -0.1810 
  5 C       -0.5890     2.1810     0.0540 C.3   1 <1>   0.4600 
  6 C       -2.5470    -0.4570     1.9590 C.2   1 <1>  -0.1500 
  7 C       -3.1240     0.6450    -0.3530 C.3   1 <1>   0.0210 
  8 O       -1.3760     2.1680    -1.1210 O.3   1 <1>  -0.5600 
  9 C        0.8320     1.8060    -0.3760 C.3   1 <1>  -0.1600 
 10 C       -0.6100     3.5970     0.6470 C.3   1 <1>  -0.1600 
 11 C       -2.7700     2.0040    -0.9890 C.3   1 <1>   0.1200 
 12 C        1.4270     2.8500    -1.3220 C.3   1 <1>   0.1400 
 13 C        0.0000     4.6190    -0.3140 C.3   1 <1>   0.1400 
 14 N        1.3860     4.1940    -0.6690 N.am  1 <1>  -0.6600 
 15 C        2.5450     4.8760    -0.3870 C.2   1 <1>   0.5690 
 16 O        3.6280     4.3750    -0.5700 O.2   1 <1>  -0.5700 
 17 C        2.5060     6.2870     0.1870 C.3   1 <1>   0.0690 
 18 C        3.7820     7.1110     0.0060 C.2   1 <1>   0.1820 
 19 N        3.9390     8.3390     0.6340 N.pl3 1 <1>  -0.6290 
 20 C        4.8990     6.8810    -0.7200 C.2   1 <1>   0.2000 
 21 C        5.1570     8.8210     0.2790 C.cat 1 <1>   0.7910 
 22 C        3.1340     9.0680     1.4840 C.2   1 <1>   0.2290 
 23 N        5.7450     7.9410    -0.5460 N.pl3 1 <1>  -0.7000 
 24 C        5.6250    10.0630     0.7620 C.2   1 <1>  -0.1290 
 25 C        3.5610    10.2710     1.9650 C.2   1 <1>  -0.1500 
 26 C        4.8220    10.7850     1.6050 C.2   1 <1>  -0.1500 
 27 C        6.9970    10.5870     0.3520 C.3   1 <1>  -0.1020 
 28 H       -1.5250    -0.9490     3.8600 H     1 <1>   0.1500 
 29 H       -3.4170    -1.0900     1.9520 H     1 <1>   0.1500 
 30 H       -4.1660     0.6340    -0.0920 H     1 <1>   0.0800 
 31 H       -2.9380    -0.1480    -1.0550 H     1 <1>   0.0800 
 32 H        0.8140     0.8450    -0.8550 H     1 <1>   0.0800 
 33 H        1.4670     1.7270     0.4870 H     1 <1>   0.0800 
 34 H       -0.0450     3.6020     1.5610 H     1 <1>   0.0800 
 35 H       -1.6170     3.8750     0.8950 H     1 <1>   0.0800 
 36 H       -3.1520     2.8080    -0.3860 H     1 <1>   0.0800 
 37 H       -3.2030     2.0760    -1.9710 H     1 <1>   0.0800 
 38 H        0.8570     2.8830    -2.2350 H     1 <1>   0.0800 
 39 H        2.4360     2.5710    -1.5750 H     1 <1>   0.0800 
 40 H       -0.0140     5.5870     0.1500 H     1 <1>   0.0800 
 41 H       -0.5920     4.6700    -1.2140 H     1 <1>   0.0800 
 42 H        2.2970     6.1970     1.2360 H     1 <1>   0.0800 
 43 H        1.7070     6.8310    -0.2770 H     1 <1>   0.0800 
 44 H        5.1510     6.0380    -1.3470 H     1 <1>   0.1500 
 45 H        2.1710     8.6660     1.7530 H     1 <1>   0.1500 
 46 H        6.6730     8.0530    -0.9570 H     1 <1>   0.4500 
 47 H        2.9400    10.8500     2.6300 H     1 <1>   0.1500 
 48 H        5.1260    11.7390     2.0060 H     1 <1>   0.1500 
 49 H        7.7680     9.9030     0.6620 H     1 <1>   0.0800 
 50 H        7.1950    11.5420     0.8090 H     1 <1>   0.0800 
 51 H        7.0470    10.7120    -0.7160 H     1 <1>   0.0800 
@<TRIPOS>BOND
  1   1   2  1   
  2   1   3  1   
  3   2   4  2   
  4   2   5  1   
  5   3   6  2   
  6   3  28  1   
  7   4   6  1   
  8   4   7  1   
  9   5   8  1   
 10   5   9  1   
 11   5  10  1   
 12   6  29  1   
 13   7  11  1   
 14   7  30  1   
 15   7  31  1   
 16   8  11  1   
 17   9  12  1   
 18   9  32  1   
 19   9  33  1   
 20  10  13  1   
 21  10  34  1   
 22  10  35  1   
 23  11  36  1   
 24  11  37  1   
 25  12  14  1   
 26  12  38  1   
 27  12  39  1   
 28  13  14  1   
 29  13  40  1   
 30  13  41  1   
 31  14  15  am  
 32  15  16  2   
 33  15  17  1   
 34  17  18  1   
 35  17  42  1   
 36  17  43  1   
 37  18  19  1   
 38  18  20  2   
 39  19  21  ar  
 40  19  22  1   
 41  20  23  1   
 42  20  44  1   
 43  21  23  ar  
 44  21  24  1   
 45  22  25  2   
 46  22  45  1   
 47  23  46  1   
 48  24  26  2   
 49  24  27  1   
 50  25  26  1   
 51  25  47  1   
 52  26  48  1   
 53  27  49  1   
 54  27  50  1   
 55  27  51  1   
@<TRIPOS>SUBSTRUCTURE
  1 ****  15 GROUP 4 **** **** 0

# MOE 2024.06 (io_trps.svl 2023.06)
