@<TRIPOS>MOLECULE
NONAME
52 54 1 0 0 
SMALL
USER_CHARGES


@<TRIPOS>ATOM
  1 O       -0.3930    -0.7630    -0.5860 O.2   1 <1>  -0.5700 
  2 C       -0.1280     0.4080    -0.4250 C.2   1 <1>   0.5690 
  3 N       -1.1070     1.3740    -0.4870 N.am  1 <1>  -0.6600 
  4 C        1.3240     0.7590    -0.1100 C.3   1 <1>   0.1810 
  5 C       -2.5000     1.0000    -0.8710 C.3   1 <1>   0.1400 
  6 C       -0.8460     2.8260    -0.2520 C.3   1 <1>   0.1400 
  7 O        1.8500     1.6950    -1.0430 O.3   1 <1>  -0.3620 
  8 C       -3.2160     2.1880    -1.5180 C.3   1 <1>  -0.1600 
  9 C       -2.0850     3.4760     0.3620 C.3   1 <1>  -0.1600 
 10 C        2.8040     2.5910    -0.6660 C.ar  1 <1>   0.0830 
 11 C       -3.3160     3.4120    -0.5790 C.3   1 <1>   0.2800 
 12 C        3.8270     2.3410     0.2630 C.ar  1 <1>   0.0830 
 13 C        2.7200     3.8310    -1.2780 C.ar  1 <1>  -0.1500 
 14 O       -3.3060     4.5190    -1.4420 O.3   1 <1>  -0.5600 
 15 C       -4.6560     3.3760     0.1950 C.3   1 <1>  -0.1600 
 16 O        3.9400     1.1060     0.8320 O.3   1 <1>  -0.3630 
 17 C        4.7210     3.3660     0.5710 C.ar  1 <1>  -0.1500 
 18 C        3.6170     4.8370    -0.9680 C.ar  1 <1>  -0.1500 
 19 C       -3.5990     5.7970    -0.9500 C.3   1 <1>   0.1200 
 20 C       -5.0880     4.7200     0.7860 C.3   1 <1>   0.2800 
 21 C        5.1140     0.7030     1.5030 C.3   1 <1>   0.0400 
 22 C        4.6150     4.6040    -0.0400 C.ar  1 <1>  -0.1500 
 23 C       -4.9720     5.8090    -0.2770 C.3   1 <1>  -0.1600 
 24 O       -4.2510     5.0370     1.8270 O.3   1 <1>  -0.6800 
 25 C       -6.4950     4.6550     1.3740 C.3   1 <1>  -0.2400 
 26 H        1.9300    -0.1270    -0.1570 H     1 <1>   0.0800 
 27 H        1.3780     1.1790     0.8760 H     1 <1>   0.0800 
 28 H       -3.0320     0.6780     0.0080 H     1 <1>   0.0800 
 29 H       -2.4730     0.1780    -1.5670 H     1 <1>   0.0800 
 30 H       -0.6070     3.3000    -1.1890 H     1 <1>   0.0800 
 31 H       -0.0130     2.9550     0.4160 H     1 <1>   0.0800 
 32 H       -4.1880     1.8730    -1.8460 H     1 <1>   0.0800 
 33 H       -2.6590     2.4530    -2.4000 H     1 <1>   0.0800 
 34 H       -1.8400     4.4810     0.6360 H     1 <1>   0.0800 
 35 H       -2.3000     2.9460     1.2730 H     1 <1>   0.0800 
 36 H        1.9440     4.0050    -2.0020 H     1 <1>   0.1500 
 37 H       -4.6240     2.6280     0.9670 H     1 <1>   0.0800 
 38 H       -5.4290     3.0750    -0.4890 H     1 <1>   0.0800 
 39 H        5.5090     3.2230     1.2850 H     1 <1>   0.1500 
 40 H        3.5390     5.7960    -1.4490 H     1 <1>   0.1500 
 41 H       -3.5970     6.4710    -1.7890 H     1 <1>   0.0800 
 42 H       -2.8260     6.1090    -0.2730 H     1 <1>   0.0800 
 43 H        5.0200    -0.3420     1.7400 H     1 <1>   0.0800 
 44 H        5.2130     1.2740     2.4090 H     1 <1>   0.0800 
 45 H        5.9580     0.8550     0.8540 H     1 <1>   0.0800 
 46 H        5.3130     5.3860     0.2050 H     1 <1>   0.1500 
 47 H       -5.7160     5.6490    -1.0360 H     1 <1>   0.0800 
 48 H       -5.1600     6.7730     0.1610 H     1 <1>   0.0800 
 49 H       -3.3330     5.0340     1.5060 H     1 <1>   0.4000 
 50 H       -7.2100     4.4170     0.6080 H     1 <1>   0.0800 
 51 H       -6.7630     5.6030     1.8050 H     1 <1>   0.0800 
 52 H       -6.5460     3.8970     2.1360 H     1 <1>   0.0800 
@<TRIPOS>BOND
  1   1   2  2   
  2   2   3  am  
  3   2   4  1   
  4   3   5  1   
  5   3   6  1   
  6   4   7  1   
  7   4  26  1   
  8   4  27  1   
  9   5   8  1   
 10   5  28  1   
 11   5  29  1   
 12   6   9  1   
 13   6  30  1   
 14   6  31  1   
 15   7  10  1   
 16   8  11  1   
 17   8  32  1   
 18   8  33  1   
 19   9  11  1   
 20   9  34  1   
 21   9  35  1   
 22  10  12  ar  
 23  10  13  ar  
 24  11  14  1   
 25  11  15  1   
 26  12  16  1   
 27  12  17  ar  
 28  13  18  ar  
 29  13  36  1   
 30  14  19  1   
 31  15  20  1   
 32  15  37  1   
 33  15  38  1   
 34  16  21  1   
 35  17  22  ar  
 36  17  39  1   
 37  18  22  ar  
 38  18  40  1   
 39  19  23  1   
 40  19  41  1   
 41  19  42  1   
 42  20  23  1   
 43  20  24  1   
 44  20  25  1   
 45  21  43  1   
 46  21  44  1   
 47  21  45  1   
 48  22  46  1   
 49  23  47  1   
 50  23  48  1   
 51  24  49  1   
 52  25  50  1   
 53  25  51  1   
 54  25  52  1   
@<TRIPOS>SUBSTRUCTURE
  1 ****   6 GROUP 4 **** **** 0

# MOE 2024.06 (io_trps.svl 2023.06)
