@<TRIPOS>MOLECULE
NONAME
37 37 1 0 0 
SMALL
USER_CHARGES


@<TRIPOS>ATOM
  1 S        1.3470     0.3970    -0.7060 S.3   1 <1>  -0.4600 
  2 C        0.8700     1.3920     0.7610 C.3   1 <1>   0.1310 
  3 C        1.1730    -1.3170    -0.1390 C.3   1 <1>   0.0700 
  4 C        1.0810     2.8870     0.5430 C.2   1 <1>   0.5690 
  5 C       -0.3150    -1.6760    -0.1200 C.3   1 <1>  -0.1600 
  6 O        0.8230     3.6280     1.4600 O.2   1 <1>  -0.5700 
  7 N        1.5550     3.3150    -0.6570 N.am  1 <1>  -0.7300 
  8 C       -0.5250    -3.1330     0.3050 C.3   1 <1>  -0.2400 
  9 C        1.9330     4.6650    -1.1190 C.3   1 <1>   0.3640 
 10 C        3.3700     4.9710    -0.7160 C.ar  1 <1>  -0.1430 
 11 C        0.9540     5.7430    -0.6530 C.3   1 <1>  -0.2400 
 12 C        4.3350     5.1650    -1.6930 C.ar  1 <1>   0.1600 
 13 C        3.7530     5.0640     0.6080 C.ar  1 <1>  -0.1500 
 14 N        5.6100     5.4370    -1.4650 N.ar  1 <1>  -0.6200 
 15 C        5.0780     5.3460     0.8640 C.ar  1 <1>  -0.1500 
 16 C        5.9570     5.5220    -0.1930 C.ar  1 <1>   0.1670 
 17 C        7.4140     5.8310     0.0740 C.3   1 <1>  -0.0970 
 18 H        1.4710     1.0570     1.5850 H     1 <1>   0.0800 
 19 H       -0.1670     1.1980     0.9610 H     1 <1>   0.0800 
 20 H        1.6200    -1.3890     0.8360 H     1 <1>   0.0800 
 21 H        1.7130    -1.9330    -0.8370 H     1 <1>   0.0800 
 22 H       -0.7270    -1.5310    -1.1040 H     1 <1>   0.0800 
 23 H       -0.8380    -1.0320     0.5630 H     1 <1>   0.0800 
 24 H        1.8090     2.5690    -1.3120 H     1 <1>   0.3700 
 25 H       -0.0310    -3.8000    -0.3790 H     1 <1>   0.0800 
 26 H       -1.5760    -3.3660     0.3090 H     1 <1>   0.0800 
 27 H       -0.1360    -3.2980     1.2940 H     1 <1>   0.0800 
 28 H        1.8810     4.6480    -2.1940 H     1 <1>   0.0800 
 29 H        1.0200     5.8980     0.4080 H     1 <1>   0.0800 
 30 H       -0.0520     5.4670    -0.9110 H     1 <1>   0.0800 
 31 H        1.1900     6.6730    -1.1360 H     1 <1>   0.0800 
 32 H        4.0490     5.0930    -2.7280 H     1 <1>   0.1500 
 33 H        3.0500     4.9220     1.4110 H     1 <1>   0.1500 
 34 H        5.4190     5.4270     1.8790 H     1 <1>   0.1500 
 35 H        8.0270     5.0650    -0.3640 H     1 <1>   0.0800 
 36 H        7.6150     5.8800     1.1270 H     1 <1>   0.0800 
 37 H        7.6670     6.7750    -0.3750 H     1 <1>   0.0800 
@<TRIPOS>BOND
  1   1   2  1   
  2   1   3  1   
  3   2   4  1   
  4   2  18  1   
  5   2  19  1   
  6   3   5  1   
  7   3  20  1   
  8   3  21  1   
  9   4   6  2   
 10   4   7  am  
 11   5   8  1   
 12   5  22  1   
 13   5  23  1   
 14   7   9  1   
 15   7  24  1   
 16   8  25  1   
 17   8  26  1   
 18   8  27  1   
 19   9  10  1   
 20   9  11  1   
 21   9  28  1   
 22  10  12  ar  
 23  10  13  ar  
 24  11  29  1   
 25  11  30  1   
 26  11  31  1   
 27  12  14  ar  
 28  12  32  1   
 29  13  15  ar  
 30  13  33  1   
 31  14  16  ar  
 32  15  16  ar  
 33  15  34  1   
 34  16  17  1   
 35  17  35  1   
 36  17  36  1   
 37  17  37  1   
@<TRIPOS>SUBSTRUCTURE
  1 ****   7 GROUP 4 **** **** 0

# MOE 2024.06 (io_trps.svl 2023.06)
