@<TRIPOS>MOLECULE
NONAME
50 52 1 0 0 
SMALL
USER_CHARGES


@<TRIPOS>ATOM
  1 N       -1.4470    -0.0290    -0.9220 N.2   1 <1>  -0.5650 
  2 C       -1.6680    -0.2980     0.3310 C.2   1 <1>   0.0060 
  3 C       -0.6830     1.0780    -0.8850 C.2   1 <1>   0.0770 
  4 N       -1.0840     0.5800     1.1860 N.pl3 1 <1>   0.0480 
  5 C       -2.5030    -1.4880     0.7860 C.3   1 <1>   0.5230 
  6 C       -0.4550     1.4600     0.3890 C.2   1 <1>  -0.3020 
  7 C       -1.0880     0.6180     2.6630 C.3   1 <1>   0.0160 
  8 N       -2.9010    -2.2390    -0.4400 N.4   1 <1>  -0.9590 
  9 C       -4.3260    -2.1660    -0.8540 C.3   1 <1>   0.4230 
 10 C       -2.3530    -3.6260    -0.4600 C.3   1 <1>   0.2630 
 11 C       -4.8170    -0.7410    -1.1030 C.3   1 <1>  -0.1600 
 12 C       -5.3110    -2.7320     0.1690 C.3   1 <1>  -0.1600 
 13 C       -6.3480    -0.8540    -1.0420 C.3   1 <1>  -0.0800 
 14 C       -6.6610    -2.1130    -0.2260 C.3   1 <1>  -0.0800 
 15 C       -7.0720     0.3010    -0.3310 C.3   1 <1>  -0.1600 
 16 C       -7.5520    -1.6460     0.9370 C.3   1 <1>  -0.1600 
 17 C       -8.2170    -0.3490     0.4570 C.3   1 <1>   0.4230 
 18 N       -9.3890    -0.6390    -0.4320 N.4   1 <1>  -0.9590 
 19 C       -9.9840     0.6040    -1.0240 C.3   1 <1>   0.2630 
 20 C      -10.4820    -1.3820     0.2770 C.3   1 <1>   0.2630 
 21 H       -0.3290     1.5520    -1.7870 H     1 <1>   0.1500 
 22 H       -3.3700    -1.1400     1.3200 H     1 <1>   0.0800 
 23 H       -1.9140    -2.1120     1.4360 H     1 <1>   0.0800 
 24 H        0.1140     2.2970     0.7550 H     1 <1>   0.1500 
 25 H       -0.4840     1.4410     3.0010 H     1 <1>   0.0800 
 26 H       -0.6790    -0.2970     3.0510 H     1 <1>   0.0800 
 27 H       -2.0930     0.7520     3.0200 H     1 <1>   0.0800 
 28 H       -2.3790    -1.6890    -1.1560 H     1 <1>   0.4500 
 29 H       -4.4500    -2.7150    -1.7750 H     1 <1>   0.0800 
 30 H       -2.8210    -4.2280     0.3010 H     1 <1>   0.0800 
 31 H       -1.2890    -3.6080    -0.2850 H     1 <1>   0.0800 
 32 H       -2.5290    -4.0820    -1.4210 H     1 <1>   0.0800 
 33 H       -4.4650    -0.0730    -0.3400 H     1 <1>   0.0800 
 34 H       -4.4910    -0.3790    -2.0630 H     1 <1>   0.0800 
 35 H       -5.3530    -3.8060     0.1190 H     1 <1>   0.0800 
 36 H       -5.0410    -2.4320     1.1640 H     1 <1>   0.0800 
 37 H       -6.7410    -0.9770    -2.0390 H     1 <1>   0.0800 
 38 H       -7.2060    -2.8030    -0.8510 H     1 <1>   0.0800 
 39 H       -7.3740     1.0730    -1.0130 H     1 <1>   0.0800 
 40 H       -6.4120     0.7550     0.3870 H     1 <1>   0.0800 
 41 H       -6.9380    -1.3920     1.7830 H     1 <1>   0.0800 
 42 H       -8.2360    -2.4090     1.2600 H     1 <1>   0.0800 
 43 H       -8.5230     0.2680     1.2880 H     1 <1>   0.0800 
 44 H       -9.0440    -1.2280    -1.2020 H     1 <1>   0.4500 
 45 H      -10.2840     1.2860    -0.2440 H     1 <1>   0.0800 
 46 H      -10.8520     0.3570    -1.6150 H     1 <1>   0.0800 
 47 H       -9.2760     1.1020    -1.6650 H     1 <1>   0.0800 
 48 H      -10.8180    -0.8250     1.1370 H     1 <1>   0.0800 
 49 H      -10.1400    -2.3500     0.6030 H     1 <1>   0.0800 
 50 H      -11.3210    -1.5310    -0.3840 H     1 <1>   0.0800 
@<TRIPOS>BOND
  1   1   2  2   
  2   1   3  1   
  3   2   4  1   
  4   2   5  1   
  5   3   6  2   
  6   3  21  1   
  7   4   6  1   
  8   4   7  1   
  9   5   8  1   
 10   5  22  1   
 11   5  23  1   
 12   6  24  1   
 13   7  25  1   
 14   7  26  1   
 15   7  27  1   
 16   8   9  1   
 17   8  10  1   
 18   8  28  1   
 19   9  11  1   
 20   9  12  1   
 21   9  29  1   
 22  10  30  1   
 23  10  31  1   
 24  10  32  1   
 25  11  13  1   
 26  11  33  1   
 27  11  34  1   
 28  12  14  1   
 29  12  35  1   
 30  12  36  1   
 31  13  14  1   
 32  13  15  1   
 33  13  37  1   
 34  14  16  1   
 35  14  38  1   
 36  15  17  1   
 37  15  39  1   
 38  15  40  1   
 39  16  17  1   
 40  16  41  1   
 41  16  42  1   
 42  17  18  1   
 43  17  43  1   
 44  18  19  1   
 45  18  20  1   
 46  18  44  1   
 47  19  45  1   
 48  19  46  1   
 49  19  47  1   
 50  20  48  1   
 51  20  49  1   
 52  20  50  1   
@<TRIPOS>SUBSTRUCTURE
  1 ****  11 GROUP 4 **** **** 0

# MOE 2024.06 (io_trps.svl 2023.06)
