@<TRIPOS>MOLECULE
NONAME
48 51 1 0 0 
SMALL
USER_CHARGES


@<TRIPOS>ATOM
  1 CL      -2.0470    -2.0630    -0.8030 Cl    1 <1>  -0.1770 
  2 C       -2.2530    -0.4260    -0.2320 C.ar  1 <1>   0.1770 
  3 C       -3.3950     0.2970    -0.5690 C.ar  1 <1>   0.0860 
  4 C       -1.2520     0.1130     0.5540 C.ar  1 <1>  -0.1500 
  5 C       -4.4480    -0.2740    -1.3750 C.2   1 <1>   0.5440 
  6 C       -3.4900     1.6040    -0.0910 C.ar  1 <1>  -0.1500 
  7 C       -1.3720     1.4100     1.0230 C.ar  1 <1>  -0.1500 
  8 O       -4.5050     0.0150    -2.5550 O.2   1 <1>  -0.5700 
  9 N       -5.4030    -1.1070    -0.8300 N.am  1 <1>  -0.6600 
 10 C       -2.4940     2.1540     0.6970 C.ar  1 <1>  -0.1500 
 11 C       -6.3990    -1.8260    -1.6720 C.3   1 <1>   0.1400 
 12 C       -5.5280    -1.3990     0.6260 C.3   1 <1>   0.1400 
 13 C       -6.2340    -3.3340    -1.4680 C.3   1 <1>  -0.1600 
 14 C       -5.3630    -2.9020     0.8640 C.3   1 <1>  -0.1600 
 15 C       -6.3440    -3.7330     0.0170 C.3   1 <1>   0.4240 
 16 O       -7.6140    -3.3050     0.4640 O.3   1 <1>  -0.5600 
 17 C       -6.1450    -5.2600     0.2460 C.ar  1 <1>  -0.1430 
 18 C       -8.7000    -4.1380     0.2270 C.3   1 <1>   0.1200 
 19 C       -4.9390    -5.9090    -0.0550 C.ar  1 <1>   0.0830 
 20 C       -7.1890    -6.0270     0.7630 C.ar  1 <1>  -0.1430 
 21 C       -8.5260    -5.3880     1.0760 C.3   1 <1>  -0.0170 
 22 O       -3.9190    -5.1850    -0.5860 O.3   1 <1>  -0.3630 
 23 C       -4.7970    -7.2740     0.1830 C.ar  1 <1>  -0.1500 
 24 C       -7.0360    -7.3840     0.9970 C.ar  1 <1>  -0.1500 
 25 C       -2.6830    -5.7520    -0.9590 C.3   1 <1>   0.0400 
 26 C       -5.8400    -8.0080     0.7090 C.ar  1 <1>  -0.1500 
 27 H       -0.3860    -0.4780     0.7940 H     1 <1>   0.1500 
 28 H       -4.3580     2.1870    -0.3490 H     1 <1>   0.1500 
 29 H       -0.5980     1.8390     1.6360 H     1 <1>   0.1500 
 30 H       -2.5890     3.1660     1.0550 H     1 <1>   0.1500 
 31 H       -6.2620    -1.5880    -2.7130 H     1 <1>   0.0800 
 32 H       -7.3890    -1.5170    -1.3860 H     1 <1>   0.0800 
 33 H       -6.5010    -1.0820     0.9610 H     1 <1>   0.0800 
 34 H       -4.7930    -0.8620     1.1960 H     1 <1>   0.0800 
 35 H       -5.2720    -3.6040    -1.8550 H     1 <1>   0.0800 
 36 H       -6.9610    -3.8660    -2.0490 H     1 <1>   0.0800 
 37 H       -5.5220    -3.1270     1.9020 H     1 <1>   0.0800 
 38 H       -4.3490    -3.1580     0.6360 H     1 <1>   0.0800 
 39 H       -8.7460    -4.3800    -0.8200 H     1 <1>   0.0800 
 40 H       -9.5920    -3.6090     0.5110 H     1 <1>   0.0800 
 41 H       -9.3270    -6.0720     0.8630 H     1 <1>   0.0800 
 42 H       -8.5700    -5.1250     2.1180 H     1 <1>   0.0800 
 43 H       -3.8810    -7.7880    -0.0330 H     1 <1>   0.1500 
 44 H       -7.8480    -7.9600     1.4030 H     1 <1>   0.1500 
 45 H       -2.0700    -4.9700    -1.3690 H     1 <1>   0.0800 
 46 H       -2.8560    -6.5080    -1.7030 H     1 <1>   0.0800 
 47 H       -2.2120    -6.1650    -0.0850 H     1 <1>   0.0800 
 48 H       -5.7230    -9.0620     0.8930 H     1 <1>   0.1500 
@<TRIPOS>BOND
  1   1   2  1   
  2   2   3  ar  
  3   2   4  ar  
  4   3   5  1   
  5   3   6  ar  
  6   4   7  ar  
  7   4  27  1   
  8   5   8  2   
  9   5   9  am  
 10   6  10  ar  
 11   6  28  1   
 12   7  10  ar  
 13   7  29  1   
 14   9  11  1   
 15   9  12  1   
 16  10  30  1   
 17  11  13  1   
 18  11  31  1   
 19  11  32  1   
 20  12  14  1   
 21  12  33  1   
 22  12  34  1   
 23  13  15  1   
 24  13  35  1   
 25  13  36  1   
 26  14  15  1   
 27  14  37  1   
 28  14  38  1   
 29  15  16  1   
 30  15  17  1   
 31  16  18  1   
 32  17  19  ar  
 33  17  20  ar  
 34  18  21  1   
 35  18  39  1   
 36  18  40  1   
 37  19  22  1   
 38  19  23  ar  
 39  20  21  1   
 40  20  24  ar  
 41  21  41  1   
 42  21  42  1   
 43  22  25  1   
 44  23  26  ar  
 45  23  43  1   
 46  24  26  ar  
 47  24  44  1   
 48  25  45  1   
 49  25  46  1   
 50  25  47  1   
 51  26  48  1   
@<TRIPOS>SUBSTRUCTURE
  1 ****  14 GROUP 4 **** **** 0

# MOE 2024.06 (io_trps.svl 2023.06)
