@<TRIPOS>MOLECULE
NONAME
52 54 1 0 0 
SMALL
USER_CHARGES


@<TRIPOS>ATOM
  1 S        0.4890    -0.0060     0.2950 S.o2  1 <1>   1.4470 
  2 O        1.5280    -0.6440     1.0640 O.2   1 <1>  -0.6500 
  3 O       -0.8680    -0.4880     0.3500 O.2   1 <1>  -0.6500 
  4 N        0.9180    -0.3520    -1.2650 N.am  1 <1>  -0.9780 
  5 C        0.5750     1.8030     0.4130 C.ar  1 <1>  -0.0090 
  6 C        1.7930     2.4520     0.5740 C.ar  1 <1>  -0.1500 
  7 C       -0.5710     2.5870     0.3360 C.ar  1 <1>  -0.1500 
  8 C        1.8650     3.8310     0.6660 C.ar  1 <1>  -0.1500 
  9 C       -0.5060     3.9670     0.4280 C.ar  1 <1>  -0.1500 
 10 C        0.7150     4.5980     0.5970 C.ar  1 <1>  -0.1430 
 11 C        0.7970     6.1130     0.7060 C.3   1 <1>  -0.0170 
 12 C        1.0870     6.7350    -0.6590 C.3   1 <1>   0.2090 
 13 N        1.2190     8.2120    -0.5240 N.pl3 1 <1>  -0.8690 
 14 C        2.3620     8.8990    -0.3030 C.ar  1 <1>   0.4100 
 15 N        3.4600     8.1920    -0.1400 N.ar  1 <1>  -0.6200 
 16 C        2.3520    10.3170    -0.2520 C.ar  1 <1>  -0.1430 
 17 C        4.5930     8.8410     0.0570 C.ar  1 <1>   0.7710 
 18 C        3.5440    10.9540    -0.0630 C.ar  1 <1>   0.2180 
 19 C        1.0130    11.0480    -0.4040 C.3   1 <1>  -0.0970 
 20 N        4.6430    10.1800     0.0960 N.ar  1 <1>  -0.1790 
 21 N        5.7400     8.1380     0.2260 N.pl3 1 <1>  -0.8380 
 22 C        3.7620    12.4620    -0.0090 C.3   1 <1>  -0.0970 
 23 C        5.7440     6.6480     0.2130 C.3   1 <1>   0.2090 
 24 C        7.1270     8.6470     0.4080 C.3   1 <1>   0.2090 
 25 C        7.1500     6.2480     0.6350 C.3   1 <1>  -0.1600 
 26 C        8.0220     7.4290     0.2270 C.3   1 <1>  -0.1600 
 27 H        0.0470    -0.6740    -1.6800 H     1 <1>   0.4200 
 28 H        1.5030    -1.1780    -1.1660 H     1 <1>   0.4200 
 29 H        2.6960     1.8690     0.6310 H     1 <1>   0.1500 
 30 H       -1.5300     2.1110     0.2080 H     1 <1>   0.1500 
 31 H        2.8240     4.3040     0.7960 H     1 <1>   0.1500 
 32 H       -1.4130     4.5440     0.3700 H     1 <1>   0.1500 
 33 H        1.5840     6.3770     1.3900 H     1 <1>   0.0800 
 34 H       -0.1280     6.5010     1.0910 H     1 <1>   0.0800 
 35 H        0.2880     6.5060    -1.3430 H     1 <1>   0.0800 
 36 H        1.9950     6.3180    -1.0610 H     1 <1>   0.0800 
 37 H        0.3390     8.7200    -0.6420 H     1 <1>   0.4000 
 38 H        0.2830    10.6230     0.2640 H     1 <1>   0.0800 
 39 H        0.6520    10.9480    -1.4130 H     1 <1>   0.0800 
 40 H        1.0750    12.0930    -0.1690 H     1 <1>   0.0800 
 41 H        5.5610    10.5690     0.2580 H     1 <1>   0.4570 
 42 H        3.0140    12.9890    -0.5730 H     1 <1>   0.0800 
 43 H        4.7150    12.7250    -0.4310 H     1 <1>   0.0800 
 44 H        3.7280    12.8040     1.0110 H     1 <1>   0.0800 
 45 H        5.5410     6.3000    -0.7870 H     1 <1>   0.0800 
 46 H        5.0050     6.2470     0.8880 H     1 <1>   0.0800 
 47 H        7.2400     9.0310     1.4090 H     1 <1>   0.0800 
 48 H        7.3750     9.4060    -0.3140 H     1 <1>   0.0800 
 49 H        7.4600     5.3280     0.1700 H     1 <1>   0.0800 
 50 H        7.1730     6.1230     1.7040 H     1 <1>   0.0800 
 51 H        8.9200     7.4970     0.8170 H     1 <1>   0.0800 
 52 H        8.2930     7.3400    -0.8110 H     1 <1>   0.0800 
@<TRIPOS>BOND
  1   1   2  2   
  2   1   3  2   
  3   1   4  am  
  4   1   5  1   
  5   4  27  1   
  6   4  28  1   
  7   5   6  ar  
  8   5   7  ar  
  9   6   8  ar  
 10   6  29  1   
 11   7   9  ar  
 12   7  30  1   
 13   8  10  ar  
 14   8  31  1   
 15   9  10  ar  
 16   9  32  1   
 17  10  11  1   
 18  11  12  1   
 19  11  33  1   
 20  11  34  1   
 21  12  13  1   
 22  12  35  1   
 23  12  36  1   
 24  13  14  1   
 25  13  37  1   
 26  14  15  ar  
 27  14  16  ar  
 28  15  17  ar  
 29  16  18  ar  
 30  16  19  1   
 31  17  20  ar  
 32  17  21  1   
 33  18  20  ar  
 34  18  22  1   
 35  19  38  1   
 36  19  39  1   
 37  19  40  1   
 38  20  41  1   
 39  21  23  1   
 40  21  24  1   
 41  22  42  1   
 42  22  43  1   
 43  22  44  1   
 44  23  25  1   
 45  23  45  1   
 46  23  46  1   
 47  24  26  1   
 48  24  47  1   
 49  24  48  1   
 50  25  26  1   
 51  25  49  1   
 52  25  50  1   
 53  26  51  1   
 54  26  52  1   
@<TRIPOS>SUBSTRUCTURE
  1 ****  12 GROUP 4 **** **** 0

# MOE 2024.06 (io_trps.svl 2023.06)
