@<TRIPOS>MOLECULE
NONAME
49 51 1 0 0 
SMALL
USER_CHARGES


@<TRIPOS>ATOM
  1 O       -0.7350     0.2310    -0.3190 O.2   1 <1>  -0.5700 
  2 C       -1.6450     0.8830     0.1530 C.2   1 <1>   0.5440 
  3 N       -2.7640     0.2280     0.6150 N.am  1 <1>  -0.6600 
  4 C       -1.5360     2.3240     0.1970 C.ar  1 <1>   0.0860 
  5 C       -2.7810    -1.2570     0.8200 C.3   1 <1>   0.1400 
  6 C       -4.1410     0.8110     0.5670 C.3   1 <1>   0.1400 
  7 C       -1.9220     3.0400     1.3270 C.ar  1 <1>   0.1600 
  8 C       -1.0450     3.0600    -0.8710 C.ar  1 <1>  -0.1500 
  9 C       -3.7450    -1.9420    -0.1650 C.3   1 <1>   0.3440 
 10 C       -5.0330     0.0270    -0.4250 C.3   1 <1>   0.2000 
 11 N       -1.8960     4.3560     1.4570 N.ar  1 <1>  -0.6200 
 12 C       -1.0000     4.4320    -0.7510 C.ar  1 <1>  -0.1500 
 13 O       -5.0100    -1.3370    -0.0920 O.3   1 <1>  -0.5600 
 14 C       -3.8690    -3.4290     0.1540 C.ar  1 <1>  -0.1430 
 15 C       -6.5110     0.5160    -0.4940 C.3   1 <1>   0.0000 
 16 C       -1.4340     5.0550     0.4160 C.ar  1 <1>   0.3830 
 17 C       -4.8220    -3.9040     1.0450 C.ar  1 <1>  -0.1500 
 18 C       -3.0020    -4.3310    -0.4470 C.ar  1 <1>  -0.1500 
 19 C       -7.2710    -0.2980    -1.5580 C.3   1 <1>  -0.2400 
 20 C       -7.2430     0.3510     0.8520 C.3   1 <1>  -0.2400 
 21 C       -6.5820     1.9980    -0.9070 C.3   1 <1>  -0.2400 
 22 C       -1.3870     6.4920     0.5020 C.1   1 <1>   0.4840 
 23 C       -4.9070    -5.2560     1.3310 C.ar  1 <1>  -0.1500 
 24 C       -3.0850    -5.6830    -0.1630 C.ar  1 <1>  -0.1500 
 25 N       -1.3370     7.6330     0.5170 N.1   1 <1>  -0.5570 
 26 C       -4.0370    -6.1460     0.7270 C.ar  1 <1>  -0.1500 
 27 H       -1.7960    -1.6720     0.6940 H     1 <1>   0.0800 
 28 H       -3.0970    -1.4740     1.8240 H     1 <1>   0.0800 
 29 H       -4.5710     0.7710     1.5520 H     1 <1>   0.0800 
 30 H       -4.0990     1.8390     0.2610 H     1 <1>   0.0800 
 31 H       -2.2780     2.4790     2.1750 H     1 <1>   0.1500 
 32 H       -0.7100     2.5590    -1.7650 H     1 <1>   0.1500 
 33 H       -3.3780    -1.8240    -1.1700 H     1 <1>   0.0800 
 34 H       -4.6080     0.1250    -1.4090 H     1 <1>   0.0800 
 35 H       -0.6260     5.0290    -1.5650 H     1 <1>   0.1500 
 36 H       -5.5050    -3.2190     1.5170 H     1 <1>   0.1500 
 37 H       -2.2550    -3.9850    -1.1410 H     1 <1>   0.1500 
 38 H       -8.2870     0.0410    -1.6490 H     1 <1>   0.0800 
 39 H       -7.2910    -1.3410    -1.2920 H     1 <1>   0.0800 
 40 H       -6.7940    -0.2070    -2.5180 H     1 <1>   0.0800 
 41 H       -8.2770     0.6290     0.7540 H     1 <1>   0.0800 
 42 H       -6.8050     0.9660     1.6150 H     1 <1>   0.0800 
 43 H       -7.2030    -0.6750     1.1760 H     1 <1>   0.0800 
 44 H       -7.6060     2.2980    -1.0520 H     1 <1>   0.0800 
 45 H       -6.0530     2.1600    -1.8300 H     1 <1>   0.0800 
 46 H       -6.1630     2.6370    -0.1520 H     1 <1>   0.0800 
 47 H       -5.6510    -5.6120     2.0210 H     1 <1>   0.1500 
 48 H       -2.4090    -6.3740    -0.6340 H     1 <1>   0.1500 
 49 H       -4.1030    -7.1970     0.9480 H     1 <1>   0.1500 
@<TRIPOS>BOND
  1   1   2  2   
  2   2   3  am  
  3   2   4  1   
  4   3   5  1   
  5   3   6  1   
  6   4   7  ar  
  7   4   8  ar  
  8   5   9  1   
  9   5  27  1   
 10   5  28  1   
 11   6  10  1   
 12   6  29  1   
 13   6  30  1   
 14   7  11  ar  
 15   7  31  1   
 16   8  12  ar  
 17   8  32  1   
 18   9  13  1   
 19   9  14  1   
 20   9  33  1   
 21  10  13  1   
 22  10  15  1   
 23  10  34  1   
 24  11  16  ar  
 25  12  16  ar  
 26  12  35  1   
 27  14  17  ar  
 28  14  18  ar  
 29  15  19  1   
 30  15  20  1   
 31  15  21  1   
 32  16  22  1   
 33  17  23  ar  
 34  17  36  1   
 35  18  24  ar  
 36  18  37  1   
 37  19  38  1   
 38  19  39  1   
 39  19  40  1   
 40  20  41  1   
 41  20  42  1   
 42  20  43  1   
 43  21  44  1   
 44  21  45  1   
 45  21  46  1   
 46  22  25  3   
 47  23  26  ar  
 48  23  47  1   
 49  24  26  ar  
 50  24  48  1   
 51  26  49  1   
@<TRIPOS>SUBSTRUCTURE
  1 ****   3 GROUP 4 **** **** 0

# MOE 2024.06 (io_trps.svl 2023.06)
