@<TRIPOS>MOLECULE
NONAME
50 52 1 0 0 
SMALL
USER_CHARGES


@<TRIPOS>ATOM
  1 O       -0.5050     3.1170    -1.9760 O.co2 1 <1>  -0.9000 
  2 C       -0.6700     2.0940    -1.2930 C.2   1 <1>   0.9060 
  3 O       -0.9840     1.0160    -1.7940 O.co2 1 <1>  -0.9000 
  4 C       -0.6240     2.2360     0.2190 C.3   1 <1>  -0.1060 
  5 C       -2.0530     2.6940     0.6040 C.3   1 <1>   0.2000 
  6 C        0.4080     3.3270     0.5400 C.3   1 <1>   0.3430 
  7 C       -0.1520     0.9290     0.9250 C.3   1 <1>  -0.0170 
  8 O       -2.7740     1.6790     1.1980 O.3   1 <1>  -0.6800 
  9 C       -2.0490     3.8830     1.5610 C.3   1 <1>  -0.1600 
 10 N       -0.1060     4.6720     0.1470 N.4   1 <1>  -0.9590 
 11 C        1.3590     0.7250     0.8510 C.ar  1 <1>  -0.1440 
 12 C       -1.3180     5.0730     0.9300 C.3   1 <1>   0.3430 
 13 C        0.9310     5.7320     0.0020 C.3   1 <1>   0.4230 
 14 C        1.9570     0.3490    -0.3420 C.ar  1 <1>  -0.1500 
 15 C        2.1520     0.9290     1.9720 C.ar  1 <1>  -0.1500 
 16 C        0.2840     7.0080    -0.5700 C.3   1 <1>  -0.1600 
 17 C        2.0730     5.2600    -0.9200 C.3   1 <1>  -0.1600 
 18 C        3.3300     0.1960    -0.4200 C.ar  1 <1>  -0.1500 
 19 C        3.5250     0.7740     1.8950 C.ar  1 <1>  -0.1500 
 20 C        1.3130     8.1150    -0.8410 C.3   1 <1>  -0.1600 
 21 C        3.0960     6.3700    -1.2040 C.3   1 <1>  -0.1600 
 22 C        4.1160     0.4110     0.6980 C.ar  1 <1>  -0.1500 
 23 C        2.4200     7.6190    -1.7760 C.3   1 <1>  -0.1600 
 24 H       -2.6030     2.9810    -0.2810 H     1 <1>   0.0800 
 25 H        1.3060     3.0890    -0.0030 H     1 <1>   0.0800 
 26 H        0.6360     3.3170     1.5920 H     1 <1>   0.0800 
 27 H       -0.4350     0.9630     1.9620 H     1 <1>   0.0800 
 28 H       -0.6450     0.0710     0.4980 H     1 <1>   0.0800 
 29 H       -2.8600     0.9400     0.5570 H     1 <1>   0.4000 
 30 H       -3.0590     4.1730     1.7860 H     1 <1>   0.0800 
 31 H       -1.5660     3.6090     2.4820 H     1 <1>   0.0800 
 32 H       -0.4090     4.4560    -0.8400 H     1 <1>   0.4500 
 33 H       -1.0340     5.7560     1.7130 H     1 <1>   0.0800 
 34 H       -1.9950     5.5890     0.2690 H     1 <1>   0.0800 
 35 H        1.3460     5.9590     0.9700 H     1 <1>   0.0800 
 36 H        1.3540     0.1720    -1.2200 H     1 <1>   0.1500 
 37 H        1.7060     1.2040     2.9110 H     1 <1>   0.1500 
 38 H       -0.2120     6.7670    -1.4950 H     1 <1>   0.0800 
 39 H       -0.4420     7.4050     0.1150 H     1 <1>   0.0800 
 40 H        2.6110     4.4460    -0.4710 H     1 <1>   0.0800 
 41 H        1.6590     4.9190    -1.8550 H     1 <1>   0.0800 
 42 H        3.7800    -0.0930    -1.3530 H     1 <1>   0.1500 
 43 H        4.1360     0.9320     2.7670 H     1 <1>   0.1500 
 44 H        0.8220     8.9620    -1.2900 H     1 <1>   0.0800 
 45 H        1.7500     8.4420     0.0880 H     1 <1>   0.0800 
 46 H        3.6120     6.6270    -0.2950 H     1 <1>   0.0800 
 47 H        3.8290     6.0090    -1.9060 H     1 <1>   0.0800 
 48 H        5.1830     0.2890     0.6360 H     1 <1>   0.1500 
 49 H        3.1530     8.3950    -1.9140 H     1 <1>   0.0800 
 50 H        2.0000     7.3890    -2.7410 H     1 <1>   0.0800 
@<TRIPOS>BOND
  1   1   2  ar  
  2   2   3  ar  
  3   2   4  1   
  4   4   5  1   
  5   4   6  1   
  6   4   7  1   
  7   5   8  1   
  8   5   9  1   
  9   5  24  1   
 10   6  10  1   
 11   6  25  1   
 12   6  26  1   
 13   7  11  1   
 14   7  27  1   
 15   7  28  1   
 16   8  29  1   
 17   9  12  1   
 18   9  30  1   
 19   9  31  1   
 20  10  12  1   
 21  10  13  1   
 22  10  32  1   
 23  11  14  ar  
 24  11  15  ar  
 25  12  33  1   
 26  12  34  1   
 27  13  16  1   
 28  13  17  1   
 29  13  35  1   
 30  14  18  ar  
 31  14  36  1   
 32  15  19  ar  
 33  15  37  1   
 34  16  20  1   
 35  16  38  1   
 36  16  39  1   
 37  17  21  1   
 38  17  40  1   
 39  17  41  1   
 40  18  22  ar  
 41  18  42  1   
 42  19  22  ar  
 43  19  43  1   
 44  20  23  1   
 45  20  44  1   
 46  20  45  1   
 47  21  23  1   
 48  21  46  1   
 49  21  47  1   
 50  22  48  1   
 51  23  49  1   
 52  23  50  1   
@<TRIPOS>SUBSTRUCTURE
  1 ****   6 GROUP 4 **** **** 0

# MOE 2024.06 (io_trps.svl 2023.06)
