@<TRIPOS>MOLECULE
NONAME
49 52 1 0 0 
SMALL
USER_CHARGES


@<TRIPOS>ATOM
  1 O       -1.3120    -1.5870     0.6090 O.2   1 <1>  -0.5700 
  2 C       -0.2210    -1.9390     0.9860 C.2   1 <1>   0.5690 
  3 N        0.7410    -1.0190     1.3190 N.am  1 <1>  -0.6600 
  4 C       -0.0230    -3.4440     1.0790 C.3   1 <1>  -0.0990 
  5 C        2.1650    -1.3500     1.6210 C.3   1 <1>   0.1400 
  6 C        0.3940     0.4380     1.3600 C.3   1 <1>   0.2840 
  7 C        1.3990    -3.9910     1.1950 C.3   1 <1>   0.1200 
  8 C        2.8680    -2.1950     0.5160 C.3   1 <1>   0.2800 
  9 C        1.0310     1.1630     0.1770 C.ar  1 <1>  -0.1440 
 10 O        2.2100    -3.4070     0.2210 O.3   1 <1>  -0.5600 
 11 C        2.9280    -1.4160    -0.8130 C.3   1 <1>  -0.1600 
 12 C        4.3060    -2.5610     0.9220 C.3   1 <1>  -0.1600 
 13 C        2.2080     1.9520     0.3010 C.ar  1 <1>   0.0000 
 14 C        0.4220     1.0110    -1.0410 C.ar  1 <1>  -0.1500 
 15 C        3.9050    -1.9730    -1.8510 C.3   1 <1>   0.3430 
 16 C        5.0660    -3.3550    -0.1560 C.3   1 <1>   0.3430 
 17 C        2.7480     2.5330    -0.8720 C.ar  1 <1>   0.0000 
 18 C        2.8900     2.2000     1.5180 C.ar  1 <1>  -0.1500 
 19 C        0.9460     1.6080    -2.1890 C.ar  1 <1>  -0.1500 
 20 N        4.3400    -3.3320    -1.4540 N.4   1 <1>  -0.9060 
 21 C        2.0880     2.3490    -2.1030 C.ar  1 <1>  -0.1500 
 22 C        3.9340     3.2890    -0.7900 C.ar  1 <1>  -0.1500 
 23 C        4.0390     2.9390     1.5690 C.ar  1 <1>  -0.1500 
 24 C        4.5720     3.4880     0.4000 C.ar  1 <1>  -0.1500 
 25 H       -0.4710    -3.8780     0.2040 H     1 <1>   0.0800 
 26 H       -0.5930    -3.7940     1.9200 H     1 <1>   0.0800 
 27 H        2.2180    -1.8430     2.5750 H     1 <1>   0.0800 
 28 H        2.7210    -0.4380     1.7330 H     1 <1>   0.0800 
 29 H        0.6920     0.8550     2.3020 H     1 <1>   0.0800 
 30 H       -0.6730     0.5700     1.3030 H     1 <1>   0.0800 
 31 H        1.3800    -5.0510     1.0040 H     1 <1>   0.0800 
 32 H        1.8180    -3.8470     2.1750 H     1 <1>   0.0800 
 33 H        3.2270    -0.4030    -0.6200 H     1 <1>   0.0800 
 34 H        1.9410    -1.3680    -1.2390 H     1 <1>   0.0800 
 35 H        4.3010    -3.1220     1.8390 H     1 <1>   0.0800 
 36 H        4.8530    -1.6560     1.1190 H     1 <1>   0.0800 
 37 H       -0.4760     0.4200    -1.1360 H     1 <1>   0.1500 
 38 H        4.7640    -1.3240    -1.9230 H     1 <1>   0.0800 
 39 H        3.4220    -2.0020    -2.8150 H     1 <1>   0.0800 
 40 H        5.1700    -4.3780     0.1700 H     1 <1>   0.0800 
 41 H        6.0540    -2.9410    -0.2770 H     1 <1>   0.0800 
 42 H        2.5050     1.8080     2.4380 H     1 <1>   0.1500 
 43 H        0.4360     1.4750    -3.1280 H     1 <1>   0.1500 
 44 H        4.8550    -3.8120    -2.2010 H     1 <1>   0.4500 
 45 H        3.4570    -3.8490    -1.2800 H     1 <1>   0.4500 
 46 H        2.4980     2.8150    -2.9810 H     1 <1>   0.1500 
 47 H        4.3320     3.7190    -1.6920 H     1 <1>   0.1500 
 48 H        4.5440     3.1180     2.5030 H     1 <1>   0.1500 
 49 H        5.4760     4.0710     0.4570 H     1 <1>   0.1500 
@<TRIPOS>BOND
  1   1   2  2   
  2   2   3  am  
  3   2   4  1   
  4   3   5  1   
  5   3   6  1   
  6   4   7  1   
  7   4  25  1   
  8   4  26  1   
  9   5   8  1   
 10   5  27  1   
 11   5  28  1   
 12   6   9  1   
 13   6  29  1   
 14   6  30  1   
 15   7  10  1   
 16   7  31  1   
 17   7  32  1   
 18   8  10  1   
 19   8  11  1   
 20   8  12  1   
 21   9  13  ar  
 22   9  14  ar  
 23  11  15  1   
 24  11  33  1   
 25  11  34  1   
 26  12  16  1   
 27  12  35  1   
 28  12  36  1   
 29  13  17  ar  
 30  13  18  ar  
 31  14  19  ar  
 32  14  37  1   
 33  15  20  1   
 34  15  38  1   
 35  15  39  1   
 36  16  20  1   
 37  16  40  1   
 38  16  41  1   
 39  17  21  ar  
 40  17  22  ar  
 41  18  23  ar  
 42  18  42  1   
 43  19  21  ar  
 44  19  43  1   
 45  20  44  1   
 46  20  45  1   
 47  21  46  1   
 48  22  24  ar  
 49  22  47  1   
 50  23  24  ar  
 51  23  48  1   
 52  24  49  1   
@<TRIPOS>SUBSTRUCTURE
  1 ****  11 GROUP 4 **** **** 0

# MOE 2024.06 (io_trps.svl 2023.06)
