@<TRIPOS>MOLECULE
NONAME
45 47 1 0 0 
SMALL
USER_CHARGES


@<TRIPOS>ATOM
  1 CL      -0.2170     0.0750     0.9670 Cl    1 <1>  -0.1770 
  2 C       -1.7730    -0.5760     0.5010 C.ar  1 <1>   0.1770 
  3 C       -1.8850    -1.4800    -0.5500 C.ar  1 <1>   0.0830 
  4 C       -2.8900    -0.1600     1.2000 C.ar  1 <1>  -0.1500 
  5 O       -0.8150    -1.9040    -1.2570 O.3   1 <1>  -0.3630 
  6 C       -3.1390    -1.9490    -0.9010 C.ar  1 <1>  -0.1500 
  7 C       -4.1550    -0.6300     0.8610 C.ar  1 <1>  -0.0090 
  8 C        0.0020    -2.8790    -0.6490 C.3   1 <1>   0.0400 
  9 C       -4.2560    -1.5280    -0.1980 C.ar  1 <1>  -0.1500 
 10 S       -5.6310    -0.0920     1.7680 S.o2  1 <1>   1.4470 
 11 O       -6.2450    -1.2470     2.3850 O.2   1 <1>  -0.6500 
 12 O       -5.3240     1.0670     2.5780 O.2   1 <1>  -0.6500 
 13 N       -6.6700     0.4330     0.5360 N.am  1 <1>  -0.8490 
 14 C       -8.0540     0.5550     1.0240 C.3   1 <1>   0.1960 
 15 C       -6.2220     1.6900    -0.0680 C.3   1 <1>   0.1960 
 16 C       -9.0540     0.8720    -0.1170 C.3   1 <1>   0.0000 
 17 C       -7.1080     2.0430    -1.2650 C.3   1 <1>  -0.1600 
 18 C      -10.4680     0.9950     0.4880 C.3   1 <1>   0.2000 
 19 C       -8.5840     2.1480    -0.8550 C.3   1 <1>  -0.1600 
 20 C       -9.1880    -0.3400    -1.0630 C.3   1 <1>  -0.1600 
 21 O      -11.3210     1.6230    -0.4020 O.3   1 <1>  -0.6800 
 22 C      -10.9630    -0.4420     0.6420 C.3   1 <1>  -0.1600 
 23 C      -10.2540    -1.2580    -0.4480 C.3   1 <1>  -0.1600 
 24 H       -2.7730     0.5380     2.0120 H     1 <1>   0.1500 
 25 H       -3.2340    -2.6400    -1.7200 H     1 <1>   0.1500 
 26 H        0.7810    -3.1420    -1.3420 H     1 <1>   0.0800 
 27 H       -0.5960    -3.7430    -0.4210 H     1 <1>   0.0800 
 28 H        0.4340    -2.4730     0.2480 H     1 <1>   0.0800 
 29 H       -5.2290    -1.9010    -0.4750 H     1 <1>   0.1500 
 30 H       -8.3460    -0.3680     1.4960 H     1 <1>   0.0800 
 31 H       -8.0990     1.3310     1.7710 H     1 <1>   0.0800 
 32 H       -6.2610     2.4850     0.6600 H     1 <1>   0.0800 
 33 H       -5.2040     1.5920    -0.4050 H     1 <1>   0.0800 
 34 H       -6.7840     2.9800    -1.6810 H     1 <1>   0.0800 
 35 H       -6.9870     1.2900    -2.0240 H     1 <1>   0.0800 
 36 H      -10.4880     1.5470     1.4130 H     1 <1>   0.0800 
 37 H       -9.1850     2.3280    -1.7280 H     1 <1>   0.0800 
 38 H       -8.7050     2.9940    -0.2000 H     1 <1>   0.0800 
 39 H       -9.5300    -0.0110    -2.0280 H     1 <1>   0.0800 
 40 H       -8.2540    -0.8580    -1.1990 H     1 <1>   0.0800 
 41 H      -11.3510     1.1040    -1.2270 H     1 <1>   0.4000 
 42 H      -10.6600    -0.8120     1.6070 H     1 <1>   0.0800 
 43 H      -12.0350    -0.5110     0.5790 H     1 <1>   0.0800 
 44 H       -9.7940    -2.1300    -0.0140 H     1 <1>   0.0800 
 45 H      -10.9530    -1.5770    -1.2030 H     1 <1>   0.0800 
@<TRIPOS>BOND
  1   1   2  1   
  2   2   3  ar  
  3   2   4  ar  
  4   3   5  1   
  5   3   6  ar  
  6   4   7  ar  
  7   4  24  1   
  8   5   8  1   
  9   6   9  ar  
 10   6  25  1   
 11   7   9  ar  
 12   7  10  1   
 13   8  26  1   
 14   8  27  1   
 15   8  28  1   
 16   9  29  1   
 17  10  11  2   
 18  10  12  2   
 19  10  13  am  
 20  13  14  1   
 21  13  15  1   
 22  14  16  1   
 23  14  30  1   
 24  14  31  1   
 25  15  17  1   
 26  15  32  1   
 27  15  33  1   
 28  16  18  1   
 29  16  19  1   
 30  16  20  1   
 31  17  19  1   
 32  17  34  1   
 33  17  35  1   
 34  18  21  1   
 35  18  22  1   
 36  18  36  1   
 37  19  37  1   
 38  19  38  1   
 39  20  23  1   
 40  20  39  1   
 41  20  40  1   
 42  21  41  1   
 43  22  23  1   
 44  22  42  1   
 45  22  43  1   
 46  23  44  1   
 47  23  45  1   
@<TRIPOS>SUBSTRUCTURE
  1 ****  13 GROUP 4 **** **** 0

# MOE 2024.06 (io_trps.svl 2023.06)
