@<TRIPOS>MOLECULE
NONAME
37 39 1 0 0 
SMALL
USER_CHARGES


@<TRIPOS>ATOM
  1 O        1.4600    -0.8440    -2.0110 O.3   1 <1>  -0.0190 
  2 N        1.8200     0.4020    -2.0000 N.2   1 <1>  -0.4100 
  3 C        1.6850    -1.2530    -0.7900 C.2   1 <1>   0.2980 
  4 C        2.2290     0.6820    -0.8120 C.2   1 <1>   0.5150 
  5 N        2.1580    -0.3780     0.0000 N.2   1 <1>  -0.5650 
  6 C        1.3700    -2.7020    -0.4320 C.3   1 <1>   0.2900 
  7 C        2.7090     1.9800    -0.3870 C.2   1 <1>   0.1410 
  8 N       -0.0810    -3.0090    -0.4530 N.3   1 <1>  -0.8100 
  9 O        3.1040     2.1980     0.8650 O.3   1 <1>  -0.2800 
 10 C        2.8490     3.1370    -1.0900 C.2   1 <1>  -0.1500 
 11 C       -0.3310    -4.4350    -0.1990 C.3   1 <1>   0.1100 
 12 C       -0.8320    -2.1340     0.4730 C.3   1 <1>   0.1100 
 13 C        3.4880     3.4530     0.9740 C.2   1 <1>  -0.0100 
 14 C        3.3540     4.0930    -0.2060 C.2   1 <1>  -0.1500 
 15 C       -1.7870    -4.7980    -0.5590 C.3   1 <1>  -0.0800 
 16 C       -2.2390    -2.6720     0.7760 C.3   1 <1>  -0.1600 
 17 C       -2.7290    -3.5880    -0.3450 C.3   1 <1>   0.2000 
 18 C       -2.2190    -6.0640     0.2020 C.3   1 <1>   0.1200 
 19 O       -4.0200    -3.9880    -0.0450 O.3   1 <1>  -0.6800 
 20 O       -1.3100    -7.0860    -0.0270 O.3   1 <1>  -0.6800 
 21 H        1.7660    -2.9100     0.5470 H     1 <1>   0.0800 
 22 H        1.8760    -3.3370    -1.1380 H     1 <1>   0.0800 
 23 H        2.6190     3.3000    -2.1280 H     1 <1>   0.1500 
 24 H        0.3340    -5.0420    -0.7900 H     1 <1>   0.0800 
 25 H       -0.1410    -4.6490     0.8400 H     1 <1>   0.0800 
 26 H       -0.2930    -2.0170     1.3990 H     1 <1>   0.0800 
 27 H       -0.9210    -1.1610     0.0180 H     1 <1>   0.0800 
 28 H        3.8410     3.8070     1.9270 H     1 <1>   0.1500 
 29 H        3.5800     5.1170    -0.4470 H     1 <1>   0.1500 
 30 H       -1.8170    -5.0210    -1.6100 H     1 <1>   0.0800 
 31 H       -2.9100    -1.8400     0.8960 H     1 <1>   0.0800 
 32 H       -2.2050    -3.2160     1.7010 H     1 <1>   0.0800 
 33 H       -2.7750    -3.0190    -1.2600 H     1 <1>   0.0800 
 34 H       -3.1890    -6.4030    -0.1220 H     1 <1>   0.0800 
 35 H       -2.2440    -5.8800     1.2620 H     1 <1>   0.0800 
 36 H       -4.0780    -4.2670     0.8870 H     1 <1>   0.4000 
 37 H       -1.3590    -7.3820    -0.9570 H     1 <1>   0.4000 
@<TRIPOS>BOND
  1   1   2  1   
  2   1   3  1   
  3   2   4  2   
  4   3   5  2   
  5   3   6  1   
  6   4   5  1   
  7   4   7  1   
  8   6   8  1   
  9   6  21  1   
 10   6  22  1   
 11   7   9  1   
 12   7  10  2   
 13   8  11  1   
 14   8  12  1   
 15   9  13  1   
 16  10  14  1   
 17  10  23  1   
 18  11  15  1   
 19  11  24  1   
 20  11  25  1   
 21  12  16  1   
 22  12  26  1   
 23  12  27  1   
 24  13  14  2   
 25  13  28  1   
 26  14  29  1   
 27  15  17  1   
 28  15  18  1   
 29  15  30  1   
 30  16  17  1   
 31  16  31  1   
 32  16  32  1   
 33  17  19  1   
 34  17  33  1   
 35  18  20  1   
 36  18  34  1   
 37  18  35  1   
 38  19  36  1   
 39  20  37  1   
@<TRIPOS>SUBSTRUCTURE
  1 ****   3 GROUP 4 **** **** 0

# MOE 2024.06 (io_trps.svl 2023.06)
