@<TRIPOS>MOLECULE
NONAME
54 56 1 0 0 
SMALL
USER_CHARGES


@<TRIPOS>ATOM
  1 O        4.6030     2.2030     1.4080 O.co2 1 <1>  -0.9000 
  2 C        3.8290     1.2500     1.5110 C.2   1 <1>   0.9060 
  3 O        4.1810     0.2070     2.0700 O.co2 1 <1>  -0.9000 
  4 C        2.5830     1.2050     0.6010 C.3   1 <1>  -0.1060 
  5 C        2.8490     0.0260    -0.3560 C.3   1 <1>   0.4230 
  6 C        2.4440     2.4980    -0.2700 C.3   1 <1>  -0.1600 
  7 C        1.2670     1.0090     1.3990 C.3   1 <1>  -0.1600 
  8 N        2.7750    -1.2790     0.3990 N.4   1 <1>  -0.9590 
  9 C        4.2140     0.2670    -1.0980 C.3   1 <1>   0.3430 
 10 C        3.4500     2.6420    -1.4300 C.3   1 <1>   0.3430 
 11 C        1.1560    -0.3850     2.0320 C.3   1 <1>  -0.1600 
 12 C        1.4460    -1.5030     1.0310 C.3   1 <1>   0.3430 
 13 C        3.2570    -2.5010    -0.3070 C.3   1 <1>   0.2630 
 14 N        4.6010     1.7220    -1.2240 N.4   1 <1>  -0.9590 
 15 C        5.7870     1.9810    -2.0830 C.3   1 <1>   0.4860 
 16 C        6.1290     3.4600    -2.0810 C.ar  1 <1>  -0.1440 
 17 C        6.4270     4.1140    -0.8930 C.ar  1 <1>  -0.1500 
 18 C        6.1410     4.1760    -3.2700 C.ar  1 <1>  -0.1500 
 19 C        6.7290     5.4650    -0.8850 C.ar  1 <1>   0.0820 
 20 C        6.4440     5.5270    -3.2690 C.ar  1 <1>  -0.1500 
 21 O        7.0010     6.0170     0.3210 O.3   1 <1>  -0.3620 
 22 C        6.7380     6.1740    -2.0820 C.ar  1 <1>  -0.1500 
 23 C        7.2980     7.3880     0.4620 C.3   1 <1>   0.1200 
 24 C        7.4850     7.6840     1.9490 C.3   1 <1>   0.1200 
 25 O        7.8840     9.0040     2.1100 O.3   1 <1>  -0.6800 
 26 H        2.0710     0.0240    -1.0990 H     1 <1>   0.0800 
 27 H        2.5480     3.3590     0.3720 H     1 <1>   0.0800 
 28 H        1.4590     2.5650    -0.6960 H     1 <1>   0.0800 
 29 H        1.2030     1.7570     2.1730 H     1 <1>   0.0800 
 30 H        0.4190     1.1460     0.7490 H     1 <1>   0.0800 
 31 H        3.4160    -1.0860     1.2210 H     1 <1>   0.4500 
 32 H        4.1570    -0.1770    -2.0770 H     1 <1>   0.0800 
 33 H        4.9880    -0.2320    -0.5380 H     1 <1>   0.0800 
 34 H        3.7920     3.6650    -1.4660 H     1 <1>   0.0800 
 35 H        2.9690     2.4160    -2.3670 H     1 <1>   0.0800 
 36 H        0.1660    -0.5170     2.4310 H     1 <1>   0.0800 
 37 H        1.8390    -0.4680     2.8610 H     1 <1>   0.0800 
 38 H        0.6780    -1.5250     0.2750 H     1 <1>   0.0800 
 39 H        1.4410    -2.4470     1.5510 H     1 <1>   0.0800 
 40 H        2.6440    -2.7050    -1.1690 H     1 <1>   0.0800 
 41 H        3.2130    -3.3500     0.3560 H     1 <1>   0.0800 
 42 H        4.2810    -2.3770    -0.6210 H     1 <1>   0.0800 
 43 H        4.9210     2.0110    -0.2580 H     1 <1>   0.4500 
 44 H        6.6330     1.4270    -1.7110 H     1 <1>   0.0800 
 45 H        5.5870     1.6620    -3.0930 H     1 <1>   0.0800 
 46 H        6.4260     3.5930     0.0520 H     1 <1>   0.1500 
 47 H        5.9200     3.6960    -4.2080 H     1 <1>   0.1500 
 48 H        6.4540     6.0770    -4.1940 H     1 <1>   0.1500 
 49 H        6.9700     7.2230    -2.1090 H     1 <1>   0.1500 
 50 H        8.2010     7.5910    -0.0850 H     1 <1>   0.0800 
 51 H        6.4730     7.9580     0.0720 H     1 <1>   0.0800 
 52 H        8.2390     7.0470     2.3780 H     1 <1>   0.0800 
 53 H        6.5540     7.5530     2.4740 H     1 <1>   0.0800 
 54 H        8.8100     9.1250     1.8230 H     1 <1>   0.4000 
@<TRIPOS>BOND
  1   1   2  ar  
  2   2   3  ar  
  3   2   4  1   
  4   4   5  1   
  5   4   6  1   
  6   4   7  1   
  7   5   8  1   
  8   5   9  1   
  9   5  26  1   
 10   6  10  1   
 11   6  27  1   
 12   6  28  1   
 13   7  11  1   
 14   7  29  1   
 15   7  30  1   
 16   8  12  1   
 17   8  13  1   
 18   8  31  1   
 19   9  14  1   
 20   9  32  1   
 21   9  33  1   
 22  10  14  1   
 23  10  34  1   
 24  10  35  1   
 25  11  12  1   
 26  11  36  1   
 27  11  37  1   
 28  12  38  1   
 29  12  39  1   
 30  13  40  1   
 31  13  41  1   
 32  13  42  1   
 33  14  15  1   
 34  14  43  1   
 35  15  16  1   
 36  15  44  1   
 37  15  45  1   
 38  16  17  ar  
 39  16  18  ar  
 40  17  19  ar  
 41  17  46  1   
 42  18  20  ar  
 43  18  47  1   
 44  19  21  1   
 45  19  22  ar  
 46  20  22  ar  
 47  20  48  1   
 48  21  23  1   
 49  22  49  1   
 50  23  24  1   
 51  23  50  1   
 52  23  51  1   
 53  24  25  1   
 54  24  52  1   
 55  24  53  1   
 56  25  54  1   
@<TRIPOS>SUBSTRUCTURE
  1 ****  14 GROUP 4 **** **** 0

# MOE 2024.06 (io_trps.svl 2023.06)
