@<TRIPOS>MOLECULE
NONAME
50 53 1 0 0 
SMALL
USER_CHARGES


@<TRIPOS>ATOM
  1 F       -3.4820     1.6980    -2.0170 F     1 <1>  -0.1900 
  2 C       -2.5230     2.2110    -1.2880 C.ar  1 <1>   0.1900 
  3 C       -2.8740     2.9410    -0.1320 C.ar  1 <1>   0.3100 
  4 C       -1.2310     2.0120    -1.6940 C.ar  1 <1>  -0.1500 
  5 N       -4.1790     3.1110     0.2320 N.ar  1 <1>  -0.6200 
  6 C       -1.8110     3.4880     0.6220 C.ar  1 <1>   0.0000 
  7 C       -0.1940     2.5570    -0.9320 C.ar  1 <1>  -0.1500 
  8 C       -4.4380     3.8010     1.3070 C.ar  1 <1>   0.1670 
  9 C       -2.1310     4.2260     1.7740 C.ar  1 <1>  -0.1500 
 10 C       -0.4810     3.2770     0.1980 C.ar  1 <1>  -0.1500 
 11 C       -3.4420     4.3790     2.1100 C.ar  1 <1>  -0.1500 
 12 C       -5.9090     3.9770     1.6930 C.3   1 <1>   0.4870 
 13 N       -6.7540     3.8450     0.4720 N.4   1 <1>  -0.9590 
 14 C       -8.1070     3.2800     0.7490 C.3   1 <1>   0.3430 
 15 C       -6.7970     5.0940    -0.3320 C.3   1 <1>   0.3430 
 16 C       -8.8580     2.9640    -0.5620 C.3   1 <1>   0.0000 
 17 C       -7.5090     4.8260    -1.6600 C.3   1 <1>  -0.1600 
 18 C      -10.2650     2.4450    -0.2270 C.3   1 <1>   0.2000 
 19 C       -8.9090     4.2250    -1.4510 C.3   1 <1>  -0.1600 
 20 C       -8.2210     1.7610    -1.2790 C.3   1 <1>  -0.1600 
 21 O      -10.7580     3.1050     0.9000 O.3   1 <1>  -0.5600 
 22 C      -10.1110     0.9420     0.0400 C.3   1 <1>  -0.1600 
 23 C       -8.7520     0.5310    -0.5420 C.3   1 <1>  -0.1600 
 24 C      -12.1330     2.9750     1.0950 C.3   1 <1>   0.0400 
 25 H       -1.0120     1.4460    -2.5820 H     1 <1>   0.1500 
 26 H        0.8260     2.4030    -1.2460 H     1 <1>   0.1500 
 27 H       -1.3390     4.6540     2.3660 H     1 <1>   0.1500 
 28 H        0.3180     3.6980     0.7840 H     1 <1>   0.1500 
 29 H       -3.7150     4.9390     2.9880 H     1 <1>   0.1500 
 30 H       -6.0660     4.9340     2.1600 H     1 <1>   0.0800 
 31 H       -6.1650     3.2020     2.3970 H     1 <1>   0.0800 
 32 H       -6.2210     3.1610    -0.0960 H     1 <1>   0.4500 
 33 H       -8.0240     2.3770     1.3300 H     1 <1>   0.0800 
 34 H       -8.6830     3.9910     1.3180 H     1 <1>   0.0800 
 35 H       -7.3260     5.8600     0.2110 H     1 <1>   0.0800 
 36 H       -5.7940     5.4400    -0.5280 H     1 <1>   0.0800 
 37 H       -7.5970     5.7520    -2.2010 H     1 <1>   0.0800 
 38 H       -6.9050     4.1640    -2.2570 H     1 <1>   0.0800 
 39 H      -10.9260     2.6120    -1.0620 H     1 <1>   0.0800 
 40 H       -9.3500     3.9920    -2.4060 H     1 <1>   0.0800 
 41 H       -9.5390     4.9600    -0.9780 H     1 <1>   0.0800 
 42 H       -8.5690     1.7230    -2.2980 H     1 <1>   0.0800 
 43 H       -7.1450     1.7820    -1.2940 H     1 <1>   0.0800 
 44 H      -10.1380     0.7300     1.0950 H     1 <1>   0.0800 
 45 H      -10.9030     0.4040    -0.4500 H     1 <1>   0.0800 
 46 H       -8.0820     0.2630     0.2580 H     1 <1>   0.0800 
 47 H       -8.8440    -0.3120    -1.2070 H     1 <1>   0.0800 
 48 H      -12.4000     3.5220     1.9830 H     1 <1>   0.0800 
 49 H      -12.3840     1.9370     1.2250 H     1 <1>   0.0800 
 50 H      -12.6550     3.3870     0.2480 H     1 <1>   0.0800 
@<TRIPOS>BOND
  1   1   2  1   
  2   2   3  ar  
  3   2   4  ar  
  4   3   5  ar  
  5   3   6  ar  
  6   4   7  ar  
  7   4  25  1   
  8   5   8  ar  
  9   6   9  ar  
 10   6  10  ar  
 11   7  10  ar  
 12   7  26  1   
 13   8  11  ar  
 14   8  12  1   
 15   9  11  ar  
 16   9  27  1   
 17  10  28  1   
 18  11  29  1   
 19  12  13  1   
 20  12  30  1   
 21  12  31  1   
 22  13  14  1   
 23  13  15  1   
 24  13  32  1   
 25  14  16  1   
 26  14  33  1   
 27  14  34  1   
 28  15  17  1   
 29  15  35  1   
 30  15  36  1   
 31  16  18  1   
 32  16  19  1   
 33  16  20  1   
 34  17  19  1   
 35  17  37  1   
 36  17  38  1   
 37  18  21  1   
 38  18  22  1   
 39  18  39  1   
 40  19  40  1   
 41  19  41  1   
 42  20  23  1   
 43  20  42  1   
 44  20  43  1   
 45  21  24  1   
 46  22  23  1   
 47  22  44  1   
 48  22  45  1   
 49  23  46  1   
 50  23  47  1   
 51  24  48  1   
 52  24  49  1   
 53  24  50  1   
@<TRIPOS>SUBSTRUCTURE
  1 ****  13 GROUP 4 **** **** 0

# MOE 2024.06 (io_trps.svl 2023.06)
