@<TRIPOS>MOLECULE
NONAME
58 62 1 0 0 
SMALL
USER_CHARGES


@<TRIPOS>ATOM
  1 N        0.3650     0.2540     0.5230 N.ar  1 <1>  -0.6200 
  2 C       -0.5150     0.9650     1.2470 C.ar  1 <1>   0.6200 
  3 C        1.1230     0.9540    -0.2840 C.ar  1 <1>   0.1660 
  4 N       -0.6420     2.2990     1.2100 N.ar  1 <1>  -0.6200 
  5 C       -1.4000     0.2320     2.1400 C.ar  1 <1>   0.0000 
  6 C        1.0650     2.3070    -0.3860 C.ar  1 <1>  -0.1430 
  7 C        2.1670     0.3650    -1.2050 C.3   1 <1>   0.1440 
  8 C        0.1490     2.9620     0.3960 C.ar  1 <1>   0.1600 
  9 C       -2.6930     0.6850     2.4190 C.ar  1 <1>  -0.1500 
 10 C       -1.0020    -0.9570     2.7600 C.ar  1 <1>  -0.1500 
 11 C        2.0640     2.8400    -1.3820 C.3   1 <1>  -0.0160 
 12 C        3.0310    -0.6240    -0.4050 C.3   1 <1>   0.3430 
 13 C        1.4840    -0.3560    -2.3870 C.3   1 <1>  -0.1600 
 14 C        2.9620     1.6190    -1.6600 C.3   1 <1>  -0.1600 
 15 C       -3.5410    -0.0070     3.2650 C.ar  1 <1>  -0.1500 
 16 C       -1.8450    -1.6550     3.6060 C.ar  1 <1>  -0.1500 
 17 N        4.0020    -1.3490    -1.2940 N.4   1 <1>  -0.9590 
 18 C        2.4820    -1.1820    -3.2230 C.3   1 <1>  -0.1600 
 19 C       -3.1180    -1.1810     3.8600 C.ar  1 <1>  -0.1500 
 20 C        3.3200    -2.1290    -2.3590 C.3   1 <1>   0.3430 
 21 C        4.9910    -2.1280    -0.4990 C.3   1 <1>   0.5230 
 22 C        6.0110    -1.1570     0.0780 C.2   1 <1>   0.0060 
 23 N        6.1390     0.0570    -0.3460 N.2   1 <1>  -0.3380 
 24 N        6.8770    -1.4280     1.0660 N.pl3 1 <1>   0.0480 
 25 N        7.0990     0.6240     0.3730 N.2   1 <1>  -0.3380 
 26 C        7.5250    -0.2660     1.2000 C.2   1 <1>   0.0360 
 27 C        7.0970    -2.6760     1.8450 C.3   1 <1>   0.1760 
 28 C        6.6970    -2.4620     3.3090 C.3   1 <1>  -0.2400 
 29 C        8.5580    -3.1280     1.7360 C.3   1 <1>  -0.2400 
 30 H        0.0610     4.0350     0.3570 H     1 <1>   0.1500 
 31 H       -3.0400     1.5970     1.9650 H     1 <1>   0.1500 
 32 H       -0.0150    -1.3390     2.5770 H     1 <1>   0.1500 
 33 H        2.6280     3.6650    -0.9800 H     1 <1>   0.0800 
 34 H        1.5520     3.1510    -2.2770 H     1 <1>   0.0800 
 35 H        2.3800    -1.3320     0.0800 H     1 <1>   0.0800 
 36 H        3.5610    -0.0780     0.3600 H     1 <1>   0.0800 
 37 H        0.9800     0.3600    -3.0150 H     1 <1>   0.0800 
 38 H        0.7300    -1.0200    -1.9980 H     1 <1>   0.0800 
 39 H        3.2550     1.5830    -2.6940 H     1 <1>   0.0800 
 40 H        3.8520     1.7240    -1.0610 H     1 <1>   0.0800 
 41 H       -4.5310     0.3680     3.4590 H     1 <1>   0.1500 
 42 H       -1.5120    -2.5670     4.0690 H     1 <1>   0.1500 
 43 H        4.5790    -0.6090    -1.7310 H     1 <1>   0.4500 
 44 H        3.1370    -0.5300    -3.7730 H     1 <1>   0.0800 
 45 H        1.9360    -1.7620    -3.9470 H     1 <1>   0.0800 
 46 H       -3.7760    -1.7210     4.5190 H     1 <1>   0.1500 
 47 H        2.6770    -2.8730    -1.9140 H     1 <1>   0.0800 
 48 H        4.0470    -2.6300    -2.9790 H     1 <1>   0.0800 
 49 H        5.5050    -2.8290    -1.1360 H     1 <1>   0.0800 
 50 H        4.4950    -2.6690     0.2890 H     1 <1>   0.0800 
 51 H        8.3090    -0.1060     1.9190 H     1 <1>   0.1500 
 52 H        6.4750    -3.4510     1.4330 H     1 <1>   0.0800 
 53 H        7.3190    -1.7150     3.7720 H     1 <1>   0.0800 
 54 H        6.8130    -3.3790     3.8600 H     1 <1>   0.0800 
 55 H        5.6690    -2.1550     3.3810 H     1 <1>   0.0800 
 56 H        9.2210    -2.4060     2.1810 H     1 <1>   0.0800 
 57 H        8.8330    -3.2700     0.7060 H     1 <1>   0.0800 
 58 H        8.6930    -4.0640     2.2500 H     1 <1>   0.0800 
@<TRIPOS>BOND
  1   1   2  ar  
  2   1   3  ar  
  3   2   4  ar  
  4   2   5  1   
  5   3   6  ar  
  6   3   7  1   
  7   4   8  ar  
  8   5   9  ar  
  9   5  10  ar  
 10   6   8  ar  
 11   6  11  1   
 12   7  12  1   
 13   7  13  1   
 14   7  14  1   
 15   8  30  1   
 16   9  15  ar  
 17   9  31  1   
 18  10  16  ar  
 19  10  32  1   
 20  11  14  1   
 21  11  33  1   
 22  11  34  1   
 23  12  17  1   
 24  12  35  1   
 25  12  36  1   
 26  13  18  1   
 27  13  37  1   
 28  13  38  1   
 29  14  39  1   
 30  14  40  1   
 31  15  19  ar  
 32  15  41  1   
 33  16  19  ar  
 34  16  42  1   
 35  17  20  1   
 36  17  21  1   
 37  17  43  1   
 38  18  20  1   
 39  18  44  1   
 40  18  45  1   
 41  19  46  1   
 42  20  47  1   
 43  20  48  1   
 44  21  22  1   
 45  21  49  1   
 46  21  50  1   
 47  22  23  2   
 48  22  24  1   
 49  23  25  1   
 50  24  26  1   
 51  24  27  1   
 52  25  26  2   
 53  26  51  1   
 54  27  28  1   
 55  27  29  1   
 56  27  52  1   
 57  28  53  1   
 58  28  54  1   
 59  28  55  1   
 60  29  56  1   
 61  29  57  1   
 62  29  58  1   
@<TRIPOS>SUBSTRUCTURE
  1 ****  12 GROUP 4 **** **** 0

# MOE 2024.06 (io_trps.svl 2023.06)
