@<TRIPOS>MOLECULE
NONAME
46 47 1 0 0 
SMALL
USER_CHARGES


@<TRIPOS>ATOM
  1 F       -0.7390    -0.7730     1.3400 F     1 <1>  -0.1900 
  2 C       -1.9240    -1.2170     0.9730 C.ar  1 <1>   0.1900 
  3 C       -2.7970    -0.4440     0.2070 C.ar  1 <1>   0.4100 
  4 C       -2.2990    -2.4770     1.3460 C.ar  1 <1>   0.1600 
  5 N       -3.9640    -0.9500    -0.1480 N.ar  1 <1>  -0.6200 
  6 N       -2.5210     0.8520    -0.2210 N.pl3 1 <1>  -0.8380 
  7 N       -3.4680    -2.9850     0.9970 N.ar  1 <1>  -0.6200 
  8 C       -4.2280    -2.1720     0.2680 C.ar  1 <1>   0.7200 
  9 C       -1.9380     1.8590     0.7070 C.3   1 <1>   0.1290 
 10 C       -3.1910     1.4190    -1.4250 C.3   1 <1>   0.1290 
 11 N       -5.4490    -2.6120    -0.1220 N.pl3 1 <1>  -0.8690 
 12 C       -5.7820    -3.9790    -0.5380 C.3   1 <1>   0.3690 
 13 C       -5.6100    -4.9330     0.6950 C.3   1 <1>   0.3430 
 14 C       -4.8640    -4.3470    -1.7110 C.3   1 <1>  -0.2400 
 15 C       -7.2260    -3.8840    -1.0390 C.3   1 <1>  -0.2400 
 16 N       -6.2850    -6.2900     0.7210 N.4   1 <1>  -0.9590 
 17 C       -6.0480    -7.1750    -0.4660 C.3   1 <1>   0.3430 
 18 C       -7.7380    -6.2540     1.1040 C.3   1 <1>   0.3430 
 19 C       -6.6790    -8.5710    -0.2560 C.3   1 <1>   0.1200 
 20 C       -8.3410    -7.6770     1.1560 C.3   1 <1>   0.1200 
 21 O       -7.3490    -8.6530     0.9750 O.3   1 <1>  -0.5600 
 22 H       -1.6290    -3.0780     1.9360 H     1 <1>   0.1500 
 23 H       -1.9160     1.4790     1.7140 H     1 <1>   0.0800 
 24 H       -2.5300     2.7580     0.6980 H     1 <1>   0.0800 
 25 H       -0.9340     2.0950     0.3990 H     1 <1>   0.0800 
 26 H       -3.3730     0.6420    -2.1480 H     1 <1>   0.0800 
 27 H       -2.5630     2.1660    -1.8780 H     1 <1>   0.0800 
 28 H       -4.1300     1.8620    -1.1430 H     1 <1>   0.0800 
 29 H       -5.8730    -1.8940    -0.7110 H     1 <1>   0.4000 
 30 H       -5.9360    -4.3800     1.5600 H     1 <1>   0.0800 
 31 H       -4.5520    -5.0890     0.8150 H     1 <1>   0.0800 
 32 H       -3.8490    -4.4690    -1.3770 H     1 <1>   0.0800 
 33 H       -4.8840    -3.5710    -2.4570 H     1 <1>   0.0800 
 34 H       -5.1730    -5.2580    -2.1850 H     1 <1>   0.0800 
 35 H       -7.8810    -3.5790    -0.2420 H     1 <1>   0.0800 
 36 H       -7.5630    -4.8260    -1.4300 H     1 <1>   0.0800 
 37 H       -7.2990    -3.1630    -1.8340 H     1 <1>   0.0800 
 38 H       -5.8570    -6.8160     1.4990 H     1 <1>   0.4500 
 39 H       -4.9900    -7.2880    -0.6380 H     1 <1>   0.0800 
 40 H       -6.4770    -6.7320    -1.3480 H     1 <1>   0.0800 
 41 H       -8.3020    -5.6670     0.4020 H     1 <1>   0.0800 
 42 H       -7.8480    -5.7930     2.0720 H     1 <1>   0.0800 
 43 H       -5.9140    -9.3280    -0.2610 H     1 <1>   0.0800 
 44 H       -7.3770    -8.7960    -1.0440 H     1 <1>   0.0800 
 45 H       -9.0900    -7.8030     0.3940 H     1 <1>   0.0800 
 46 H       -8.8030    -7.8500     2.1130 H     1 <1>   0.0800 
@<TRIPOS>BOND
  1   1   2  1   
  2   2   3  ar  
  3   2   4  ar  
  4   3   5  ar  
  5   3   6  1   
  6   4   7  ar  
  7   4  22  1   
  8   5   8  ar  
  9   6   9  1   
 10   6  10  1   
 11   7   8  ar  
 12   8  11  1   
 13   9  23  1   
 14   9  24  1   
 15   9  25  1   
 16  10  26  1   
 17  10  27  1   
 18  10  28  1   
 19  11  12  1   
 20  11  29  1   
 21  12  13  1   
 22  12  14  1   
 23  12  15  1   
 24  13  16  1   
 25  13  30  1   
 26  13  31  1   
 27  14  32  1   
 28  14  33  1   
 29  14  34  1   
 30  15  35  1   
 31  15  36  1   
 32  15  37  1   
 33  16  17  1   
 34  16  18  1   
 35  16  38  1   
 36  17  19  1   
 37  17  39  1   
 38  17  40  1   
 39  18  20  1   
 40  18  41  1   
 41  18  42  1   
 42  19  21  1   
 43  19  43  1   
 44  19  44  1   
 45  20  21  1   
 46  20  45  1   
 47  20  46  1   
@<TRIPOS>SUBSTRUCTURE
  1 ****  11 GROUP 4 **** **** 0

# MOE 2024.06 (io_trps.svl 2023.06)
