@<TRIPOS>MOLECULE
NONAME
50 53 1 0 0 
SMALL
USER_CHARGES


@<TRIPOS>ATOM
  1 F        1.8400     2.3790     0.9100 F     1 <1>  -0.1900 
  2 C        0.7680     3.0690     1.2020 C.ar  1 <1>   0.1900 
  3 C        0.3000     3.9880     0.2960 C.ar  1 <1>  -0.1500 
  4 C        0.1620     2.8390     2.4400 C.ar  1 <1>  -0.1500 
  5 C       -0.8280     4.7400     0.6470 C.ar  1 <1>   0.0000 
  6 C       -0.9540     3.5660     2.7830 C.ar  1 <1>  -0.1500 
  7 C       -1.4390     4.5200     1.8800 C.ar  1 <1>  -0.1520 
  8 C       -1.5750     5.7560     0.0060 C.2   1 <1>  -0.1810 
  9 N       -2.5240     5.3520     1.9750 N.pl3 1 <1>   0.0330 
 10 C       -2.5920     6.1050     0.8360 C.2   1 <1>  -0.3320 
 11 C       -1.2440     6.2920    -1.3860 C.3   1 <1>   0.0820 
 12 C       -3.7170     7.1110     0.6480 C.3   1 <1>  -0.0600 
 13 C        0.2120     6.7240    -1.5380 C.2   1 <1>   0.5690 
 14 O        0.8640     6.1530    -2.3790 O.2   1 <1>  -0.5700 
 15 N        0.7940     7.6910    -0.7450 N.am  1 <1>  -0.6600 
 16 C        0.0610     8.3960     0.3730 C.3   1 <1>   0.2200 
 17 C        2.2480     8.0060    -0.9540 C.3   1 <1>   0.1400 
 18 C        0.3260     9.9100     0.4110 C.3   1 <1>   0.1200 
 19 C        0.3850     7.7440     1.7400 C.3   1 <1>   0.3430 
 20 C        2.9890     8.5670     0.2740 C.3   1 <1>  -0.0800 
 21 O        1.4590    10.1980     1.1740 O.3   1 <1>  -0.5600 
 22 N        1.6410     6.9170     1.7010 N.4   1 <1>  -0.9590 
 23 C        2.6730    10.0490     0.5220 C.3   1 <1>   0.1200 
 24 C        2.8940     7.7230     1.5630 C.3   1 <1>   0.3430 
 25 C        1.7100     5.9880     2.8640 C.3   1 <1>   0.2630 
 26 H        0.7790     4.1160    -0.6580 H     1 <1>   0.1500 
 27 H        0.5730     2.0900     3.0960 H     1 <1>   0.1500 
 28 H       -1.4560     3.4030     3.7220 H     1 <1>   0.1500 
 29 H       -3.2100     5.3420     2.7390 H     1 <1>   0.2700 
 30 H       -1.8740     7.1210    -1.6410 H     1 <1>   0.0800 
 31 H       -1.4430     5.5130    -2.1000 H     1 <1>   0.0800 
 32 H       -3.6500     7.6010    -0.3060 H     1 <1>   0.0800 
 33 H       -3.6850     7.8590     1.4190 H     1 <1>   0.0800 
 34 H       -4.6670     6.6090     0.6960 H     1 <1>   0.0800 
 35 H       -0.9960     8.3050     0.2090 H     1 <1>   0.0800 
 36 H        2.7580     7.1080    -1.2640 H     1 <1>   0.0800 
 37 H        2.3290     8.7040    -1.7710 H     1 <1>   0.0800 
 38 H       -0.4990    10.3990     0.9000 H     1 <1>   0.0800 
 39 H        0.4240    10.3270    -0.5770 H     1 <1>   0.0800 
 40 H       -0.4430     7.1070     2.0020 H     1 <1>   0.0800 
 41 H        0.4610     8.5050     2.4990 H     1 <1>   0.0800 
 42 H        4.0300     8.5640     0.0020 H     1 <1>   0.0800 
 43 H        1.5440     6.3630     0.8320 H     1 <1>   0.4500 
 44 H        2.6540    10.6140    -0.3960 H     1 <1>   0.0800 
 45 H        3.4240    10.4810     1.1620 H     1 <1>   0.0800 
 46 H        2.9980     8.3760     2.4150 H     1 <1>   0.0800 
 47 H        3.7320     7.0440     1.5730 H     1 <1>   0.0800 
 48 H        1.8230     6.5420     3.7810 H     1 <1>   0.0800 
 49 H        2.5460     5.3150     2.7560 H     1 <1>   0.0800 
 50 H        0.8080     5.4020     2.9230 H     1 <1>   0.0800 
@<TRIPOS>BOND
  1   1   2  1   
  2   2   3  ar  
  3   2   4  ar  
  4   3   5  ar  
  5   3  26  1   
  6   4   6  ar  
  7   4  27  1   
  8   5   7  ar  
  9   5   8  1   
 10   6   7  ar  
 11   6  28  1   
 12   7   9  1   
 13   8  10  2   
 14   8  11  1   
 15   9  10  1   
 16   9  29  1   
 17  10  12  1   
 18  11  13  1   
 19  11  30  1   
 20  11  31  1   
 21  12  32  1   
 22  12  33  1   
 23  12  34  1   
 24  13  14  2   
 25  13  15  am  
 26  15  16  1   
 27  15  17  1   
 28  16  18  1   
 29  16  19  1   
 30  16  35  1   
 31  17  20  1   
 32  17  36  1   
 33  17  37  1   
 34  18  21  1   
 35  18  38  1   
 36  18  39  1   
 37  19  22  1   
 38  19  40  1   
 39  19  41  1   
 40  20  23  1   
 41  20  24  1   
 42  20  42  1   
 43  21  23  1   
 44  22  24  1   
 45  22  25  1   
 46  22  43  1   
 47  23  44  1   
 48  23  45  1   
 49  24  46  1   
 50  24  47  1   
 51  25  48  1   
 52  25  49  1   
 53  25  50  1   
@<TRIPOS>SUBSTRUCTURE
  1 ****  19 GROUP 4 **** **** 0

# MOE 2024.06 (io_trps.svl 2023.06)
