@<TRIPOS>MOLECULE
NONAME
30 31 1 0 0 
SMALL
USER_CHARGES


@<TRIPOS>ATOM
  1 F       -0.6460    -0.7260     1.0570 F     1 <1>  -0.1900 
  2 C       -1.6990    -1.2930     0.5330 C.ar  1 <1>   0.1900 
  3 C       -1.5660    -1.9680    -0.6650 C.ar  1 <1>  -0.1500 
  4 C       -2.9070    -1.1980     1.1970 C.ar  1 <1>  -0.1500 
  5 C       -2.6860    -2.5670    -1.2170 C.ar  1 <1>  -0.1500 
  6 C       -4.0200    -1.8010     0.6350 C.ar  1 <1>  -0.1500 
  7 C       -3.9140    -2.4830    -0.5710 C.ar  1 <1>  -0.1430 
  8 C       -5.1430    -3.1420    -1.1710 C.3   1 <1>   0.2840 
  9 N       -5.3080    -4.4640    -0.5460 N.am  1 <1>  -0.7300 
 10 C       -6.4500    -4.9490    -0.0010 C.2   1 <1>   0.5690 
 11 O       -7.4760    -4.3120    -0.0390 O.2   1 <1>  -0.5700 
 12 C       -6.4570    -6.2990     0.7040 C.3   1 <1>   0.0420 
 13 C       -5.3290    -7.2070     0.2850 C.2   1 <1>   0.5690 
 14 C       -7.7160    -7.1520     0.4010 C.3   1 <1>  -0.1600 
 15 O       -4.1630    -6.8990     0.2390 O.2   1 <1>  -0.5700 
 16 N       -5.7880    -8.4350     0.0080 N.am  1 <1>  -0.7300 
 17 C       -7.2330    -8.5940     0.1930 C.3   1 <1>   0.1400 
 18 H       -0.6080    -2.0230    -1.1490 H     1 <1>   0.1500 
 19 H       -2.9710    -0.6680     2.1290 H     1 <1>   0.1500 
 20 H       -2.5970    -3.1000    -2.1470 H     1 <1>   0.1500 
 21 H       -4.9700    -1.7440     1.1390 H     1 <1>   0.1500 
 22 H       -5.0250    -3.2630    -2.2330 H     1 <1>   0.0800 
 23 H       -6.0150    -2.5340    -0.9940 H     1 <1>   0.0800 
 24 H       -4.4420    -5.0120    -0.4390 H     1 <1>   0.3700 
 25 H       -6.3730    -6.1340     1.7610 H     1 <1>   0.0800 
 26 H       -8.1800    -6.8160    -0.5100 H     1 <1>   0.0800 
 27 H       -8.4410    -7.0860     1.1920 H     1 <1>   0.0800 
 28 H       -5.1670    -9.2080    -0.2440 H     1 <1>   0.3700 
 29 H       -7.6850    -9.0420    -0.6760 H     1 <1>   0.0800 
 30 H       -7.4230    -9.1990     1.0640 H     1 <1>   0.0800 
@<TRIPOS>BOND
  1   1   2  1   
  2   2   3  ar  
  3   2   4  ar  
  4   3   5  ar  
  5   3  18  1   
  6   4   6  ar  
  7   4  19  1   
  8   5   7  ar  
  9   5  20  1   
 10   6   7  ar  
 11   6  21  1   
 12   7   8  1   
 13   8   9  1   
 14   8  22  1   
 15   8  23  1   
 16   9  10  am  
 17   9  24  1   
 18  10  11  2   
 19  10  12  1   
 20  12  13  1   
 21  12  14  1   
 22  12  25  1   
 23  13  15  2   
 24  13  16  am  
 25  14  17  1   
 26  14  26  1   
 27  14  27  1   
 28  16  17  1   
 29  16  28  1   
 30  17  29  1   
 31  17  30  1   
@<TRIPOS>SUBSTRUCTURE
  1 ****   9 GROUP 4 **** **** 0

# MOE 2024.06 (io_trps.svl 2023.06)
