@<TRIPOS>MOLECULE
NONAME
49 51 1 0 0 
SMALL
USER_CHARGES


@<TRIPOS>ATOM
  1 F        0.4090    -0.6720     1.2870 F     1 <1>  -0.1900 
  2 C        0.2730    -1.8310     0.6960 C.ar  1 <1>   0.1900 
  3 C       -0.2220    -1.8800    -0.5990 C.ar  1 <1>  -0.1440 
  4 C        0.6330    -2.9650     1.3980 C.ar  1 <1>  -0.1500 
  5 C       -0.3570    -3.1260    -1.1930 C.ar  1 <1>  -0.1500 
  6 C       -0.5990    -0.6130    -1.3510 C.3   1 <1>  -0.0960 
  7 C        0.4880    -4.1970     0.7850 C.ar  1 <1>  -0.1500 
  8 C       -0.0100    -4.2860    -0.5080 C.ar  1 <1>  -0.1440 
  9 C       -0.1830    -5.6580    -1.1670 C.3   1 <1>   0.2280 
 10 N       -1.2770    -6.4070    -0.4330 N.3   1 <1>  -0.8100 
 11 C        1.1640    -6.4120    -1.3840 C.2   1 <1>   0.9060 
 12 C       -1.2090    -7.8510    -0.7260 C.3   1 <1>   0.1100 
 13 C       -2.6030    -5.8420    -0.7050 C.3   1 <1>   0.1100 
 14 O        1.4570    -6.7320    -2.5460 O.co2 1 <1>  -0.9000 
 15 O        1.8450    -6.8020    -0.4210 O.co2 1 <1>  -0.9000 
 16 C       -2.2960    -8.6250     0.0310 C.3   1 <1>   0.3430 
 17 C       -3.6930    -6.6100     0.0650 C.3   1 <1>   0.3430 
 18 N       -3.6790    -8.0870    -0.2500 N.4   1 <1>  -0.9590 
 19 C       -4.7570    -8.8530     0.4430 C.3   1 <1>   0.4230 
 20 C       -4.6900   -10.3360     0.0490 C.3   1 <1>  -0.1600 
 21 C       -6.1330    -8.2660     0.0900 C.3   1 <1>  -0.1600 
 22 C       -5.9210   -11.0930     0.5490 C.3   1 <1>   0.1200 
 23 C       -7.2600    -9.1720     0.5870 C.3   1 <1>   0.1200 
 24 O       -7.0530   -10.4450     0.0750 O.3   1 <1>  -0.5600 
 25 H        1.0210    -2.8870     2.3960 H     1 <1>   0.1500 
 26 H       -0.7280    -3.2000    -2.2000 H     1 <1>   0.1500 
 27 H       -1.3760    -0.0910    -0.8220 H     1 <1>   0.0800 
 28 H       -0.9500    -0.8420    -2.3410 H     1 <1>   0.0800 
 29 H        0.2580     0.0300    -1.4320 H     1 <1>   0.0800 
 30 H        0.7700    -5.1010     1.3020 H     1 <1>   0.1500 
 31 H       -0.5340    -5.4890    -2.1680 H     1 <1>   0.0800 
 32 H       -0.2560    -8.2400    -0.4050 H     1 <1>   0.0800 
 33 H       -1.2920    -8.0210    -1.7860 H     1 <1>   0.0800 
 34 H       -2.8080    -5.8720    -1.7610 H     1 <1>   0.0800 
 35 H       -2.6190    -4.8120    -0.3900 H     1 <1>   0.0800 
 36 H       -2.0830    -8.5540     1.0850 H     1 <1>   0.0800 
 37 H       -2.2310    -9.6610    -0.2540 H     1 <1>   0.0800 
 38 H       -4.6480    -6.1840    -0.1870 H     1 <1>   0.0800 
 39 H       -3.5260    -6.4610     1.1190 H     1 <1>   0.0800 
 40 H       -3.8250    -8.1790    -1.2620 H     1 <1>   0.4500 
 41 H       -4.6200    -8.7790     1.5100 H     1 <1>   0.0800 
 42 H       -3.8250   -10.8060     0.4780 H     1 <1>   0.0800 
 43 H       -4.6490   -10.4390    -1.0210 H     1 <1>   0.0800 
 44 H       -6.2350    -8.1640    -0.9760 H     1 <1>   0.0800 
 45 H       -6.2650    -7.3030     0.5470 H     1 <1>   0.0800 
 46 H       -5.9660   -11.1340     1.6250 H     1 <1>   0.0800 
 47 H       -5.9340   -12.0990     0.1610 H     1 <1>   0.0800 
 48 H       -8.2140    -8.8260     0.2260 H     1 <1>   0.0800 
 49 H       -7.2940    -9.2280     1.6620 H     1 <1>   0.0800 
@<TRIPOS>BOND
  1   1   2  1   
  2   2   3  ar  
  3   2   4  ar  
  4   3   5  ar  
  5   3   6  1   
  6   4   7  ar  
  7   4  25  1   
  8   5   8  ar  
  9   5  26  1   
 10   6  27  1   
 11   6  28  1   
 12   6  29  1   
 13   7   8  ar  
 14   7  30  1   
 15   8   9  1   
 16   9  10  1   
 17   9  11  1   
 18   9  31  1   
 19  10  12  1   
 20  10  13  1   
 21  11  14  ar  
 22  11  15  ar  
 23  12  16  1   
 24  12  32  1   
 25  12  33  1   
 26  13  17  1   
 27  13  34  1   
 28  13  35  1   
 29  16  18  1   
 30  16  36  1   
 31  16  37  1   
 32  17  18  1   
 33  17  38  1   
 34  17  39  1   
 35  18  19  1   
 36  18  40  1   
 37  19  20  1   
 38  19  21  1   
 39  19  41  1   
 40  20  22  1   
 41  20  42  1   
 42  20  43  1   
 43  21  23  1   
 44  21  44  1   
 45  21  45  1   
 46  22  24  1   
 47  22  46  1   
 48  22  47  1   
 49  23  24  1   
 50  23  48  1   
 51  23  49  1   
@<TRIPOS>SUBSTRUCTURE
  1 ****  10 GROUP 4 **** **** 0

# MOE 2024.06 (io_trps.svl 2023.06)
