@<TRIPOS>MOLECULE
NONAME
45 47 1 0 0 
SMALL
USER_CHARGES


@<TRIPOS>ATOM
  1 O       -0.5360    -1.0540    -0.6810 O.3   1 <1>  -0.6800 
  2 C        0.6400    -1.7030    -1.0240 C.3   1 <1>   0.1200 
  3 C        1.6550    -1.6740     0.1580 C.3   1 <1>   0.0000 
  4 C        2.9920    -2.3620    -0.2510 C.3   1 <1>   0.4230 
  5 C        1.9650    -0.1990     0.5470 C.3   1 <1>  -0.1600 
  6 C        1.0740    -2.3990     1.4110 C.3   1 <1>  -0.1600 
  7 N        2.8610    -3.8550    -0.5460 N.4   1 <1>  -0.9590 
  8 C        3.7450    -1.5590    -1.3360 C.3   1 <1>   0.2090 
  9 C        2.7460     0.5790    -0.5200 C.3   1 <1>   0.2090 
 10 C        1.5680    -3.8470     1.5830 C.3   1 <1>  -0.1600 
 11 C        1.7800    -4.5370     0.2390 C.3   1 <1>   0.3430 
 12 C        2.7500    -4.2220    -1.9950 C.3   1 <1>   0.2630 
 13 N        3.9880    -0.1810    -0.8380 N.pl3 1 <1>  -0.8380 
 14 C        5.1790     0.1580    -0.2340 C.ar  1 <1>   0.7200 
 15 N        5.9500    -0.8420     0.1770 N.ar  1 <1>  -0.6200 
 16 N        5.4320     1.4560    -0.1050 N.ar  1 <1>  -0.6200 
 17 C        7.0740    -0.4980     0.7590 C.ar  1 <1>   0.4100 
 18 C        6.5620     1.7690     0.4820 C.ar  1 <1>   0.1600 
 19 N        7.8410    -1.5530     1.1580 N.pl3 1 <1>  -0.9000 
 20 C        7.4450     0.8280     0.9460 C.ar  1 <1>   0.0730 
 21 C        8.6660     1.1930     1.5800 C.1   1 <1>   0.4840 
 22 N        9.6500     1.4770     2.0800 N.1   1 <1>  -0.5570 
 23 H       -1.1640    -1.0090    -1.4310 H     1 <1>   0.4000 
 24 H        0.3790    -2.7110    -1.2890 H     1 <1>   0.0800 
 25 H        1.0340    -1.2060    -1.8930 H     1 <1>   0.0800 
 26 H        3.6200    -2.2860     0.6220 H     1 <1>   0.0800 
 27 H        2.5550    -0.1730     1.4470 H     1 <1>   0.0800 
 28 H        1.0530     0.3310     0.7640 H     1 <1>   0.0800 
 29 H        1.3290    -1.8660     2.3110 H     1 <1>   0.0800 
 30 H       -0.0020    -2.4010     1.3700 H     1 <1>   0.0800 
 31 H        3.7470    -4.2540    -0.2030 H     1 <1>   0.4500 
 32 H        3.1720    -1.4960    -2.2430 H     1 <1>   0.0800 
 33 H        4.6810    -2.0350    -1.5680 H     1 <1>   0.0800 
 34 H        2.9750     1.5640    -0.1490 H     1 <1>   0.0800 
 35 H        2.1570     0.7020    -1.4130 H     1 <1>   0.0800 
 36 H        0.8420    -4.3990     2.1560 H     1 <1>   0.0800 
 37 H        2.4890    -3.8640     2.1410 H     1 <1>   0.0800 
 38 H        0.8520    -4.5040    -0.3090 H     1 <1>   0.0800 
 39 H        2.0380    -5.5720     0.3960 H     1 <1>   0.0800 
 40 H        1.8580    -3.7980    -2.4250 H     1 <1>   0.0800 
 41 H        2.7070    -5.2940    -2.1050 H     1 <1>   0.0800 
 42 H        3.6050    -3.8620    -2.5440 H     1 <1>   0.0800 
 43 H        6.7900     2.8170     0.5950 H     1 <1>   0.1500 
 44 H        7.5890    -2.4830     0.8220 H     1 <1>   0.4000 
 45 H        8.8200    -1.4450     1.4450 H     1 <1>   0.4000 
@<TRIPOS>BOND
  1   1   2  1   
  2   1  23  1   
  3   2   3  1   
  4   2  24  1   
  5   2  25  1   
  6   3   4  1   
  7   3   5  1   
  8   3   6  1   
  9   4   7  1   
 10   4   8  1   
 11   4  26  1   
 12   5   9  1   
 13   5  27  1   
 14   5  28  1   
 15   6  10  1   
 16   6  29  1   
 17   6  30  1   
 18   7  11  1   
 19   7  12  1   
 20   7  31  1   
 21   8  13  1   
 22   8  32  1   
 23   8  33  1   
 24   9  13  1   
 25   9  34  1   
 26   9  35  1   
 27  10  11  1   
 28  10  36  1   
 29  10  37  1   
 30  11  38  1   
 31  11  39  1   
 32  12  40  1   
 33  12  41  1   
 34  12  42  1   
 35  13  14  1   
 36  14  15  ar  
 37  14  16  ar  
 38  15  17  ar  
 39  16  18  ar  
 40  17  19  1   
 41  17  20  ar  
 42  18  20  ar  
 43  18  43  1   
 44  19  44  1   
 45  19  45  1   
 46  20  21  1   
 47  21  22  3   
@<TRIPOS>SUBSTRUCTURE
  1 ****  13 GROUP 4 **** **** 0

# MOE 2024.06 (io_trps.svl 2023.06)
