@<TRIPOS>MOLECULE
NONAME
58 61 1 0 0 
SMALL
USER_CHARGES


@<TRIPOS>ATOM
  1 O       -0.4150    -0.3310    -0.7600 O.3   1 <1>  -0.3630 
  2 C       -0.4200    -1.6560    -0.4710 C.ar  1 <1>   0.0820 
  3 C       -1.5820     0.4330    -0.9740 C.3   1 <1>   0.0400 
  4 C        0.8060    -2.3560    -0.4290 C.ar  1 <1>   0.0820 
  5 C       -1.5910    -2.3480    -0.2330 C.ar  1 <1>  -0.1500 
  6 O        2.0190    -1.7840    -0.6420 O.3   1 <1>  -0.3630 
  7 C        0.8170    -3.7060    -0.1780 C.ar  1 <1>  -0.1500 
  8 C       -1.5770    -3.7200     0.0330 C.ar  1 <1>   0.3610 
  9 C        2.3400    -0.5490    -0.0370 C.3   1 <1>   0.0400 
 10 C       -0.3620    -4.4280     0.0610 C.ar  1 <1>   0.0000 
 11 N       -2.7520    -4.4100     0.2750 N.ar  1 <1>  -0.1790 
 12 C       -0.4100    -5.8280     0.3290 C.ar  1 <1>  -0.1430 
 13 C       -2.8350    -5.7160     0.5380 C.ar  1 <1>   0.4610 
 14 C       -1.6110    -6.4310     0.5540 C.ar  1 <1>  -0.1500 
 15 C        0.8770    -6.6450     0.3550 C.3   1 <1>  -0.0970 
 16 N       -4.0480    -6.2660     0.7790 N.pl3 1 <1>  -0.8380 
 17 C       -4.2600    -7.6220     1.4130 C.3   1 <1>   0.2090 
 18 C       -5.3930    -5.6630     0.4480 C.3   1 <1>   0.2090 
 19 C       -5.0960    -8.5430     0.5070 C.3   1 <1>   0.1100 
 20 C       -6.2270    -6.6070    -0.4430 C.3   1 <1>   0.1100 
 21 N       -6.3960    -7.9240     0.1870 N.3   1 <1>  -0.8100 
 22 C       -7.2930    -8.8100    -0.6010 C.3   1 <1>   0.2530 
 23 C       -7.5490   -10.1790     0.0500 C.ar  1 <1>   0.1670 
 24 N       -8.3340   -10.1570     1.1210 N.ar  1 <1>  -0.6200 
 25 C       -6.9910   -11.3490    -0.4740 C.ar  1 <1>  -0.1430 
 26 C       -8.5680   -11.3190     1.7030 C.ar  1 <1>   0.1600 
 27 C       -7.2530   -12.5520     0.1530 C.ar  1 <1>  -0.1500 
 28 C       -6.1060   -11.3670    -1.7160 C.3   1 <1>  -0.0970 
 29 C       -8.0600   -12.5270     1.2680 C.ar  1 <1>  -0.1500 
 30 H       -1.2810     1.4300    -1.2440 H     1 <1>   0.0800 
 31 H       -2.1560     0.4640    -0.0650 H     1 <1>   0.0800 
 32 H       -2.1460    -0.0030    -1.7790 H     1 <1>   0.0800 
 33 H       -2.5330    -1.8370    -0.2510 H     1 <1>   0.1500 
 34 H        1.7690    -4.2060    -0.1670 H     1 <1>   0.1500 
 35 H        3.4100    -0.4820     0.0410 H     1 <1>   0.0800 
 36 H        1.8960    -0.5050     0.9410 H     1 <1>   0.0800 
 37 H        1.9750     0.2490    -0.6580 H     1 <1>   0.0800 
 38 H       -3.6190    -3.8910     0.3120 H     1 <1>   0.4570 
 39 H       -1.6400    -7.4870     0.7350 H     1 <1>   0.1500 
 40 H        1.5390    -6.2730     1.1180 H     1 <1>   0.0800 
 41 H        1.3760    -6.5860    -0.5960 H     1 <1>   0.0800 
 42 H        0.6790    -7.6810     0.5640 H     1 <1>   0.0800 
 43 H       -4.7950    -7.4950     2.3390 H     1 <1>   0.0800 
 44 H       -3.3360    -8.1090     1.6560 H     1 <1>   0.0800 
 45 H       -5.2910    -4.7250    -0.0650 H     1 <1>   0.0800 
 46 H       -5.9400    -5.4870     1.3600 H     1 <1>   0.0800 
 47 H       -5.2590    -9.4700     1.0300 H     1 <1>   0.0800 
 48 H       -4.5500    -8.7520    -0.3960 H     1 <1>   0.0800 
 49 H       -5.7450    -6.7170    -1.4000 H     1 <1>   0.0800 
 50 H       -7.1970    -6.1670    -0.6020 H     1 <1>   0.0800 
 51 H       -6.8940    -8.9300    -1.5900 H     1 <1>   0.0800 
 52 H       -8.2480    -8.3240    -0.7010 H     1 <1>   0.0800 
 53 H       -9.2010   -11.3060     2.5740 H     1 <1>   0.1500 
 54 H       -6.8490   -13.4820    -0.2070 H     1 <1>   0.1500 
 55 H       -5.2730   -10.6990    -1.5940 H     1 <1>   0.0800 
 56 H       -6.6760   -11.0690    -2.5770 H     1 <1>   0.0800 
 57 H       -5.7170   -12.3530    -1.8970 H     1 <1>   0.0800 
 58 H       -8.2950   -13.4330     1.7950 H     1 <1>   0.1500 
@<TRIPOS>BOND
  1   1   2  1   
  2   1   3  1   
  3   2   4  ar  
  4   2   5  ar  
  5   3  30  1   
  6   3  31  1   
  7   3  32  1   
  8   4   6  1   
  9   4   7  ar  
 10   5   8  ar  
 11   5  33  1   
 12   6   9  1   
 13   7  10  ar  
 14   7  34  1   
 15   8  10  ar  
 16   8  11  ar  
 17   9  35  1   
 18   9  36  1   
 19   9  37  1   
 20  10  12  ar  
 21  11  13  ar  
 22  11  38  1   
 23  12  14  ar  
 24  12  15  1   
 25  13  14  ar  
 26  13  16  1   
 27  14  39  1   
 28  15  40  1   
 29  15  41  1   
 30  15  42  1   
 31  16  17  1   
 32  16  18  1   
 33  17  19  1   
 34  17  43  1   
 35  17  44  1   
 36  18  20  1   
 37  18  45  1   
 38  18  46  1   
 39  19  21  1   
 40  19  47  1   
 41  19  48  1   
 42  20  21  1   
 43  20  49  1   
 44  20  50  1   
 45  21  22  1   
 46  22  23  1   
 47  22  51  1   
 48  22  52  1   
 49  23  24  ar  
 50  23  25  ar  
 51  24  26  ar  
 52  25  27  ar  
 53  25  28  1   
 54  26  29  ar  
 55  26  53  1   
 56  27  29  ar  
 57  27  54  1   
 58  28  55  1   
 59  28  56  1   
 60  28  57  1   
 61  29  58  1   
@<TRIPOS>SUBSTRUCTURE
  1 ****  13 GROUP 4 **** **** 0

# MOE 2024.06 (io_trps.svl 2023.06)
