@<TRIPOS>MOLECULE
NONAME
53 56 1 0 0 
SMALL
USER_CHARGES


@<TRIPOS>ATOM
  1 O        1.6370    -0.3630     0.9910 O.2   1 <1>  -0.5700 
  2 C        2.5020    -1.2010     0.7850 C.2   1 <1>   0.7160 
  3 N        3.8040    -0.7250     0.7480 N.am  1 <1>  -0.6600 
  4 C        2.1240    -2.5980     0.5680 C.2   1 <1>   0.2030 
  5 C        4.2230     0.4010     1.6450 C.3   1 <1>   0.1400 
  6 C        4.8570    -1.2700    -0.1590 C.3   1 <1>   0.1400 
  7 N        2.9330    -3.6350     0.4140 N.2   1 <1>  -0.7070 
  8 C        0.7950    -3.0290     0.5080 C.2   1 <1>  -0.1500 
  9 C        4.7060     1.6960     0.9320 C.3   1 <1>   0.4230 
 10 C        5.3070    -0.2200    -1.1960 C.3   1 <1>  -0.0800 
 11 N        2.1240    -4.6940     0.2680 N.pl3 1 <1>   0.3000 
 12 C        0.8140    -4.3700     0.3180 C.2   1 <1>  -0.2050 
 13 N        4.1300     1.9590    -0.4480 N.4   1 <1>  -0.9590 
 14 C        6.2470     1.7960     0.9200 C.3   1 <1>   0.1200 
 15 C        6.7020     0.3620    -0.9200 C.3   1 <1>   0.1200 
 16 C        4.2250     0.8420    -1.4530 C.3   1 <1>   0.3430 
 17 C       -0.2650    -5.3160     0.1810 C.ar  1 <1>   0.0530 
 18 C        2.7000     2.3860    -0.3330 C.3   1 <1>   0.2630 
 19 O        6.8650     0.6490     0.4290 O.3   1 <1>  -0.5600 
 20 C       -1.4260    -4.9720    -0.5040 C.ar  1 <1>  -0.1500 
 21 C       -0.1880    -6.5970     0.7210 C.ar  1 <1>  -0.1500 
 22 C       -2.4660    -5.8710    -0.6520 C.ar  1 <1>  -0.1500 
 23 C       -1.2240    -7.5010     0.5730 C.ar  1 <1>  -0.1500 
 24 C       -2.3720    -7.1440    -0.1150 C.ar  1 <1>  -0.1430 
 25 C       -3.5140    -8.1350    -0.2770 C.3   1 <1>  -0.0170 
 26 C       -3.3350    -8.9590    -1.5540 C.3   1 <1>  -0.2400 
 27 H        3.4020     0.6660     2.2880 H     1 <1>   0.0800 
 28 H        5.0030     0.0430     2.2960 H     1 <1>   0.0800 
 29 H        5.6910    -1.6250     0.4250 H     1 <1>   0.0800 
 30 H        4.4690    -2.1130    -0.7000 H     1 <1>   0.0800 
 31 H       -0.0660    -2.3920     0.6080 H     1 <1>   0.1500 
 32 H        4.3900     2.5100     1.5620 H     1 <1>   0.0800 
 33 H        5.4060    -0.7560    -2.1230 H     1 <1>   0.0800 
 34 H        2.4770    -5.6480     0.1230 H     1 <1>   0.2700 
 35 H        4.6610     2.7490    -0.8350 H     1 <1>   0.4500 
 36 H        6.5940     1.9130     1.9330 H     1 <1>   0.0800 
 37 H        6.5860     2.6470     0.3570 H     1 <1>   0.0800 
 38 H        6.9040     1.2430    -1.5050 H     1 <1>   0.0800 
 39 H        7.4470    -0.3780    -1.1630 H     1 <1>   0.0800 
 40 H        3.2770     0.3280    -1.4930 H     1 <1>   0.0800 
 41 H        4.3890     1.2700    -2.4280 H     1 <1>   0.0800 
 42 H        2.0990     1.5850     0.0640 H     1 <1>   0.0800 
 43 H        2.3090     2.6570    -1.3000 H     1 <1>   0.0800 
 44 H        2.6110     3.2360     0.3240 H     1 <1>   0.0800 
 45 H       -1.5140    -3.9880    -0.9280 H     1 <1>   0.1500 
 46 H        0.6860    -6.8930     1.2720 H     1 <1>   0.1500 
 47 H       -3.3500    -5.5770    -1.1900 H     1 <1>   0.1500 
 48 H       -1.1380    -8.4850     0.9990 H     1 <1>   0.1500 
 49 H       -3.5480    -8.7920     0.5740 H     1 <1>   0.0800 
 50 H       -4.4500    -7.6060    -0.3170 H     1 <1>   0.0800 
 51 H       -2.4100    -9.5060    -1.5160 H     1 <1>   0.0800 
 52 H       -3.3150    -8.3110    -2.4130 H     1 <1>   0.0800 
 53 H       -4.1460    -9.6560    -1.6640 H     1 <1>   0.0800 
@<TRIPOS>BOND
  1   1   2  2   
  2   2   3  am  
  3   2   4  1   
  4   3   5  1   
  5   3   6  1   
  6   4   7  2   
  7   4   8  1   
  8   5   9  1   
  9   5  27  1   
 10   5  28  1   
 11   6  10  1   
 12   6  29  1   
 13   6  30  1   
 14   7  11  1   
 15   8  12  2   
 16   8  31  1   
 17   9  13  1   
 18   9  14  1   
 19   9  32  1   
 20  10  15  1   
 21  10  16  1   
 22  10  33  1   
 23  11  12  1   
 24  11  34  1   
 25  12  17  1   
 26  13  16  1   
 27  13  18  1   
 28  13  35  1   
 29  14  19  1   
 30  14  36  1   
 31  14  37  1   
 32  15  19  1   
 33  15  38  1   
 34  15  39  1   
 35  16  40  1   
 36  16  41  1   
 37  17  20  ar  
 38  17  21  ar  
 39  18  42  1   
 40  18  43  1   
 41  18  44  1   
 42  20  22  ar  
 43  20  45  1   
 44  21  23  ar  
 45  21  46  1   
 46  22  24  ar  
 47  22  47  1   
 48  23  24  ar  
 49  23  48  1   
 50  24  25  1   
 51  25  26  1   
 52  25  49  1   
 53  25  50  1   
 54  26  51  1   
 55  26  52  1   
 56  26  53  1   
@<TRIPOS>SUBSTRUCTURE
  1 ****   4 GROUP 4 **** **** 0

# MOE 2024.06 (io_trps.svl 2023.06)
