@<TRIPOS>MOLECULE
NONAME
36 38 1 0 0 
SMALL
USER_CHARGES


@<TRIPOS>ATOM
  1 S        0.2300    -0.3390    -0.8380 S.3   1 <1>  -0.0800 
  2 C        1.2380     0.8250     0.0320 C.2   1 <1>  -0.0450 
  3 C        0.6720    -1.6450     0.2380 C.2   1 <1>  -0.1100 
  4 C        1.2840     2.1890    -0.4330 C.2   1 <1>   0.7150 
  5 C        1.8400     0.1800     1.0680 C.2   1 <1>  -0.1500 
  6 C        1.5240    -1.2060     1.1820 C.2   1 <1>  -0.1500 
  7 O        0.5740     2.5780    -1.3410 O.2   1 <1>  -0.5700 
  8 N        2.1670     3.0560     0.1650 N.am  1 <1>  -0.4940 
  9 C        2.3160     4.4530    -0.0170 C.2   1 <1>  -0.0880 
 10 N        3.5070     5.0960    -0.1840 N.pl3 1 <1>   0.3140 
 11 C        1.3580     5.4110    -0.0490 C.2   1 <1>  -0.1810 
 12 N        3.3280     6.4360    -0.3000 N.2   1 <1>  -0.7070 
 13 C        4.8510     4.4550    -0.2820 C.3   1 <1>   0.1760 
 14 C        2.0460     6.6050    -0.2280 C.2   1 <1>   0.1390 
 15 C       -0.1480     5.2740     0.0770 C.3   1 <1>  -0.0590 
 16 C        5.7930     4.8620     0.8520 C.3   1 <1>  -0.1600 
 17 C        5.6180     4.8340    -1.5490 C.3   1 <1>  -0.1600 
 18 C        7.2080     4.6330     0.3060 C.3   1 <1>  -0.1600 
 19 C        7.0790     4.5260    -1.2190 C.3   1 <1>  -0.1600 
 20 H        0.2430    -2.6140     0.0490 H     1 <1>   0.1500 
 21 H        2.5080     0.6320     1.7790 H     1 <1>   0.1500 
 22 H        1.9450    -1.8120     1.9650 H     1 <1>   0.1500 
 23 H        2.7870     2.6220     0.8430 H     1 <1>   0.3700 
 24 H        4.7320     3.3880    -0.2690 H     1 <1>   0.0800 
 25 H        1.5760     7.5710    -0.2970 H     1 <1>   0.1500 
 26 H       -0.3990     4.3700     0.6020 H     1 <1>   0.0800 
 27 H       -0.5900     5.2360    -0.9020 H     1 <1>   0.0800 
 28 H       -0.5550     6.1090     0.6160 H     1 <1>   0.0800 
 29 H        5.6130     4.2930     1.7470 H     1 <1>   0.0800 
 30 H        5.6680     5.9110     1.0640 H     1 <1>   0.0800 
 31 H        5.5170     5.8900    -1.7360 H     1 <1>   0.0800 
 32 H        5.2730     4.2830    -2.4060 H     1 <1>   0.0800 
 33 H        7.6210     3.7210     0.7030 H     1 <1>   0.0800 
 34 H        7.8510     5.4520     0.5820 H     1 <1>   0.0800 
 35 H        7.7420     5.2110    -1.7210 H     1 <1>   0.0800 
 36 H        7.3180     3.5230    -1.5300 H     1 <1>   0.0800 
@<TRIPOS>BOND
  1   1   2  1   
  2   1   3  1   
  3   2   4  1   
  4   2   5  2   
  5   3   6  2   
  6   3  20  1   
  7   4   7  2   
  8   4   8  am  
  9   5   6  1   
 10   5  21  1   
 11   6  22  1   
 12   8   9  1   
 13   8  23  1   
 14   9  10  1   
 15   9  11  2   
 16  10  12  1   
 17  10  13  1   
 18  11  14  1   
 19  11  15  1   
 20  12  14  2   
 21  13  16  1   
 22  13  17  1   
 23  13  24  1   
 24  14  25  1   
 25  15  26  1   
 26  15  27  1   
 27  15  28  1   
 28  16  18  1   
 29  16  29  1   
 30  16  30  1   
 31  17  19  1   
 32  17  31  1   
 33  17  32  1   
 34  18  19  1   
 35  18  33  1   
 36  18  34  1   
 37  19  35  1   
 38  19  36  1   
@<TRIPOS>SUBSTRUCTURE
  1 ****   8 GROUP 4 **** **** 0

# MOE 2024.06 (io_trps.svl 2023.06)
