@<TRIPOS>MOLECULE
NONAME
33 34 1 0 0 
SMALL
USER_CHARGES


@<TRIPOS>ATOM
  1 CL      -0.3970    -0.1970    -1.2260 Cl    1 <1>  -0.1770 
  2 C       -1.5200     0.8320    -0.3430 C.ar  1 <1>   0.1770 
  3 C       -1.2410     2.2180    -0.1710 C.ar  1 <1>   0.4100 
  4 C       -2.6800     0.3150     0.1490 C.ar  1 <1>   0.2170 
  5 N       -2.1100     3.0160     0.4290 N.ar  1 <1>  -0.6200 
  6 N       -0.0920     2.8120    -0.5960 N.pl3 1 <1>  -0.8380 
  7 N       -3.5210     1.1800     0.7740 N.ar  1 <1>  -0.1790 
  8 C       -3.1190    -1.1420     0.0480 C.3   1 <1>  -0.0970 
  9 C       -3.2240     2.4870     0.8880 C.ar  1 <1>   0.7710 
 10 C       -0.1000     4.1710    -1.2450 C.3   1 <1>   0.2090 
 11 C        1.2720     2.2800    -0.2970 C.3   1 <1>   0.2090 
 12 N       -4.0690     3.3200     1.4860 N.pl3 1 <1>  -0.9000 
 13 C        0.6590     5.1770    -0.3750 C.3   1 <1>   0.2000 
 14 C        2.0400     3.2760     0.5790 C.3   1 <1>  -0.1600 
 15 O        0.7480     6.4000    -1.0250 O.3   1 <1>  -0.6800 
 16 C        2.0750     4.6560    -0.0790 C.3   1 <1>   0.2000 
 17 O        2.7460     5.5400     0.7560 O.3   1 <1>  -0.6800 
 18 H       -4.4070     0.8760     1.1660 H     1 <1>   0.4570 
 19 H       -2.3800    -1.7480    -0.4450 H     1 <1>   0.0800 
 20 H       -4.0330    -1.2200    -0.5150 H     1 <1>   0.0800 
 21 H       -3.2780    -1.5560     1.0280 H     1 <1>   0.0800 
 22 H        0.3760     4.1010    -2.2080 H     1 <1>   0.0800 
 23 H       -1.1090     4.5160    -1.3900 H     1 <1>   0.0800 
 24 H        1.2060     1.3420     0.2260 H     1 <1>   0.0800 
 25 H        1.8000     2.1150    -1.2220 H     1 <1>   0.0800 
 26 H       -4.9800     3.1280     1.9070 H     1 <1>   0.4000 
 27 H       -3.7950     4.3070     1.5400 H     1 <1>   0.4000 
 28 H        0.1160     5.3260     0.5420 H     1 <1>   0.0800 
 29 H        3.0450     2.9180     0.7160 H     1 <1>   0.0800 
 30 H        1.5590     3.3320     1.5390 H     1 <1>   0.0800 
 31 H        1.4780     6.9110    -0.6130 H     1 <1>   0.4000 
 32 H        2.6290     4.5970    -1.0010 H     1 <1>   0.0800 
 33 H        2.3510     5.5370     1.6490 H     1 <1>   0.4000 
@<TRIPOS>BOND
  1   1   2  1   
  2   2   3  ar  
  3   2   4  ar  
  4   3   5  ar  
  5   3   6  1   
  6   4   7  ar  
  7   4   8  1   
  8   5   9  ar  
  9   6  10  1   
 10   6  11  1   
 11   7   9  ar  
 12   7  18  1   
 13   8  19  1   
 14   8  20  1   
 15   8  21  1   
 16   9  12  1   
 17  10  13  1   
 18  10  22  1   
 19  10  23  1   
 20  11  14  1   
 21  11  24  1   
 22  11  25  1   
 23  12  26  1   
 24  12  27  1   
 25  13  15  1   
 26  13  16  1   
 27  13  28  1   
 28  14  16  1   
 29  14  29  1   
 30  14  30  1   
 31  15  31  1   
 32  16  17  1   
 33  16  32  1   
 34  17  33  1   
@<TRIPOS>SUBSTRUCTURE
  1 ****   3 GROUP 4 **** **** 0

# MOE 2024.06 (io_trps.svl 2023.06)
