@<TRIPOS>MOLECULE
NONAME
43 45 1 0 0 
SMALL
USER_CHARGES


@<TRIPOS>ATOM
  1 CL      -2.9440    -0.7980    -2.4110 Cl    1 <1>  -0.1770 
  2 C       -2.3680     0.4200    -1.2930 C.ar  1 <1>   0.1770 
  3 C       -1.9100     1.6300    -1.7840 C.ar  1 <1>   0.1770 
  4 C       -2.3870     0.1650     0.0770 C.ar  1 <1>   0.0860 
  5 CL      -1.9010     1.9510    -3.5020 Cl    1 <1>  -0.1770 
  6 C       -1.4530     2.6160    -0.9280 C.ar  1 <1>  -0.1500 
  7 C       -2.8630    -1.0880     0.6150 C.2   1 <1>   0.5440 
  8 C       -1.9170     1.1680     0.9270 C.ar  1 <1>  -0.1500 
  9 C       -1.4570     2.3790     0.4360 C.ar  1 <1>  -0.1500 
 10 O       -2.0410    -1.8750     1.0430 O.2   1 <1>  -0.5700 
 11 N       -4.2070    -1.4040     0.6930 N.am  1 <1>  -0.6600 
 12 C       -5.2800    -0.4690     0.2350 C.3   1 <1>   0.2200 
 13 C       -4.6170    -2.7440     1.2220 C.3   1 <1>   0.0600 
 14 C       -6.2970    -1.1010    -0.7130 C.3   1 <1>  -0.1600 
 15 C       -6.1160     0.0780     1.3870 C.3   1 <1>  -0.1600 
 16 C       -7.5110    -0.1660    -0.6420 C.3   1 <1>  -0.0800 
 17 C       -7.4190     0.5500     0.7270 C.3   1 <1>  -0.0800 
 18 C       -8.8410    -0.8960    -0.9120 C.3   1 <1>   0.1400 
 19 C       -8.6570     0.3400     1.6160 C.3   1 <1>  -0.0990 
 20 N       -9.9830    -0.0850    -0.4200 N.am  1 <1>  -0.6600 
 21 C       -9.9240     0.5180     0.8070 C.2   1 <1>   0.5690 
 22 C      -11.1850    -0.0150    -1.2920 C.3   1 <1>   0.0600 
 23 O      -10.8260     1.1750     1.2680 O.2   1 <1>  -0.5700 
 24 H       -1.0990     3.5510    -1.3260 H     1 <1>   0.1500 
 25 H       -1.9110     0.9830     1.9880 H     1 <1>   0.1500 
 26 H       -1.0990     3.1360     1.1150 H     1 <1>   0.1500 
 27 H       -4.8520     0.3730    -0.2770 H     1 <1>   0.0800 
 28 H       -5.6000    -2.7090     1.6540 H     1 <1>   0.0800 
 29 H       -3.9290    -3.0730     1.9820 H     1 <1>   0.0800 
 30 H       -4.6080    -3.4610     0.4200 H     1 <1>   0.0800 
 31 H       -5.9080    -1.1710    -1.7140 H     1 <1>   0.0800 
 32 H       -6.5790    -2.0790    -0.3710 H     1 <1>   0.0800 
 33 H       -6.3230    -0.6980     2.1000 H     1 <1>   0.0800 
 34 H       -5.6110     0.8880     1.8830 H     1 <1>   0.0800 
 35 H       -7.3950     0.5840    -1.4070 H     1 <1>   0.0800 
 36 H       -7.3370     1.6060     0.5280 H     1 <1>   0.0800 
 37 H       -8.8580    -1.8430    -0.4000 H     1 <1>   0.0800 
 38 H       -8.9440    -1.0820    -1.9680 H     1 <1>   0.0800 
 39 H       -8.6490     1.0390     2.4320 H     1 <1>   0.0800 
 40 H       -8.6680    -0.6540     2.0240 H     1 <1>   0.0800 
 41 H      -10.9270     0.4450    -2.2300 H     1 <1>   0.0800 
 42 H      -11.9580     0.5700    -0.8240 H     1 <1>   0.0800 
 43 H      -11.5640    -1.0060    -1.4710 H     1 <1>   0.0800 
@<TRIPOS>BOND
  1   1   2  1   
  2   2   3  ar  
  3   2   4  ar  
  4   3   5  1   
  5   3   6  ar  
  6   4   7  1   
  7   4   8  ar  
  8   6   9  ar  
  9   6  24  1   
 10   7  10  2   
 11   7  11  am  
 12   8   9  ar  
 13   8  25  1   
 14   9  26  1   
 15  11  12  1   
 16  11  13  1   
 17  12  14  1   
 18  12  15  1   
 19  12  27  1   
 20  13  28  1   
 21  13  29  1   
 22  13  30  1   
 23  14  16  1   
 24  14  31  1   
 25  14  32  1   
 26  15  17  1   
 27  15  33  1   
 28  15  34  1   
 29  16  17  1   
 30  16  18  1   
 31  16  35  1   
 32  17  19  1   
 33  17  36  1   
 34  18  20  1   
 35  18  37  1   
 36  18  38  1   
 37  19  21  1   
 38  19  39  1   
 39  19  40  1   
 40  20  21  am  
 41  20  22  1   
 42  21  23  2   
 43  22  41  1   
 44  22  42  1   
 45  22  43  1   
@<TRIPOS>SUBSTRUCTURE
  1 ****  12 GROUP 4 **** **** 0

# MOE 2024.06 (io_trps.svl 2023.06)
