@<TRIPOS>MOLECULE
NONAME
55 58 1 0 0 
SMALL
USER_CHARGES


@<TRIPOS>ATOM
  1 O        3.7960    -1.6830    -1.1370 O.2   1 <1>  -0.5700 
  2 C        3.7930    -1.3570     0.0230 C.2   1 <1>   0.5690 
  3 N        3.3460    -0.1470     0.4800 N.am  1 <1>  -0.4940 
  4 C        4.2560    -2.3730     1.0310 C.3   1 <1>   0.1570 
  5 C        2.8870     0.9560    -0.2480 C.2   1 <1>   0.2040 
  6 N        3.0900    -2.7540     1.8330 N.pl3 1 <1>   0.3140 
  7 O        3.0020     1.0310    -1.5520 O.3   1 <1>  -0.0190 
  8 C        2.2900     2.0870     0.1760 C.2   1 <1>  -0.1810 
  9 N        2.9250    -2.2640     3.0420 N.2   1 <1>  -0.4180 
 10 C        2.0260    -3.4880     1.5400 C.2   1 <1>   0.0060 
 11 N        2.5170     2.1530    -2.0190 N.2   1 <1>  -0.4100 
 12 C        2.0840     2.8070    -1.0010 C.2   1 <1>   0.1080 
 13 C        1.9120     2.5150     1.5850 C.3   1 <1>  -0.0590 
 14 N        1.8080    -2.7230     3.4700 N.2   1 <1>   0.0000 
 15 N        1.2340    -3.4870     2.5510 N.2   1 <1>  -0.3380 
 16 C        1.8330    -4.1950     0.1840 C.3   1 <1>   0.5130 
 17 C        1.4410     4.1790    -1.1100 C.3   1 <1>   0.0210 
 18 N        0.5190    -4.8800     0.0510 N.3   1 <1>  -0.8100 
 19 C        2.9880    -5.1800    -0.0150 C.ar  1 <1>  -0.1440 
 20 C        2.4680     5.2930    -0.8840 C.3   1 <1>  -0.2400 
 21 C        0.4430    -5.7680    -1.1340 C.3   1 <1>   0.1100 
 22 C       -0.5960    -3.9050    -0.0160 C.3   1 <1>   0.1100 
 23 C        3.8040    -5.0890    -1.1360 C.ar  1 <1>  -0.1500 
 24 C        3.2380    -6.1690     0.9250 C.ar  1 <1>  -0.1500 
 25 C       -0.9470    -6.4140    -1.2660 C.3   1 <1>   0.1200 
 26 C       -1.9510    -4.6150    -0.1740 C.3   1 <1>   0.1200 
 27 C        4.8590    -5.9680    -1.3060 C.ar  1 <1>  -0.1500 
 28 C        4.2930    -7.0480     0.7550 C.ar  1 <1>  -0.1500 
 29 O       -1.9430    -5.4330    -1.3080 O.3   1 <1>  -0.5600 
 30 C        5.1050    -6.9470    -0.3600 C.ar  1 <1>  -0.1500 
 31 H        3.2670    -0.0440     1.4920 H     1 <1>   0.3700 
 32 H        5.0040    -1.9430     1.6690 H     1 <1>   0.0800 
 33 H        4.6710    -3.2340     0.5470 H     1 <1>   0.0800 
 34 H        2.1660     1.7520     2.2980 H     1 <1>   0.0800 
 35 H        0.8530     2.6950     1.6420 H     1 <1>   0.0800 
 36 H        2.4330     3.4180     1.8480 H     1 <1>   0.0800 
 37 H        1.8900    -3.4490    -0.5900 H     1 <1>   0.0800 
 38 H        0.6450     4.2630    -0.3930 H     1 <1>   0.0800 
 39 H        1.0120     4.2840    -2.0910 H     1 <1>   0.0800 
 40 H        2.8990     5.2160     0.0970 H     1 <1>   0.0800 
 41 H        1.9980     6.2560    -0.9830 H     1 <1>   0.0800 
 42 H        3.2550     5.2170    -1.6130 H     1 <1>   0.0800 
 43 H        1.1650    -6.5620    -1.0470 H     1 <1>   0.0800 
 44 H        0.6590    -5.2120    -2.0300 H     1 <1>   0.0800 
 45 H       -0.4570    -3.2380    -0.8500 H     1 <1>   0.0800 
 46 H       -0.6330    -3.3140     0.8810 H     1 <1>   0.0800 
 47 H        3.6250    -4.3330    -1.8840 H     1 <1>   0.1500 
 48 H        2.6020    -6.2560     1.7920 H     1 <1>   0.1500 
 49 H       -1.1400    -7.0650    -0.4310 H     1 <1>   0.0800 
 50 H       -1.0090    -6.9840    -2.1750 H     1 <1>   0.0800 
 51 H       -2.7390    -3.8940    -0.2950 H     1 <1>   0.0800 
 52 H       -2.1610    -5.2210     0.6900 H     1 <1>   0.0800 
 53 H        5.4880    -5.8900    -2.1770 H     1 <1>   0.1500 
 54 H        4.4790    -7.8120     1.4910 H     1 <1>   0.1500 
 55 H        5.9260    -7.6310    -0.4930 H     1 <1>   0.1500 
@<TRIPOS>BOND
  1   1   2  2   
  2   2   3  am  
  3   2   4  1   
  4   3   5  1   
  5   3  31  1   
  6   4   6  1   
  7   4  32  1   
  8   4  33  1   
  9   5   7  1   
 10   5   8  2   
 11   6   9  1   
 12   6  10  1   
 13   7  11  1   
 14   8  12  1   
 15   8  13  1   
 16   9  14  2   
 17  10  15  2   
 18  10  16  1   
 19  11  12  2   
 20  12  17  1   
 21  13  34  1   
 22  13  35  1   
 23  13  36  1   
 24  14  15  1   
 25  16  18  1   
 26  16  19  1   
 27  16  37  1   
 28  17  20  1   
 29  17  38  1   
 30  17  39  1   
 31  18  21  1   
 32  18  22  1   
 33  19  23  ar  
 34  19  24  ar  
 35  20  40  1   
 36  20  41  1   
 37  20  42  1   
 38  21  25  1   
 39  21  43  1   
 40  21  44  1   
 41  22  26  1   
 42  22  45  1   
 43  22  46  1   
 44  23  27  ar  
 45  23  47  1   
 46  24  28  ar  
 47  24  48  1   
 48  25  29  1   
 49  25  49  1   
 50  25  50  1   
 51  26  29  1   
 52  26  51  1   
 53  26  52  1   
 54  27  30  ar  
 55  27  53  1   
 56  28  30  ar  
 57  28  54  1   
 58  30  55  1   
@<TRIPOS>SUBSTRUCTURE
  1 ****  10 GROUP 4 **** **** 0

# MOE 2024.06 (io_trps.svl 2023.06)
