@<TRIPOS>MOLECULE
NONAME
48 51 1 0 0 
SMALL
USER_CHARGES


@<TRIPOS>ATOM
  1 O        1.9520    -0.9920     2.5520 O.2   1 <1>  -0.5700 
  2 C        1.5890    -1.6920     1.6200 C.2   1 <1>   0.5440 
  3 N        1.0620    -1.0440     0.5170 N.am  1 <1>  -0.6600 
  4 C        1.7550    -3.1450     1.7200 C.ar  1 <1>   0.3960 
  5 C        0.6990    -1.6680    -0.7750 C.3   1 <1>   0.1400 
  6 C        0.8800     0.4240     0.4640 C.3   1 <1>   0.1400 
  7 N        0.9210    -3.9890     1.0840 N.ar  1 <1>  -0.6200 
  8 C        2.8060    -3.6240     2.5100 C.ar  1 <1>   0.1600 
  9 C        0.5510    -0.4990    -1.7420 C.3   1 <1>  -0.1600 
 10 C        0.1680     0.6840    -0.8580 C.3   1 <1>  -0.1600 
 11 C        1.2010    -5.2570     1.2810 C.ar  1 <1>   0.4100 
 12 N        3.1080    -4.9020     2.7100 N.ar  1 <1>  -0.6200 
 13 N        0.3370    -6.1080     0.6460 N.pl3 1 <1>  -0.8690 
 14 C        2.2770    -5.6960     2.0680 C.ar  1 <1>   0.1600 
 15 C       -0.3270    -7.1850     1.4000 C.3   1 <1>   0.2090 
 16 C       -1.6480    -7.5130     0.7110 C.3   1 <1>  -0.1600 
 17 C       -2.3800    -8.6480     1.4380 C.3   1 <1>   0.0960 
 18 N       -3.6840    -8.9100     0.8020 N.pl3 1 <1>   0.3140 
 19 N       -4.8110    -8.3040     1.2330 N.2   1 <1>  -0.7070 
 20 C       -3.9210    -9.7270    -0.2680 C.ar  1 <1>  -0.1520 
 21 C       -5.7440    -8.7360     0.4510 C.2   1 <1>   0.1390 
 22 C       -5.2730    -9.6340    -0.5210 C.ar  1 <1>   0.0000 
 23 C       -3.0960   -10.5430    -1.0520 C.ar  1 <1>  -0.1500 
 24 C       -5.8390   -10.3650    -1.5740 C.ar  1 <1>  -0.1500 
 25 C       -3.6580   -11.2570    -2.0840 C.ar  1 <1>  -0.1500 
 26 C       -5.0330   -11.1680    -2.3450 C.ar  1 <1>  -0.1500 
 27 H       -0.2390    -2.1830    -0.6630 H     1 <1>   0.0800 
 28 H        1.4580    -2.3580    -1.1020 H     1 <1>   0.0800 
 29 H        1.8480     0.8960     0.4760 H     1 <1>   0.0800 
 30 H        0.3010     0.7670     1.3050 H     1 <1>   0.0800 
 31 H        3.4350    -2.9020     3.0030 H     1 <1>   0.1500 
 32 H       -0.1840    -0.7000    -2.5020 H     1 <1>   0.0800 
 33 H        1.5010    -0.3120    -2.2120 H     1 <1>   0.0800 
 34 H        0.4550     1.6280    -1.2860 H     1 <1>   0.0800 
 35 H       -0.8940     0.6840    -0.6870 H     1 <1>   0.0800 
 36 H       -0.3310    -5.5600     0.0940 H     1 <1>   0.4000 
 37 H        2.4360    -6.7540     2.1510 H     1 <1>   0.1500 
 38 H       -0.5070    -6.8630     2.4130 H     1 <1>   0.0800 
 39 H        0.3110    -8.0530     1.4150 H     1 <1>   0.0800 
 40 H       -1.4550    -7.8070    -0.3060 H     1 <1>   0.0800 
 41 H       -2.2750    -6.6370     0.7160 H     1 <1>   0.0800 
 42 H       -2.5620    -8.3760     2.4620 H     1 <1>   0.0800 
 43 H       -1.8010    -9.5520     1.4180 H     1 <1>   0.0800 
 44 H       -6.7760    -8.4410     0.5300 H     1 <1>   0.1500 
 45 H       -2.0420   -10.6060    -0.8480 H     1 <1>   0.1500 
 46 H       -6.8940   -10.2850    -1.7610 H     1 <1>   0.1500 
 47 H       -3.0500   -11.8930    -2.7030 H     1 <1>   0.1500 
 48 H       -5.4480   -11.7380    -3.1580 H     1 <1>   0.1500 
@<TRIPOS>BOND
  1   1   2  2   
  2   2   3  am  
  3   2   4  1   
  4   3   5  1   
  5   3   6  1   
  6   4   7  ar  
  7   4   8  ar  
  8   5   9  1   
  9   5  27  1   
 10   5  28  1   
 11   6  10  1   
 12   6  29  1   
 13   6  30  1   
 14   7  11  ar  
 15   8  12  ar  
 16   8  31  1   
 17   9  10  1   
 18   9  32  1   
 19   9  33  1   
 20  10  34  1   
 21  10  35  1   
 22  11  13  1   
 23  11  14  ar  
 24  12  14  ar  
 25  13  15  1   
 26  13  36  1   
 27  14  37  1   
 28  15  16  1   
 29  15  38  1   
 30  15  39  1   
 31  16  17  1   
 32  16  40  1   
 33  16  41  1   
 34  17  18  1   
 35  17  42  1   
 36  17  43  1   
 37  18  19  1   
 38  18  20  1   
 39  19  21  2   
 40  20  22  ar  
 41  20  23  ar  
 42  21  22  1   
 43  21  44  1   
 44  22  24  ar  
 45  23  25  ar  
 46  23  45  1   
 47  24  26  ar  
 48  24  46  1   
 49  25  26  ar  
 50  25  47  1   
 51  26  48  1   
@<TRIPOS>SUBSTRUCTURE
  1 ****  13 GROUP 4 **** **** 0

# MOE 2024.06 (io_trps.svl 2023.06)
