@<TRIPOS>MOLECULE
NONAME
54 57 1 0 0 
SMALL
USER_CHARGES


@<TRIPOS>ATOM
  1 N       -3.1630    -1.8640    -2.3130 N.2   1 <1>  -0.7070 
  2 N       -3.8040    -0.7500    -2.6920 N.pl3 1 <1>   0.3140 
  3 C       -3.1720    -1.8490    -1.0220 C.2   1 <1>   0.1080 
  4 C       -4.2550    -0.0560    -1.6220 C.2   1 <1>  -0.3320 
  5 C       -3.9290    -0.3990    -4.1150 C.3   1 <1>   0.0160 
  6 C       -3.8730    -0.7540    -0.5240 C.2   1 <1>  -0.1810 
  7 C       -2.4560    -2.9280    -0.2340 C.3   1 <1>  -0.0590 
  8 C       -5.0180     1.2570    -1.7490 C.3   1 <1>  -0.0600 
  9 C       -4.1500    -0.4880     0.9420 C.3   1 <1>   0.5240 
 10 N       -5.6220    -0.4180     1.1170 N.4   1 <1>  -0.8520 
 11 C       -5.9840    -0.1520     2.5140 C.3   1 <1>   0.2960 
 12 C       -6.2880    -1.6580     0.5970 C.3   1 <1>   0.5230 
 13 C       -7.2660     0.5580     2.7760 C.3   1 <1>  -0.2000 
 14 C       -5.9560     1.2610     2.9870 C.3   1 <1>  -0.2000 
 15 C       -5.6930    -2.9610     1.1440 C.2   1 <1>   0.0070 
 16 N       -5.2560    -3.0980     2.3590 N.2   1 <1>  -0.5650 
 17 N       -5.5700    -4.0950     0.3940 N.pl3 1 <1>   0.0480 
 18 C       -4.8410    -4.3750     2.4190 C.2   1 <1>   0.0770 
 19 C       -5.0200    -4.9920     1.2340 C.2   1 <1>  -0.3020 
 20 C       -5.8760    -4.3820    -1.0360 C.3   1 <1>   0.2390 
 21 C       -7.0600    -3.5710    -1.5420 C.ar  1 <1>  -0.1440 
 22 C       -8.3090    -3.6990    -0.9520 C.ar  1 <1>  -0.1500 
 23 C       -6.8880    -2.6800    -2.5910 C.ar  1 <1>  -0.1500 
 24 C       -9.3690    -2.9260    -1.3920 C.ar  1 <1>  -0.1500 
 25 C       -7.9480    -1.9080    -3.0310 C.ar  1 <1>  -0.1500 
 26 C       -9.1880    -2.0280    -2.4290 C.ar  1 <1>  -0.1500 
 27 H       -3.5460    -1.2060    -4.7120 H     1 <1>   0.0800 
 28 H       -3.3570     0.4890    -4.3100 H     1 <1>   0.0800 
 29 H       -4.9610    -0.2330    -4.3540 H     1 <1>   0.0800 
 30 H       -2.6650    -3.8900    -0.6650 H     1 <1>   0.0800 
 31 H       -2.7520    -2.9400     0.7960 H     1 <1>   0.0800 
 32 H       -1.3970    -2.7590    -0.2890 H     1 <1>   0.0800 
 33 H       -4.4640     1.9440    -2.3660 H     1 <1>   0.0800 
 34 H       -5.1590     1.7210    -0.7910 H     1 <1>   0.0800 
 35 H       -5.9790     1.0880    -2.2030 H     1 <1>   0.0800 
 36 H       -3.6950     0.4430     1.2360 H     1 <1>   0.0800 
 37 H       -3.7440    -1.2770     1.5520 H     1 <1>   0.0800 
 38 H       -5.9450     0.3550     0.5360 H     1 <1>   0.4500 
 39 H       -5.6830    -0.9310     3.2010 H     1 <1>   0.1000 
 40 H       -6.1880    -1.6610    -0.4730 H     1 <1>   0.0800 
 41 H       -7.3390    -1.6310     0.8260 H     1 <1>   0.0800 
 42 H       -7.8370     0.2870     3.6490 H     1 <1>   0.1000 
 43 H       -7.8910     0.8690     1.9580 H     1 <1>   0.1000 
 44 H       -5.6880     2.0550     2.3130 H     1 <1>   0.1000 
 45 H       -5.6570     1.4640     4.0010 H     1 <1>   0.1000 
 46 H       -4.4280    -4.7930     3.3240 H     1 <1>   0.1500 
 47 H       -4.7890    -6.0060     0.9570 H     1 <1>   0.1500 
 48 H       -6.0960    -5.4290    -1.1380 H     1 <1>   0.0800 
 49 H       -4.9990    -4.1660    -1.6200 H     1 <1>   0.0800 
 50 H       -8.4660    -4.3990    -0.1470 H     1 <1>   0.1500 
 51 H       -5.9270    -2.5840    -3.0700 H     1 <1>   0.1500 
 52 H      -10.3390    -3.0280    -0.9340 H     1 <1>   0.1500 
 53 H       -7.8140    -1.2200    -3.8490 H     1 <1>   0.1500 
 54 H      -10.0160    -1.4330    -2.7760 H     1 <1>   0.1500 
@<TRIPOS>BOND
  1   1   2  1   
  2   1   3  2   
  3   2   4  1   
  4   2   5  1   
  5   3   6  1   
  6   3   7  1   
  7   4   6  2   
  8   4   8  1   
  9   5  27  1   
 10   5  28  1   
 11   5  29  1   
 12   6   9  1   
 13   7  30  1   
 14   7  31  1   
 15   7  32  1   
 16   8  33  1   
 17   8  34  1   
 18   8  35  1   
 19   9  10  1   
 20   9  36  1   
 21   9  37  1   
 22  10  11  1   
 23  10  12  1   
 24  10  38  1   
 25  11  13  1   
 26  11  14  1   
 27  11  39  1   
 28  12  15  1   
 29  12  40  1   
 30  12  41  1   
 31  13  14  1   
 32  13  42  1   
 33  13  43  1   
 34  14  44  1   
 35  14  45  1   
 36  15  16  2   
 37  15  17  1   
 38  16  18  1   
 39  17  19  1   
 40  17  20  1   
 41  18  19  2   
 42  18  46  1   
 43  19  47  1   
 44  20  21  1   
 45  20  48  1   
 46  20  49  1   
 47  21  22  ar  
 48  21  23  ar  
 49  22  24  ar  
 50  22  50  1   
 51  23  25  ar  
 52  23  51  1   
 53  24  26  ar  
 54  24  52  1   
 55  25  26  ar  
 56  25  53  1   
 57  26  54  1   
@<TRIPOS>SUBSTRUCTURE
  1 ****  12 GROUP 4 **** **** 0

# MOE 2024.06 (io_trps.svl 2023.06)
