@<TRIPOS>MOLECULE
NONAME
51 53 1 0 0 
SMALL
USER_CHARGES


@<TRIPOS>ATOM
  1 CL       1.9160    -0.3960     3.6230 Cl    1 <1>  -0.1770 
  2 C        2.4450    -1.3310     2.2490 C.ar  1 <1>   0.1770 
  3 C        3.0460    -0.6890     1.1860 C.ar  1 <1>  -0.1500 
  4 C        2.2410    -2.6970     2.2520 C.ar  1 <1>  -0.1500 
  5 C        3.4650    -1.4300     0.0860 C.ar  1 <1>   0.0820 
  6 C        2.6570    -3.4490     1.1640 C.ar  1 <1>  -0.1440 
  7 O        4.0220    -0.8350    -1.0070 O.3   1 <1>  -0.3620 
  8 C        3.2860    -2.8230     0.0890 C.ar  1 <1>   0.0820 
  9 C        2.4200    -4.9480     1.1460 C.3   1 <1>   0.4870 
 10 C        4.2440     0.5580    -1.0740 C.3   1 <1>   0.0400 
 11 O        3.6850    -3.6290    -0.9380 O.3   1 <1>  -0.3630 
 12 N        1.5830    -5.2790    -0.0330 N.4   1 <1>  -0.9590 
 13 C        5.0000    -3.4870    -1.4450 C.3   1 <1>   0.0400 
 14 C        1.4650    -6.7560    -0.2380 C.3   1 <1>   0.5660 
 15 C        0.2460    -4.6050    -0.0150 C.3   1 <1>   0.3430 
 16 C        2.8530    -7.3190    -0.5130 C.ar  1 <1>  -0.1430 
 17 C        0.4690    -7.1390    -1.3660 C.3   1 <1>   0.2000 
 18 C       -0.6070    -5.0300    -1.2220 C.3   1 <1>   0.1200 
 19 C        3.3680    -8.2880     0.3370 C.ar  1 <1>  -0.1500 
 20 C        3.6170    -6.8870    -1.5910 C.ar  1 <1>  -0.1500 
 21 O       -0.7370    -6.4200    -1.2510 O.3   1 <1>  -0.5600 
 22 C        0.1480    -8.6420    -1.3080 C.3   1 <1>   0.1200 
 23 C        4.6300    -8.8110     0.1200 C.ar  1 <1>  -0.1500 
 24 C        4.8780    -7.4120    -1.8080 C.ar  1 <1>  -0.1500 
 25 O       -0.1510    -9.0190     0.0000 O.3   1 <1>  -0.6800 
 26 C        5.3860    -8.3720    -0.9510 C.ar  1 <1>  -0.1500 
 27 H        3.1670     0.3760     1.2440 H     1 <1>   0.1500 
 28 H        1.7630    -3.1460     3.1050 H     1 <1>   0.1500 
 29 H        1.9300    -5.2620     2.0530 H     1 <1>   0.0800 
 30 H        3.3720    -5.4510     1.0770 H     1 <1>   0.0800 
 31 H        4.6990     0.7800    -2.0230 H     1 <1>   0.0800 
 32 H        4.9060     0.8480    -0.2770 H     1 <1>   0.0800 
 33 H        3.3000     1.0690    -0.9970 H     1 <1>   0.0800 
 34 H        2.1270    -4.9010    -0.8240 H     1 <1>   0.4500 
 35 H        5.3130    -4.4300    -1.8540 H     1 <1>   0.0800 
 36 H        5.6620    -3.1960    -0.6480 H     1 <1>   0.0800 
 37 H        4.9970    -2.7410    -2.2200 H     1 <1>   0.0800 
 38 H        1.0950    -7.1980     0.6720 H     1 <1>   0.0800 
 39 H       -0.2850    -4.8650     0.8860 H     1 <1>   0.0800 
 40 H        0.3740    -3.5340    -0.0300 H     1 <1>   0.0800 
 41 H        0.8880    -6.9120    -2.3300 H     1 <1>   0.0800 
 42 H       -0.1680    -4.6980    -2.1480 H     1 <1>   0.0800 
 43 H       -1.5950    -4.6120    -1.1420 H     1 <1>   0.0800 
 44 H        2.7920    -8.6530     1.1720 H     1 <1>   0.1500 
 45 H        3.2480    -6.1430    -2.2770 H     1 <1>   0.1500 
 46 H        0.9940    -9.2230    -1.6330 H     1 <1>   0.0800 
 47 H       -0.6970    -8.8650    -1.9370 H     1 <1>   0.0800 
 48 H        5.0270    -9.5630     0.7820 H     1 <1>   0.1500 
 49 H        5.4700    -7.0800    -2.6450 H     1 <1>   0.1500 
 50 H       -0.5840    -9.8990     0.0130 H     1 <1>   0.4000 
 51 H        6.3690    -8.7800    -1.1200 H     1 <1>   0.1500 
@<TRIPOS>BOND
  1   1   2  1   
  2   2   3  ar  
  3   2   4  ar  
  4   3   5  ar  
  5   3  27  1   
  6   4   6  ar  
  7   4  28  1   
  8   5   7  1   
  9   5   8  ar  
 10   6   8  ar  
 11   6   9  1   
 12   7  10  1   
 13   8  11  1   
 14   9  12  1   
 15   9  29  1   
 16   9  30  1   
 17  10  31  1   
 18  10  32  1   
 19  10  33  1   
 20  11  13  1   
 21  12  14  1   
 22  12  15  1   
 23  12  34  1   
 24  13  35  1   
 25  13  36  1   
 26  13  37  1   
 27  14  16  1   
 28  14  17  1   
 29  14  38  1   
 30  15  18  1   
 31  15  39  1   
 32  15  40  1   
 33  16  19  ar  
 34  16  20  ar  
 35  17  21  1   
 36  17  22  1   
 37  17  41  1   
 38  18  21  1   
 39  18  42  1   
 40  18  43  1   
 41  19  23  ar  
 42  19  44  1   
 43  20  24  ar  
 44  20  45  1   
 45  22  25  1   
 46  22  46  1   
 47  22  47  1   
 48  23  26  ar  
 49  23  48  1   
 50  24  26  ar  
 51  24  49  1   
 52  25  50  1   
 53  26  51  1   
@<TRIPOS>SUBSTRUCTURE
  1 ****  12 GROUP 4 **** **** 0

# MOE 2024.06 (io_trps.svl 2023.06)
