@<TRIPOS>MOLECULE
NONAME
40 42 1 0 0 
SMALL
USER_CHARGES


@<TRIPOS>ATOM
  1 F        0.3140     0.7860     0.1600 F     1 <1>  -0.1900 
  2 C        1.5330     1.2590    -0.0010 C.ar  1 <1>   0.1900 
  3 C        2.6650     0.4570     0.1390 C.ar  1 <1>   0.4100 
  4 C        1.6850     2.5810    -0.3050 C.ar  1 <1>   0.1600 
  5 N        3.8580     1.0020    -0.0120 N.ar  1 <1>  -0.6200 
  6 N        2.6360    -0.9040     0.4420 N.pl3 1 <1>  -0.8380 
  7 N        2.8750     3.1210    -0.4670 N.ar  1 <1>  -0.6200 
  8 C        3.9120     2.2990    -0.3040 C.ar  1 <1>   0.7200 
  9 C        1.5490    -1.8070    -0.0060 C.3   1 <1>   0.2090 
 10 C        3.8770    -1.6750     0.6940 C.3   1 <1>   0.2090 
 11 N        5.1690     2.8470    -0.4560 N.pl3 1 <1>  -0.8380 
 12 C        2.2130    -3.1650    -0.2000 C.3   1 <1>  -0.1600 
 13 C        3.4340    -3.1310     0.7130 C.3   1 <1>  -0.1600 
 14 C        5.3990     3.9810    -1.3970 C.3   1 <1>   0.3900 
 15 C        6.3940     2.1460     0.0320 C.3   1 <1>   0.1290 
 16 C        6.3540     5.0010    -0.7970 C.2   1 <1>  -0.1810 
 17 C        6.2150     5.7870     0.2940 C.2   1 <1>  -0.3320 
 18 C        7.6120     5.3140    -1.3000 C.2   1 <1>   0.1390 
 19 N        7.3500     6.5100     0.3950 N.pl3 1 <1>   0.3000 
 20 C        5.0530     5.8880     1.2670 C.3   1 <1>  -0.0600 
 21 N        8.2180     6.2170    -0.5920 N.2   1 <1>  -0.7070 
 22 H        0.8180     3.2080    -0.4160 H     1 <1>   0.1500 
 23 H        1.1030    -1.4590    -0.9220 H     1 <1>   0.0800 
 24 H        0.8000    -1.8630     0.7660 H     1 <1>   0.0800 
 25 H        4.3270    -1.3800     1.6270 H     1 <1>   0.0800 
 26 H        4.5730    -1.5080    -0.1120 H     1 <1>   0.0800 
 27 H        2.5270    -3.2550    -1.2250 H     1 <1>   0.0800 
 28 H        1.5450    -3.9740     0.0360 H     1 <1>   0.0800 
 29 H        3.1490    -3.3940     1.7170 H     1 <1>   0.0800 
 30 H        4.2160    -3.7910     0.3830 H     1 <1>   0.0800 
 31 H        4.4810     4.4830    -1.6440 H     1 <1>   0.0800 
 32 H        5.8130     3.5920    -2.3110 H     1 <1>   0.0800 
 33 H        6.1530     1.4740     0.8370 H     1 <1>   0.0800 
 34 H        7.1100     2.8570     0.4050 H     1 <1>   0.0800 
 35 H        6.8360     1.5840    -0.7710 H     1 <1>   0.0800 
 36 H        8.0480     4.8650    -2.1770 H     1 <1>   0.1500 
 37 H        7.5630     7.2030     1.1220 H     1 <1>   0.2700 
 38 H        4.2680     5.2100     0.9820 H     1 <1>   0.0800 
 39 H        4.6550     6.8860     1.2740 H     1 <1>   0.0800 
 40 H        5.3770     5.6290     2.2590 H     1 <1>   0.0800 
@<TRIPOS>BOND
  1   1   2  1   
  2   2   3  ar  
  3   2   4  ar  
  4   3   5  ar  
  5   3   6  1   
  6   4   7  ar  
  7   4  22  1   
  8   5   8  ar  
  9   6   9  1   
 10   6  10  1   
 11   7   8  ar  
 12   8  11  1   
 13   9  12  1   
 14   9  23  1   
 15   9  24  1   
 16  10  13  1   
 17  10  25  1   
 18  10  26  1   
 19  11  14  1   
 20  11  15  1   
 21  12  13  1   
 22  12  27  1   
 23  12  28  1   
 24  13  29  1   
 25  13  30  1   
 26  14  16  1   
 27  14  31  1   
 28  14  32  1   
 29  15  33  1   
 30  15  34  1   
 31  15  35  1   
 32  16  17  2   
 33  16  18  1   
 34  17  19  1   
 35  17  20  1   
 36  18  21  2   
 37  18  36  1   
 38  19  21  1   
 39  19  37  1   
 40  20  38  1   
 41  20  39  1   
 42  20  40  1   
@<TRIPOS>SUBSTRUCTURE
  1 ****   8 GROUP 4 **** **** 0

# MOE 2024.06 (io_trps.svl 2023.06)
