@<TRIPOS>MOLECULE
NONAME
38 40 1 0 0 
SMALL
USER_CHARGES


@<TRIPOS>ATOM
  1 O        3.8470    -1.3010     2.0600 O.2   1 <1>  -0.5700 
  2 C        3.1190    -1.4320     1.1020 C.2   1 <1>   0.5690 
  3 N        2.7130    -0.3830     0.3290 N.am  1 <1>  -0.4930 
  4 C        2.6290    -2.8340     0.7520 C.3   1 <1>   0.2610 
  5 C        3.0140     0.9960     0.4540 C.2   1 <1>   0.0630 
  6 O        1.8200    -2.8030    -0.4250 O.3   1 <1>  -0.3620 
  7 C        1.8350    -3.4350     1.9210 C.3   1 <1>   0.1200 
  8 C        3.8090     1.6470     1.3980 C.2   1 <1>   0.1390 
  9 C        2.5690     1.9830    -0.3500 C.2   1 <1>  -0.3020 
 10 C        1.0410    -3.8870    -0.6680 C.ar  1 <1>   0.0830 
 11 O        1.3140    -4.7040     1.5720 O.3   1 <1>  -0.3630 
 12 N        3.8570     2.9310     1.2010 N.2   1 <1>  -0.7070 
 13 N        3.0860     3.1440     0.1130 N.pl3 1 <1>   0.3140 
 14 C        0.7990    -4.8400     0.3240 C.ar  1 <1>   0.0830 
 15 C        0.4850    -4.0430    -1.9260 C.ar  1 <1>  -0.1500 
 16 C        2.8580     4.4960    -0.4740 C.3   1 <1>   0.1760 
 17 C        0.0170    -5.9470     0.0420 C.ar  1 <1>  -0.1500 
 18 C       -0.3010    -5.1500    -2.2020 C.ar  1 <1>  -0.1500 
 19 C        4.1820     5.1120    -0.9480 C.3   1 <1>  -0.2400 
 20 C        2.1590     5.4160     0.5370 C.3   1 <1>  -0.2400 
 21 C       -0.5330    -6.1010    -1.2200 C.ar  1 <1>  -0.1500 
 22 H        2.1050    -0.6330    -0.4540 H     1 <1>   0.3700 
 23 H        3.4820    -3.4530     0.5450 H     1 <1>   0.0800 
 24 H        1.0120    -2.7950     2.1850 H     1 <1>   0.0800 
 25 H        2.4680    -3.5620     2.7820 H     1 <1>   0.0800 
 26 H        4.3270     1.1500     2.2000 H     1 <1>   0.1500 
 27 H        1.9280     1.9290    -1.2080 H     1 <1>   0.1500 
 28 H        0.6710    -3.3050    -2.6850 H     1 <1>   0.1500 
 29 H        2.2140     4.3740    -1.3260 H     1 <1>   0.0800 
 30 H       -0.1590    -6.6790     0.8090 H     1 <1>   0.1500 
 31 H       -0.7330    -5.2720    -3.1800 H     1 <1>   0.1500 
 32 H        4.8470     5.2520    -0.1140 H     1 <1>   0.0800 
 33 H        4.0040     6.0670    -1.4090 H     1 <1>   0.0800 
 34 H        4.6540     4.4670    -1.6670 H     1 <1>   0.0800 
 35 H        2.7840     5.5610     1.4020 H     1 <1>   0.0800 
 36 H        1.2260     4.9820     0.8490 H     1 <1>   0.0800 
 37 H        1.9590     6.3740     0.0930 H     1 <1>   0.0800 
 38 H       -1.1430    -6.9610    -1.4380 H     1 <1>   0.1500 
@<TRIPOS>BOND
  1   1   2  2   
  2   2   3  am  
  3   2   4  1   
  4   3   5  1   
  5   3  22  1   
  6   4   6  1   
  7   4   7  1   
  8   4  23  1   
  9   5   8  1   
 10   5   9  2   
 11   6  10  1   
 12   7  11  1   
 13   7  24  1   
 14   7  25  1   
 15   8  12  2   
 16   8  26  1   
 17   9  13  1   
 18   9  27  1   
 19  10  14  ar  
 20  10  15  ar  
 21  11  14  1   
 22  12  13  1   
 23  13  16  1   
 24  14  17  ar  
 25  15  18  ar  
 26  15  28  1   
 27  16  19  1   
 28  16  20  1   
 29  16  29  1   
 30  17  21  ar  
 31  17  30  1   
 32  18  21  ar  
 33  18  31  1   
 34  19  32  1   
 35  19  33  1   
 36  19  34  1   
 37  20  35  1   
 38  20  36  1   
 39  20  37  1   
 40  21  38  1   
@<TRIPOS>SUBSTRUCTURE
  1 ****   3 GROUP 4 **** **** 0

# MOE 2024.06 (io_trps.svl 2023.06)
