@<TRIPOS>MOLECULE
NONAME
43 45 1 0 0 
SMALL
USER_CHARGES


@<TRIPOS>ATOM
  1 F       -0.0360    -0.3700    -0.3630 F     1 <1>  -0.1900 
  2 C       -0.1690    -1.5150     0.2740 C.ar  1 <1>   0.1900 
  3 C       -1.4340    -2.0640     0.5010 C.ar  1 <1>   0.4100 
  4 C        0.9510    -2.1860     0.7020 C.ar  1 <1>   0.1660 
  5 N       -1.5280    -3.2340     1.1150 N.ar  1 <1>  -0.6200 
  6 N       -2.6360    -1.4700     0.1270 N.pl3 1 <1>  -0.8380 
  7 N        0.8440    -3.3500     1.3240 N.ar  1 <1>  -0.6200 
  8 C        2.3620    -1.6510     0.4880 C.3   1 <1>  -0.0170 
  9 C       -0.3910    -3.7970     1.4860 C.ar  1 <1>   0.4700 
 10 C       -2.8460     0.0030     0.2420 C.3   1 <1>   0.2090 
 11 C       -3.8410    -2.3170    -0.1190 C.3   1 <1>   0.2090 
 12 C        3.0080    -2.2640    -0.7590 C.3   1 <1>  -0.2400 
 13 C       -4.2300     0.2750     0.8220 C.3   1 <1>  -0.1600 
 14 C       -4.9010    -1.5180    -0.8720 C.3   1 <1>  -0.1600 
 15 C       -5.3370    -0.2600    -0.1020 C.3   1 <1>   0.4180 
 16 O       -5.6070     0.7020    -1.0930 O.3   1 <1>  -0.5600 
 17 C       -6.5980    -0.5670     0.7050 C.2   1 <1>  -0.2880 
 18 C       -6.4750     1.7540    -0.7690 C.3   1 <1>   0.1200 
 19 C       -7.7590     0.0780     0.5650 C.2   1 <1>  -0.2760 
 20 C       -7.8720     1.2200    -0.4260 C.3   1 <1>  -0.0220 
 21 C       -9.0260    -0.2520     1.3330 C.3   1 <1>  -0.1020 
 22 H        2.9580    -1.8860     1.3520 H     1 <1>   0.0800 
 23 H        2.3440    -0.5800     0.3910 H     1 <1>   0.0800 
 24 H       -0.4830    -4.7460     1.9870 H     1 <1>   0.1500 
 25 H       -2.7590     0.4550    -0.7320 H     1 <1>   0.0800 
 26 H       -2.1000     0.4320     0.8890 H     1 <1>   0.0800 
 27 H       -4.2340    -2.6560     0.8250 H     1 <1>   0.0800 
 28 H       -3.5570    -3.1800    -0.6960 H     1 <1>   0.0800 
 29 H        3.0570    -3.3350    -0.6600 H     1 <1>   0.0800 
 30 H        4.0050    -1.8820    -0.8860 H     1 <1>   0.0800 
 31 H        2.4300    -2.0240    -1.6340 H     1 <1>   0.0800 
 32 H       -4.3540     1.3250     1.0000 H     1 <1>   0.0800 
 33 H       -4.2850    -0.2170     1.7760 H     1 <1>   0.0800 
 34 H       -5.7540    -2.1430    -1.0620 H     1 <1>   0.0800 
 35 H       -4.4830    -1.2390    -1.8230 H     1 <1>   0.0800 
 36 H       -6.4570    -1.3750     1.4000 H     1 <1>   0.1500 
 37 H       -6.5250     2.4110    -1.6190 H     1 <1>   0.0800 
 38 H       -6.0680     2.2960     0.0640 H     1 <1>   0.0800 
 39 H       -8.3630     0.8810    -1.3210 H     1 <1>   0.0800 
 40 H       -8.4500     2.0230    -0.0060 H     1 <1>   0.0800 
 41 H       -9.3390     0.5960     1.9160 H     1 <1>   0.0800 
 42 H       -8.8590    -1.0800     1.9970 H     1 <1>   0.0800 
 43 H       -9.8140    -0.5160     0.6490 H     1 <1>   0.0800 
@<TRIPOS>BOND
  1   1   2  1   
  2   2   3  ar  
  3   2   4  ar  
  4   3   5  ar  
  5   3   6  1   
  6   4   7  ar  
  7   4   8  1   
  8   5   9  ar  
  9   6  10  1   
 10   6  11  1   
 11   7   9  ar  
 12   8  12  1   
 13   8  22  1   
 14   8  23  1   
 15   9  24  1   
 16  10  13  1   
 17  10  25  1   
 18  10  26  1   
 19  11  14  1   
 20  11  27  1   
 21  11  28  1   
 22  12  29  1   
 23  12  30  1   
 24  12  31  1   
 25  13  15  1   
 26  13  32  1   
 27  13  33  1   
 28  14  15  1   
 29  14  34  1   
 30  14  35  1   
 31  15  16  1   
 32  15  17  1   
 33  16  18  1   
 34  17  19  2   
 35  17  36  1   
 36  18  20  1   
 37  18  37  1   
 38  18  38  1   
 39  19  20  1   
 40  19  21  1   
 41  20  39  1   
 42  20  40  1   
 43  21  41  1   
 44  21  42  1   
 45  21  43  1   
@<TRIPOS>SUBSTRUCTURE
  1 ****   6 GROUP 4 **** **** 0

# MOE 2024.06 (io_trps.svl 2023.06)
