@<TRIPOS>MOLECULE
NONAME
56 59 1 0 0 
SMALL
USER_CHARGES


@<TRIPOS>ATOM
  1 S       -0.3110     0.3050     0.0790 S.3   1 <1>  -0.3320 
  2 C        1.3250     1.0480     0.0930 C.ar  1 <1>   0.4120 
  3 C       -0.0940    -1.5230    -0.0690 C.3   1 <1>   0.0700 
  4 N        1.3320     2.3380     0.1890 N.ar  1 <1>  -0.6200 
  5 C        2.4730     0.2420     0.0030 C.ar  1 <1>  -0.1500 
  6 C       -1.4840    -2.1630    -0.0840 C.3   1 <1>  -0.0990 
  7 C        2.5460     2.9410     0.2040 C.ar  1 <1>   0.3100 
  8 C        3.7060     0.8220     0.0150 C.ar  1 <1>  -0.1440 
  9 C       -1.4270    -3.6750    -0.2080 C.2   1 <1>   0.5690 
 10 C        3.7680     2.2310     0.1190 C.ar  1 <1>   0.0000 
 11 C        2.5850     4.3390     0.3070 C.ar  1 <1>  -0.1500 
 12 C        4.9660    -0.0280    -0.0810 C.3   1 <1>  -0.0970 
 13 O       -0.3490    -4.2210    -0.2390 O.2   1 <1>  -0.5700 
 14 N       -2.5900    -4.3880    -0.2790 N.am  1 <1>  -0.6600 
 15 C        4.9720     2.9700     0.1440 C.ar  1 <1>  -0.1500 
 16 C        3.7680     5.0280     0.3290 C.ar  1 <1>  -0.1500 
 17 C       -3.9680    -3.8390    -0.2110 C.3   1 <1>   0.1400 
 18 C       -2.6200    -5.8650    -0.3950 C.3   1 <1>   0.1400 
 19 C        4.9800     4.3360     0.2460 C.ar  1 <1>  -0.1430 
 20 C       -4.8870    -5.0580    -0.3160 C.3   1 <1>   0.2000 
 21 C       -4.0270    -6.2660     0.0510 C.3   1 <1>  -0.0800 
 22 C        6.2770     5.1260     0.2720 C.3   1 <1>  -0.0970 
 23 O       -5.9620    -4.9630     0.5540 O.3   1 <1>  -0.6800 
 24 C       -4.5430    -7.5710    -0.5800 C.3   1 <1>  -0.0170 
 25 C       -3.7000    -8.7700    -0.1750 C.ar  1 <1>   0.1670 
 26 N       -2.5820    -8.9620    -0.8560 N.ar  1 <1>  -0.6200 
 27 C       -4.1190    -9.5980     0.8660 C.ar  1 <1>   0.1600 
 28 C       -1.9160   -10.0220    -0.4290 C.ar  1 <1>   0.1600 
 29 N       -3.4550   -10.6580     1.2940 N.ar  1 <1>  -0.6200 
 30 C       -2.3380   -10.8420     0.6110 C.ar  1 <1>   0.1600 
 31 H        0.4350    -1.7180    -0.9850 H     1 <1>   0.0800 
 32 H        0.4800    -1.8550     0.7780 H     1 <1>   0.0800 
 33 H        2.3750    -0.8200    -0.0740 H     1 <1>   0.1500 
 34 H       -1.9950    -1.9110     0.8260 H     1 <1>   0.0800 
 35 H       -2.0390    -1.7690    -0.9150 H     1 <1>   0.0800 
 36 H        1.6450     4.8560     0.3700 H     1 <1>   0.1500 
 37 H        4.7210    -1.0730    -0.1530 H     1 <1>   0.0800 
 38 H        5.5750     0.1160     0.7940 H     1 <1>   0.0800 
 39 H        5.5300     0.2470    -0.9530 H     1 <1>   0.0800 
 40 H        5.9030     2.4400     0.0800 H     1 <1>   0.1500 
 41 H        3.7730     6.1010     0.4090 H     1 <1>   0.1500 
 42 H       -4.1050    -3.3320     0.7280 H     1 <1>   0.0800 
 43 H       -4.1420    -3.1640    -1.0300 H     1 <1>   0.0800 
 44 H       -2.4470    -6.1410    -1.4210 H     1 <1>   0.0800 
 45 H       -1.8630    -6.3200     0.2240 H     1 <1>   0.0800 
 46 H       -5.2690    -5.1390    -1.3200 H     1 <1>   0.0800 
 47 H       -3.9990    -6.3750     1.1220 H     1 <1>   0.0800 
 48 H        6.3030     5.8130    -0.5550 H     1 <1>   0.0800 
 49 H        7.1270     4.4720     0.2010 H     1 <1>   0.0800 
 50 H        6.3480     5.6820     1.1890 H     1 <1>   0.0800 
 51 H       -5.6500    -4.9070     1.4780 H     1 <1>   0.4000 
 52 H       -4.5380    -7.4880    -1.6530 H     1 <1>   0.0800 
 53 H       -5.5620    -7.7310    -0.2750 H     1 <1>   0.0800 
 54 H       -5.0430    -9.3730     1.3670 H     1 <1>   0.1500 
 55 H       -0.9900   -10.2540    -0.9250 H     1 <1>   0.1500 
 56 H       -1.7260   -11.6820     0.8870 H     1 <1>   0.1500 
@<TRIPOS>BOND
  1   1   2  1   
  2   1   3  1   
  3   2   4  ar  
  4   2   5  ar  
  5   3   6  1   
  6   3  31  1   
  7   3  32  1   
  8   4   7  ar  
  9   5   8  ar  
 10   5  33  1   
 11   6   9  1   
 12   6  34  1   
 13   6  35  1   
 14   7  10  ar  
 15   7  11  ar  
 16   8  10  ar  
 17   8  12  1   
 18   9  13  2   
 19   9  14  am  
 20  10  15  ar  
 21  11  16  ar  
 22  11  36  1   
 23  12  37  1   
 24  12  38  1   
 25  12  39  1   
 26  14  17  1   
 27  14  18  1   
 28  15  19  ar  
 29  15  40  1   
 30  16  19  ar  
 31  16  41  1   
 32  17  20  1   
 33  17  42  1   
 34  17  43  1   
 35  18  21  1   
 36  18  44  1   
 37  18  45  1   
 38  19  22  1   
 39  20  21  1   
 40  20  23  1   
 41  20  46  1   
 42  21  24  1   
 43  21  47  1   
 44  22  48  1   
 45  22  49  1   
 46  22  50  1   
 47  23  51  1   
 48  24  25  1   
 49  24  52  1   
 50  24  53  1   
 51  25  26  ar  
 52  25  27  ar  
 53  26  28  ar  
 54  27  29  ar  
 55  27  54  1   
 56  28  30  ar  
 57  28  55  1   
 58  29  30  ar  
 59  30  56  1   
@<TRIPOS>SUBSTRUCTURE
  1 ****   3 GROUP 4 **** **** 0

# MOE 2024.06 (io_trps.svl 2023.06)
