@<TRIPOS>MOLECULE
NONAME
51 53 1 0 0 
SMALL
USER_CHARGES


@<TRIPOS>ATOM
  1 O       -0.2310     0.8890     1.1800 O.2   1 <1>  -0.5700 
  2 C       -1.2500     1.1500     0.5830 C.2   1 <1>   0.5690 
  3 N       -2.2620     0.2300     0.4550 N.am  1 <1>  -0.6600 
  4 C       -1.3970     2.5350    -0.0440 C.3   1 <1>  -0.0990 
  5 C       -3.4800     0.4620    -0.3780 C.3   1 <1>   0.1400 
  6 C       -2.1670    -1.0820     1.1640 C.3   1 <1>   0.1400 
  7 C       -0.3550     3.5650     0.4310 C.3   1 <1>  -0.1600 
  8 C       -4.1310    -0.8660    -0.7620 C.3   1 <1>  -0.1600 
  9 C       -3.5490    -1.5510     1.6290 C.3   1 <1>  -0.1600 
 10 C       -0.5830     4.9350    -0.2170 C.3   1 <1>  -0.2400 
 11 C       -4.5930    -1.6300     0.4930 C.3   1 <1>   0.4240 
 12 O       -5.7220    -0.9530     0.9950 O.3   1 <1>  -0.5600 
 13 C       -4.9110    -3.1040     0.1560 C.ar  1 <1>  -0.1440 
 14 C       -6.9700    -1.2670     0.4570 C.3   1 <1>   0.1200 
 15 C       -6.1900    -3.6210     0.2990 C.ar  1 <1>  -0.1440 
 16 C       -3.9090    -3.9500    -0.3020 C.ar  1 <1>  -0.1500 
 17 C       -7.3040    -2.7180     0.7890 C.3   1 <1>  -0.0170 
 18 C       -6.4520    -4.9500     0.0040 C.ar  1 <1>  -0.1500 
 19 C       -4.1520    -5.2760    -0.6140 C.ar  1 <1>   0.0820 
 20 C       -5.4450    -5.7980    -0.4470 C.ar  1 <1>   0.0820 
 21 O       -3.0590    -5.9580    -1.0650 O.3   1 <1>  -0.3620 
 22 O       -5.6950    -7.1150    -0.7090 O.3   1 <1>  -0.3620 
 23 C       -3.1770    -7.0750    -1.9180 C.3   1 <1>   0.0400 
 24 C       -6.9000    -7.7410    -0.3250 C.3   1 <1>   0.0400 
 25 H       -2.3760     2.9110     0.1910 H     1 <1>   0.0800 
 26 H       -1.3190     2.4270    -1.1090 H     1 <1>   0.0800 
 27 H       -3.2140     0.9940    -1.2750 H     1 <1>   0.0800 
 28 H       -4.1810     1.0600     0.1820 H     1 <1>   0.0800 
 29 H       -1.5210    -0.9920     2.0220 H     1 <1>   0.0800 
 30 H       -1.7310    -1.8060     0.4990 H     1 <1>   0.0800 
 31 H        0.6330     3.2130     0.1860 H     1 <1>   0.0800 
 32 H       -0.4120     3.6600     1.5030 H     1 <1>   0.0800 
 33 H       -3.4120    -1.4450    -1.3110 H     1 <1>   0.0800 
 34 H       -4.9580    -0.6950    -1.4220 H     1 <1>   0.0800 
 35 H       -3.8830    -0.8660     2.3880 H     1 <1>   0.0800 
 36 H       -3.4480    -2.5120     2.0980 H     1 <1>   0.0800 
 37 H       -0.5070     4.8620    -1.2870 H     1 <1>   0.0800 
 38 H        0.1600     5.6310     0.1310 H     1 <1>   0.0800 
 39 H       -1.5550     5.3170     0.0400 H     1 <1>   0.0800 
 40 H       -6.9510    -1.1100    -0.6060 H     1 <1>   0.0800 
 41 H       -7.6940    -0.6050     0.8980 H     1 <1>   0.0800 
 42 H       -2.9060    -3.5870    -0.4270 H     1 <1>   0.1500 
 43 H       -8.2340    -2.9830     0.3200 H     1 <1>   0.0800 
 44 H       -7.4170    -2.8250     1.8530 H     1 <1>   0.0800 
 45 H       -7.4550    -5.3070     0.1330 H     1 <1>   0.1500 
 46 H       -2.2230    -7.2450    -2.3810 H     1 <1>   0.0800 
 47 H       -3.9200    -6.8680    -2.6670 H     1 <1>   0.0800 
 48 H       -3.4540    -7.9320    -1.3310 H     1 <1>   0.0800 
 49 H       -6.8130    -8.7910    -0.5400 H     1 <1>   0.0800 
 50 H       -7.7090    -7.3190    -0.8930 H     1 <1>   0.0800 
 51 H       -7.0480    -7.5960     0.7310 H     1 <1>   0.0800 
@<TRIPOS>BOND
  1   1   2  2   
  2   2   3  am  
  3   2   4  1   
  4   3   5  1   
  5   3   6  1   
  6   4   7  1   
  7   4  25  1   
  8   4  26  1   
  9   5   8  1   
 10   5  27  1   
 11   5  28  1   
 12   6   9  1   
 13   6  29  1   
 14   6  30  1   
 15   7  10  1   
 16   7  31  1   
 17   7  32  1   
 18   8  11  1   
 19   8  33  1   
 20   8  34  1   
 21   9  11  1   
 22   9  35  1   
 23   9  36  1   
 24  10  37  1   
 25  10  38  1   
 26  10  39  1   
 27  11  12  1   
 28  11  13  1   
 29  12  14  1   
 30  13  15  ar  
 31  13  16  ar  
 32  14  17  1   
 33  14  40  1   
 34  14  41  1   
 35  15  17  1   
 36  15  18  ar  
 37  16  19  ar  
 38  16  42  1   
 39  17  43  1   
 40  17  44  1   
 41  18  20  ar  
 42  18  45  1   
 43  19  20  ar  
 44  19  21  1   
 45  20  22  1   
 46  21  23  1   
 47  22  24  1   
 48  23  46  1   
 49  23  47  1   
 50  23  48  1   
 51  24  49  1   
 52  24  50  1   
 53  24  51  1   
@<TRIPOS>SUBSTRUCTURE
  1 ****  11 GROUP 4 **** **** 0

# MOE 2024.06 (io_trps.svl 2023.06)
