@<TRIPOS>MOLECULE
NONAME
57 59 1 0 0 
SMALL
USER_CHARGES


@<TRIPOS>ATOM
  1 O       -0.5160    -0.3490     3.0580 O.2   1 <1>  -0.5700 
  2 C       -0.8440     0.5820     2.3570 C.2   1 <1>   0.5690 
  3 N       -1.9820     0.5290     1.5810 N.am  1 <1>  -0.6600 
  4 C        0.0650     1.8250     2.3880 C.3   1 <1>   0.1710 
  5 C       -2.8620    -0.6790     1.5970 C.3   1 <1>   0.1400 
  6 C       -2.3700     1.5940     0.6140 C.3   1 <1>   0.1400 
  7 N        0.7420     2.1680     1.1030 N.3   1 <1>  -0.8100 
  8 C       -2.8850    -1.3950     0.2380 C.3   1 <1>   0.1400 
  9 C       -1.8980     1.2120    -0.7930 C.3   1 <1>  -0.1600 
 10 C        1.4560     3.4490     1.2110 C.3   1 <1>   0.2530 
 11 C        1.6440     1.0810     0.6840 C.3   1 <1>   0.0300 
 12 N       -3.6680    -0.6170    -0.7750 N.am  1 <1>  -0.6600 
 13 C       -2.8910     0.3600    -1.5970 C.3   1 <1>   0.1400 
 14 C        1.9240     3.9230    -0.1560 C.ar  1 <1>  -0.1430 
 15 C       -5.0070    -0.8060    -1.0160 C.2   1 <1>   0.5690 
 16 C        3.2750     4.0970    -0.4210 C.ar  1 <1>   0.1600 
 17 C        1.0130     4.1900    -1.1580 C.ar  1 <1>  -0.1500 
 18 O       -5.5890    -0.2080    -1.8910 O.2   1 <1>  -0.5700 
 19 C       -5.8140    -1.7950    -0.1930 C.3   1 <1>  -0.0990 
 20 N        3.7770     4.5080    -1.5750 N.ar  1 <1>  -0.6200 
 21 C        1.5160     4.6190    -2.3680 C.ar  1 <1>  -0.1500 
 22 C       -7.3260    -1.5570    -0.3230 C.3   1 <1>   0.0960 
 23 C        2.8850     4.7590    -2.5200 C.ar  1 <1>   0.1600 
 24 N       -8.0740    -2.5600     0.4560 N.pl3 1 <1>   0.3140 
 25 N       -8.0650    -2.5860     1.7710 N.2   1 <1>  -0.4180 
 26 C       -8.8220    -3.5720     0.0420 C.2   1 <1>   0.0060 
 27 N       -8.7910    -3.5870     2.1190 N.2   1 <1>   0.0000 
 28 N       -9.2710    -4.2140     1.0500 N.2   1 <1>  -0.3380 
 29 C       -9.1100    -3.9310    -1.4040 C.3   1 <1>  -0.0600 
 30 H        0.8110     1.6690     3.1480 H     1 <1>   0.0800 
 31 H       -0.5410     2.6550     2.7010 H     1 <1>   0.0800 
 32 H       -3.8580    -0.3890     1.8780 H     1 <1>   0.0800 
 33 H       -2.5130    -1.3760     2.3380 H     1 <1>   0.0800 
 34 H       -1.9150     2.5280     0.8930 H     1 <1>   0.0800 
 35 H       -3.4370     1.7380     0.6290 H     1 <1>   0.0800 
 36 H       -3.3210    -2.3690     0.3640 H     1 <1>   0.0800 
 37 H       -1.8760    -1.5440    -0.1060 H     1 <1>   0.0800 
 38 H       -0.9490     0.7100    -0.7340 H     1 <1>   0.0800 
 39 H       -1.7270     2.1140    -1.3500 H     1 <1>   0.0800 
 40 H        2.2920     3.3470     1.8820 H     1 <1>   0.0800 
 41 H        0.7930     4.1950     1.6140 H     1 <1>   0.0800 
 42 H        1.0980     0.1580     0.5890 H     1 <1>   0.0800 
 43 H        2.4330     0.9430     1.4040 H     1 <1>   0.0800 
 44 H        2.0800     1.3060    -0.2750 H     1 <1>   0.0800 
 45 H       -2.3610    -0.1740    -2.3680 H     1 <1>   0.0800 
 46 H       -3.5740     1.0320    -2.0890 H     1 <1>   0.0800 
 47 H        3.9870     3.8850     0.3580 H     1 <1>   0.1500 
 48 H       -0.0430     4.0610    -0.9980 H     1 <1>   0.1500 
 49 H       -5.5440    -1.7000     0.8420 H     1 <1>   0.0800 
 50 H       -5.5740    -2.7860    -0.5310 H     1 <1>   0.0800 
 51 H        0.8570     4.8420    -3.1860 H     1 <1>   0.1500 
 52 H       -7.6260    -1.6160    -1.3530 H     1 <1>   0.0800 
 53 H       -7.5770    -0.5800     0.0480 H     1 <1>   0.0800 
 54 H        3.2670     5.0960    -3.4690 H     1 <1>   0.1500 
 55 H       -8.1930    -4.1270    -1.9290 H     1 <1>   0.0800 
 56 H       -9.6350    -3.1280    -1.8880 H     1 <1>   0.0800 
 57 H       -9.7240    -4.8140    -1.4450 H     1 <1>   0.0800 
@<TRIPOS>BOND
  1   1   2  2   
  2   2   3  am  
  3   2   4  1   
  4   3   5  1   
  5   3   6  1   
  6   4   7  1   
  7   4  30  1   
  8   4  31  1   
  9   5   8  1   
 10   5  32  1   
 11   5  33  1   
 12   6   9  1   
 13   6  34  1   
 14   6  35  1   
 15   7  10  1   
 16   7  11  1   
 17   8  12  1   
 18   8  36  1   
 19   8  37  1   
 20   9  13  1   
 21   9  38  1   
 22   9  39  1   
 23  10  14  1   
 24  10  40  1   
 25  10  41  1   
 26  11  42  1   
 27  11  43  1   
 28  11  44  1   
 29  12  13  1   
 30  12  15  am  
 31  13  45  1   
 32  13  46  1   
 33  14  16  ar  
 34  14  17  ar  
 35  15  18  2   
 36  15  19  1   
 37  16  20  ar  
 38  16  47  1   
 39  17  21  ar  
 40  17  48  1   
 41  19  22  1   
 42  19  49  1   
 43  19  50  1   
 44  20  23  ar  
 45  21  23  ar  
 46  21  51  1   
 47  22  24  1   
 48  22  52  1   
 49  22  53  1   
 50  23  54  1   
 51  24  25  1   
 52  24  26  1   
 53  25  27  2   
 54  26  28  2   
 55  26  29  1   
 56  27  28  1   
 57  29  55  1   
 58  29  56  1   
 59  29  57  1   
@<TRIPOS>SUBSTRUCTURE
  1 ****   6 GROUP 4 **** **** 0

# MOE 2024.06 (io_trps.svl 2023.06)
