@<TRIPOS>MOLECULE
NONAME
57 60 1 0 0 
SMALL
USER_CHARGES


@<TRIPOS>ATOM
  1 O        0.7930     0.3550    -1.6050 O.2   1 <1>  -0.5700 
  2 C        1.6460     0.0760    -0.7830 C.2   1 <1>   0.5440 
  3 N        1.3340    -0.8000     0.2390 N.am  1 <1>  -0.6600 
  4 C        2.9650     0.6670    -0.9110 C.ar  1 <1>   0.0860 
  5 C       -0.0730    -1.2080     0.5150 C.3   1 <1>   0.1400 
  6 C        2.3530    -1.5360     1.0400 C.3   1 <1>   0.1400 
  7 C        3.6670     0.6020    -2.1120 C.ar  1 <1>  -0.1500 
  8 C        3.5740     1.3280     0.1550 C.ar  1 <1>  -0.1500 
  9 C       -0.2350    -2.7110     0.2710 C.3   1 <1>  -0.1600 
 10 C        2.2060    -3.0440     0.8060 C.3   1 <1>  -0.1600 
 11 C        4.9280     1.1560    -2.2430 C.ar  1 <1>  -0.1500 
 12 C        4.8350     1.8790     0.0330 C.ar  1 <1>  -0.1500 
 13 C        0.7770    -3.5280     1.0870 C.3   1 <1>  -0.1600 
 14 C        5.5240     1.7970    -1.1680 C.ar  1 <1>  -0.1430 
 15 C        6.9060     2.4170    -1.3020 C.3   1 <1>   0.3530 
 16 N        6.8030     3.8360    -0.9240 N.pl3 1 <1>  -0.8690 
 17 C        7.7850     4.4800    -0.2160 C.ar  1 <1>   0.4100 
 18 N        9.0270     4.0490    -0.4300 N.ar  1 <1>  -0.6200 
 19 C        7.4620     5.5310     0.6610 C.ar  1 <1>   0.0860 
 20 C        9.9860     4.6620     0.2340 C.ar  1 <1>   0.1600 
 21 C        6.0930     5.9440     0.8420 C.2   1 <1>   0.5440 
 22 C        8.4990     6.1500     1.3450 C.ar  1 <1>  -0.1500 
 23 C        9.7820     5.7030     1.1220 C.ar  1 <1>  -0.1500 
 24 O        5.2520     5.1350     1.1990 O.2   1 <1>  -0.5700 
 25 N        5.7000     7.2440     0.6190 N.am  1 <1>  -0.6600 
 26 C        4.2940     7.6800     0.7730 C.3   1 <1>   0.1400 
 27 C        6.4760     8.2300    -0.1660 C.3   1 <1>   0.1400 
 28 C        4.2640     9.1070     0.2380 C.3   1 <1>  -0.1600 
 29 C        5.4290     9.1730    -0.7460 C.3   1 <1>  -0.1600 
 30 H       -0.7590    -0.6630    -0.1110 H     1 <1>   0.0800 
 31 H       -0.3070    -0.9760     1.5390 H     1 <1>   0.0800 
 32 H        2.2060    -1.3110     2.0820 H     1 <1>   0.0800 
 33 H        3.3490    -1.2380     0.7670 H     1 <1>   0.0800 
 34 H        3.2050     0.1120    -2.9520 H     1 <1>   0.1500 
 35 H        3.0460     1.4140     1.0880 H     1 <1>   0.1500 
 36 H       -0.0980    -2.9050    -0.7790 H     1 <1>   0.0800 
 37 H       -1.2350    -3.0070     0.5310 H     1 <1>   0.0800 
 38 H        2.8970    -3.5710     1.4400 H     1 <1>   0.0800 
 39 H        2.4660    -3.2610    -0.2150 H     1 <1>   0.0800 
 40 H        5.4390     1.0900    -3.1880 H     1 <1>   0.1500 
 41 H        5.2780     2.3830     0.8770 H     1 <1>   0.1500 
 42 H        0.6890    -4.5710     0.8360 H     1 <1>   0.0800 
 43 H        0.5610    -3.4180     2.1360 H     1 <1>   0.0800 
 44 H        7.2660     2.3460    -2.3130 H     1 <1>   0.0800 
 45 H        7.5950     1.9050    -0.6520 H     1 <1>   0.0800 
 46 H        5.8440     4.0570    -0.6200 H     1 <1>   0.4000 
 47 H       10.9920     4.3180     0.0640 H     1 <1>   0.1500 
 48 H        8.2960     6.9520     2.0330 H     1 <1>   0.1500 
 49 H       10.6180     6.1510     1.6290 H     1 <1>   0.1500 
 50 H        3.9920     7.6310     1.8060 H     1 <1>   0.0800 
 51 H        3.6600     7.0390     0.1830 H     1 <1>   0.0800 
 52 H        7.0460     7.7510    -0.9440 H     1 <1>   0.0800 
 53 H        7.1360     8.7650     0.4950 H     1 <1>   0.0800 
 54 H        4.4320     9.7890     1.0530 H     1 <1>   0.0800 
 55 H        3.3210     9.3380    -0.2250 H     1 <1>   0.0800 
 56 H        5.1180     8.7990    -1.7060 H     1 <1>   0.0800 
 57 H        5.8110    10.1710    -0.8660 H     1 <1>   0.0800 
@<TRIPOS>BOND
  1   1   2  2   
  2   2   3  am  
  3   2   4  1   
  4   3   5  1   
  5   3   6  1   
  6   4   7  ar  
  7   4   8  ar  
  8   5   9  1   
  9   5  30  1   
 10   5  31  1   
 11   6  10  1   
 12   6  32  1   
 13   6  33  1   
 14   7  11  ar  
 15   7  34  1   
 16   8  12  ar  
 17   8  35  1   
 18   9  13  1   
 19   9  36  1   
 20   9  37  1   
 21  10  13  1   
 22  10  38  1   
 23  10  39  1   
 24  11  14  ar  
 25  11  40  1   
 26  12  14  ar  
 27  12  41  1   
 28  13  42  1   
 29  13  43  1   
 30  14  15  1   
 31  15  16  1   
 32  15  44  1   
 33  15  45  1   
 34  16  17  1   
 35  16  46  1   
 36  17  18  ar  
 37  17  19  ar  
 38  18  20  ar  
 39  19  21  1   
 40  19  22  ar  
 41  20  23  ar  
 42  20  47  1   
 43  21  24  2   
 44  21  25  am  
 45  22  23  ar  
 46  22  48  1   
 47  23  49  1   
 48  25  26  1   
 49  25  27  1   
 50  26  28  1   
 51  26  50  1   
 52  26  51  1   
 53  27  29  1   
 54  27  52  1   
 55  27  53  1   
 56  28  29  1   
 57  28  54  1   
 58  28  55  1   
 59  29  56  1   
 60  29  57  1   
@<TRIPOS>SUBSTRUCTURE
  1 ****  12 GROUP 4 **** **** 0

# MOE 2024.06 (io_trps.svl 2023.06)
