@<TRIPOS>MOLECULE
NONAME
51 53 1 0 0 
SMALL
USER_CHARGES


@<TRIPOS>ATOM
  1 O        3.4050    -2.6430     1.9930 O.2   1 <1>  -0.5700 
  2 C        2.5180    -1.8380     1.8380 C.2   1 <1>   0.5690 
  3 N        2.7960    -0.5670     1.3810 N.am  1 <1>  -0.6600 
  4 C        1.1070    -2.3400     2.0540 C.3   1 <1>   0.1570 
  5 C        4.1020    -0.3580     0.6580 C.3   1 <1>   0.2200 
  6 C        1.7970     0.5500     1.3210 C.3   1 <1>   0.1400 
  7 N        0.5370    -2.5990     0.7190 N.pl3 1 <1>   0.3140 
  8 C        4.6950     1.0520     0.8170 C.3   1 <1>   0.1200 
  9 C        3.9360    -0.7350    -0.8350 C.3   1 <1>   0.3430 
 10 C        1.8520     1.3990     0.0320 C.3   1 <1>  -0.0800 
 11 N       -0.1650    -1.6460     0.0780 N.2   1 <1>  -0.7070 
 12 C        0.7170    -3.6730    -0.0740 C.2   1 <1>  -0.3320 
 13 O        4.1990     1.9160    -0.1620 O.3   1 <1>  -0.5600 
 14 N        2.5070    -0.7010    -1.3270 N.4   1 <1>  -0.9590 
 15 C        2.9540     2.4660     0.0980 C.3   1 <1>   0.1200 
 16 C        1.8630     0.6490    -1.3210 C.3   1 <1>   0.3430 
 17 C       -0.4600    -2.1480    -1.0720 C.2   1 <1>   0.1080 
 18 C        0.0950    -3.4170    -1.2650 C.2   1 <1>  -0.0860 
 19 C        1.5140    -4.9080     0.3350 C.3   1 <1>  -0.0600 
 20 C        2.3950    -1.3470    -2.6680 C.3   1 <1>   0.2630 
 21 C       -1.3330    -1.4120    -2.0700 C.3   1 <1>  -0.0590 
 22 C        0.0180    -4.1600    -2.4910 C.2   1 <1>   0.5950 
 23 O        0.2830    -3.6530    -3.5520 O.2   1 <1>  -0.5700 
 24 C       -0.3870    -5.6160    -2.4750 C.3   1 <1>  -0.1790 
 25 H        0.5080    -1.6200     2.5740 H     1 <1>   0.0800 
 26 H        1.1230    -3.2540     2.6160 H     1 <1>   0.0800 
 27 H        4.8400    -1.0190     1.0790 H     1 <1>   0.0800 
 28 H        0.7980     0.1730     1.4310 H     1 <1>   0.0800 
 29 H        1.9650     1.1930     2.1680 H     1 <1>   0.0800 
 30 H        5.7590     1.0020     0.6630 H     1 <1>   0.0800 
 31 H        4.5200     1.4550     1.8000 H     1 <1>   0.0800 
 32 H        4.3190    -1.7340    -0.9570 H     1 <1>   0.0800 
 33 H        4.5480    -0.0810    -1.4340 H     1 <1>   0.0800 
 34 H        0.9400     1.9680     0.0340 H     1 <1>   0.0800 
 35 H        1.9380    -1.2580    -0.6610 H     1 <1>   0.4500 
 36 H        2.9810     2.9580     1.0570 H     1 <1>   0.0800 
 37 H        2.7830     3.2170    -0.6550 H     1 <1>   0.0800 
 38 H        2.3430     1.2760    -2.0550 H     1 <1>   0.0800 
 39 H        0.8380     0.5230    -1.6270 H     1 <1>   0.0800 
 40 H        1.5540    -5.6280    -0.4610 H     1 <1>   0.0800 
 41 H        1.0610    -5.3780     1.1900 H     1 <1>   0.0800 
 42 H        2.5260    -4.6430     0.5840 H     1 <1>   0.0800 
 43 H        2.9650    -0.7980    -3.3990 H     1 <1>   0.0800 
 44 H        1.3650    -1.3790    -2.9850 H     1 <1>   0.0800 
 45 H        2.7620    -2.3590    -2.6280 H     1 <1>   0.0800 
 46 H       -2.1870    -2.0160    -2.3160 H     1 <1>   0.0800 
 47 H       -0.7880    -1.2000    -2.9700 H     1 <1>   0.0800 
 48 H       -1.6830    -0.4880    -1.6450 H     1 <1>   0.0800 
 49 H       -0.7870    -5.8850    -1.5160 H     1 <1>   0.0800 
 50 H        0.4670    -6.2290    -2.6940 H     1 <1>   0.0800 
 51 H       -1.1370    -5.7850    -3.2250 H     1 <1>   0.0800 
@<TRIPOS>BOND
  1   1   2  2   
  2   2   3  am  
  3   2   4  1   
  4   3   5  1   
  5   3   6  1   
  6   4   7  1   
  7   4  25  1   
  8   4  26  1   
  9   5   8  1   
 10   5   9  1   
 11   5  27  1   
 12   6  10  1   
 13   6  28  1   
 14   6  29  1   
 15   7  11  1   
 16   7  12  1   
 17   8  13  1   
 18   8  30  1   
 19   8  31  1   
 20   9  14  1   
 21   9  32  1   
 22   9  33  1   
 23  10  15  1   
 24  10  16  1   
 25  10  34  1   
 26  11  17  2   
 27  12  18  2   
 28  12  19  1   
 29  13  15  1   
 30  14  16  1   
 31  14  20  1   
 32  14  35  1   
 33  15  36  1   
 34  15  37  1   
 35  16  38  1   
 36  16  39  1   
 37  17  18  1   
 38  17  21  1   
 39  18  22  1   
 40  19  40  1   
 41  19  41  1   
 42  19  42  1   
 43  20  43  1   
 44  20  44  1   
 45  20  45  1   
 46  21  46  1   
 47  21  47  1   
 48  21  48  1   
 49  22  23  2   
 50  22  24  1   
 51  24  49  1   
 52  24  50  1   
 53  24  51  1   
@<TRIPOS>SUBSTRUCTURE
  1 ****  14 GROUP 4 **** **** 0

# MOE 2024.06 (io_trps.svl 2023.06)
