@<TRIPOS>MOLECULE
NONAME
45 47 1 0 0 
SMALL
USER_CHARGES


@<TRIPOS>ATOM
  1 CL      -0.7330    -4.7730    -2.5960 Cl    1 <1>  -0.1770 
  2 C       -1.8440    -3.8240    -1.6390 C.ar  1 <1>   0.1770 
  3 C       -2.2110    -2.5480    -2.0400 C.ar  1 <1>  -0.1440 
  4 C       -2.3550    -4.3940    -0.4900 C.ar  1 <1>  -0.1500 
  5 C       -3.1170    -1.8470    -1.2600 C.ar  1 <1>  -0.1500 
  6 C       -1.6370    -1.9220    -3.3030 C.3   1 <1>  -0.0960 
  7 C       -3.2760    -3.6960     0.2760 C.ar  1 <1>  -0.1430 
  8 C       -3.6480    -2.4160    -0.1130 C.ar  1 <1>  -0.1500 
  9 C       -3.8770    -4.3480     1.5040 C.3   1 <1>   0.4870 
 10 N       -4.8220    -5.3800     1.0240 N.4   1 <1>  -0.9590 
 11 C       -6.0760    -4.8710     0.3980 C.3   1 <1>   0.3430 
 12 C       -5.2030    -6.4550     1.9630 C.3   1 <1>   0.3430 
 13 C       -7.0980    -6.0080     0.5400 C.3   1 <1>   0.2000 
 14 C       -6.3790    -7.1490     1.2750 C.3   1 <1>  -0.0800 
 15 O       -8.1660    -5.5740     1.3180 O.3   1 <1>  -0.6800 
 16 C       -5.9210    -8.2800     0.3210 C.3   1 <1>   0.0210 
 17 C       -4.7280    -7.9570    -0.5740 C.2   1 <1>   0.1080 
 18 N       -4.6750    -6.9360    -1.3750 N.2   1 <1>  -0.7070 
 19 C       -3.5710    -8.7250    -0.6370 C.2   1 <1>  -0.1500 
 20 N       -3.4910    -7.0590    -2.0170 N.pl3 1 <1>   0.3000 
 21 C       -2.7970    -8.1210    -1.5630 C.2   1 <1>  -0.3320 
 22 C       -1.4200    -8.5120    -2.0690 C.3   1 <1>  -0.0600 
 23 H       -2.0280    -5.3810    -0.2130 H     1 <1>   0.1500 
 24 H       -3.4170    -0.8520    -1.5440 H     1 <1>   0.1500 
 25 H       -2.0100    -0.9230    -3.4450 H     1 <1>   0.0800 
 26 H       -1.9050    -2.5110    -4.1620 H     1 <1>   0.0800 
 27 H       -0.5640    -1.8760    -3.2370 H     1 <1>   0.0800 
 28 H       -4.3540    -1.8460     0.4680 H     1 <1>   0.1500 
 29 H       -4.3850    -3.6200     2.1140 H     1 <1>   0.0800 
 30 H       -3.0910    -4.8040     2.0840 H     1 <1>   0.0800 
 31 H       -4.3650    -5.8670     0.2220 H     1 <1>   0.4500 
 32 H       -6.4330    -3.9880     0.9010 H     1 <1>   0.0800 
 33 H       -5.9020    -4.6510    -0.6430 H     1 <1>   0.0800 
 34 H       -4.3870    -7.1370     2.1380 H     1 <1>   0.0800 
 35 H       -5.5270    -6.0270     2.8980 H     1 <1>   0.0800 
 36 H       -7.4880    -6.3040    -0.4200 H     1 <1>   0.0800 
 37 H       -7.0290    -7.5950     2.0080 H     1 <1>   0.0800 
 38 H       -7.9300    -5.4290     2.2540 H     1 <1>   0.4000 
 39 H       -6.7440    -8.5720    -0.3080 H     1 <1>   0.0800 
 40 H       -5.6650    -9.1410     0.9120 H     1 <1>   0.0800 
 41 H       -3.3590    -9.6170    -0.0720 H     1 <1>   0.1500 
 42 H       -3.1800    -6.4120    -2.7580 H     1 <1>   0.2700 
 43 H       -1.0830    -9.4070    -1.5770 H     1 <1>   0.0800 
 44 H       -0.7100    -7.7280    -1.8750 H     1 <1>   0.0800 
 45 H       -1.4520    -8.6990    -3.1280 H     1 <1>   0.0800 
@<TRIPOS>BOND
  1   1   2  1   
  2   2   3  ar  
  3   2   4  ar  
  4   3   5  ar  
  5   3   6  1   
  6   4   7  ar  
  7   4  23  1   
  8   5   8  ar  
  9   5  24  1   
 10   6  25  1   
 11   6  26  1   
 12   6  27  1   
 13   7   8  ar  
 14   7   9  1   
 15   8  28  1   
 16   9  10  1   
 17   9  29  1   
 18   9  30  1   
 19  10  11  1   
 20  10  12  1   
 21  10  31  1   
 22  11  13  1   
 23  11  32  1   
 24  11  33  1   
 25  12  14  1   
 26  12  34  1   
 27  12  35  1   
 28  13  14  1   
 29  13  15  1   
 30  13  36  1   
 31  14  16  1   
 32  14  37  1   
 33  15  38  1   
 34  16  17  1   
 35  16  39  1   
 36  16  40  1   
 37  17  18  2   
 38  17  19  1   
 39  18  20  1   
 40  19  21  2   
 41  19  41  1   
 42  20  21  1   
 43  20  42  1   
 44  21  22  1   
 45  22  43  1   
 46  22  44  1   
 47  22  45  1   
@<TRIPOS>SUBSTRUCTURE
  1 ****  10 GROUP 4 **** **** 0

# MOE 2024.06 (io_trps.svl 2023.06)
