@<TRIPOS>MOLECULE
NONAME
40 41 1 0 0 
SMALL
USER_CHARGES


@<TRIPOS>ATOM
  1 O       -2.6220     1.2410    -2.4030 O.2   1 <1>  -0.5700 
  2 C       -3.0710     1.2950    -1.2830 C.2   1 <1>   0.5690 
  3 N       -3.8200     0.2870    -0.7770 N.am  1 <1>  -0.7300 
  4 C       -2.7990     2.5090    -0.3930 C.3   1 <1>  -0.0190 
  5 C       -4.0820    -0.9840    -1.4690 C.3   1 <1>   0.2840 
  6 C       -2.3280     3.7500    -1.1820 C.3   1 <1>  -0.1600 
  7 C       -1.7890     2.1600     0.7260 C.3   1 <1>  -0.1600 
  8 C       -4.3460    -2.0370    -0.4090 C.ar  1 <1>  -0.1440 
  9 C       -2.2070     5.0020    -0.2870 C.3   1 <1>   0.2000 
 10 C       -1.1040     3.3900     1.3550 C.3   1 <1>  -0.1600 
 11 C       -5.6450    -2.3840    -0.0690 C.ar  1 <1>  -0.1500 
 12 C       -3.2850    -2.6530     0.2360 C.ar  1 <1>  -0.1500 
 13 O       -1.1410     5.7890    -0.7600 O.3   1 <1>  -0.5600 
 14 C       -1.9570     4.6520     1.2040 C.3   1 <1>   0.2000 
 15 C       -5.8790    -3.3380     0.9060 C.ar  1 <1>  -0.1500 
 16 C       -3.5190    -3.6080     1.2110 C.ar  1 <1>  -0.1500 
 17 C       -1.4140     6.5350    -1.9060 C.3   1 <1>   0.0400 
 18 O       -1.2890     5.6960     1.8100 O.3   1 <1>  -0.6800 
 19 C       -4.8160    -3.9500     1.5470 C.ar  1 <1>  -0.1500 
 20 H       -4.1450     0.3050     0.1900 H     1 <1>   0.3700 
 21 H       -3.7370     2.7660     0.0670 H     1 <1>   0.0800 
 22 H       -4.9350    -0.8710    -2.1150 H     1 <1>   0.0800 
 23 H       -3.2310    -1.2590    -2.0700 H     1 <1>   0.0800 
 24 H       -3.0190     3.9490    -1.9810 H     1 <1>   0.0800 
 25 H       -1.3680     3.5250    -1.6180 H     1 <1>   0.0800 
 26 H       -2.3020     1.6060     1.4930 H     1 <1>   0.0800 
 27 H       -1.0220     1.5170     0.3270 H     1 <1>   0.0800 
 28 H       -3.1120     5.5830    -0.3390 H     1 <1>   0.0800 
 29 H       -0.1630     3.5550     0.8580 H     1 <1>   0.0800 
 30 H       -0.9070     3.2020     2.3970 H     1 <1>   0.0800 
 31 H       -6.4800    -1.9140    -0.5600 H     1 <1>   0.1500 
 32 H       -2.2720    -2.3890    -0.0180 H     1 <1>   0.1500 
 33 H       -2.8920     4.5160     1.7190 H     1 <1>   0.0800 
 34 H       -6.8890    -3.6050     1.1670 H     1 <1>   0.1500 
 35 H       -2.6910    -4.0840     1.7080 H     1 <1>   0.1500 
 36 H       -0.5370     7.1090    -2.1470 H     1 <1>   0.0800 
 37 H       -2.2380     7.1990    -1.7110 H     1 <1>   0.0800 
 38 H       -1.6440     5.8720    -2.7220 H     1 <1>   0.0800 
 39 H       -0.7350     6.1020     1.1040 H     1 <1>   0.4000 
 40 H       -4.9990    -4.6930     2.3040 H     1 <1>   0.1500 
@<TRIPOS>BOND
  1   1   2  2   
  2   2   3  am  
  3   2   4  1   
  4   3   5  1   
  5   3  20  1   
  6   4   6  1   
  7   4   7  1   
  8   4  21  1   
  9   5   8  1   
 10   5  22  1   
 11   5  23  1   
 12   6   9  1   
 13   6  24  1   
 14   6  25  1   
 15   7  10  1   
 16   7  26  1   
 17   7  27  1   
 18   8  11  ar  
 19   8  12  ar  
 20   9  13  1   
 21   9  14  1   
 22   9  28  1   
 23  10  14  1   
 24  10  29  1   
 25  10  30  1   
 26  11  15  ar  
 27  11  31  1   
 28  12  16  ar  
 29  12  32  1   
 30  13  17  1   
 31  14  18  1   
 32  14  33  1   
 33  15  19  ar  
 34  15  34  1   
 35  16  19  ar  
 36  16  35  1   
 37  17  36  1   
 38  17  37  1   
 39  17  38  1   
 40  18  39  1   
 41  19  40  1   
@<TRIPOS>SUBSTRUCTURE
  1 ****   2 GROUP 4 **** **** 0

# MOE 2024.06 (io_trps.svl 2023.06)
