@<TRIPOS>MOLECULE
NONAME
36 37 1 0 0 
SMALL
USER_CHARGES


@<TRIPOS>ATOM
  1 S        0.1300     0.2000    -0.4150 S.o2  1 <1>   1.0900 
  2 O       -0.6230     0.2470     0.8150 O.2   1 <1>  -0.6500 
  3 O       -0.4640     0.6680    -1.6450 O.2   1 <1>  -0.6500 
  4 C        1.6560     1.0890    -0.1600 C.3   1 <1>  -0.0550 
  5 C        0.6670    -1.4800    -0.6680 C.3   1 <1>  -0.1350 
  6 C        1.3790     2.5750     0.0500 C.3   1 <1>   0.1100 
  7 N        2.6420     3.3160     0.1990 N.3   1 <1>  -0.8100 
  8 C        2.4240     4.7450    -0.0950 C.3   1 <1>   0.2900 
  9 C        3.2030     3.1530     1.5550 C.3   1 <1>   0.0300 
 10 C        3.7570     5.4600    -0.1860 C.2   1 <1>  -0.3320 
 11 N        4.7910     4.9280    -0.8990 N.pl3 1 <1>   0.0330 
 12 C        4.1480     6.6350     0.3640 C.2   1 <1>  -0.1500 
 13 C        5.8660     5.7760    -0.8050 C.ar  1 <1>  -0.1520 
 14 C        5.4890     6.8620    -0.0160 C.ar  1 <1>   0.0000 
 15 C        7.1520     5.6790    -1.3490 C.ar  1 <1>  -0.1500 
 16 C        6.4080     7.8840     0.2410 C.ar  1 <1>  -0.1500 
 17 C        8.0560     6.6850    -1.0940 C.ar  1 <1>  -0.1500 
 18 C        7.6630     7.7680    -0.3030 C.ar  1 <1>   0.1900 
 19 F        8.5440     8.7110    -0.0770 F     1 <1>  -0.1900 
 20 H        2.2890     0.9800    -1.0190 H     1 <1>   0.0800 
 21 H        2.1590     0.6930     0.6980 H     1 <1>   0.0800 
 22 H       -0.1840    -2.1130    -0.8320 H     1 <1>   0.0800 
 23 H        1.1960    -1.8420     0.1920 H     1 <1>   0.0800 
 24 H        1.3080    -1.5470    -1.5260 H     1 <1>   0.0800 
 25 H        0.7500     2.7230     0.9140 H     1 <1>   0.0800 
 26 H        0.8450     2.9360    -0.8150 H     1 <1>   0.0800 
 27 H        1.8070     5.1960     0.6640 H     1 <1>   0.0800 
 28 H        1.9240     4.8450    -1.0440 H     1 <1>   0.0800 
 29 H        3.4030     2.1170     1.7600 H     1 <1>   0.0800 
 30 H        2.5190     3.5310     2.2960 H     1 <1>   0.0800 
 31 H        4.1340     3.6880     1.6430 H     1 <1>   0.0800 
 32 H        4.7680     4.0100    -1.3570 H     1 <1>   0.2700 
 33 H        3.5790     7.3060     0.9830 H     1 <1>   0.1500 
 34 H        7.4190     4.8300    -1.9540 H     1 <1>   0.1500 
 35 H        6.1330     8.7260     0.8460 H     1 <1>   0.1500 
 36 H        9.0550     6.6570    -1.4890 H     1 <1>   0.1500 
@<TRIPOS>BOND
  1   1   2  2   
  2   1   3  2   
  3   1   4  1   
  4   1   5  1   
  5   4   6  1   
  6   4  20  1   
  7   4  21  1   
  8   5  22  1   
  9   5  23  1   
 10   5  24  1   
 11   6   7  1   
 12   6  25  1   
 13   6  26  1   
 14   7   8  1   
 15   7   9  1   
 16   8  10  1   
 17   8  27  1   
 18   8  28  1   
 19   9  29  1   
 20   9  30  1   
 21   9  31  1   
 22  10  11  1   
 23  10  12  2   
 24  11  13  1   
 25  11  32  1   
 26  12  14  1   
 27  12  33  1   
 28  13  14  ar  
 29  13  15  ar  
 30  14  16  ar  
 31  15  17  ar  
 32  15  34  1   
 33  16  18  ar  
 34  16  35  1   
 35  17  18  ar  
 36  17  36  1   
 37  18  19  1   
@<TRIPOS>SUBSTRUCTURE
  1 ****  10 GROUP 4 **** **** 0

# MOE 2024.06 (io_trps.svl 2023.06)
