@<TRIPOS>MOLECULE
NONAME
56 59 1 0 0 
SMALL
USER_CHARGES


@<TRIPOS>ATOM
  1 O        0.5670    -0.2940    -0.7510 O.3   1 <1>  -0.5600 
  2 C        1.6630    -0.8390    -0.0500 C.3   1 <1>   0.4240 
  3 C       -0.7080    -0.7190    -0.3830 C.3   1 <1>   0.1200 
  4 C        1.4560    -2.3390     0.2570 C.ar  1 <1>  -0.1440 
  5 C        1.8550    -0.0340     1.2450 C.3   1 <1>  -0.1600 
  6 C        2.8710    -0.6480    -0.9750 C.3   1 <1>  -0.1600 
  7 C       -0.8500    -2.1990    -0.7230 C.3   1 <1>  -0.0160 
  8 C        0.2670    -2.9850    -0.0650 C.ar  1 <1>  -0.1440 
  9 C        2.4630    -3.0740     0.8740 C.ar  1 <1>  -0.1500 
 10 C        2.1370     1.4400     0.9600 C.3   1 <1>   0.2090 
 11 C        3.1760     0.8290    -1.2290 C.3   1 <1>   0.2090 
 12 C        0.0950    -4.3320     0.2110 C.ar  1 <1>  -0.1500 
 13 C        2.2920    -4.4170     1.1530 C.ar  1 <1>  -0.1500 
 14 N        3.3060     1.5590     0.0570 N.pl3 1 <1>  -0.8380 
 15 C        1.1110    -5.0580     0.8240 C.ar  1 <1>   0.0830 
 16 C        4.5520     1.7510     0.6070 C.ar  1 <1>   0.4100 
 17 O        1.0240    -6.3770     1.1290 O.3   1 <1>  -0.3630 
 18 N        5.2300     0.6700     0.9340 N.ar  1 <1>  -0.6200 
 19 C        5.0740     3.0210     0.8200 C.ar  1 <1>  -0.1430 
 20 C       -0.1280    -7.1270     0.8160 C.3   1 <1>   0.0400 
 21 C        6.4150     0.8690     1.4700 C.ar  1 <1>   0.4770 
 22 C        6.3200     3.0900     1.3870 C.ar  1 <1>   0.1600 
 23 C        4.3230     4.2930     0.4400 C.3   1 <1>  -0.0170 
 24 N        7.0110     2.0200     1.7240 N.ar  1 <1>  -0.6200 
 25 C        7.1820    -0.3750     1.8440 C.3   1 <1>  -0.0970 
 26 C        4.5500     4.6340    -1.0370 C.3   1 <1>  -0.1600 
 27 C        3.8140     5.9160    -1.4390 C.3   1 <1>  -0.2400 
 28 H       -1.4230    -0.1350    -0.9360 H     1 <1>   0.0800 
 29 H       -0.8490    -0.5470     0.6690 H     1 <1>   0.0800 
 30 H        2.6910    -0.4290     1.7910 H     1 <1>   0.0800 
 31 H        0.9930    -0.1310     1.8750 H     1 <1>   0.0800 
 32 H        2.6860    -1.1490    -1.9070 H     1 <1>   0.0800 
 33 H        3.7440    -1.0940    -0.5390 H     1 <1>   0.0800 
 34 H       -0.8050    -2.3270    -1.7890 H     1 <1>   0.0800 
 35 H       -1.8060    -2.5500    -0.3780 H     1 <1>   0.0800 
 36 H        3.3930    -2.6040     1.1430 H     1 <1>   0.1500 
 37 H        2.3400     1.9560     1.8830 H     1 <1>   0.0800 
 38 H        1.2830     1.8990     0.4930 H     1 <1>   0.0800 
 39 H        2.3830     1.2730    -1.8060 H     1 <1>   0.0800 
 40 H        4.0920     0.9190    -1.7880 H     1 <1>   0.0800 
 41 H       -0.8310    -4.8030    -0.0540 H     1 <1>   0.1500 
 42 H        3.0760    -4.9780     1.6280 H     1 <1>   0.1500 
 43 H        0.0350    -8.1390     1.1400 H     1 <1>   0.0800 
 44 H       -0.2810    -7.1040    -0.2480 H     1 <1>   0.0800 
 45 H       -0.9700    -6.7070     1.3370 H     1 <1>   0.0800 
 46 H        6.7760     4.0480     1.5720 H     1 <1>   0.1500 
 47 H        4.6600     5.1090     1.0540 H     1 <1>   0.0800 
 48 H        3.2710     4.1630     0.6240 H     1 <1>   0.0800 
 49 H        7.0720    -1.1150     1.0740 H     1 <1>   0.0800 
 50 H        6.7950    -0.7640     2.7670 H     1 <1>   0.0800 
 51 H        8.2250    -0.1500     1.9660 H     1 <1>   0.0800 
 52 H        4.1980     3.8170    -1.6450 H     1 <1>   0.0800 
 53 H        5.6040     4.7530    -1.2210 H     1 <1>   0.0800 
 54 H        2.7540     5.8040    -1.2860 H     1 <1>   0.0800 
 55 H        3.9880     6.1280    -2.4790 H     1 <1>   0.0800 
 56 H        4.1630     6.7510    -0.8570 H     1 <1>   0.0800 
@<TRIPOS>BOND
  1   1   2  1   
  2   1   3  1   
  3   2   4  1   
  4   2   5  1   
  5   2   6  1   
  6   3   7  1   
  7   3  28  1   
  8   3  29  1   
  9   4   8  ar  
 10   4   9  ar  
 11   5  10  1   
 12   5  30  1   
 13   5  31  1   
 14   6  11  1   
 15   6  32  1   
 16   6  33  1   
 17   7   8  1   
 18   7  34  1   
 19   7  35  1   
 20   8  12  ar  
 21   9  13  ar  
 22   9  36  1   
 23  10  14  1   
 24  10  37  1   
 25  10  38  1   
 26  11  14  1   
 27  11  39  1   
 28  11  40  1   
 29  12  15  ar  
 30  12  41  1   
 31  13  15  ar  
 32  13  42  1   
 33  14  16  1   
 34  15  17  1   
 35  16  18  ar  
 36  16  19  ar  
 37  17  20  1   
 38  18  21  ar  
 39  19  22  ar  
 40  19  23  1   
 41  20  43  1   
 42  20  44  1   
 43  20  45  1   
 44  21  24  ar  
 45  21  25  1   
 46  22  24  ar  
 47  22  46  1   
 48  23  26  1   
 49  23  47  1   
 50  23  48  1   
 51  25  49  1   
 52  25  50  1   
 53  25  51  1   
 54  26  27  1   
 55  26  52  1   
 56  26  53  1   
 57  27  54  1   
 58  27  55  1   
 59  27  56  1   
@<TRIPOS>SUBSTRUCTURE
  1 ****   2 GROUP 4 **** **** 0

# MOE 2024.06 (io_trps.svl 2023.06)
