@<TRIPOS>MOLECULE
NONAME
44 45 1 0 0 
SMALL
USER_CHARGES


@<TRIPOS>ATOM
  1 CL      -3.0630    -0.7090     2.8600 Cl    1 <1>  -0.1770 
  2 C       -2.7840     0.3320     1.4800 C.ar  1 <1>   0.1770 
  3 C       -2.6780     1.7020     1.6820 C.ar  1 <1>   0.0830 
  4 C       -2.6520    -0.2180     0.2150 C.ar  1 <1>  -0.1440 
  5 O       -2.8370     2.2340     2.9070 O.3   1 <1>  -0.5320 
  6 C       -2.4100     2.5330     0.6090 C.ar  1 <1>  -0.1500 
  7 C       -2.3770     0.6240    -0.8560 C.ar  1 <1>  -0.1500 
  8 C       -2.8070    -1.7140     0.0220 C.3   1 <1>   0.4860 
  9 C       -2.2560     1.9920    -0.6570 C.ar  1 <1>  -0.1500 
 10 N       -4.2360    -2.0620    -0.1070 N.4   1 <1>  -0.9590 
 11 C       -4.4880    -3.5480    -0.0460 C.3   1 <1>   0.3430 
 12 C       -4.9670    -1.4060    -1.2220 C.3   1 <1>   0.3430 
 13 C       -5.9150    -3.9420    -0.5080 C.3   1 <1>   0.2000 
 14 C       -6.4870    -1.5460    -1.0210 C.3   1 <1>  -0.1600 
 15 O       -5.8930    -4.1910    -1.8820 O.3   1 <1>  -0.6800 
 16 C       -6.9120    -2.8040    -0.1950 C.3   1 <1>  -0.1060 
 17 C       -6.7320    -2.5850     1.3180 C.2   1 <1>   0.9060 
 18 C       -8.3720    -3.2190    -0.5310 C.3   1 <1>  -0.1600 
 19 O       -6.1650    -1.5550     1.7120 O.co2 1 <1>  -0.9000 
 20 O       -6.9270    -3.5380     2.0710 O.co2 1 <1>  -0.9000 
 21 C       -9.4170    -2.1580    -0.1490 C.3   1 <1>  -0.1600 
 22 C      -10.8320    -2.6370    -0.4840 C.3   1 <1>  -0.2400 
 23 H       -3.1260     1.5670     3.5630 H     1 <1>   0.4500 
 24 H       -2.3240     3.5930     0.7700 H     1 <1>   0.1500 
 25 H       -2.2540     0.2290    -1.8500 H     1 <1>   0.1500 
 26 H       -2.3880    -2.2260     0.8730 H     1 <1>   0.0800 
 27 H       -2.2730    -2.0260    -0.8590 H     1 <1>   0.0800 
 28 H       -2.0440     2.6420    -1.4900 H     1 <1>   0.1500 
 29 H       -4.7280    -1.6870     0.7510 H     1 <1>   0.4500 
 30 H       -3.7740    -4.0830    -0.6490 H     1 <1>   0.0800 
 31 H       -4.3750    -3.8660     0.9780 H     1 <1>   0.0800 
 32 H       -4.7170    -0.3590    -1.2760 H     1 <1>   0.0800 
 33 H       -4.6890    -1.8770    -2.1500 H     1 <1>   0.0800 
 34 H       -6.2080    -4.8550    -0.0160 H     1 <1>   0.0800 
 35 H       -6.8580    -0.6560    -0.5400 H     1 <1>   0.0800 
 36 H       -6.9370    -1.5770    -1.9970 H     1 <1>   0.0800 
 37 H       -6.7840    -4.4780    -2.1680 H     1 <1>   0.4000 
 38 H       -8.4630    -3.4300    -1.5820 H     1 <1>   0.0800 
 39 H       -8.6010    -4.1250     0.0060 H     1 <1>   0.0800 
 40 H       -9.3590    -1.9550     0.9080 H     1 <1>   0.0800 
 41 H       -9.2270    -1.2380    -0.6740 H     1 <1>   0.0800 
 42 H      -11.0560    -3.5400     0.0570 H     1 <1>   0.0800 
 43 H      -10.9280    -2.8280    -1.5380 H     1 <1>   0.0800 
 44 H      -11.5480    -1.8860    -0.2030 H     1 <1>   0.0800 
@<TRIPOS>BOND
  1   1   2  1   
  2   2   3  ar  
  3   2   4  ar  
  4   3   5  1   
  5   3   6  ar  
  6   4   7  ar  
  7   4   8  1   
  8   5  23  1   
  9   6   9  ar  
 10   6  24  1   
 11   7   9  ar  
 12   7  25  1   
 13   8  10  1   
 14   8  26  1   
 15   8  27  1   
 16   9  28  1   
 17  10  11  1   
 18  10  12  1   
 19  10  29  1   
 20  11  13  1   
 21  11  30  1   
 22  11  31  1   
 23  12  14  1   
 24  12  32  1   
 25  12  33  1   
 26  13  15  1   
 27  13  16  1   
 28  13  34  1   
 29  14  16  1   
 30  14  35  1   
 31  14  36  1   
 32  15  37  1   
 33  16  17  1   
 34  16  18  1   
 35  17  19  ar  
 36  17  20  ar  
 37  18  21  1   
 38  18  38  1   
 39  18  39  1   
 40  21  22  1   
 41  21  40  1   
 42  21  41  1   
 43  22  42  1   
 44  22  43  1   
 45  22  44  1   
@<TRIPOS>SUBSTRUCTURE
  1 ****  10 GROUP 4 **** **** 0

# MOE 2024.06 (io_trps.svl 2023.06)
