@<TRIPOS>MOLECULE
NONAME
49 51 1 0 0 
SMALL
USER_CHARGES


@<TRIPOS>ATOM
  1 O       -0.3030     0.5510    -1.1750 O.2   1 <1>  -0.5700 
  2 C       -0.1710     1.6210    -0.6270 C.2   1 <1>   0.5690 
  3 N       -1.2340     2.3700    -0.1880 N.am  1 <1>  -0.5090 
  4 C        1.2590     2.1530    -0.4690 C.3   1 <1>   0.1810 
  5 C       -1.0270     3.7420     0.3710 C.3   1 <1>   0.3640 
  6 C       -2.6290     1.8650    -0.1930 C.3   1 <1>   0.0490 
  7 O        1.3620     3.3000     0.3440 O.3   1 <1>  -0.5600 
  8 C       -2.0760     4.7240    -0.1630 C.ar  1 <1>  -0.1440 
  9 C        0.3870     4.2800     0.0630 C.3   1 <1>   0.2610 
 10 C       -3.3710     1.7950     1.1060 C.3   1 <1>  -0.2000 
 11 C       -2.9390     0.5380     0.4240 C.3   1 <1>  -0.2000 
 12 C       -2.2450     4.9330    -1.5260 C.ar  1 <1>  -0.1500 
 13 C       -2.8620     5.4410     0.7300 C.ar  1 <1>  -0.1500 
 14 C        0.6550     5.5970     0.8100 C.2   1 <1>   0.5690 
 15 C       -3.1690     5.8550    -1.9820 C.ar  1 <1>  -0.1500 
 16 C       -3.7900     6.3600     0.2760 C.ar  1 <1>  -0.1500 
 17 O        0.0350     5.8350     1.8250 O.2   1 <1>  -0.5700 
 18 N        1.5150     6.5330     0.2890 N.am  1 <1>  -0.6600 
 19 C       -3.9420     6.5780    -1.0900 C.ar  1 <1>   0.0820 
 20 C        1.3940     7.9690     0.7190 C.3   1 <1>   0.2010 
 21 C        2.4480     6.2970    -0.8470 C.3   1 <1>   0.0600 
 22 O       -4.8130     7.4720    -1.6190 O.3   1 <1>  -0.3620 
 23 C        0.2800     8.7000    -0.0340 C.2   1 <1>   0.5690 
 24 C       -5.6880     8.2190    -0.8020 C.3   1 <1>   0.0400 
 25 O        0.5470     9.6590    -0.7130 O.2   1 <1>  -0.5700 
 26 N       -0.9920     8.2560     0.0420 N.am  1 <1>  -0.8000 
 27 H        1.6550     2.3910    -1.4390 H     1 <1>   0.0800 
 28 H        1.8720     1.3870    -0.0280 H     1 <1>   0.0800 
 29 H       -1.1290     3.6700     1.4400 H     1 <1>   0.0800 
 30 H       -3.1710     2.1530    -1.0790 H     1 <1>   0.1000 
 31 H        0.4410     4.4950    -0.9880 H     1 <1>   0.0800 
 32 H       -2.8780     2.0640     2.0230 H     1 <1>   0.1000 
 33 H       -4.4200     2.0330     1.1130 H     1 <1>   0.1000 
 34 H       -3.6840    -0.0800    -0.0430 H     1 <1>   0.1000 
 35 H       -2.1290    -0.0360     0.8400 H     1 <1>   0.1000 
 36 H       -1.6620     4.3770    -2.2410 H     1 <1>   0.1500 
 37 H       -2.7490     5.2890     1.7910 H     1 <1>   0.1500 
 38 H       -3.2980     6.0210    -3.0370 H     1 <1>   0.1500 
 39 H       -4.3790     6.8960     0.9960 H     1 <1>   0.1500 
 40 H        1.1830     8.0190     1.7730 H     1 <1>   0.0800 
 41 H        2.3240     8.4810     0.5500 H     1 <1>   0.0800 
 42 H        3.3830     6.7970    -0.6590 H     1 <1>   0.0800 
 43 H        2.0220     6.6850    -1.7570 H     1 <1>   0.0800 
 44 H        2.6510     5.2470    -0.9660 H     1 <1>   0.0800 
 45 H       -6.2920     8.8390    -1.4400 H     1 <1>   0.0800 
 46 H       -5.1080     8.8340    -0.1380 H     1 <1>   0.0800 
 47 H       -6.3160     7.5410    -0.2520 H     1 <1>   0.0800 
 48 H       -1.7260     8.6790    -0.5260 H     1 <1>   0.3700 
 49 H       -1.2520     7.4130     0.5640 H     1 <1>   0.3700 
@<TRIPOS>BOND
  1   1   2  2   
  2   2   3  am  
  3   2   4  1   
  4   3   5  1   
  5   3   6  1   
  6   4   7  1   
  7   4  27  1   
  8   4  28  1   
  9   5   8  1   
 10   5   9  1   
 11   5  29  1   
 12   6  10  1   
 13   6  11  1   
 14   6  30  1   
 15   7   9  1   
 16   8  12  ar  
 17   8  13  ar  
 18   9  14  1   
 19   9  31  1   
 20  10  11  1   
 21  10  32  1   
 22  10  33  1   
 23  11  34  1   
 24  11  35  1   
 25  12  15  ar  
 26  12  36  1   
 27  13  16  ar  
 28  13  37  1   
 29  14  17  2   
 30  14  18  am  
 31  15  19  ar  
 32  15  38  1   
 33  16  19  ar  
 34  16  39  1   
 35  18  20  1   
 36  18  21  1   
 37  19  22  1   
 38  20  23  1   
 39  20  40  1   
 40  20  41  1   
 41  21  42  1   
 42  21  43  1   
 43  21  44  1   
 44  22  24  1   
 45  23  25  2   
 46  23  26  am  
 47  24  45  1   
 48  24  46  1   
 49  24  47  1   
 50  26  48  1   
 51  26  49  1   
@<TRIPOS>SUBSTRUCTURE
  1 ****   8 GROUP 4 **** **** 0

# MOE 2024.06 (io_trps.svl 2023.06)
