@<TRIPOS>MOLECULE
NONAME
38 41 1 0 0 
SMALL
USER_CHARGES


@<TRIPOS>ATOM
  1 S        0.5490    -0.1340    -0.3340 S.3   1 <1>  -0.0800 
  2 C        0.6220     1.4520     0.3710 C.2   1 <1>   0.4620 
  3 C       -1.1150    -0.2110     0.1560 C.2   1 <1>   0.1980 
  4 N       -0.5090     1.7960     0.8840 N.2   1 <1>  -0.3380 
  5 N        1.7950     2.1780     0.3370 N.pl3 1 <1>  -0.8220 
  6 N       -1.4870     0.8520     0.7590 N.2   1 <1>  -0.3380 
  7 C       -1.8860    -1.4890    -0.1860 C.3   1 <1>   1.2000 
  8 C        1.8900     3.5290     0.9750 C.3   1 <1>   0.2090 
  9 C        3.0550     1.7810    -0.3760 C.3   1 <1>   0.2090 
 10 F       -1.3470    -2.5700     0.3730 F     1 <1>  -0.3400 
 11 F       -3.1560    -1.4670     0.2070 F     1 <1>  -0.3400 
 12 F       -1.9100    -1.7280    -1.4940 F     1 <1>  -0.3400 
 13 C        2.3180     4.6060    -0.0410 C.3   1 <1>   0.2090 
 14 C        3.4880     2.8580    -1.3910 C.3   1 <1>   0.2090 
 15 N        3.5690     4.2190    -0.7680 N.pl3 1 <1>  -0.8380 
 16 C        4.7770     4.6970    -0.3110 C.ar  1 <1>   0.4100 
 17 N        5.6230     3.8220     0.2060 N.ar  1 <1>  -0.6200 
 18 C        5.0960     6.0530    -0.3680 C.ar  1 <1>   0.0000 
 19 C        6.7640     4.3030     0.6810 C.ar  1 <1>   0.4770 
 20 C        6.3130     6.3860     0.1710 C.ar  1 <1>   0.2970 
 21 C        4.3860     7.1870    -0.9000 C.2   1 <1>  -0.1500 
 22 N        7.1780     5.5540     0.7070 N.ar  1 <1>  -0.5670 
 23 C        7.7030     3.2760     1.2680 C.3   1 <1>  -0.0970 
 24 S        6.5820     8.1250     0.0470 S.3   1 <1>  -0.0800 
 25 C        5.0290     8.3600    -0.7600 C.2   1 <1>  -0.1100 
 26 H        2.6180     3.4910     1.7670 H     1 <1>   0.0800 
 27 H        0.9470     3.8100     1.4100 H     1 <1>   0.0800 
 28 H        2.9350     0.8470    -0.8920 H     1 <1>   0.0800 
 29 H        3.8410     1.6550     0.3490 H     1 <1>   0.0800 
 30 H        2.4680     5.5350     0.4790 H     1 <1>   0.0800 
 31 H        1.5250     4.7490    -0.7550 H     1 <1>   0.0800 
 32 H        2.7790     2.8850    -2.1980 H     1 <1>   0.0800 
 33 H        4.4450     2.5920    -1.8050 H     1 <1>   0.0800 
 34 H        3.4270     7.0460    -1.3670 H     1 <1>   0.1500 
 35 H        7.2130     2.7640     2.0750 H     1 <1>   0.0800 
 36 H        8.5940     3.7450     1.6410 H     1 <1>   0.0800 
 37 H        7.9720     2.5640     0.5110 H     1 <1>   0.0800 
 38 H        4.7730     9.3650    -1.0460 H     1 <1>   0.1500 
@<TRIPOS>BOND
  1   1   2  1   
  2   1   3  1   
  3   2   4  2   
  4   2   5  1   
  5   3   6  2   
  6   3   7  1   
  7   4   6  1   
  8   5   8  1   
  9   5   9  1   
 10   7  10  1   
 11   7  11  1   
 12   7  12  1   
 13   8  13  1   
 14   8  26  1   
 15   8  27  1   
 16   9  14  1   
 17   9  28  1   
 18   9  29  1   
 19  13  15  1   
 20  13  30  1   
 21  13  31  1   
 22  14  15  1   
 23  14  32  1   
 24  14  33  1   
 25  15  16  1   
 26  16  17  ar  
 27  16  18  ar  
 28  17  19  ar  
 29  18  20  ar  
 30  18  21  1   
 31  19  22  ar  
 32  19  23  1   
 33  20  22  ar  
 34  20  24  1   
 35  21  25  2   
 36  21  34  1   
 37  23  35  1   
 38  23  36  1   
 39  23  37  1   
 40  24  25  1   
 41  25  38  1   
@<TRIPOS>SUBSTRUCTURE
  1 ****   5 GROUP 4 **** **** 0

# MOE 2024.06 (io_trps.svl 2023.06)
