@<TRIPOS>MOLECULE
NONAME
49 50 1 0 0 
SMALL
USER_CHARGES


@<TRIPOS>ATOM
  1 S        2.6300     2.3980    -1.7260 S.o2  1 <1>   1.3330 
  2 O        2.3350     1.4400    -2.7670 O.2   1 <1>  -0.6500 
  3 O        2.8540     3.7840    -2.0770 O.2   1 <1>  -0.6500 
  4 N        1.3470     2.3600    -0.6130 N.am  1 <1>  -0.8490 
  5 C        4.0490     1.7960    -0.8120 C.3   1 <1>  -0.0550 
  6 C        1.4130     3.4230     0.3990 C.3   1 <1>   0.1160 
  7 C        0.0450     2.3950    -1.2840 C.3   1 <1>   0.1160 
  8 C        3.9450     0.3510    -0.2750 C.3   1 <1>  -0.0800 
  9 C        5.2390    -0.1920     0.3200 C.3   1 <1>   0.2200 
 10 C        2.9470     0.1700     0.8750 C.3   1 <1>   0.1200 
 11 N        5.9370     0.8640     1.0930 N.am  1 <1>  -0.7300 
 12 C        4.7070    -1.2590     1.2660 C.3   1 <1>   0.1200 
 13 O        3.5000    -0.7620     1.7570 O.3   1 <1>  -0.5600 
 14 C        7.0700     1.4920     0.6930 C.2   1 <1>   0.5690 
 15 O        7.7300     1.0920    -0.2350 O.2   1 <1>  -0.5700 
 16 C        7.4670     2.7850     1.3730 C.3   1 <1>   0.0390 
 17 C        6.4860     3.8780     0.9430 C.2   1 <1>  -0.1240 
 18 C        5.2870     4.0250     1.7080 C.2   1 <1>   0.7670 
 19 C        6.6580     4.6580    -0.1550 C.2   1 <1>  -0.0380 
 20 O        5.0290     3.2700     2.6360 O.2   1 <1>  -0.5700 
 21 N        4.3390     4.9500     1.3710 N.2   1 <1>  -0.6610 
 22 N        5.6670     5.5540    -0.4390 N.pl3 1 <1>  -0.5500 
 23 C        7.8170     4.6260    -1.1390 C.3   1 <1>  -0.1020 
 24 C        4.5510     5.6630     0.3310 C.2   1 <1>   0.4390 
 25 C        3.5280     6.6820    -0.1040 C.3   1 <1>  -0.1790 
 26 H        4.9070     1.8530    -1.4540 H     1 <1>   0.0800 
 27 H        4.2200     2.4590     0.0050 H     1 <1>   0.0800 
 28 H        0.5900     3.3310     1.0870 H     1 <1>   0.0800 
 29 H        1.3740     4.3940    -0.0660 H     1 <1>   0.0800 
 30 H        2.3250     3.3440     0.9630 H     1 <1>   0.0800 
 31 H       -0.7490     2.3400    -0.5600 H     1 <1>   0.0800 
 32 H       -0.0490     1.5540    -1.9500 H     1 <1>   0.0800 
 33 H       -0.0570     3.3020    -1.8560 H     1 <1>   0.0800 
 34 H        3.6440    -0.2980    -1.0790 H     1 <1>   0.0800 
 35 H        5.8940    -0.6100    -0.4270 H     1 <1>   0.0800 
 36 H        1.9950    -0.1950     0.5280 H     1 <1>   0.0800 
 37 H        2.8060     1.0820     1.4270 H     1 <1>   0.0800 
 38 H        5.3990     1.2400     1.8880 H     1 <1>   0.3700 
 39 H        5.3760    -1.4620     2.0830 H     1 <1>   0.0800 
 40 H        4.4920    -2.1670     0.7300 H     1 <1>   0.0800 
 41 H        7.4550     2.6480     2.4390 H     1 <1>   0.0800 
 42 H        8.4740     3.0370     1.1020 H     1 <1>   0.0800 
 43 H        5.7260     6.1390    -1.2760 H     1 <1>   0.4000 
 44 H        7.4400     4.5400    -2.1430 H     1 <1>   0.0800 
 45 H        8.4730     3.7930    -0.9700 H     1 <1>   0.0800 
 46 H        8.3890     5.5340    -1.0620 H     1 <1>   0.0800 
 47 H        3.9770     7.6560    -0.1540 H     1 <1>   0.0800 
 48 H        2.7150     6.7120     0.5970 H     1 <1>   0.0800 
 49 H        3.1400     6.4150    -1.0710 H     1 <1>   0.0800 
@<TRIPOS>BOND
  1   1   2  2   
  2   1   3  2   
  3   1   4  am  
  4   1   5  1   
  5   4   6  1   
  6   4   7  1   
  7   5   8  1   
  8   5  26  1   
  9   5  27  1   
 10   6  28  1   
 11   6  29  1   
 12   6  30  1   
 13   7  31  1   
 14   7  32  1   
 15   7  33  1   
 16   8   9  1   
 17   8  10  1   
 18   8  34  1   
 19   9  11  1   
 20   9  12  1   
 21   9  35  1   
 22  10  13  1   
 23  10  36  1   
 24  10  37  1   
 25  11  14  am  
 26  11  38  1   
 27  12  13  1   
 28  12  39  1   
 29  12  40  1   
 30  14  15  2   
 31  14  16  1   
 32  16  17  1   
 33  16  41  1   
 34  16  42  1   
 35  17  18  1   
 36  17  19  2   
 37  18  20  2   
 38  18  21  1   
 39  19  22  1   
 40  19  23  1   
 41  21  24  2   
 42  22  24  1   
 43  22  43  1   
 44  23  44  1   
 45  23  45  1   
 46  23  46  1   
 47  24  25  1   
 48  25  47  1   
 49  25  48  1   
 50  25  49  1   
@<TRIPOS>SUBSTRUCTURE
  1 ****   5 GROUP 4 **** **** 0

# MOE 2024.06 (io_trps.svl 2023.06)
