@<TRIPOS>MOLECULE
NONAME
41 42 1 0 0 
SMALL
USER_CHARGES


@<TRIPOS>ATOM
  1 CL      -1.7970     0.0680    -2.1230 Cl    1 <1>  -0.1770 
  2 C       -2.2260    -1.0120    -0.8230 C.ar  1 <1>   0.1770 
  3 C       -1.8500    -0.6940     0.4660 C.ar  1 <1>  -0.1500 
  4 C       -2.9330    -2.1670    -1.1060 C.ar  1 <1>  -0.1500 
  5 C       -2.2120    -1.5770     1.4620 C.ar  1 <1>   0.1900 
  6 C       -3.2950    -3.0630    -0.0950 C.ar  1 <1>   0.0860 
  7 F       -1.8740    -1.3040     2.6920 F     1 <1>  -0.1900 
  8 C       -2.9190    -2.7370     1.2120 C.ar  1 <1>  -0.1500 
  9 C       -4.0320    -4.2760    -0.4100 C.2   1 <1>   0.5440 
 10 O       -4.6780    -4.3590    -1.4360 O.2   1 <1>  -0.5700 
 11 N       -4.0280    -5.3480     0.4330 N.am  1 <1>  -0.7300 
 12 C       -4.7290    -6.6270     0.1710 C.3   1 <1>   0.2200 
 13 C       -6.1800    -6.5100     0.6460 C.3   1 <1>  -0.0800 
 14 C       -4.1620    -7.7270     1.0640 C.3   1 <1>   0.1200 
 15 C       -6.2500    -7.4540     1.8540 C.3   1 <1>   0.1200 
 16 C       -7.2180    -6.7300    -0.4800 C.3   1 <1>  -0.0550 
 17 O       -4.9270    -7.6700     2.2240 O.3   1 <1>  -0.5600 
 18 S       -7.3310    -8.3680    -1.2190 S.o2  1 <1>   1.3330 
 19 O       -6.0100    -8.9540    -1.2800 O.2   1 <1>  -0.6500 
 20 O       -8.1260    -8.2840    -2.4230 O.2   1 <1>  -0.6500 
 21 N       -8.2440    -9.2530    -0.0910 N.am  1 <1>  -0.8490 
 22 C       -9.6930    -9.0670    -0.2360 C.3   1 <1>   0.1160 
 23 C       -7.9250   -10.6840    -0.1180 C.3   1 <1>   0.1160 
 24 H       -1.3000     0.2030     0.6840 H     1 <1>   0.1500 
 25 H       -3.2090    -2.3770    -2.1250 H     1 <1>   0.1500 
 26 H       -3.1760    -3.3740     2.0370 H     1 <1>   0.1500 
 27 H       -3.5780    -5.3010     1.3480 H     1 <1>   0.3700 
 28 H       -4.6340    -6.8850    -0.8710 H     1 <1>   0.0800 
 29 H       -6.3460    -5.5150     1.0200 H     1 <1>   0.0800 
 30 H       -3.1230    -7.5870     1.3020 H     1 <1>   0.0800 
 31 H       -4.3080    -8.6960     0.6170 H     1 <1>   0.0800 
 32 H       -6.6710    -8.4120     1.6170 H     1 <1>   0.0800 
 33 H       -6.7780    -7.0210     2.6850 H     1 <1>   0.0800 
 34 H       -6.9790    -6.0330    -1.2620 H     1 <1>   0.0800 
 35 H       -8.1850    -6.4540    -0.1100 H     1 <1>   0.0800 
 36 H      -10.2120    -9.5700     0.5610 H     1 <1>   0.0800 
 37 H      -10.0310    -9.4630    -1.1800 H     1 <1>   0.0800 
 38 H       -9.9400    -8.0200    -0.1950 H     1 <1>   0.0800 
 39 H       -8.5140   -11.2130     0.6110 H     1 <1>   0.0800 
 40 H       -6.8850   -10.8350     0.1170 H     1 <1>   0.0800 
 41 H       -8.1210   -11.0920    -1.0970 H     1 <1>   0.0800 
@<TRIPOS>BOND
  1   1   2  1   
  2   2   3  ar  
  3   2   4  ar  
  4   3   5  ar  
  5   3  24  1   
  6   4   6  ar  
  7   4  25  1   
  8   5   7  1   
  9   5   8  ar  
 10   6   8  ar  
 11   6   9  1   
 12   8  26  1   
 13   9  10  2   
 14   9  11  am  
 15  11  12  1   
 16  11  27  1   
 17  12  13  1   
 18  12  14  1   
 19  12  28  1   
 20  13  15  1   
 21  13  16  1   
 22  13  29  1   
 23  14  17  1   
 24  14  30  1   
 25  14  31  1   
 26  15  17  1   
 27  15  32  1   
 28  15  33  1   
 29  16  18  1   
 30  16  34  1   
 31  16  35  1   
 32  18  19  2   
 33  18  20  2   
 34  18  21  am  
 35  21  22  1   
 36  21  23  1   
 37  22  36  1   
 38  22  37  1   
 39  22  38  1   
 40  23  39  1   
 41  23  40  1   
 42  23  41  1   
@<TRIPOS>SUBSTRUCTURE
  1 ****  11 GROUP 4 **** **** 0

# MOE 2024.06 (io_trps.svl 2023.06)
