@<TRIPOS>MOLECULE
NONAME
52 54 1 0 0 
SMALL
USER_CHARGES


@<TRIPOS>ATOM
  1 F       -0.4320    -1.3470    -1.6420 F     1 <1>  -0.1900 
  2 C       -1.0140    -2.3360    -1.0120 C.ar  1 <1>   0.1900 
  3 C       -0.4160    -2.9760     0.0790 C.ar  1 <1>   0.0820 
  4 C       -2.2520    -2.7230    -1.4870 C.ar  1 <1>  -0.1500 
  5 O        0.7960    -2.6860     0.6370 O.3   1 <1>  -0.3630 
  6 C       -1.1100    -4.0180     0.6720 C.ar  1 <1>  -0.1500 
  7 C       -2.9150    -3.7690    -0.8720 C.ar  1 <1>  -0.1500 
  8 C        1.5870    -1.5920     0.2300 C.3   1 <1>   0.0400 
  9 C       -2.3640    -4.4390     0.2210 C.ar  1 <1>   0.0530 
 10 C       -3.0400    -5.5430     0.8610 C.2   1 <1>   0.0870 
 11 O       -2.3220    -6.5310     1.3470 O.3   1 <1>  -0.0190 
 12 C       -4.3450    -5.8570     1.0900 C.2   1 <1>  -0.2330 
 13 N       -3.0490    -7.4820     1.8710 N.2   1 <1>  -0.4100 
 14 C       -4.2650    -7.0910     1.7320 C.2   1 <1>   0.3720 
 15 C       -5.5770    -5.1870     0.7950 C.2   1 <1>   1.0330 
 16 N       -5.3660    -7.8190     2.1520 N.pl3 1 <1>  -0.8520 
 17 O       -5.6000    -3.9870     0.4850 O.co2 1 <1>  -0.9000 
 18 O       -6.6570    -5.8100     0.8280 O.co2 1 <1>  -0.9000 
 19 C       -5.4390    -9.1820     1.6070 C.3   1 <1>   0.2090 
 20 C       -6.8940    -9.6590     1.6070 C.3   1 <1>  -0.0800 
 21 C       -7.0130   -11.1180     1.1520 C.3   1 <1>   0.1400 
 22 C       -7.8160    -8.8600     0.6690 C.3   1 <1>  -0.0990 
 23 N       -8.2380   -11.1660     0.3230 N.am  1 <1>  -0.6600 
 24 C       -8.7040    -9.9120     0.0650 C.2   1 <1>   0.5690 
 25 C       -8.8080   -12.4420    -0.2000 C.3   1 <1>   0.3000 
 26 O       -9.6930    -9.6270    -0.5670 O.2   1 <1>  -0.5700 
 27 C       -8.7890   -12.4100    -1.7310 C.3   1 <1>  -0.2400 
 28 C       -7.9890   -13.6560     0.2640 C.3   1 <1>  -0.2400 
 29 C      -10.2390   -12.6010     0.3200 C.3   1 <1>  -0.2400 
 30 H       -2.6960    -2.2130    -2.3220 H     1 <1>   0.1500 
 31 H       -0.6650    -4.5170     1.5140 H     1 <1>   0.1500 
 32 H       -3.8810    -4.0690    -1.2400 H     1 <1>   0.1500 
 33 H        2.4540    -1.5520     0.8640 H     1 <1>   0.0800 
 34 H        1.0150    -0.6870     0.3380 H     1 <1>   0.0800 
 35 H        1.8890    -1.7380    -0.7910 H     1 <1>   0.0800 
 36 H       -6.1920    -7.2680     1.8260 H     1 <1>   0.4000 
 37 H       -4.8360    -9.8290     2.2220 H     1 <1>   0.0800 
 38 H       -5.0440    -9.1950     0.6050 H     1 <1>   0.0800 
 39 H       -7.2780    -9.5970     2.6100 H     1 <1>   0.0800 
 40 H       -7.0970   -11.7670     2.0070 H     1 <1>   0.0800 
 41 H       -6.1690   -11.4080     0.5500 H     1 <1>   0.0800 
 42 H       -7.2670    -8.3750    -0.1180 H     1 <1>   0.0800 
 43 H       -8.3910    -8.1260     1.2020 H     1 <1>   0.0800 
 44 H       -7.7880   -12.2460    -2.0880 H     1 <1>   0.0800 
 45 H       -9.4230   -11.6280    -2.1060 H     1 <1>   0.0800 
 46 H       -9.1470   -13.3410    -2.1290 H     1 <1>   0.0800 
 47 H       -6.9740   -13.5900    -0.0840 H     1 <1>   0.0800 
 48 H       -8.4140   -14.5580    -0.1370 H     1 <1>   0.0800 
 49 H       -8.0020   -13.7400     1.3350 H     1 <1>   0.0800 
 50 H      -10.8720   -11.8190    -0.0560 H     1 <1>   0.0800 
 51 H      -10.2500   -12.5720     1.3940 H     1 <1>   0.0800 
 52 H      -10.6510   -13.5390    -0.0020 H     1 <1>   0.0800 
@<TRIPOS>BOND
  1   1   2  1   
  2   2   3  ar  
  3   2   4  ar  
  4   3   5  1   
  5   3   6  ar  
  6   4   7  ar  
  7   4  30  1   
  8   5   8  1   
  9   6   9  ar  
 10   6  31  1   
 11   7   9  ar  
 12   7  32  1   
 13   8  33  1   
 14   8  34  1   
 15   8  35  1   
 16   9  10  1   
 17  10  11  1   
 18  10  12  2   
 19  11  13  1   
 20  12  14  1   
 21  12  15  1   
 22  13  14  2   
 23  14  16  1   
 24  15  17  ar  
 25  15  18  ar  
 26  16  19  1   
 27  16  36  1   
 28  19  20  1   
 29  19  37  1   
 30  19  38  1   
 31  20  21  1   
 32  20  22  1   
 33  20  39  1   
 34  21  23  1   
 35  21  40  1   
 36  21  41  1   
 37  22  24  1   
 38  22  42  1   
 39  22  43  1   
 40  23  24  am  
 41  23  25  1   
 42  24  26  2   
 43  25  27  1   
 44  25  28  1   
 45  25  29  1   
 46  27  44  1   
 47  27  45  1   
 48  27  46  1   
 49  28  47  1   
 50  28  48  1   
 51  28  49  1   
 52  29  50  1   
 53  29  51  1   
 54  29  52  1   
@<TRIPOS>SUBSTRUCTURE
  1 ****  12 GROUP 4 **** **** 0

# MOE 2024.06 (io_trps.svl 2023.06)
