@<TRIPOS>MOLECULE
NONAME
45 47 1 0 0 
SMALL
USER_CHARGES


@<TRIPOS>ATOM
  1 O        1.6980     0.1090     1.0510 O.3   1 <1>  -0.6800 
  2 C        1.8010    -0.3020    -0.2770 C.3   1 <1>   0.2000 
  3 C        2.6280    -1.5860    -0.3690 C.3   1 <1>  -0.0800 
  4 C        2.6750     0.7030    -1.0310 C.3   1 <1>   0.3430 
  5 C        4.0870    -1.1110    -0.3490 C.3   1 <1>   0.3430 
  6 C        2.3400    -2.6580     0.7000 C.3   1 <1>   0.0210 
  7 N        4.0850     0.3430    -0.6870 N.4   1 <1>  -0.9590 
  8 C        3.1980    -3.8900     0.4840 C.2   1 <1>   0.1080 
  9 C        4.5700     1.1460     0.4650 C.3   1 <1>   0.5240 
 10 N        4.4960    -3.8590     0.4990 N.2   1 <1>  -0.7070 
 11 C        2.7050    -5.1690     0.2530 C.2   1 <1>  -0.1500 
 12 C        4.6810     2.5810     0.0030 C.2   1 <1>  -0.1810 
 13 N        4.8680    -5.1400     0.2890 N.pl3 1 <1>   0.3000 
 14 C        3.8000    -5.9480     0.1310 C.2   1 <1>  -0.3320 
 15 C        3.8190     3.6170     0.3540 C.2   1 <1>   0.1080 
 16 C        5.5900     3.1470    -0.8260 C.2   1 <1>  -0.3320 
 17 C        3.8920    -7.4410    -0.1230 C.3   1 <1>  -0.0600 
 18 N        4.1430     4.7280    -0.2200 N.2   1 <1>  -0.7070 
 19 C        2.6260     3.5420     1.2850 C.3   1 <1>  -0.0590 
 20 N        5.2410     4.4470    -0.9400 N.pl3 1 <1>   0.3000 
 21 C        6.8020     2.5600    -1.5330 C.3   1 <1>  -0.0600 
 22 H        0.9890    -0.3830     1.5190 H     1 <1>   0.4000 
 23 H        0.8120    -0.3870    -0.6970 H     1 <1>   0.0800 
 24 H        2.4540    -2.0280    -1.3340 H     1 <1>   0.0800 
 25 H        2.4290     1.7180    -0.7650 H     1 <1>   0.0800 
 26 H        2.5230     0.5730    -2.0890 H     1 <1>   0.0800 
 27 H        4.6700    -1.6810    -1.0550 H     1 <1>   0.0800 
 28 H        4.5020    -1.2690     0.6340 H     1 <1>   0.0800 
 29 H        1.3030    -2.9410     0.6640 H     1 <1>   0.0800 
 30 H        2.5490    -2.2800     1.6850 H     1 <1>   0.0800 
 31 H        4.7040     0.5660    -1.4740 H     1 <1>   0.4500 
 32 H        3.8890     1.0660     1.2960 H     1 <1>   0.0800 
 33 H        5.5400     0.7980     0.7780 H     1 <1>   0.0800 
 34 H        1.6700    -5.4580     0.1930 H     1 <1>   0.1500 
 35 H        5.8530    -5.4350     0.2640 H     1 <1>   0.2700 
 36 H        2.9070    -7.8640    -0.2100 H     1 <1>   0.0800 
 37 H        4.4010    -7.9270     0.6900 H     1 <1>   0.0800 
 38 H        4.4270    -7.6330    -1.0360 H     1 <1>   0.0800 
 39 H        2.7190     2.7280     1.9780 H     1 <1>   0.0800 
 40 H        1.7250     3.4240     0.7130 H     1 <1>   0.0800 
 41 H        2.5550     4.4580     1.8440 H     1 <1>   0.0800 
 42 H        5.7280     5.1680    -1.4900 H     1 <1>   0.2700 
 43 H        6.9370     1.5250    -1.2760 H     1 <1>   0.0800 
 44 H        7.6900     3.0950    -1.2440 H     1 <1>   0.0800 
 45 H        6.6870     2.6390    -2.6000 H     1 <1>   0.0800 
@<TRIPOS>BOND
  1   1   2  1   
  2   1  22  1   
  3   2   3  1   
  4   2   4  1   
  5   2  23  1   
  6   3   5  1   
  7   3   6  1   
  8   3  24  1   
  9   4   7  1   
 10   4  25  1   
 11   4  26  1   
 12   5   7  1   
 13   5  27  1   
 14   5  28  1   
 15   6   8  1   
 16   6  29  1   
 17   6  30  1   
 18   7   9  1   
 19   7  31  1   
 20   8  10  2   
 21   8  11  1   
 22   9  12  1   
 23   9  32  1   
 24   9  33  1   
 25  10  13  1   
 26  11  14  2   
 27  11  34  1   
 28  12  15  1   
 29  12  16  2   
 30  13  14  1   
 31  13  35  1   
 32  14  17  1   
 33  15  18  2   
 34  15  19  1   
 35  16  20  1   
 36  16  21  1   
 37  17  36  1   
 38  17  37  1   
 39  17  38  1   
 40  18  20  1   
 41  19  39  1   
 42  19  40  1   
 43  19  41  1   
 44  20  42  1   
 45  21  43  1   
 46  21  44  1   
 47  21  45  1   
@<TRIPOS>SUBSTRUCTURE
  1 ****   5 GROUP 4 **** **** 0

# MOE 2024.06 (io_trps.svl 2023.06)
