@<TRIPOS>MOLECULE
NONAME
36 36 1 0 0 
SMALL
USER_CHARGES


@<TRIPOS>ATOM
  1 O       -1.2240    -0.7680    -0.3970 O.2   1 <1>  -0.5700 
  2 C       -1.9750     0.1790    -0.2720 C.2   1 <1>   0.5690 
  3 N       -3.1450     0.0430     0.4370 N.am  1 <1>  -0.6600 
  4 C       -1.5720     1.5190    -0.9330 C.3   1 <1>   0.2610 
  5 C       -3.4140    -1.2170     1.1930 C.3   1 <1>   0.3200 
  6 C       -4.3320     0.9410     0.3120 C.3   1 <1>   0.1400 
  7 O       -0.9820     1.2960    -2.1780 O.3   1 <1>  -0.6800 
  8 C       -0.6140     2.3600    -0.0510 C.3   1 <1>  -0.0800 
  9 C       -4.0240    -2.2590     0.2730 C.2   1 <1>   0.0060 
 10 C       -4.2930     2.0420     1.3770 C.3   1 <1>   0.1200 
 11 C       -0.4360     3.7800    -0.6150 C.3   1 <1>  -0.2400 
 12 C        0.7700     1.7180     0.1580 C.3   1 <1>  -0.2400 
 13 N       -5.2090    -2.7670     0.4020 N.2   1 <1>  -0.5650 
 14 N       -3.3400    -2.7420    -0.7850 N.pl3 1 <1>   0.0330 
 15 O       -5.3970     2.8680     1.2310 O.3   1 <1>  -0.6800 
 16 C       -5.3000    -3.6300    -0.6300 C.2   1 <1>   0.0770 
 17 C       -4.1670    -3.6270    -1.3670 C.2   1 <1>  -0.3020 
 18 H       -2.4510     2.1020    -1.1260 H     1 <1>   0.0800 
 19 H       -4.0890    -1.0200     2.0080 H     1 <1>   0.0800 
 20 H       -2.4980    -1.6000     1.6080 H     1 <1>   0.0800 
 21 H       -5.2320     0.3610     0.4380 H     1 <1>   0.0800 
 22 H       -4.3610     1.3740    -0.6710 H     1 <1>   0.0800 
 23 H       -0.3300     0.5720    -2.0740 H     1 <1>   0.4000 
 24 H       -1.0710     2.4570     0.9190 H     1 <1>   0.0800 
 25 H       -3.4090     2.6480     1.2850 H     1 <1>   0.0800 
 26 H       -4.3370     1.6120     2.3630 H     1 <1>   0.0800 
 27 H        0.0360     3.7450    -1.5820 H     1 <1>   0.0800 
 28 H        0.1750     4.3730     0.0420 H     1 <1>   0.0800 
 29 H       -1.3900     4.2660    -0.7200 H     1 <1>   0.0800 
 30 H        1.2910     1.6170    -0.7780 H     1 <1>   0.0800 
 31 H        0.6800     0.7450     0.6070 H     1 <1>   0.0800 
 32 H        1.3680     2.3290     0.8110 H     1 <1>   0.0800 
 33 H       -2.3930    -2.4440    -1.0590 H     1 <1>   0.2700 
 34 H       -5.3640     3.3710     0.3940 H     1 <1>   0.4000 
 35 H       -6.1900    -4.2150    -0.7910 H     1 <1>   0.1500 
 36 H       -3.9120    -4.1890    -2.2470 H     1 <1>   0.1500 
@<TRIPOS>BOND
  1   1   2  2   
  2   2   3  am  
  3   2   4  1   
  4   3   5  1   
  5   3   6  1   
  6   4   7  1   
  7   4   8  1   
  8   4  18  1   
  9   5   9  1   
 10   5  19  1   
 11   5  20  1   
 12   6  10  1   
 13   6  21  1   
 14   6  22  1   
 15   7  23  1   
 16   8  11  1   
 17   8  12  1   
 18   8  24  1   
 19   9  13  2   
 20   9  14  1   
 21  10  15  1   
 22  10  25  1   
 23  10  26  1   
 24  11  27  1   
 25  11  28  1   
 26  11  29  1   
 27  12  30  1   
 28  12  31  1   
 29  12  32  1   
 30  13  16  1   
 31  14  17  1   
 32  14  33  1   
 33  15  34  1   
 34  16  17  2   
 35  16  35  1   
 36  17  36  1   
@<TRIPOS>SUBSTRUCTURE
  1 ****   3 GROUP 4 **** **** 0

# MOE 2024.06 (io_trps.svl 2023.06)
