@<TRIPOS>MOLECULE
NONAME
52 54 1 0 0 
SMALL
USER_CHARGES


@<TRIPOS>ATOM
  1 O        2.8050    -1.0560     2.5980 O.2   1 <1>  -0.5700 
  2 C        2.4710    -1.2780     1.4490 C.2   1 <1>   0.5440 
  3 N        2.4610    -0.2260     0.5460 N.am  1 <1>  -0.6600 
  4 C        2.1320    -2.6320     1.0600 C.ar  1 <1>   0.0860 
  5 C        2.8260     1.1450     1.0300 C.3   1 <1>   0.1400 
  6 C        2.4390    -0.4670    -0.9330 C.3   1 <1>   0.1400 
  7 C        0.8390    -2.9760     0.6740 C.ar  1 <1>  -0.1500 
  8 C        3.1040    -3.6290     1.0470 C.ar  1 <1>  -0.1500 
  9 C        4.3010     1.5360     0.7500 C.3   1 <1>   0.4230 
 10 C        3.6640     0.0880    -1.6950 C.3   1 <1>  -0.0800 
 11 C        0.5130    -4.2620     0.2730 C.ar  1 <1>   0.0730 
 12 C        2.7980    -4.9180     0.6520 C.ar  1 <1>  -0.1500 
 13 N        4.4950     2.2080    -0.5880 N.4   1 <1>  -0.9590 
 14 C        5.3270     0.3810     0.9170 C.3   1 <1>   0.1200 
 15 C        5.0240    -0.5460    -1.3240 C.3   1 <1>   0.1200 
 16 C        3.6840     1.6180    -1.6940 C.3   1 <1>   0.3430 
 17 C       -0.8210    -4.5920    -0.1270 C.1   1 <1>  -0.0730 
 18 C        1.5080    -5.2300     0.2650 C.ar  1 <1>  -0.1500 
 19 C        4.2700     3.6840    -0.5000 C.3   1 <1>   0.2630 
 20 O        5.1820    -0.7170     0.0490 O.3   1 <1>  -0.5600 
 21 C       -1.9240    -4.8920    -0.4630 C.1   1 <1>  -0.2000 
 22 C       -3.2970    -5.2890    -0.8790 C.3   1 <1>   0.4800 
 23 O       -3.1900    -6.4320    -1.6240 O.3   1 <1>  -0.6800 
 24 C       -4.1640    -5.6180     0.3310 C.3   1 <1>  -0.2400 
 25 C       -3.9340    -4.2270    -1.7670 C.3   1 <1>  -0.2400 
 26 H        2.1560     1.8670     0.6000 H     1 <1>   0.0800 
 27 H        2.6720     1.1970     2.0940 H     1 <1>   0.0800 
 28 H        2.3850    -1.5230    -1.1340 H     1 <1>   0.0800 
 29 H        1.5390    -0.0310    -1.3310 H     1 <1>   0.0800 
 30 H        0.0720    -2.2230     0.6910 H     1 <1>   0.1500 
 31 H        4.1070    -3.3800     1.3500 H     1 <1>   0.1500 
 32 H        4.5590     2.2610     1.5040 H     1 <1>   0.0800 
 33 H        3.4920    -0.1800    -2.7220 H     1 <1>   0.0800 
 34 H        3.5620    -5.6770     0.6470 H     1 <1>   0.1500 
 35 H        5.4830     2.0460    -0.8280 H     1 <1>   0.4500 
 36 H        5.2380    -0.0130     1.9150 H     1 <1>   0.0800 
 37 H        6.3290     0.7560     0.8080 H     1 <1>   0.0800 
 38 H        5.8570     0.0190    -1.7060 H     1 <1>   0.0800 
 39 H        5.0740    -1.5330    -1.7510 H     1 <1>   0.0800 
 40 H        2.6680     1.9740    -1.6320 H     1 <1>   0.0800 
 41 H        4.0880     1.9560    -2.6350 H     1 <1>   0.0800 
 42 H        1.2650    -6.2320    -0.0450 H     1 <1>   0.1500 
 43 H        3.2450     3.8930    -0.2400 H     1 <1>   0.0800 
 44 H        4.4890     4.1540    -1.4450 H     1 <1>   0.0800 
 45 H        4.9110     4.1170     0.2520 H     1 <1>   0.0800 
 46 H       -4.0780    -6.7160    -1.8990 H     1 <1>   0.4000 
 47 H       -4.2590    -4.7480     0.9550 H     1 <1>   0.0800 
 48 H       -3.7040    -6.3980     0.9120 H     1 <1>   0.0800 
 49 H       -5.1470    -5.9280     0.0270 H     1 <1>   0.0800 
 50 H       -4.0210    -3.3040    -1.2220 H     1 <1>   0.0800 
 51 H       -4.9160    -4.5290    -2.0820 H     1 <1>   0.0800 
 52 H       -3.3180    -4.0520    -2.6300 H     1 <1>   0.0800 
@<TRIPOS>BOND
  1   1   2  2   
  2   2   3  am  
  3   2   4  1   
  4   3   5  1   
  5   3   6  1   
  6   4   7  ar  
  7   4   8  ar  
  8   5   9  1   
  9   5  26  1   
 10   5  27  1   
 11   6  10  1   
 12   6  28  1   
 13   6  29  1   
 14   7  11  ar  
 15   7  30  1   
 16   8  12  ar  
 17   8  31  1   
 18   9  13  1   
 19   9  14  1   
 20   9  32  1   
 21  10  15  1   
 22  10  16  1   
 23  10  33  1   
 24  11  17  1   
 25  11  18  ar  
 26  12  18  ar  
 27  12  34  1   
 28  13  16  1   
 29  13  19  1   
 30  13  35  1   
 31  14  20  1   
 32  14  36  1   
 33  14  37  1   
 34  15  20  1   
 35  15  38  1   
 36  15  39  1   
 37  16  40  1   
 38  16  41  1   
 39  17  21  3   
 40  18  42  1   
 41  19  43  1   
 42  19  44  1   
 43  19  45  1   
 44  21  22  1   
 45  22  23  1   
 46  22  24  1   
 47  22  25  1   
 48  23  46  1   
 49  24  47  1   
 50  24  48  1   
 51  24  49  1   
 52  25  50  1   
 53  25  51  1   
 54  25  52  1   
@<TRIPOS>SUBSTRUCTURE
  1 ****   4 GROUP 4 **** **** 0

# MOE 2024.06 (io_trps.svl 2023.06)
