@<TRIPOS>MOLECULE
NONAME
47 49 1 0 0 
SMALL
USER_CHARGES


@<TRIPOS>ATOM
  1 S        0.8730     1.5800     1.1920 S.o2  1 <1>   1.3330 
  2 O        1.3790     2.8920     1.5300 O.2   1 <1>  -0.6500 
  3 O        1.4910     0.4450     1.8340 O.2   1 <1>  -0.6500 
  4 N        1.1790     1.3870    -0.4660 N.am  1 <1>  -0.8490 
  5 C       -0.8980     1.4830     1.3470 C.3   1 <1>  -0.1350 
  6 C        2.4130     0.6420    -0.7920 C.3   1 <1>   0.1960 
  7 C        0.8410     2.4760    -1.3970 C.3   1 <1>   0.1960 
  8 C        3.6940     1.2520    -0.1710 C.3   1 <1>   0.3430 
  9 C        1.7860     3.6930    -1.3800 C.3   1 <1>  -0.1600 
 10 N        3.6490     2.7490    -0.1010 N.4   1 <1>  -0.9590 
 11 C        3.2860     3.3950    -1.3890 C.3   1 <1>   0.3430 
 12 C        4.8330     3.3370     0.5770 C.3   1 <1>   0.5230 
 13 C        4.5790     4.8070     0.8020 C.2   1 <1>  -0.1400 
 14 S        5.4900     5.9440    -0.1550 S.3   1 <1>  -0.0800 
 15 C        3.7550     5.4960     1.6050 C.2   1 <1>   0.0770 
 16 C        4.6400     7.2680     0.6350 C.2   1 <1>   0.4620 
 17 N        3.7840     6.8720     1.5080 N.2   1 <1>  -0.5650 
 18 N        4.9270     8.5590     0.2740 N.pl3 1 <1>  -0.8220 
 19 C        6.0710     8.9670    -0.5690 C.3   1 <1>   0.2090 
 20 C        4.3490     9.7140     0.9940 C.3   1 <1>   0.2090 
 21 C        6.0490    10.4900    -0.5360 C.3   1 <1>  -0.1600 
 22 C        5.3510    10.8410     0.7770 C.3   1 <1>  -0.1600 
 23 H       -1.1810     1.5570     2.3790 H     1 <1>   0.0800 
 24 H       -1.2510     0.5450     0.9640 H     1 <1>   0.0800 
 25 H       -1.3690     2.2790     0.8060 H     1 <1>   0.0800 
 26 H        2.5270     0.5840    -1.8610 H     1 <1>   0.0800 
 27 H        2.3160    -0.3720    -0.4400 H     1 <1>   0.0800 
 28 H       -0.1620     2.8140    -1.1940 H     1 <1>   0.0800 
 29 H        0.8290     2.0680    -2.3950 H     1 <1>   0.0800 
 30 H        4.5500     0.9280    -0.7390 H     1 <1>   0.0800 
 31 H        3.7950     0.8570     0.8270 H     1 <1>   0.0800 
 32 H        1.5520     4.3310    -0.5470 H     1 <1>   0.0800 
 33 H        1.5670     4.2750    -2.2570 H     1 <1>   0.0800 
 34 H        2.8510     2.9730     0.5300 H     1 <1>   0.4500 
 35 H        3.8180     4.3250    -1.5030 H     1 <1>   0.0800 
 36 H        3.5420     2.7580    -2.2210 H     1 <1>   0.0800 
 37 H        5.7190     3.2030    -0.0220 H     1 <1>   0.0800 
 38 H        4.9830     2.8570     1.5300 H     1 <1>   0.0800 
 39 H        3.0630     5.0700     2.3150 H     1 <1>   0.1500 
 40 H        5.9620     8.5940    -1.5740 H     1 <1>   0.0800 
 41 H        6.9830     8.5950    -0.1340 H     1 <1>   0.0800 
 42 H        4.2170     9.4960     2.0410 H     1 <1>   0.0800 
 43 H        3.3980     9.9600     0.5530 H     1 <1>   0.0800 
 44 H        5.4640    10.8470    -1.3650 H     1 <1>   0.0800 
 45 H        7.0390    10.9060    -0.5990 H     1 <1>   0.0800 
 46 H        6.0630    10.8300     1.5840 H     1 <1>   0.0800 
 47 H        4.8700    11.8020     0.7440 H     1 <1>   0.0800 
@<TRIPOS>BOND
  1   1   2  2   
  2   1   3  2   
  3   1   4  am  
  4   1   5  1   
  5   4   6  1   
  6   4   7  1   
  7   5  23  1   
  8   5  24  1   
  9   5  25  1   
 10   6   8  1   
 11   6  26  1   
 12   6  27  1   
 13   7   9  1   
 14   7  28  1   
 15   7  29  1   
 16   8  10  1   
 17   8  30  1   
 18   8  31  1   
 19   9  11  1   
 20   9  32  1   
 21   9  33  1   
 22  10  11  1   
 23  10  12  1   
 24  10  34  1   
 25  11  35  1   
 26  11  36  1   
 27  12  13  1   
 28  12  37  1   
 29  12  38  1   
 30  13  14  1   
 31  13  15  2   
 32  14  16  1   
 33  15  17  1   
 34  15  39  1   
 35  16  17  2   
 36  16  18  1   
 37  18  19  1   
 38  18  20  1   
 39  19  21  1   
 40  19  40  1   
 41  19  41  1   
 42  20  22  1   
 43  20  42  1   
 44  20  43  1   
 45  21  22  1   
 46  21  44  1   
 47  21  45  1   
 48  22  46  1   
 49  22  47  1   
@<TRIPOS>SUBSTRUCTURE
  1 ****  13 GROUP 4 **** **** 0

# MOE 2024.06 (io_trps.svl 2023.06)
