@<TRIPOS>MOLECULE
NONAME
50 52 1 0 0 
SMALL
USER_CHARGES


@<TRIPOS>ATOM
  1 O       -1.5800     0.6070    -1.8060 O.2   1 <1>  -0.5700 
  2 C       -1.6330     0.9760    -0.6490 C.2   1 <1>   0.5440 
  3 N       -1.9770     0.0570     0.3010 N.am  1 <1>  -0.7300 
  4 C       -1.3380     2.3500    -0.2850 C.ar  1 <1>   0.0860 
  5 C       -2.2800    -1.3680     0.0390 C.3   1 <1>   0.2200 
  6 C       -0.4680     3.1230    -1.0500 C.ar  1 <1>  -0.1500 
  7 C       -1.9060     2.9580     0.8360 C.ar  1 <1>  -0.1500 
  8 C       -3.7840    -1.5740     0.0920 C.3   1 <1>  -0.0800 
  9 C       -1.8100    -2.2150     1.2160 C.3   1 <1>   0.1200 
 10 C       -0.1590     4.4320    -0.7280 C.ar  1 <1>   0.0820 
 11 C       -1.6050     4.2620     1.1840 C.ar  1 <1>  -0.1500 
 12 C       -4.0350    -1.7540     1.5950 C.3   1 <1>   0.1200 
 13 C       -4.2150    -2.8050    -0.7260 C.3   1 <1>  -0.0160 
 14 O       -2.8190    -2.1290     2.1770 O.3   1 <1>  -0.5600 
 15 O        0.7040     5.0490    -1.5820 O.3   1 <1>  -0.3630 
 16 C       -0.7220     5.0190     0.4170 C.ar  1 <1>   0.0820 
 17 C       -5.7250    -2.9880    -0.7010 C.ar  1 <1>  -0.1430 
 18 C        0.5570     6.4180    -1.8930 C.3   1 <1>   0.0400 
 19 O       -0.3890     6.2920     0.7620 O.3   1 <1>  -0.3630 
 20 C       -6.3350    -3.9700     0.0540 C.ar  1 <1>  -0.1500 
 21 C       -6.5640    -2.1760    -1.4370 C.ar  1 <1>  -0.1500 
 22 C       -0.8400     6.9070     1.9460 C.3   1 <1>   0.1200 
 23 C       -7.7150    -4.0840     0.0410 C.ar  1 <1>   0.1600 
 24 C       -7.9330    -2.3750    -1.3800 C.ar  1 <1>   0.1600 
 25 C       -0.2230     8.3010     2.0160 C.3   1 <1>  -0.2400 
 26 N       -8.5290    -3.3090    -0.6560 N.ar  1 <1>  -0.6200 
 27 H       -1.9860     0.3120     1.2900 H     1 <1>   0.3700 
 28 H       -1.8380    -1.6820    -0.8920 H     1 <1>   0.0800 
 29 H       -0.0200     2.6890    -1.9270 H     1 <1>   0.1500 
 30 H       -2.5990     2.4050     1.4440 H     1 <1>   0.1500 
 31 H       -4.3050    -0.7110    -0.2850 H     1 <1>   0.0800 
 32 H       -0.8800    -1.8680     1.6320 H     1 <1>   0.0800 
 33 H       -1.7180    -3.2470     0.9290 H     1 <1>   0.0800 
 34 H       -2.0710     4.6720     2.0600 H     1 <1>   0.1500 
 35 H       -4.7720    -2.5070     1.8120 H     1 <1>   0.0800 
 36 H       -4.3350    -0.8230     2.0430 H     1 <1>   0.0800 
 37 H       -3.7370    -3.6930    -0.3490 H     1 <1>   0.0800 
 38 H       -3.9020    -2.6790    -1.7490 H     1 <1>   0.0800 
 39 H        1.0460     6.6010    -2.8320 H     1 <1>   0.0800 
 40 H        1.0250     7.0010    -1.1210 H     1 <1>   0.0800 
 41 H       -0.4900     6.6520    -1.9690 H     1 <1>   0.0800 
 42 H       -5.7520    -4.6460     0.6530 H     1 <1>   0.1500 
 43 H       -6.1660    -1.3920    -2.0550 H     1 <1>   0.1500 
 44 H       -1.9140     6.9690     1.9120 H     1 <1>   0.0800 
 45 H       -0.5230     6.3090     2.7830 H     1 <1>   0.0800 
 46 H       -8.1740    -4.8550     0.6370 H     1 <1>   0.1500 
 47 H       -8.5720    -1.7320    -1.9610 H     1 <1>   0.1500 
 48 H       -0.5330     8.8850     1.1680 H     1 <1>   0.0800 
 49 H        0.8500     8.2290     2.0300 H     1 <1>   0.0800 
 50 H       -0.5460     8.7990     2.9120 H     1 <1>   0.0800 
@<TRIPOS>BOND
  1   1   2  2   
  2   2   3  am  
  3   2   4  1   
  4   3   5  1   
  5   3  27  1   
  6   4   6  ar  
  7   4   7  ar  
  8   5   8  1   
  9   5   9  1   
 10   5  28  1   
 11   6  10  ar  
 12   6  29  1   
 13   7  11  ar  
 14   7  30  1   
 15   8  12  1   
 16   8  13  1   
 17   8  31  1   
 18   9  14  1   
 19   9  32  1   
 20   9  33  1   
 21  10  15  1   
 22  10  16  ar  
 23  11  16  ar  
 24  11  34  1   
 25  12  14  1   
 26  12  35  1   
 27  12  36  1   
 28  13  17  1   
 29  13  37  1   
 30  13  38  1   
 31  15  18  1   
 32  16  19  1   
 33  17  20  ar  
 34  17  21  ar  
 35  18  39  1   
 36  18  40  1   
 37  18  41  1   
 38  19  22  1   
 39  20  23  ar  
 40  20  42  1   
 41  21  24  ar  
 42  21  43  1   
 43  22  25  1   
 44  22  44  1   
 45  22  45  1   
 46  23  26  ar  
 47  23  46  1   
 48  24  26  ar  
 49  24  47  1   
 50  25  48  1   
 51  25  49  1   
 52  25  50  1   
@<TRIPOS>SUBSTRUCTURE
  1 ****   3 GROUP 4 **** **** 0

# MOE 2024.06 (io_trps.svl 2023.06)
