@<TRIPOS>MOLECULE
NONAME
50 53 1 0 0 
SMALL
USER_CHARGES


@<TRIPOS>ATOM
  1 O       -3.3710     1.7090    -2.7060 O.2   1 <1>  -0.5700 
  2 C       -2.9190     1.6150    -1.5910 C.2   1 <1>   0.5690 
  3 N       -2.5630     0.4160    -1.0650 N.am  1 <1>  -0.7300 
  4 C       -2.7550     2.8680    -0.7620 C.3   1 <1>   0.1570 
  5 C       -2.5600    -0.8850    -1.7710 C.3   1 <1>   0.2200 
  6 N       -1.4510     2.8310    -0.0940 N.pl3 1 <1>   0.3140 
  7 C       -3.4550    -1.9000    -1.0740 C.3   1 <1>  -0.0800 
  8 C       -1.1950    -1.5400    -1.5960 C.3   1 <1>   0.1200 
  9 N       -1.2610     2.1240     1.0510 N.2   1 <1>  -0.7070 
 10 C       -0.2930     3.3940    -0.5320 C.2   1 <1>  -0.0680 
 11 C       -2.5490    -2.4100     0.0510 C.3   1 <1>   0.1200 
 12 C       -4.8180    -1.3550    -0.5970 C.3   1 <1>  -0.0160 
 13 O       -1.2320    -2.1880    -0.3590 O.3   1 <1>  -0.5600 
 14 C       -0.0040     2.2770     1.3200 C.2   1 <1>   0.1080 
 15 N       -0.1340     4.1550    -1.7000 N.pl3 1 <1>  -0.8840 
 16 C        0.6510     3.0600     0.3760 C.2   1 <1>  -0.1500 
 17 C       -5.8010    -2.3790    -0.0140 C.ar  1 <1>  -0.1440 
 18 C        0.6430     1.6510     2.5330 C.3   1 <1>  -0.0590 
 19 C       -6.9950    -1.9300     0.6050 C.ar  1 <1>   0.0000 
 20 C       -5.6010    -3.7310    -0.0600 C.ar  1 <1>  -0.1500 
 21 C       -7.8710    -2.9030     1.1480 C.ar  1 <1>   0.3100 
 22 C       -7.3770    -0.5710     0.7120 C.ar  1 <1>  -0.1500 
 23 C       -6.5350    -4.6080     0.5030 C.ar  1 <1>   0.1600 
 24 N       -7.6260    -4.2360     1.0900 N.ar  1 <1>  -0.6200 
 25 C       -9.0550    -2.4830     1.7750 C.ar  1 <1>  -0.1500 
 26 C       -8.5400    -0.1950     1.3280 C.ar  1 <1>  -0.1500 
 27 C       -9.3910    -1.1600     1.8690 C.ar  1 <1>  -0.1500 
 28 H       -2.0780     0.4150    -0.1520 H     1 <1>   0.3700 
 29 H       -3.5250     2.9150    -0.0180 H     1 <1>   0.0800 
 30 H       -2.8080     3.7370    -1.3880 H     1 <1>   0.0800 
 31 H       -2.8140    -0.7530    -2.8100 H     1 <1>   0.0800 
 32 H       -3.6230    -2.7020    -1.7690 H     1 <1>   0.0800 
 33 H       -0.3880    -0.8290    -1.6080 H     1 <1>   0.0800 
 34 H       -1.0350    -2.2900    -2.3510 H     1 <1>   0.0800 
 35 H       -2.6810    -3.4600     0.2450 H     1 <1>   0.0800 
 36 H       -2.7020    -1.8530     0.9600 H     1 <1>   0.0800 
 37 H       -5.2970    -0.8670    -1.4290 H     1 <1>   0.0800 
 38 H       -4.6350    -0.6080     0.1550 H     1 <1>   0.0800 
 39 H       -0.5610     3.7580    -2.5460 H     1 <1>   0.4000 
 40 H        0.8390     4.4130    -1.9000 H     1 <1>   0.4000 
 41 H        1.6910     3.3270     0.3820 H     1 <1>   0.1500 
 42 H        1.6750     1.9380     2.6000 H     1 <1>   0.0800 
 43 H        0.5780     0.5800     2.4610 H     1 <1>   0.0800 
 44 H        0.1290     1.9720     3.4200 H     1 <1>   0.0800 
 45 H       -4.7430    -4.1780    -0.5200 H     1 <1>   0.1500 
 46 H       -6.7450     0.1910     0.2990 H     1 <1>   0.1500 
 47 H       -6.3310    -5.6640     0.4440 H     1 <1>   0.1500 
 48 H       -9.6940    -3.2450     2.1820 H     1 <1>   0.1500 
 49 H       -8.8150     0.8430     1.4020 H     1 <1>   0.1500 
 50 H      -10.3030    -0.8530     2.3520 H     1 <1>   0.1500 
@<TRIPOS>BOND
  1   1   2  2   
  2   2   3  am  
  3   2   4  1   
  4   3   5  1   
  5   3  28  1   
  6   4   6  1   
  7   4  29  1   
  8   4  30  1   
  9   5   7  1   
 10   5   8  1   
 11   5  31  1   
 12   6   9  1   
 13   6  10  1   
 14   7  11  1   
 15   7  12  1   
 16   7  32  1   
 17   8  13  1   
 18   8  33  1   
 19   8  34  1   
 20   9  14  2   
 21  10  15  1   
 22  10  16  2   
 23  11  13  1   
 24  11  35  1   
 25  11  36  1   
 26  12  17  1   
 27  12  37  1   
 28  12  38  1   
 29  14  16  1   
 30  14  18  1   
 31  15  39  1   
 32  15  40  1   
 33  16  41  1   
 34  17  19  ar  
 35  17  20  ar  
 36  18  42  1   
 37  18  43  1   
 38  18  44  1   
 39  19  21  ar  
 40  19  22  ar  
 41  20  23  ar  
 42  20  45  1   
 43  21  24  ar  
 44  21  25  ar  
 45  22  26  ar  
 46  22  46  1   
 47  23  24  ar  
 48  23  47  1   
 49  25  27  ar  
 50  25  48  1   
 51  26  27  ar  
 52  26  49  1   
 53  27  50  1   
@<TRIPOS>SUBSTRUCTURE
  1 ****  12 GROUP 4 **** **** 0

# MOE 2024.06 (io_trps.svl 2023.06)
