@<TRIPOS>MOLECULE
NONAME
50 53 1 0 0 
SMALL
USER_CHARGES


@<TRIPOS>ATOM
  1 S       -1.7040     1.5150    -0.0200 S.3   1 <1>  -0.0800 
  2 C       -0.4610     2.7280     0.1910 C.2   1 <1>  -0.1400 
  3 C       -0.7840     0.7710    -1.3180 C.2   1 <1>  -0.1100 
  4 C        0.5620     2.5510    -0.6540 C.2   1 <1>  -0.1810 
  5 C       -0.5760     3.8300     1.2080 C.3   1 <1>   0.0200 
  6 C        0.3730     1.4280    -1.5300 C.2   1 <1>  -0.1500 
  7 C        1.7690     3.4870    -0.6270 C.3   1 <1>   0.4610 
  8 C        0.4050     4.9330     0.7800 C.3   1 <1>   0.1200 
  9 O        1.6730     4.4000     0.4570 O.3   1 <1>  -0.5600 
 10 C        3.0630     2.6970    -0.3910 C.3   1 <1>  -0.1600 
 11 C        1.9040     4.2910    -1.9220 C.3   1 <1>  -0.1600 
 12 C        4.3330     3.4730    -0.7520 C.3   1 <1>   0.3430 
 13 C        3.0850     5.2680    -1.8820 C.3   1 <1>   0.3430 
 14 N        4.0560     4.9400    -0.7840 N.4   1 <1>  -0.9590 
 15 C        5.2710     5.8170    -0.7430 C.3   1 <1>   0.4230 
 16 C        6.1090     5.4890     0.5050 C.3   1 <1>  -0.1600 
 17 C        4.8530     7.3000    -0.7530 C.3   1 <1>  -0.1600 
 18 C        7.2720     6.4640     0.6800 C.3   1 <1>   0.1400 
 19 C        6.0430     8.2380    -0.5450 C.3   1 <1>   0.1400 
 20 N        6.7320     7.8430     0.7040 N.am  1 <1>  -0.6600 
 21 C        6.8550     8.6260     1.8260 C.2   1 <1>   0.5690 
 22 O        7.3300     8.2000     2.8500 O.2   1 <1>  -0.5700 
 23 C        6.3830    10.0620     1.8270 C.3   1 <1>  -0.1790 
 24 H       -1.2160    -0.0930    -1.7920 H     1 <1>   0.1500 
 25 H       -0.3280     3.4600     2.1860 H     1 <1>   0.0800 
 26 H       -1.5780     4.2200     1.2280 H     1 <1>   0.0800 
 27 H        1.0990     1.1570    -2.2760 H     1 <1>   0.1500 
 28 H        0.5350     5.6400     1.5810 H     1 <1>   0.0800 
 29 H        0.0230     5.4530    -0.0810 H     1 <1>   0.0800 
 30 H        3.0560     1.7980    -0.9780 H     1 <1>   0.0800 
 31 H        3.0990     2.3880     0.6390 H     1 <1>   0.0800 
 32 H        0.9930     4.8240    -2.1250 H     1 <1>   0.0800 
 33 H        2.0460     3.6100    -2.7410 H     1 <1>   0.0800 
 34 H        4.6870     3.1570    -1.7200 H     1 <1>   0.0800 
 35 H        5.0900     3.2380    -0.0240 H     1 <1>   0.0800 
 36 H        2.6950     6.2590    -1.7180 H     1 <1>   0.0800 
 37 H        3.5880     5.2620    -2.8360 H     1 <1>   0.0800 
 38 H        3.5220     5.1150     0.0900 H     1 <1>   0.4500 
 39 H        5.8760     5.6300    -1.6160 H     1 <1>   0.0800 
 40 H        6.5360     4.5070     0.4340 H     1 <1>   0.0800 
 41 H        5.4980     5.5380     1.3890 H     1 <1>   0.0800 
 42 H        4.1390     7.4860     0.0310 H     1 <1>   0.0800 
 43 H        4.4070     7.5600    -1.6950 H     1 <1>   0.0800 
 44 H        7.9740     6.3710    -0.1320 H     1 <1>   0.0800 
 45 H        7.7990     6.2410     1.5940 H     1 <1>   0.0800 
 46 H        5.7000     9.2560    -0.4980 H     1 <1>   0.0800 
 47 H        6.7340     8.1600    -1.3680 H     1 <1>   0.0800 
 48 H        6.8760    10.6110     1.0490 H     1 <1>   0.0800 
 49 H        6.6210    10.5180     2.7710 H     1 <1>   0.0800 
 50 H        5.3200    10.0990     1.6890 H     1 <1>   0.0800 
@<TRIPOS>BOND
  1   1   2  1   
  2   1   3  1   
  3   2   4  2   
  4   2   5  1   
  5   3   6  2   
  6   3  24  1   
  7   4   6  1   
  8   4   7  1   
  9   5   8  1   
 10   5  25  1   
 11   5  26  1   
 12   6  27  1   
 13   7   9  1   
 14   7  10  1   
 15   7  11  1   
 16   8   9  1   
 17   8  28  1   
 18   8  29  1   
 19  10  12  1   
 20  10  30  1   
 21  10  31  1   
 22  11  13  1   
 23  11  32  1   
 24  11  33  1   
 25  12  14  1   
 26  12  34  1   
 27  12  35  1   
 28  13  14  1   
 29  13  36  1   
 30  13  37  1   
 31  14  15  1   
 32  14  38  1   
 33  15  16  1   
 34  15  17  1   
 35  15  39  1   
 36  16  18  1   
 37  16  40  1   
 38  16  41  1   
 39  17  19  1   
 40  17  42  1   
 41  17  43  1   
 42  18  20  1   
 43  18  44  1   
 44  18  45  1   
 45  19  20  1   
 46  19  46  1   
 47  19  47  1   
 48  20  21  am  
 49  21  22  2   
 50  21  23  1   
 51  23  48  1   
 52  23  49  1   
 53  23  50  1   
@<TRIPOS>SUBSTRUCTURE
  1 ****  14 GROUP 4 **** **** 0

# MOE 2024.06 (io_trps.svl 2023.06)
