@<TRIPOS>MOLECULE
NONAME
50 53 1 0 0 
SMALL
USER_CHARGES


@<TRIPOS>ATOM
  1 O       -0.0330    -0.2350     0.2650 O.2   1 <1>  -0.5700 
  2 C       -0.6610     0.7020     0.7040 C.2   1 <1>   0.5690 
  3 N       -1.9580     0.9440     0.3130 N.am  1 <1>  -0.6600 
  4 C        0.0390     1.5590     1.7450 C.3   1 <1>   0.1570 
  5 C       -2.7860     2.1180     0.7490 C.3   1 <1>   0.1400 
  6 C       -2.6830    -0.0090    -0.5780 C.3   1 <1>   0.1400 
  7 N        0.5110     2.8410     1.1830 N.pl3 1 <1>   0.0480 
  8 C       -3.3750     2.8810    -0.4540 C.3   1 <1>   0.1440 
  9 C       -3.2590     0.7240    -1.7950 C.3   1 <1>  -0.1600 
 10 C        1.2700     3.0110     0.0670 C.2   1 <1>  -0.3020 
 11 C        0.3330     4.0730     1.7330 C.2   1 <1>  -0.3020 
 12 C       -4.2650     3.9870     0.0780 C.ar  1 <1>   0.1670 
 13 C       -4.1440     1.9080    -1.3720 C.3   1 <1>  -0.1600 
 14 C       -2.2860     3.6670    -1.2340 C.3   1 <1>  -0.1600 
 15 C        1.5620     4.3280    -0.0910 C.2   1 <1>  -0.1500 
 16 C        0.9660     5.0070     0.9750 C.2   1 <1>  -0.1500 
 17 N       -5.4260     3.8100     0.6580 N.ar  1 <1>  -0.6200 
 18 C       -3.7030     5.2150    -0.0960 C.ar  1 <1>  -0.1440 
 19 C       -2.3550     5.1310    -0.7650 C.3   1 <1>  -0.0170 
 20 C       -6.0400     4.9270     1.0590 C.ar  1 <1>   0.7200 
 21 C       -4.4030     6.3060     0.3510 C.ar  1 <1>   0.1600 
 22 N       -5.5730     6.1730     0.9300 N.ar  1 <1>  -0.6200 
 23 N       -7.2730     4.7790     1.6670 N.pl3 1 <1>  -0.8380 
 24 C       -7.7990     3.4520     2.0900 C.3   1 <1>   0.1290 
 25 C       -8.1770     5.9390     1.9050 C.3   1 <1>   0.1290 
 26 H        0.8910     1.0240     2.1200 H     1 <1>   0.0800 
 27 H       -0.6260     1.7500     2.5640 H     1 <1>   0.0800 
 28 H       -2.2120     2.8030     1.3450 H     1 <1>   0.0800 
 29 H       -3.5960     1.7570     1.3590 H     1 <1>   0.0800 
 30 H       -3.4820    -0.4660    -0.0200 H     1 <1>   0.0800 
 31 H       -2.0270    -0.7940    -0.9150 H     1 <1>   0.0800 
 32 H       -3.8410     0.0320    -2.3780 H     1 <1>   0.0800 
 33 H       -2.4470     1.0650    -2.4120 H     1 <1>   0.0800 
 34 H        1.5650     2.1830    -0.5560 H     1 <1>   0.1500 
 35 H       -0.2270     4.2280     2.6390 H     1 <1>   0.1500 
 36 H       -4.5110     2.4280    -2.2390 H     1 <1>   0.0800 
 37 H       -5.0000     1.5290    -0.8390 H     1 <1>   0.0800 
 38 H       -2.5080     3.6460    -2.2860 H     1 <1>   0.0800 
 39 H       -1.3030     3.2550    -1.0950 H     1 <1>   0.0800 
 40 H        2.1440     4.7860    -0.8730 H     1 <1>   0.1500 
 41 H        1.0190     6.0690     1.1410 H     1 <1>   0.1500 
 42 H       -2.2760     5.8140    -1.5920 H     1 <1>   0.0800 
 43 H       -1.5830     5.3370    -0.0470 H     1 <1>   0.0800 
 44 H       -3.9990     7.2960     0.2360 H     1 <1>   0.1500 
 45 H       -6.9900     2.7910     2.3510 H     1 <1>   0.0800 
 46 H       -8.3620     3.0160     1.2840 H     1 <1>   0.0800 
 47 H       -8.4350     3.5630     2.9510 H     1 <1>   0.0800 
 48 H       -8.0350     6.6890     1.1460 H     1 <1>   0.0800 
 49 H       -7.9620     6.3700     2.8670 H     1 <1>   0.0800 
 50 H       -9.2040     5.6210     1.8770 H     1 <1>   0.0800 
@<TRIPOS>BOND
  1   1   2  2   
  2   2   3  am  
  3   2   4  1   
  4   3   5  1   
  5   3   6  1   
  6   4   7  1   
  7   4  26  1   
  8   4  27  1   
  9   5   8  1   
 10   5  28  1   
 11   5  29  1   
 12   6   9  1   
 13   6  30  1   
 14   6  31  1   
 15   7  10  1   
 16   7  11  1   
 17   8  12  1   
 18   8  13  1   
 19   8  14  1   
 20   9  13  1   
 21   9  32  1   
 22   9  33  1   
 23  10  15  2   
 24  10  34  1   
 25  11  16  2   
 26  11  35  1   
 27  12  17  ar  
 28  12  18  ar  
 29  13  36  1   
 30  13  37  1   
 31  14  19  1   
 32  14  38  1   
 33  14  39  1   
 34  15  16  1   
 35  15  40  1   
 36  16  41  1   
 37  17  20  ar  
 38  18  19  1   
 39  18  21  ar  
 40  19  42  1   
 41  19  43  1   
 42  20  22  ar  
 43  20  23  1   
 44  21  22  ar  
 45  21  44  1   
 46  23  24  1   
 47  23  25  1   
 48  24  45  1   
 49  24  46  1   
 50  24  47  1   
 51  25  48  1   
 52  25  49  1   
 53  25  50  1   
@<TRIPOS>SUBSTRUCTURE
  1 ****   8 GROUP 4 **** **** 0

# MOE 2024.06 (io_trps.svl 2023.06)
