@<TRIPOS>MOLECULE
NONAME
53 55 1 0 0 
SMALL
USER_CHARGES


@<TRIPOS>ATOM
  1 N       -1.5210    -0.9650     1.2290 N.ar  1 <1>  -0.6200 
  2 C       -2.2250     0.1460     1.1060 C.ar  1 <1>   0.4100 
  3 C       -0.7100    -1.0170     2.2670 C.ar  1 <1>   0.4760 
  4 N       -3.0560     0.2520     0.0140 N.pl3 1 <1>  -0.8690 
  5 C       -2.1390     1.1720     2.0410 C.ar  1 <1>  -0.1430 
  6 N       -0.5460    -0.1190     3.2140 N.ar  1 <1>  -0.6200 
  7 C        0.1370    -2.2590     2.3970 C.3   1 <1>  -0.0970 
  8 C       -3.0170    -0.6410    -1.1620 C.3   1 <1>   0.2090 
  9 C       -1.2710     0.9730     3.0870 C.ar  1 <1>   0.1600 
 10 C       -2.9810     2.4430     1.8810 C.3   1 <1>  -0.0170 
 11 C       -3.9290    -1.8420    -0.8790 C.3   1 <1>  -0.1600 
 12 C       -2.8430     3.4710     3.0110 C.3   1 <1>  -0.2400 
 13 C       -3.4310    -3.1780    -1.4750 C.3   1 <1>  -0.0800 
 14 C       -4.3600    -4.3100    -1.0510 C.3   1 <1>   0.3430 
 15 C       -2.1010    -3.6480    -0.8780 C.3   1 <1>  -0.1600 
 16 N       -3.9120    -4.6560     0.3300 N.4   1 <1>  -0.9590 
 17 C       -2.4720    -4.2890     0.4530 C.3   1 <1>   0.3430 
 18 C       -4.2210    -6.0550     0.7200 C.3   1 <1>   0.4860 
 19 C       -5.7210    -6.2600     0.6390 C.ar  1 <1>  -0.1430 
 20 C       -6.5570    -5.7060     1.5990 C.ar  1 <1>  -0.1500 
 21 C       -6.2690    -6.9990    -0.4000 C.ar  1 <1>  -0.1500 
 22 C       -7.9270    -5.8820     1.5130 C.ar  1 <1>  -0.1500 
 23 C       -7.6390    -7.1740    -0.4830 C.ar  1 <1>  -0.1500 
 24 C       -8.4680    -6.6140     0.4720 C.ar  1 <1>  -0.1500 
 25 H       -3.4780     1.1670    -0.1560 H     1 <1>   0.4000 
 26 H        0.3220    -2.6880     1.4300 H     1 <1>   0.0800 
 27 H       -0.3670    -2.9710     3.0210 H     1 <1>   0.0800 
 28 H        1.0810    -2.0090     2.8470 H     1 <1>   0.0800 
 29 H       -1.9990    -0.9370    -1.3400 H     1 <1>   0.0800 
 30 H       -3.3590    -0.1110    -2.0350 H     1 <1>   0.0800 
 31 H       -1.1460     1.7170     3.8540 H     1 <1>   0.1500 
 32 H       -4.0170     2.1590     1.8110 H     1 <1>   0.0800 
 33 H       -2.7070     2.9200     0.9550 H     1 <1>   0.0800 
 34 H       -4.9050    -1.6160    -1.2720 H     1 <1>   0.0800 
 35 H       -4.0340    -1.9470     0.1870 H     1 <1>   0.0800 
 36 H       -3.1340     3.0390     3.9520 H     1 <1>   0.0800 
 37 H       -3.4810     4.3150     2.8160 H     1 <1>   0.0800 
 38 H       -1.8290     3.8250     3.0790 H     1 <1>   0.0800 
 39 H       -3.3790    -3.1040    -2.5490 H     1 <1>   0.0800 
 40 H       -4.2170    -5.1540    -1.7050 H     1 <1>   0.0800 
 41 H       -5.3970    -4.0150    -1.0710 H     1 <1>   0.0800 
 42 H       -1.3730    -2.8700    -0.7420 H     1 <1>   0.0800 
 43 H       -1.6630    -4.3980    -1.5130 H     1 <1>   0.0800 
 44 H       -4.4410    -4.0410     0.9610 H     1 <1>   0.4500 
 45 H       -2.3460    -3.5680     1.2460 H     1 <1>   0.0800 
 46 H       -1.8520    -5.1490     0.6480 H     1 <1>   0.0800 
 47 H       -3.8880    -6.2420     1.7280 H     1 <1>   0.0800 
 48 H       -3.7200    -6.7450     0.0600 H     1 <1>   0.0800 
 49 H       -6.1600    -5.1380     2.4230 H     1 <1>   0.1500 
 50 H       -5.6440    -7.4500    -1.1520 H     1 <1>   0.1500 
 51 H       -8.5770    -5.4520     2.2570 H     1 <1>   0.1500 
 52 H       -8.0650    -7.7500    -1.2880 H     1 <1>   0.1500 
 53 H       -9.5350    -6.7520     0.4070 H     1 <1>   0.1500 
@<TRIPOS>BOND
  1   1   2  ar  
  2   1   3  ar  
  3   2   4  1   
  4   2   5  ar  
  5   3   6  ar  
  6   3   7  1   
  7   4   8  1   
  8   4  25  1   
  9   5   9  ar  
 10   5  10  1   
 11   6   9  ar  
 12   7  26  1   
 13   7  27  1   
 14   7  28  1   
 15   8  11  1   
 16   8  29  1   
 17   8  30  1   
 18   9  31  1   
 19  10  12  1   
 20  10  32  1   
 21  10  33  1   
 22  11  13  1   
 23  11  34  1   
 24  11  35  1   
 25  12  36  1   
 26  12  37  1   
 27  12  38  1   
 28  13  14  1   
 29  13  15  1   
 30  13  39  1   
 31  14  16  1   
 32  14  40  1   
 33  14  41  1   
 34  15  17  1   
 35  15  42  1   
 36  15  43  1   
 37  16  17  1   
 38  16  18  1   
 39  16  44  1   
 40  17  45  1   
 41  17  46  1   
 42  18  19  1   
 43  18  47  1   
 44  18  48  1   
 45  19  20  ar  
 46  19  21  ar  
 47  20  22  ar  
 48  20  49  1   
 49  21  23  ar  
 50  21  50  1   
 51  22  24  ar  
 52  22  51  1   
 53  23  24  ar  
 54  23  52  1   
 55  24  53  1   
@<TRIPOS>SUBSTRUCTURE
  1 ****  11 GROUP 4 **** **** 0

# MOE 2024.06 (io_trps.svl 2023.06)
