@<TRIPOS>MOLECULE
NONAME
47 49 1 0 0 
SMALL
USER_CHARGES


@<TRIPOS>ATOM
  1 O       -2.4650     1.8760    -2.7710 O.2   1 <1>  -0.5700 
  2 C       -2.4630     1.9140    -1.5530 C.2   1 <1>   0.5440 
  3 N       -3.1910     0.9730    -0.8560 N.am  1 <1>  -0.6600 
  4 C       -1.7250     2.9650    -0.8840 C.ar  1 <1>   0.0860 
  5 C       -3.8340    -0.1830    -1.5730 C.3   1 <1>   0.1400 
  6 C       -3.4180     1.0480     0.6250 C.3   1 <1>   0.1400 
  7 C       -0.6010     2.6790    -0.0560 C.ar  1 <1>   0.0000 
  8 C       -2.1190     4.2750    -1.0510 C.ar  1 <1>  -0.1500 
  9 C       -4.1060    -1.3340    -0.5970 C.3   1 <1>   0.2000 
 10 C       -4.8280     0.5550     0.9540 C.3   1 <1>  -0.1600 
 11 C        0.0550     3.7450     0.6050 C.ar  1 <1>   0.0000 
 12 C       -0.0930     1.3750     0.1410 C.ar  1 <1>  -0.1500 
 13 C       -1.4640     5.3250    -0.4080 C.ar  1 <1>  -0.1500 
 14 O       -4.5880    -2.4570    -1.2490 O.3   1 <1>  -0.6800 
 15 C       -5.0350    -0.9500     0.5860 C.3   1 <1>  -0.1060 
 16 C       -0.4020     5.0610     0.4080 C.ar  1 <1>  -0.1500 
 17 C        1.1540     3.4650     1.4420 C.ar  1 <1>  -0.1500 
 18 C        0.9760     1.1310     0.9590 C.ar  1 <1>  -0.1500 
 19 C       -4.5560    -1.8870     1.7100 C.2   1 <1>   0.9060 
 20 C       -6.5630    -1.1990     0.3540 C.3   1 <1>  -0.1600 
 21 C        1.6060     2.1880     1.6200 C.ar  1 <1>  -0.1500 
 22 O       -4.0260    -1.4270     2.7280 O.co2 1 <1>  -0.9000 
 23 O       -4.6630    -3.1100     1.5300 O.co2 1 <1>  -0.9000 
 24 C       -7.1960    -0.5710    -0.9040 C.3   1 <1>  -0.1600 
 25 C       -8.7000    -0.8540    -0.9530 C.3   1 <1>  -0.2400 
 26 H       -4.7520     0.1510    -2.0170 H     1 <1>   0.0800 
 27 H       -3.1770    -0.5300    -2.3510 H     1 <1>   0.0800 
 28 H       -2.6940     0.4350     1.1380 H     1 <1>   0.0800 
 29 H       -3.3080     2.0610     0.9710 H     1 <1>   0.0800 
 30 H       -2.9540     4.4960    -1.6930 H     1 <1>   0.1500 
 31 H       -3.1450    -1.6230    -0.2020 H     1 <1>   0.0800 
 32 H       -5.0220     0.7040     2.0020 H     1 <1>   0.0800 
 33 H       -5.5130     1.1880     0.4270 H     1 <1>   0.0800 
 34 H       -0.5620     0.5480    -0.3630 H     1 <1>   0.1500 
 35 H       -1.8070     6.3340    -0.5630 H     1 <1>   0.1500 
 36 H       -4.7560    -3.1180    -0.5290 H     1 <1>   0.4000 
 37 H        0.1080     5.8630     0.9120 H     1 <1>   0.1500 
 38 H        1.6380     4.2830     1.9450 H     1 <1>   0.1500 
 39 H        1.3390     0.1280     1.1030 H     1 <1>   0.1500 
 40 H       -6.7350    -2.2610     0.3060 H     1 <1>   0.0800 
 41 H       -7.0900    -0.8490     1.2250 H     1 <1>   0.0800 
 42 H        2.4440     1.9780     2.2620 H     1 <1>   0.1500 
 43 H       -7.0450     0.4920    -0.9240 H     1 <1>   0.0800 
 44 H       -6.7410    -0.9900    -1.7830 H     1 <1>   0.0800 
 45 H       -9.1900    -0.4300    -0.0950 H     1 <1>   0.0800 
 46 H       -8.8780    -1.9150    -0.9660 H     1 <1>   0.0800 
 47 H       -9.1270    -0.4240    -1.8420 H     1 <1>   0.0800 
@<TRIPOS>BOND
  1   1   2  2   
  2   2   3  am  
  3   2   4  1   
  4   3   5  1   
  5   3   6  1   
  6   4   7  ar  
  7   4   8  ar  
  8   5   9  1   
  9   5  26  1   
 10   5  27  1   
 11   6  10  1   
 12   6  28  1   
 13   6  29  1   
 14   7  11  ar  
 15   7  12  ar  
 16   8  13  ar  
 17   8  30  1   
 18   9  14  1   
 19   9  15  1   
 20   9  31  1   
 21  10  15  1   
 22  10  32  1   
 23  10  33  1   
 24  11  16  ar  
 25  11  17  ar  
 26  12  18  ar  
 27  12  34  1   
 28  13  16  ar  
 29  13  35  1   
 30  14  36  1   
 31  15  19  1   
 32  15  20  1   
 33  16  37  1   
 34  17  21  ar  
 35  17  38  1   
 36  18  21  ar  
 37  18  39  1   
 38  19  22  ar  
 39  19  23  ar  
 40  20  24  1   
 41  20  40  1   
 42  20  41  1   
 43  21  42  1   
 44  24  25  1   
 45  24  43  1   
 46  24  44  1   
 47  25  45  1   
 48  25  46  1   
 49  25  47  1   
@<TRIPOS>SUBSTRUCTURE
  1 ****   6 GROUP 4 **** **** 0

# MOE 2024.06 (io_trps.svl 2023.06)
