@<TRIPOS>MOLECULE
NONAME
50 52 1 0 0 
SMALL
USER_CHARGES


@<TRIPOS>ATOM
  1 O       -1.1270     0.5410     1.9060 O.2   1 <1>  -0.5700 
  2 C       -1.5500     0.8560     0.8200 C.2   1 <1>   0.5690 
  3 N       -2.0060    -0.0740    -0.0710 N.am  1 <1>  -0.6600 
  4 C       -1.5660     2.3300     0.4560 C.3   1 <1>  -0.0990 
  5 C       -1.9400    -1.5370     0.2470 C.3   1 <1>   0.3640 
  6 C       -2.7300     0.2740    -1.3350 C.3   1 <1>   0.1400 
  7 C       -0.6170     3.1500     1.3390 C.3   1 <1>   0.0960 
  8 C       -0.7770    -2.1820    -0.5260 C.ar  1 <1>  -0.1440 
  9 C       -3.3400    -2.1730     0.0310 C.3   1 <1>   0.2000 
 10 C       -3.3000    -0.9550    -2.0660 C.3   1 <1>   0.1200 
 11 N       -0.4860     4.5180     0.8010 N.pl3 1 <1>   0.0480 
 12 C       -0.9360    -3.2180    -1.4430 C.ar  1 <1>  -0.1500 
 13 C        0.5080    -1.7150    -0.2790 C.ar  1 <1>  -0.1500 
 14 O       -3.9720    -1.8280    -1.1970 O.3   1 <1>  -0.5600 
 15 C       -4.2910    -1.7680     1.1690 C.3   1 <1>   0.1200 
 16 C        0.5450     5.0840     0.1210 C.2   1 <1>   0.0060 
 17 C       -1.4280     5.4790     0.8570 C.2   1 <1>  -0.3020 
 18 C        0.1560    -3.7580    -2.0990 C.ar  1 <1>  -0.1500 
 19 C        1.6020    -2.2530    -0.9340 C.ar  1 <1>  -0.1500 
 20 O       -5.5660    -2.2310     0.8870 O.3   1 <1>  -0.6800 
 21 N        0.3120     6.3030    -0.2470 N.2   1 <1>  -0.5650 
 22 C        1.8610     4.3850    -0.1860 C.3   1 <1>   0.0200 
 23 C       -0.9250     6.5540     0.2160 C.2   1 <1>   0.0770 
 24 C        1.4270    -3.2750    -1.8470 C.ar  1 <1>  -0.1500 
 25 C        1.7220     3.3600    -1.3170 C.3   1 <1>  -0.2400 
 26 H       -1.2620     2.4400    -0.5670 H     1 <1>   0.0800 
 27 H       -2.5680     2.6990     0.5660 H     1 <1>   0.0800 
 28 H       -1.7030    -1.6680     1.2890 H     1 <1>   0.0800 
 29 H       -3.5430     0.9390    -1.1030 H     1 <1>   0.0800 
 30 H       -2.0580     0.7850    -2.0010 H     1 <1>   0.0800 
 31 H        0.3520     2.6880     1.3700 H     1 <1>   0.0800 
 32 H       -0.9960     3.2030     2.3450 H     1 <1>   0.0800 
 33 H       -3.2450    -3.2430     0.0590 H     1 <1>   0.0800 
 34 H       -2.5120    -1.4950    -2.5600 H     1 <1>   0.0800 
 35 H       -4.0010    -0.6410    -2.8190 H     1 <1>   0.0800 
 36 H       -1.9070    -3.6230    -1.6670 H     1 <1>   0.1500 
 37 H        0.6650    -0.9240     0.4340 H     1 <1>   0.1500 
 38 H       -4.3370    -0.6970     1.2590 H     1 <1>   0.0800 
 39 H       -3.9780    -2.1860     2.1100 H     1 <1>   0.0800 
 40 H       -2.3800     5.3520     1.3370 H     1 <1>   0.1500 
 41 H        0.0170    -4.5570    -2.8070 H     1 <1>   0.1500 
 42 H        2.5890    -1.8760    -0.7300 H     1 <1>   0.1500 
 43 H       -5.7050    -2.1370    -0.0810 H     1 <1>   0.4000 
 44 H        2.5770     5.1320    -0.4830 H     1 <1>   0.0800 
 45 H        2.2400     3.9130     0.7030 H     1 <1>   0.0800 
 46 H       -1.3940     7.5120     0.0600 H     1 <1>   0.1500 
 47 H        2.2760    -3.6960    -2.3570 H     1 <1>   0.1500 
 48 H        1.3050     3.8350    -2.1870 H     1 <1>   0.0800 
 49 H        1.0870     2.5460    -1.0230 H     1 <1>   0.0800 
 50 H        2.6890     2.9640    -1.5720 H     1 <1>   0.0800 
@<TRIPOS>BOND
  1   1   2  2   
  2   2   3  am  
  3   2   4  1   
  4   3   5  1   
  5   3   6  1   
  6   4   7  1   
  7   4  26  1   
  8   4  27  1   
  9   5   8  1   
 10   5   9  1   
 11   5  28  1   
 12   6  10  1   
 13   6  29  1   
 14   6  30  1   
 15   7  11  1   
 16   7  31  1   
 17   7  32  1   
 18   8  12  ar  
 19   8  13  ar  
 20   9  14  1   
 21   9  15  1   
 22   9  33  1   
 23  10  14  1   
 24  10  34  1   
 25  10  35  1   
 26  11  16  1   
 27  11  17  1   
 28  12  18  ar  
 29  12  36  1   
 30  13  19  ar  
 31  13  37  1   
 32  15  20  1   
 33  15  38  1   
 34  15  39  1   
 35  16  21  2   
 36  16  22  1   
 37  17  23  2   
 38  17  40  1   
 39  18  24  ar  
 40  18  41  1   
 41  19  24  ar  
 42  19  42  1   
 43  20  43  1   
 44  21  23  1   
 45  22  25  1   
 46  22  44  1   
 47  22  45  1   
 48  23  46  1   
 49  24  47  1   
 50  25  48  1   
 51  25  49  1   
 52  25  50  1   
@<TRIPOS>SUBSTRUCTURE
  1 ****   2 GROUP 4 **** **** 0

# MOE 2024.06 (io_trps.svl 2023.06)
