@<TRIPOS>MOLECULE
NONAME
48 50 1 0 0 
SMALL
USER_CHARGES


@<TRIPOS>ATOM
  1 CL      -1.0230    -1.9610     3.1110 Cl    1 <1>  -0.1230 
  2 C       -2.5040    -1.9110     2.1710 C.2   1 <1>   0.1230 
  3 C       -2.7780    -1.0340     1.1340 C.2   1 <1>   0.1390 
  4 C       -3.5860    -2.6980     2.3030 C.2   1 <1>  -0.3020 
  5 N       -3.9630    -1.2530     0.6370 N.2   1 <1>  -0.7070 
  6 N       -4.4600    -2.2810     1.3630 N.pl3 1 <1>   0.3140 
  7 C       -5.8040    -2.8160     1.1040 C.3   1 <1>   0.0960 
  8 C       -6.1120    -2.6700    -0.3900 C.3   1 <1>   0.3430 
  9 N       -7.5050    -3.1050    -0.7140 N.4   1 <1>  -0.9590 
 10 C       -7.6420    -3.5260    -2.1450 C.3   1 <1>   0.3430 
 11 C       -8.5430    -2.0970    -0.3480 C.3   1 <1>   0.3430 
 12 C       -8.6060    -4.7230    -2.2910 C.3   1 <1>   0.1400 
 13 C       -9.8410    -2.7680     0.1190 C.3   1 <1>  -0.1600 
 14 N       -9.5220    -4.8920    -1.1190 N.am  1 <1>  -0.6600 
 15 C      -10.4660    -3.7740    -0.8600 C.3   1 <1>   0.1400 
 16 C       -9.1900    -5.7640    -0.1080 C.2   1 <1>   0.7150 
 17 O       -8.0440    -5.6820     0.3070 O.2   1 <1>  -0.5700 
 18 C      -10.1340    -6.6690     0.4940 C.2   1 <1>  -0.0450 
 19 S      -11.7000    -6.9490    -0.2770 S.3   1 <1>  -0.0800 
 20 C      -10.0660    -7.4290     1.6160 C.2   1 <1>  -0.1500 
 21 C      -12.2000    -8.0780     0.9650 C.2   1 <1>  -0.1400 
 22 C      -11.2250    -8.2150     1.8820 C.2   1 <1>  -0.1500 
 23 C      -13.5830    -8.6880     0.8110 C.3   1 <1>   0.0200 
 24 C      -13.9180    -9.6570     1.9480 C.3   1 <1>  -0.2400 
 25 H       -2.1010    -0.2720     0.7850 H     1 <1>   0.1500 
 26 H       -3.7680    -3.5000     2.9940 H     1 <1>   0.1500 
 27 H       -6.5010    -2.2550     1.6960 H     1 <1>   0.0800 
 28 H       -5.8270    -3.8510     1.3920 H     1 <1>   0.0800 
 29 H       -5.4070    -3.2750    -0.9360 H     1 <1>   0.0800 
 30 H       -5.9740    -1.6420    -0.6890 H     1 <1>   0.0800 
 31 H       -7.7080    -3.9780    -0.1790 H     1 <1>   0.4500 
 32 H       -6.6820    -3.8170    -2.5410 H     1 <1>   0.0800 
 33 H       -7.9990    -2.7000    -2.7380 H     1 <1>   0.0800 
 34 H       -8.7440    -1.4580    -1.1930 H     1 <1>   0.0800 
 35 H       -8.1770    -1.4740     0.4520 H     1 <1>   0.0800 
 36 H       -8.0200    -5.6210    -2.4020 H     1 <1>   0.0800 
 37 H       -9.1860    -4.6160    -3.1920 H     1 <1>   0.0800 
 38 H      -10.5630    -1.9920     0.2970 H     1 <1>   0.0800 
 39 H       -9.6740    -3.2470     1.0680 H     1 <1>   0.0800 
 40 H      -10.7250    -3.2900    -1.7870 H     1 <1>   0.0800 
 41 H      -11.3760    -4.1650    -0.4340 H     1 <1>   0.0800 
 42 H       -9.2170    -7.4640     2.2770 H     1 <1>   0.1500 
 43 H      -11.2700    -8.8500     2.7500 H     1 <1>   0.1500 
 44 H      -13.6300    -9.2110    -0.1290 H     1 <1>   0.0800 
 45 H      -14.3130    -7.8980     0.7890 H     1 <1>   0.0800 
 46 H      -13.2090   -10.4650     1.9700 H     1 <1>   0.0800 
 47 H      -14.9020   -10.0670     1.8020 H     1 <1>   0.0800 
 48 H      -13.8960    -9.1440     2.8930 H     1 <1>   0.0800 
@<TRIPOS>BOND
  1   1   2  1   
  2   2   3  1   
  3   2   4  2   
  4   3   5  2   
  5   3  25  1   
  6   4   6  1   
  7   4  26  1   
  8   5   6  1   
  9   6   7  1   
 10   7   8  1   
 11   7  27  1   
 12   7  28  1   
 13   8   9  1   
 14   8  29  1   
 15   8  30  1   
 16   9  10  1   
 17   9  11  1   
 18   9  31  1   
 19  10  12  1   
 20  10  32  1   
 21  10  33  1   
 22  11  13  1   
 23  11  34  1   
 24  11  35  1   
 25  12  14  1   
 26  12  36  1   
 27  12  37  1   
 28  13  15  1   
 29  13  38  1   
 30  13  39  1   
 31  14  15  1   
 32  14  16  am  
 33  15  40  1   
 34  15  41  1   
 35  16  17  2   
 36  16  18  1   
 37  18  19  1   
 38  18  20  2   
 39  19  21  1   
 40  20  22  1   
 41  20  42  1   
 42  21  22  2   
 43  21  23  1   
 44  22  43  1   
 45  23  24  1   
 46  23  44  1   
 47  23  45  1   
 48  24  46  1   
 49  24  47  1   
 50  24  48  1   
@<TRIPOS>SUBSTRUCTURE
  1 ****  17 GROUP 4 **** **** 0

# MOE 2024.06 (io_trps.svl 2023.06)
