@<TRIPOS>MOLECULE
NONAME
45 47 1 0 0 
SMALL
USER_CHARGES


@<TRIPOS>ATOM
  1 F        0.1550     0.5030     2.0660 F     1 <1>  -0.1900 
  2 C        1.2530     0.9030     1.4750 C.ar  1 <1>   0.1900 
  3 C        1.5250     2.2550     1.3530 C.ar  1 <1>   0.1900 
  4 C        2.1200    -0.0500     0.9710 C.ar  1 <1>  -0.1440 
  5 F        0.6920     3.1420     1.8350 F     1 <1>  -0.1900 
  6 C        2.6730     2.6890     0.7180 C.ar  1 <1>  -0.1500 
  7 C        3.2760     0.3780     0.3220 C.ar  1 <1>   0.0830 
  8 C        1.8100    -1.5230     1.1340 C.3   1 <1>   0.4860 
  9 C        3.5480     1.7440     0.2010 C.ar  1 <1>  -0.1500 
 10 O        4.0920    -0.5880    -0.1780 O.3   1 <1>  -0.3630 
 11 N        1.6330    -2.1320    -0.2110 N.4   1 <1>  -0.9590 
 12 C        5.3880    -0.2730    -0.6520 C.3   1 <1>   0.0400 
 13 C        0.4450    -1.5870    -0.9430 C.3   1 <1>   0.3430 
 14 C        1.4370    -3.6030    -0.1370 C.3   1 <1>   0.3430 
 15 C       -0.6750    -2.6280    -0.7990 C.3   1 <1>   0.2000 
 16 C       -0.0740    -3.8010    -0.0220 C.3   1 <1>  -0.0800 
 17 O       -1.7570    -2.1100    -0.1040 O.3   1 <1>  -0.6800 
 18 C       -0.5390    -5.1740    -0.5330 C.3   1 <1>  -0.0170 
 19 C        0.2460    -6.2800     0.1520 C.ar  1 <1>  -0.1430 
 20 C        1.2340    -6.9910    -0.4990 C.ar  1 <1>  -0.1500 
 21 C        0.0120    -6.6240     1.4690 C.ar  1 <1>  -0.1500 
 22 C        1.9360    -7.9690     0.1860 C.ar  1 <1>   0.1600 
 23 C        0.7710    -7.6190     2.0610 C.ar  1 <1>   0.1600 
 24 N        1.7350    -8.2890     1.4520 N.ar  1 <1>  -0.6200 
 25 H        2.8740     3.7430     0.6310 H     1 <1>   0.1500 
 26 H        0.9200    -1.6580     1.7270 H     1 <1>   0.0800 
 27 H        2.6340    -1.9960     1.6440 H     1 <1>   0.0800 
 28 H        4.4350     2.0970    -0.2940 H     1 <1>   0.1500 
 29 H        2.5040    -1.8930    -0.7180 H     1 <1>   0.4500 
 30 H        5.8880    -1.1910    -0.9080 H     1 <1>   0.0800 
 31 H        5.9360     0.2310     0.1260 H     1 <1>   0.0800 
 32 H        5.3050     0.3490    -1.5260 H     1 <1>   0.0800 
 33 H        0.1350    -0.6310    -0.5540 H     1 <1>   0.0800 
 34 H        0.6870    -1.4780    -1.9880 H     1 <1>   0.0800 
 35 H        1.7860    -4.0600    -1.0490 H     1 <1>   0.0800 
 36 H        1.9620    -4.0450     0.6960 H     1 <1>   0.0800 
 37 H       -1.0250    -2.9200    -1.7760 H     1 <1>   0.0800 
 38 H       -0.3270    -3.7200     1.0210 H     1 <1>   0.0800 
 39 H       -1.5610    -1.9070     0.8320 H     1 <1>   0.4000 
 40 H       -0.4050    -5.2440    -1.5990 H     1 <1>   0.0800 
 41 H       -1.5900    -5.2990    -0.3300 H     1 <1>   0.0800 
 42 H        1.4680    -6.8060    -1.5320 H     1 <1>   0.1500 
 43 H       -0.7550    -6.1370     2.0430 H     1 <1>   0.1500 
 44 H        2.7030    -8.5190    -0.3350 H     1 <1>   0.1500 
 45 H        0.5770    -7.8790     3.0880 H     1 <1>   0.1500 
@<TRIPOS>BOND
  1   1   2  1   
  2   2   3  ar  
  3   2   4  ar  
  4   3   5  1   
  5   3   6  ar  
  6   4   7  ar  
  7   4   8  1   
  8   6   9  ar  
  9   6  25  1   
 10   7   9  ar  
 11   7  10  1   
 12   8  11  1   
 13   8  26  1   
 14   8  27  1   
 15   9  28  1   
 16  10  12  1   
 17  11  13  1   
 18  11  14  1   
 19  11  29  1   
 20  12  30  1   
 21  12  31  1   
 22  12  32  1   
 23  13  15  1   
 24  13  33  1   
 25  13  34  1   
 26  14  16  1   
 27  14  35  1   
 28  14  36  1   
 29  15  16  1   
 30  15  17  1   
 31  15  37  1   
 32  16  18  1   
 33  16  38  1   
 34  17  39  1   
 35  18  19  1   
 36  18  40  1   
 37  18  41  1   
 38  19  20  ar  
 39  19  21  ar  
 40  20  22  ar  
 41  20  42  1   
 42  21  23  ar  
 43  21  43  1   
 44  22  24  ar  
 45  22  44  1   
 46  23  24  ar  
 47  23  45  1   
@<TRIPOS>SUBSTRUCTURE
  1 ****  11 GROUP 4 **** **** 0

# MOE 2024.06 (io_trps.svl 2023.06)
