@<TRIPOS>MOLECULE
NONAME
44 47 1 0 0 
SMALL
USER_CHARGES


@<TRIPOS>ATOM
  1 O        4.1990    -1.6440    -1.5710 O.2   1 <1>  -0.5700 
  2 C        3.3280    -1.4730    -0.7360 C.2   1 <1>   0.5440 
  3 N        3.2320    -0.2030    -0.2260 N.am  1 <1>  -0.6600 
  4 C        2.5050    -2.5660    -0.2460 C.ar  1 <1>   0.0860 
  5 C        3.9280     0.0560     1.0820 C.3   1 <1>   0.2200 
  6 C        3.0350     0.9290    -1.1850 C.3   1 <1>   0.1400 
  7 C        2.8370    -3.8870    -0.5080 C.ar  1 <1>  -0.1500 
  8 C        1.3420    -2.3190     0.5190 C.ar  1 <1>  -0.1500 
  9 C        3.3930     1.2980     1.8130 C.3   1 <1>   0.1200 
 10 C        5.4650     0.1500     0.8880 C.3   1 <1>   0.3430 
 11 C        4.0010     2.1160    -1.0050 C.3   1 <1>  -0.0800 
 12 C        2.0570    -4.9340    -0.0190 C.ar  1 <1>   0.0000 
 13 C        0.5600    -3.3380     1.0090 C.ar  1 <1>  -0.1500 
 14 O        4.0640     2.4470     1.3890 O.3   1 <1>  -0.5600 
 15 N        5.8630     0.4090    -0.5400 N.4   1 <1>  -0.9590 
 16 C        3.6220     2.9980     0.1950 C.3   1 <1>   0.1200 
 17 C        5.5070     1.7750    -1.0340 C.3   1 <1>   0.3430 
 18 C        0.9250    -4.6570     0.7390 C.ar  1 <1>  -0.1520 
 19 C        2.1390    -6.3400    -0.1110 C.2   1 <1>  -0.1500 
 20 C        7.2950     0.0840    -0.7840 C.3   1 <1>   0.2630 
 21 N        0.3400    -5.8440     1.0940 N.pl3 1 <1>   0.0330 
 22 C        1.0910    -6.8590     0.5700 C.2   1 <1>  -0.3020 
 23 H        3.7300    -0.7820     1.7280 H     1 <1>   0.0800 
 24 H        3.1340     0.5560    -2.1920 H     1 <1>   0.0800 
 25 H        2.0210     1.2810    -1.0870 H     1 <1>   0.0800 
 26 H        3.7040    -4.1270    -1.0970 H     1 <1>   0.1500 
 27 H        1.0570    -1.3020     0.7180 H     1 <1>   0.1500 
 28 H        3.5950     1.2010     2.8660 H     1 <1>   0.0800 
 29 H        2.3310     1.4150     1.6840 H     1 <1>   0.0800 
 30 H        5.8900    -0.7890     1.2020 H     1 <1>   0.0800 
 31 H        5.8650     0.9170     1.5310 H     1 <1>   0.0800 
 32 H        3.8330     2.7480    -1.8580 H     1 <1>   0.0800 
 33 H       -0.3230    -3.1350     1.5890 H     1 <1>   0.1500 
 34 H        5.2790    -0.2650    -1.0890 H     1 <1>   0.4500 
 35 H        2.5580     3.1600     0.2540 H     1 <1>   0.0800 
 36 H        4.0980     3.9600     0.1040 H     1 <1>   0.0800 
 37 H        6.0420     2.5150    -0.4610 H     1 <1>   0.0800 
 38 H        5.8400     1.8560    -2.0560 H     1 <1>   0.0800 
 39 H        2.9140    -6.8670    -0.6410 H     1 <1>   0.1500 
 40 H        7.9310     0.7420    -0.2140 H     1 <1>   0.0800 
 41 H        7.5280     0.1930    -1.8310 H     1 <1>   0.0800 
 42 H        7.4980    -0.9340    -0.4950 H     1 <1>   0.0800 
 43 H       -0.5160    -5.9470     1.6490 H     1 <1>   0.2700 
 44 H        0.8300    -7.8940     0.7140 H     1 <1>   0.1500 
@<TRIPOS>BOND
  1   1   2  2   
  2   2   3  am  
  3   2   4  1   
  4   3   5  1   
  5   3   6  1   
  6   4   7  ar  
  7   4   8  ar  
  8   5   9  1   
  9   5  10  1   
 10   5  23  1   
 11   6  11  1   
 12   6  24  1   
 13   6  25  1   
 14   7  12  ar  
 15   7  26  1   
 16   8  13  ar  
 17   8  27  1   
 18   9  14  1   
 19   9  28  1   
 20   9  29  1   
 21  10  15  1   
 22  10  30  1   
 23  10  31  1   
 24  11  16  1   
 25  11  17  1   
 26  11  32  1   
 27  12  18  ar  
 28  12  19  1   
 29  13  18  ar  
 30  13  33  1   
 31  14  16  1   
 32  15  17  1   
 33  15  20  1   
 34  15  34  1   
 35  16  35  1   
 36  16  36  1   
 37  17  37  1   
 38  17  38  1   
 39  18  21  1   
 40  19  22  2   
 41  19  39  1   
 42  20  40  1   
 43  20  41  1   
 44  20  42  1   
 45  21  22  1   
 46  21  43  1   
 47  22  44  1   
@<TRIPOS>SUBSTRUCTURE
  1 ****   2 GROUP 4 **** **** 0

# MOE 2024.06 (io_trps.svl 2023.06)
