@<TRIPOS>MOLECULE
NONAME
39 40 1 0 0 
SMALL
USER_CHARGES


@<TRIPOS>ATOM
  1 O        0.2540     1.3410    -1.3550 O.3   1 <1>  -0.6800 
  2 C        0.2460     1.6090     0.0100 C.3   1 <1>   0.2000 
  3 C       -1.0600     2.3360     0.3760 C.3   1 <1>  -0.0800 
  4 C        1.4660     2.5100     0.3320 C.3   1 <1>   0.3430 
  5 C       -1.1800     3.6770    -0.3950 C.3   1 <1>  -0.1600 
  6 C       -2.3050     1.4550     0.1990 C.3   1 <1>   0.1200 
  7 N        1.1930     3.9970     0.2130 N.4   1 <1>  -0.9590 
  8 C        0.1660     4.2660    -0.8360 C.3   1 <1>   0.3430 
  9 O       -3.3970     2.1670     0.6600 O.3   1 <1>  -0.6800 
 10 C        2.4840     4.7200    -0.0370 C.3   1 <1>   0.3430 
 11 C        2.3630     6.2450     0.0750 C.3   1 <1>   0.0960 
 12 N        3.6940     6.8510    -0.0930 N.pl3 1 <1>   0.3140 
 13 N        4.8000     6.0970    -0.2300 N.2   1 <1>  -0.7070 
 14 C        3.9890     8.1690    -0.1290 C.2   1 <1>  -0.3320 
 15 C        5.7720     6.9490    -0.3510 C.2   1 <1>   0.1390 
 16 C        5.3260     8.2630    -0.2950 C.2   1 <1>  -0.1500 
 17 C        2.9850     9.3040    -0.0020 C.3   1 <1>  -0.0600 
 18 H       -0.3870     0.6370    -1.5870 H     1 <1>   0.4000 
 19 H        0.3390     0.6700     0.5290 H     1 <1>   0.0800 
 20 H       -0.9970     2.5610     1.4280 H     1 <1>   0.0800 
 21 H        2.2670     2.2270    -0.3320 H     1 <1>   0.0800 
 22 H        1.7900     2.3010     1.3380 H     1 <1>   0.0800 
 23 H       -1.7100     4.3900     0.2120 H     1 <1>   0.0800 
 24 H       -1.7700     3.5320    -1.2840 H     1 <1>   0.0800 
 25 H       -2.2270     0.5490     0.7770 H     1 <1>   0.0800 
 26 H       -2.4740     1.2120    -0.8370 H     1 <1>   0.0800 
 27 H        0.7950     4.3070     1.1100 H     1 <1>   0.4500 
 28 H        0.0550     5.3230    -1.0120 H     1 <1>   0.0800 
 29 H        0.4720     3.7980    -1.7590 H     1 <1>   0.0800 
 30 H       -4.2220     1.6450     0.5800 H     1 <1>   0.4000 
 31 H        3.2180     4.3930     0.6830 H     1 <1>   0.0800 
 32 H        2.8560     4.4710    -1.0180 H     1 <1>   0.0800 
 33 H        1.9930     6.5240     1.0430 H     1 <1>   0.0800 
 34 H        1.7230     6.6350    -0.6930 H     1 <1>   0.0800 
 35 H        6.8040     6.6640    -0.4790 H     1 <1>   0.1500 
 36 H        5.9420     9.1410    -0.3700 H     1 <1>   0.1500 
 37 H        3.4930    10.2510    -0.0540 H     1 <1>   0.0800 
 38 H        2.4720     9.2480     0.9420 H     1 <1>   0.0800 
 39 H        2.2670     9.2620    -0.8010 H     1 <1>   0.0800 
@<TRIPOS>BOND
  1   1   2  1   
  2   1  18  1   
  3   2   3  1   
  4   2   4  1   
  5   2  19  1   
  6   3   5  1   
  7   3   6  1   
  8   3  20  1   
  9   4   7  1   
 10   4  21  1   
 11   4  22  1   
 12   5   8  1   
 13   5  23  1   
 14   5  24  1   
 15   6   9  1   
 16   6  25  1   
 17   6  26  1   
 18   7   8  1   
 19   7  10  1   
 20   7  27  1   
 21   8  28  1   
 22   8  29  1   
 23   9  30  1   
 24  10  11  1   
 25  10  31  1   
 26  10  32  1   
 27  11  12  1   
 28  11  33  1   
 29  11  34  1   
 30  12  13  1   
 31  12  14  1   
 32  13  15  2   
 33  14  16  2   
 34  14  17  1   
 35  15  16  1   
 36  15  35  1   
 37  16  36  1   
 38  17  37  1   
 39  17  38  1   
 40  17  39  1   
@<TRIPOS>SUBSTRUCTURE
  1 ****   7 GROUP 4 **** **** 0

# MOE 2024.06 (io_trps.svl 2023.06)
