@<TRIPOS>MOLECULE
NONAME
51 53 1 0 0 
SMALL
USER_CHARGES


@<TRIPOS>ATOM
  1 S       -0.4780     0.0230     0.8240 S.o2  1 <1>   1.3330 
  2 O       -0.7780     0.7590     2.0260 O.2   1 <1>  -0.6500 
  3 O       -0.1100    -1.3690     0.8800 O.2   1 <1>  -0.6500 
  4 N        0.8730     0.7540     0.0510 N.am  1 <1>  -0.7570 
  5 C       -1.8070     0.2000    -0.3780 C.3   1 <1>  -0.0550 
  6 C        1.2910     2.0720    -0.0200 C.ar  1 <1>   0.1990 
  7 C       -2.2330     1.6440    -0.7040 C.3   1 <1>  -0.2400 
  8 C        2.4240     2.3690    -0.7680 C.ar  1 <1>  -0.1500 
  9 C        0.6440     3.1280     0.6160 C.ar  1 <1>  -0.1500 
 10 C        2.8880     3.6650    -0.8820 C.ar  1 <1>  -0.1500 
 11 C        1.1100     4.4230     0.5040 C.ar  1 <1>  -0.1500 
 12 C        2.2420     4.7320    -0.2550 C.ar  1 <1>   0.0860 
 13 C        2.7390     6.0880    -0.3850 C.2   1 <1>   0.5440 
 14 O        3.8880     6.3160    -0.7170 O.2   1 <1>  -0.5700 
 15 N        1.9370     7.1700    -0.1430 N.am  1 <1>  -0.7300 
 16 C        2.3860     8.5770    -0.3470 C.3   1 <1>   0.2200 
 17 C        3.5890     8.9090     0.5620 C.3   1 <1>   0.4230 
 18 C        1.3130     9.5930     0.0730 C.3   1 <1>   0.1200 
 19 N        4.6240     9.7420    -0.1490 N.4   1 <1>  -0.9590 
 20 C        2.8970     9.6830     1.6840 C.3   1 <1>   0.1200 
 21 O        1.9000    10.4040     1.0440 O.3   1 <1>  -0.5600 
 22 C        5.2630     9.0150    -1.2790 C.3   1 <1>   0.3430 
 23 C        5.7470    10.1790     0.7140 C.3   1 <1>   0.3430 
 24 C        6.5510     9.7810    -1.5480 C.3   1 <1>  -0.1600 
 25 C        6.8520    10.5560    -0.2630 C.3   1 <1>  -0.1600 
 26 H        1.5250     0.0270    -0.2290 H     1 <1>   0.4200 
 27 H       -1.5140    -0.2830    -1.2900 H     1 <1>   0.0800 
 28 H       -2.6660    -0.3250    -0.0060 H     1 <1>   0.0800 
 29 H       -1.4230     2.1790    -1.1660 H     1 <1>   0.0800 
 30 H       -2.5240     2.1570     0.1960 H     1 <1>   0.0800 
 31 H       -3.0680     1.6370    -1.3820 H     1 <1>   0.0800 
 32 H        2.9480     1.5740    -1.2670 H     1 <1>   0.1500 
 33 H       -0.2260     2.9460     1.2160 H     1 <1>   0.1500 
 34 H        3.7700     3.8590    -1.4690 H     1 <1>   0.1500 
 35 H        0.5840     5.2000     1.0280 H     1 <1>   0.1500 
 36 H        0.9290     7.0190    -0.0550 H     1 <1>   0.3700 
 37 H        2.6230     8.7050    -1.3880 H     1 <1>   0.0800 
 38 H        4.0450     8.0100     0.9410 H     1 <1>   0.0800 
 39 H        0.4520     9.1160     0.5090 H     1 <1>   0.0800 
 40 H        1.0100    10.2200    -0.7490 H     1 <1>   0.0800 
 41 H        4.1600    10.5880    -0.5090 H     1 <1>   0.4500 
 42 H        3.5410    10.3550     2.2220 H     1 <1>   0.0800 
 43 H        2.4240     9.0050     2.3750 H     1 <1>   0.0800 
 44 H        5.5020     8.0070    -0.9750 H     1 <1>   0.0800 
 45 H        4.6290     8.9790    -2.1500 H     1 <1>   0.0800 
 46 H        5.4720    11.0110     1.3430 H     1 <1>   0.0800 
 47 H        6.0770     9.3560     1.3270 H     1 <1>   0.0800 
 48 H        7.3430     9.0970    -1.7990 H     1 <1>   0.0800 
 49 H        6.4090    10.4570    -2.3740 H     1 <1>   0.0800 
 50 H        6.8270    11.6160    -0.4490 H     1 <1>   0.0800 
 51 H        7.8160    10.3020     0.1420 H     1 <1>   0.0800 
@<TRIPOS>BOND
  1   1   2  2   
  2   1   3  2   
  3   1   4  am  
  4   1   5  1   
  5   4   6  1   
  6   4  26  1   
  7   5   7  1   
  8   5  27  1   
  9   5  28  1   
 10   6   8  ar  
 11   6   9  ar  
 12   7  29  1   
 13   7  30  1   
 14   7  31  1   
 15   8  10  ar  
 16   8  32  1   
 17   9  11  ar  
 18   9  33  1   
 19  10  12  ar  
 20  10  34  1   
 21  11  12  ar  
 22  11  35  1   
 23  12  13  1   
 24  13  14  2   
 25  13  15  am  
 26  15  16  1   
 27  15  36  1   
 28  16  17  1   
 29  16  18  1   
 30  16  37  1   
 31  17  19  1   
 32  17  20  1   
 33  17  38  1   
 34  18  21  1   
 35  18  39  1   
 36  18  40  1   
 37  19  22  1   
 38  19  23  1   
 39  19  41  1   
 40  20  21  1   
 41  20  42  1   
 42  20  43  1   
 43  22  24  1   
 44  22  44  1   
 45  22  45  1   
 46  23  25  1   
 47  23  46  1   
 48  23  47  1   
 49  24  25  1   
 50  24  48  1   
 51  24  49  1   
 52  25  50  1   
 53  25  51  1   
@<TRIPOS>SUBSTRUCTURE
  1 ****  12 GROUP 4 **** **** 0

# MOE 2024.06 (io_trps.svl 2023.06)
