@<TRIPOS>MOLECULE
NONAME
38 39 1 0 0 
SMALL
USER_CHARGES


@<TRIPOS>ATOM
  1 O        0.2630    -0.1860    -0.9770 O.2   1 <1>  -0.5700 
  2 C        1.3190    -0.6840    -0.6520 C.2   1 <1>   0.5690 
  3 N        2.4350     0.0590    -0.3770 N.am  1 <1>  -0.4930 
  4 C        1.3460    -2.2340    -0.5610 C.3   1 <1>   0.4840 
  5 C        2.5820     1.4690    -0.3920 C.2   1 <1>   0.0630 
  6 N       -0.0480    -2.7980    -0.4150 N.4   1 <1>  -0.9590 
  7 C        2.2580    -2.7660     0.5560 C.3   1 <1>  -0.2400 
  8 C        3.6960     2.1570    -0.0540 C.2   1 <1>  -0.3320 
  9 C        1.6540     2.4510    -0.7440 C.2   1 <1>   0.1390 
 10 C       -0.7100    -2.5770     0.8930 C.3   1 <1>   0.3430 
 11 C       -0.2310    -4.2260    -0.7670 C.3   1 <1>   0.3430 
 12 N        3.3990     3.4720    -0.2110 N.pl3 1 <1>   0.3140 
 13 C        5.0550     1.6570     0.4180 C.3   1 <1>  -0.0600 
 14 N        2.1390     3.6490    -0.6350 N.2   1 <1>  -0.7070 
 15 C       -1.9330    -3.4780     0.8290 C.3   1 <1>  -0.1600 
 16 C       -1.5640    -4.6120    -0.1330 C.3   1 <1>  -0.1600 
 17 C        4.2810     4.6220     0.0300 C.3   1 <1>   0.0160 
 18 H        3.2940    -0.4200    -0.1110 H     1 <1>   0.3700 
 19 H        1.7410    -2.5800    -1.5020 H     1 <1>   0.0800 
 20 H       -0.6120    -2.2350    -1.0750 H     1 <1>   0.4500 
 21 H        2.0070    -2.3250     1.5050 H     1 <1>   0.0800 
 22 H        3.2820    -2.5180     0.3390 H     1 <1>   0.0800 
 23 H        2.1990    -3.8360     0.6310 H     1 <1>   0.0800 
 24 H        0.6470     2.2550    -1.0700 H     1 <1>   0.1500 
 25 H       -0.9800    -1.5410     1.0360 H     1 <1>   0.0800 
 26 H       -0.0690    -2.9010     1.6970 H     1 <1>   0.0800 
 27 H        0.5570    -4.8210    -0.3320 H     1 <1>   0.0800 
 28 H       -0.2440    -4.3730    -1.8350 H     1 <1>   0.0800 
 29 H        5.0750     0.5850     0.4750 H     1 <1>   0.0800 
 30 H        5.2750     2.0520     1.3940 H     1 <1>   0.0800 
 31 H        5.8230     1.9750    -0.2650 H     1 <1>   0.0800 
 32 H       -2.7660    -2.9170     0.4410 H     1 <1>   0.0800 
 33 H       -2.1940    -3.8430     1.8070 H     1 <1>   0.0800 
 34 H       -1.4600    -5.5490     0.3890 H     1 <1>   0.0800 
 35 H       -2.3190    -4.7300    -0.8910 H     1 <1>   0.0800 
 36 H        5.1390     4.5500    -0.6110 H     1 <1>   0.0800 
 37 H        4.5850     4.6250     1.0590 H     1 <1>   0.0800 
 38 H        3.7450     5.5280    -0.1880 H     1 <1>   0.0800 
@<TRIPOS>BOND
  1   1   2  2   
  2   2   3  am  
  3   2   4  1   
  4   3   5  1   
  5   3  18  1   
  6   4   6  1   
  7   4   7  1   
  8   4  19  1   
  9   5   8  2   
 10   5   9  1   
 11   6  10  1   
 12   6  11  1   
 13   6  20  1   
 14   7  21  1   
 15   7  22  1   
 16   7  23  1   
 17   8  12  1   
 18   8  13  1   
 19   9  14  2   
 20   9  24  1   
 21  10  15  1   
 22  10  25  1   
 23  10  26  1   
 24  11  16  1   
 25  11  27  1   
 26  11  28  1   
 27  12  14  1   
 28  12  17  1   
 29  13  29  1   
 30  13  30  1   
 31  13  31  1   
 32  15  16  1   
 33  15  32  1   
 34  15  33  1   
 35  16  34  1   
 36  16  35  1   
 37  17  36  1   
 38  17  37  1   
 39  17  38  1   
@<TRIPOS>SUBSTRUCTURE
  1 ****   2 GROUP 4 **** **** 0

# MOE 2024.06 (io_trps.svl 2023.06)
