@<TRIPOS>MOLECULE
NONAME
40 42 1 0 0 
SMALL
USER_CHARGES


@<TRIPOS>ATOM
  1 O       -0.8710    -1.0480     1.9270 O.2   1 <1>  -0.5700 
  2 C       -0.6720    -1.7940     0.9880 C.2   1 <1>   0.5440 
  3 N        0.3870    -1.5330     0.1610 N.am  1 <1>  -0.7300 
  4 C       -1.5490    -2.9170     0.7440 C.ar  1 <1>   0.0860 
  5 C        1.3540    -0.4330     0.3420 C.3   1 <1>   0.1400 
  6 C       -2.8380    -2.9380     1.2770 C.ar  1 <1>   0.1600 
  7 C       -1.1740    -4.0220    -0.0190 C.ar  1 <1>  -0.1500 
  8 C        2.7330    -0.9220    -0.0820 C.3   1 <1>  -0.2400 
  9 N       -3.7390    -3.8910     1.1080 N.ar  1 <1>  -0.6200 
 10 C       -2.0950    -5.0240    -0.2030 C.ar  1 <1>  -0.1500 
 11 C       -3.3620    -4.9140     0.3650 C.ar  1 <1>   0.4100 
 12 N       -4.3200    -5.8570     0.1960 N.pl3 1 <1>  -0.8690 
 13 C       -4.6470    -6.3730    -1.1540 C.3   1 <1>   0.3900 
 14 C       -6.1140    -6.7750    -1.2430 C.2   1 <1>   0.1080 
 15 N       -6.8820    -6.4640    -2.2460 N.2   1 <1>  -0.7070 
 16 C       -6.7930    -7.5140    -0.2770 C.2   1 <1>  -0.1500 
 17 N       -8.0800    -6.9990    -1.9340 N.pl3 1 <1>   0.3000 
 18 C       -8.0510    -7.6400    -0.7500 C.2   1 <1>  -0.2370 
 19 C       -9.2530    -8.3360    -0.1480 C.3   1 <1>  -0.0150 
 20 C       -9.0690    -9.5540     0.7000 C.3   1 <1>  -0.2000 
 21 C       -9.6680    -9.6730    -0.6710 C.3   1 <1>  -0.2000 
 22 H        0.4870    -2.0600    -0.7060 H     1 <1>   0.3700 
 23 H        1.3730    -0.1260     1.3760 H     1 <1>   0.0800 
 24 H        1.0540     0.4090    -0.2580 H     1 <1>   0.0800 
 25 H       -3.1380    -2.0990     1.8840 H     1 <1>   0.1500 
 26 H       -0.1890    -4.0970    -0.4430 H     1 <1>   0.1500 
 27 H        3.0300    -1.7620     0.5220 H     1 <1>   0.0800 
 28 H        3.4510    -0.1350     0.0570 H     1 <1>   0.0800 
 29 H        2.7330    -1.2030    -1.1200 H     1 <1>   0.0800 
 30 H       -1.8520    -5.8990    -0.7740 H     1 <1>   0.1500 
 31 H       -5.1740    -5.5780     0.6880 H     1 <1>   0.4000 
 32 H       -4.0350    -7.2300    -1.3700 H     1 <1>   0.0800 
 33 H       -4.4510    -5.6130    -1.8910 H     1 <1>   0.0800 
 34 H       -6.3760    -7.8890     0.6410 H     1 <1>   0.1500 
 35 H       -8.8980    -6.9150    -2.5480 H     1 <1>   0.2700 
 36 H      -10.0290    -7.6490     0.1470 H     1 <1>   0.1000 
 37 H       -9.7040    -9.6810     1.5590 H     1 <1>   0.1000 
 38 H       -8.0740    -9.9310     0.8600 H     1 <1>   0.1000 
 39 H       -9.0790   -10.1330    -1.4460 H     1 <1>   0.1000 
 40 H      -10.7170    -9.8940    -0.7590 H     1 <1>   0.1000 
@<TRIPOS>BOND
  1   1   2  2   
  2   2   3  am  
  3   2   4  1   
  4   3   5  1   
  5   3  22  1   
  6   4   6  ar  
  7   4   7  ar  
  8   5   8  1   
  9   5  23  1   
 10   5  24  1   
 11   6   9  ar  
 12   6  25  1   
 13   7  10  ar  
 14   7  26  1   
 15   8  27  1   
 16   8  28  1   
 17   8  29  1   
 18   9  11  ar  
 19  10  11  ar  
 20  10  30  1   
 21  11  12  1   
 22  12  13  1   
 23  12  31  1   
 24  13  14  1   
 25  13  32  1   
 26  13  33  1   
 27  14  15  2   
 28  14  16  1   
 29  15  17  1   
 30  16  18  2   
 31  16  34  1   
 32  17  18  1   
 33  17  35  1   
 34  18  19  1   
 35  19  20  1   
 36  19  21  1   
 37  19  36  1   
 38  20  21  1   
 39  20  37  1   
 40  20  38  1   
 41  21  39  1   
 42  21  40  1   
@<TRIPOS>SUBSTRUCTURE
  1 ****  11 GROUP 4 **** **** 0

# MOE 2024.06 (io_trps.svl 2023.06)
