@<TRIPOS>MOLECULE
NONAME
51 53 1 0 0 
SMALL
USER_CHARGES


@<TRIPOS>ATOM
  1 S        0.0660    -0.4490    -1.1950 S.o2  1 <1>   1.4470 
  2 O       -0.5530    -1.6980    -1.5940 O.2   1 <1>  -0.6500 
  3 O        0.2820     0.5390    -2.2320 O.2   1 <1>  -0.6500 
  4 N       -0.9810     0.2600    -0.0600 N.am  1 <1>  -0.8490 
  5 C        1.5510    -0.8550    -0.2290 C.ar  1 <1>  -0.0090 
  6 C       -2.3840     0.2230    -0.5170 C.3   1 <1>   0.1960 
  7 C       -0.5780     1.5840     0.2860 C.3   1 <1>   0.1960 
  8 C        2.6390     0.0110    -0.1110 C.ar  1 <1>   0.0830 
  9 C        1.6110    -2.0690     0.4470 C.ar  1 <1>  -0.1500 
 10 C       -3.6920     0.8920     0.1440 C.3   1 <1>   0.0000 
 11 C       -1.4150     1.8860     1.4880 C.3   1 <1>  -0.1600 
 12 O        2.5810     1.2080    -0.7450 O.3   1 <1>  -0.3630 
 13 C        3.7470    -0.3530     0.6510 C.ar  1 <1>  -0.1500 
 14 C        2.7080    -2.4360     1.2060 C.ar  1 <1>  -0.1430 
 15 C       -5.0770     1.4720     0.7300 C.3   1 <1>   0.2000 
 16 C       -2.9020     1.8980     1.1180 C.3   1 <1>  -0.1600 
 17 C       -4.5850    -0.0400    -0.8140 C.3   1 <1>  -0.1600 
 18 C        3.7330     1.9810    -0.9970 C.3   1 <1>   0.0400 
 19 C        3.7810    -1.5700     1.3030 C.ar  1 <1>  -0.1500 
 20 C        2.7200    -3.7770     1.9180 C.3   1 <1>  -0.0970 
 21 O       -5.5420     0.5820     1.7160 O.3   1 <1>  -0.5600 
 22 C       -6.1630     1.6410    -0.3280 C.3   1 <1>  -0.1600 
 23 C       -5.7610     0.7060    -1.4190 C.3   1 <1>  -0.1600 
 24 C       -6.2840     1.1500     2.7500 C.3   1 <1>   0.0400 
 25 H       -2.3570     0.5670    -1.5410 H     1 <1>   0.0800 
 26 H       -2.5500    -0.8440    -0.5270 H     1 <1>   0.0800 
 27 H        0.4620     1.6120     0.5600 H     1 <1>   0.0800 
 28 H       -0.7580     2.2760    -0.5220 H     1 <1>   0.0800 
 29 H        0.7740    -2.7430     0.3740 H     1 <1>   0.1500 
 30 H       -1.2270     1.1420     2.2450 H     1 <1>   0.0800 
 31 H       -1.1310     2.8410     1.8930 H     1 <1>   0.0800 
 32 H        4.5920     0.3020     0.7540 H     1 <1>   0.1500 
 33 H       -5.0340     2.4500     1.1850 H     1 <1>   0.0800 
 34 H       -3.0530     2.8870     0.7140 H     1 <1>   0.0800 
 35 H       -3.3300     1.8760     2.1100 H     1 <1>   0.0800 
 36 H       -4.1470    -0.5150    -1.6810 H     1 <1>   0.0800 
 37 H       -4.9670    -0.8590    -0.2230 H     1 <1>   0.0800 
 38 H        3.4530     2.7920    -1.6450 H     1 <1>   0.0800 
 39 H        4.4690     1.3640    -1.4830 H     1 <1>   0.0800 
 40 H        4.1060     2.3700    -0.0660 H     1 <1>   0.0800 
 41 H        4.6440    -1.8370     1.8880 H     1 <1>   0.1500 
 42 H        3.5750    -3.8630     2.5640 H     1 <1>   0.0800 
 43 H        2.7520    -4.5720     1.1960 H     1 <1>   0.0800 
 44 H        1.8300    -3.8840     2.5130 H     1 <1>   0.0800 
 45 H       -7.1400     1.4060     0.0550 H     1 <1>   0.0800 
 46 H       -6.1600     2.6490    -0.7030 H     1 <1>   0.0800 
 47 H       -6.5580     0.0340    -1.6880 H     1 <1>   0.0800 
 48 H       -5.4440     1.2590    -2.2870 H     1 <1>   0.0800 
 49 H       -6.5970     0.3590     3.4080 H     1 <1>   0.0800 
 50 H       -7.1480     1.6470     2.3460 H     1 <1>   0.0800 
 51 H       -5.6640     1.8450     3.2900 H     1 <1>   0.0800 
@<TRIPOS>BOND
  1   1   2  2   
  2   1   3  2   
  3   1   4  am  
  4   1   5  1   
  5   4   6  1   
  6   4   7  1   
  7   5   8  ar  
  8   5   9  ar  
  9   6  10  1   
 10   6  25  1   
 11   6  26  1   
 12   7  11  1   
 13   7  27  1   
 14   7  28  1   
 15   8  12  1   
 16   8  13  ar  
 17   9  14  ar  
 18   9  29  1   
 19  10  15  1   
 20  10  16  1   
 21  10  17  1   
 22  11  16  1   
 23  11  30  1   
 24  11  31  1   
 25  12  18  1   
 26  13  19  ar  
 27  13  32  1   
 28  14  19  ar  
 29  14  20  1   
 30  15  21  1   
 31  15  22  1   
 32  15  33  1   
 33  16  34  1   
 34  16  35  1   
 35  17  23  1   
 36  17  36  1   
 37  17  37  1   
 38  18  38  1   
 39  18  39  1   
 40  18  40  1   
 41  19  41  1   
 42  20  42  1   
 43  20  43  1   
 44  20  44  1   
 45  21  24  1   
 46  22  23  1   
 47  22  45  1   
 48  22  46  1   
 49  23  47  1   
 50  23  48  1   
 51  24  49  1   
 52  24  50  1   
 53  24  51  1   
@<TRIPOS>SUBSTRUCTURE
  1 ****   4 GROUP 4 **** **** 0

# MOE 2024.06 (io_trps.svl 2023.06)
