@<TRIPOS>MOLECULE
NONAME
45 46 1 0 0 
SMALL
USER_CHARGES


@<TRIPOS>ATOM
  1 S        1.2570    -0.0040     0.8850 S.o2  1 <1>   1.3330 
  2 O        1.0740     0.9440     1.9610 O.2   1 <1>  -0.6500 
  3 O        2.2400    -1.0540     1.0230 O.2   1 <1>  -0.6500 
  4 N       -0.2400    -0.7380     0.5640 N.am  1 <1>  -0.8490 
  5 C        1.5620     0.9330    -0.6140 C.3   1 <1>  -0.0550 
  6 C       -1.0100    -0.9870     1.7860 C.3   1 <1>   0.1160 
  7 C       -0.1240    -1.9780    -0.2130 C.3   1 <1>   0.1160 
  8 C        2.8520     1.7760    -0.5620 C.3   1 <1>  -0.0800 
  9 C        2.9300     2.7300    -1.7420 C.3   1 <1>   0.2200 
 10 C        4.1010     0.9210    -0.7830 C.3   1 <1>   0.1200 
 11 N        3.8210     3.8560    -1.3910 N.am  1 <1>  -0.7300 
 12 C        3.5790     1.8650    -2.8220 C.3   1 <1>   0.1200 
 13 O        4.2670     0.8390    -2.1660 O.3   1 <1>  -0.5600 
 14 C        3.4760     5.1680    -1.3870 C.2   1 <1>   0.5690 
 15 O        2.3820     5.5370    -1.7350 O.2   1 <1>  -0.5700 
 16 C        4.4910     6.2050    -0.9320 C.3   1 <1>   0.0440 
 17 C        5.7690     5.5820    -0.3750 C.ar  1 <1>  -0.1440 
 18 C        6.8840     5.4180    -1.1830 C.ar  1 <1>  -0.1500 
 19 C        5.8120     5.1510     0.9440 C.ar  1 <1>  -0.1500 
 20 C        8.0260     4.8260    -0.6690 C.ar  1 <1>   0.0820 
 21 C        6.9560     4.5590     1.4530 C.ar  1 <1>  -0.1500 
 22 O        9.1090     4.6600    -1.4430 O.3   1 <1>  -0.5330 
 23 C        8.0660     4.3950     0.6440 C.ar  1 <1>  -0.1500 
 24 H        1.6020     0.2660    -1.4530 H     1 <1>   0.0800 
 25 H        0.7290     1.5930    -0.7610 H     1 <1>   0.0800 
 26 H       -1.9580    -1.4370     1.5460 H     1 <1>   0.0800 
 27 H       -1.2010    -0.0580     2.2970 H     1 <1>   0.0800 
 28 H       -0.4630    -1.6390     2.4470 H     1 <1>   0.0800 
 29 H       -1.1030    -2.3480    -0.4660 H     1 <1>   0.0800 
 30 H        0.4000    -2.7300     0.3540 H     1 <1>   0.0800 
 31 H        0.4160    -1.7960    -1.1260 H     1 <1>   0.0800 
 32 H        2.8920     2.3060     0.3750 H     1 <1>   0.0800 
 33 H        1.9670     3.1020    -2.0520 H     1 <1>   0.0800 
 34 H        4.0290    -0.0730    -0.3780 H     1 <1>   0.0800 
 35 H        4.9720     1.4070    -0.3790 H     1 <1>   0.0800 
 36 H        4.7690     3.5990    -1.0960 H     1 <1>   0.3700 
 37 H        4.2660     2.4220    -3.4350 H     1 <1>   0.0800 
 38 H        2.8290     1.4060    -3.4410 H     1 <1>   0.0800 
 39 H        4.7220     6.8400    -1.7670 H     1 <1>   0.0800 
 40 H        4.0310     6.8180    -0.1790 H     1 <1>   0.0800 
 41 H        6.8650     5.7470    -2.2060 H     1 <1>   0.1500 
 42 H        4.9530     5.2710     1.5820 H     1 <1>   0.1500 
 43 H        6.9820     4.2260     2.4760 H     1 <1>   0.1500 
 44 H        8.9940     5.0020    -2.3470 H     1 <1>   0.4500 
 45 H        8.9620     3.9370     1.0250 H     1 <1>   0.1500 
@<TRIPOS>BOND
  1   1   2  2   
  2   1   3  2   
  3   1   4  am  
  4   1   5  1   
  5   4   6  1   
  6   4   7  1   
  7   5   8  1   
  8   5  24  1   
  9   5  25  1   
 10   6  26  1   
 11   6  27  1   
 12   6  28  1   
 13   7  29  1   
 14   7  30  1   
 15   7  31  1   
 16   8   9  1   
 17   8  10  1   
 18   8  32  1   
 19   9  11  1   
 20   9  12  1   
 21   9  33  1   
 22  10  13  1   
 23  10  34  1   
 24  10  35  1   
 25  11  14  am  
 26  11  36  1   
 27  12  13  1   
 28  12  37  1   
 29  12  38  1   
 30  14  15  2   
 31  14  16  1   
 32  16  17  1   
 33  16  39  1   
 34  16  40  1   
 35  17  18  ar  
 36  17  19  ar  
 37  18  20  ar  
 38  18  41  1   
 39  19  21  ar  
 40  19  42  1   
 41  20  22  1   
 42  20  23  ar  
 43  21  23  ar  
 44  21  43  1   
 45  22  44  1   
 46  23  45  1   
@<TRIPOS>SUBSTRUCTURE
  1 ****   8 GROUP 4 **** **** 0

# MOE 2024.06 (io_trps.svl 2023.06)
