@<TRIPOS>MOLECULE
NONAME
43 44 1 0 0 
SMALL
USER_CHARGES


@<TRIPOS>ATOM
  1 O        0.9680    -0.7660     1.9830 O.co2 1 <1>  -0.9000 
  2 C        1.5210    -0.4330     0.9380 C.2   1 <1>   0.9060 
  3 O        1.0950    -0.7090    -0.1900 O.co2 1 <1>  -0.9000 
  4 C        2.8240     0.3280     1.0290 C.3   1 <1>  -0.1860 
  5 C        3.9070    -0.4270     0.2520 C.3   1 <1>   0.2000 
  6 C        2.6890     1.8020     0.5660 C.3   1 <1>  -0.1600 
  7 O        3.5410    -0.4690    -1.0840 O.3   1 <1>  -0.6800 
  8 C        5.2610     0.3010     0.3610 C.3   1 <1>   0.3430 
  9 C        3.8860     2.3000    -0.2500 C.3   1 <1>   0.3430 
 10 N        5.1580     1.8120     0.3660 N.4   1 <1>  -0.9590 
 11 C        6.3430     2.4250    -0.2780 C.3   1 <1>   0.4860 
 12 C        6.3450     3.9120     0.0110 C.ar  1 <1>  -0.1440 
 13 C        5.9840     4.8170    -0.9770 C.ar  1 <1>  -0.1500 
 14 C        6.7060     4.3850     1.2640 C.ar  1 <1>  -0.1500 
 15 C        5.9750     6.1740    -0.7090 C.ar  1 <1>  -0.1500 
 16 C        6.6960     5.7430     1.5260 C.ar  1 <1>  -0.1500 
 17 C        6.3290     6.6510     0.5440 C.ar  1 <1>  -0.1440 
 18 C        6.3250     8.1470     0.8530 C.3   1 <1>   0.0630 
 19 C        4.9180     8.7340     0.7010 C.3   1 <1>  -0.2400 
 20 C        7.3230     8.8920    -0.0380 C.3   1 <1>  -0.2400 
 21 H        3.1060     0.3240     2.0660 H     1 <1>   0.0800 
 22 H        3.9870    -1.4450     0.5960 H     1 <1>   0.0800 
 23 H        2.5330     2.4360     1.4210 H     1 <1>   0.0800 
 24 H        1.8140     1.8990    -0.0560 H     1 <1>   0.0800 
 25 H        2.5550    -0.6780    -1.0870 H     1 <1>   0.4000 
 26 H        5.8700    -0.0300    -0.4630 H     1 <1>   0.0800 
 27 H        5.7400    -0.0150     1.2730 H     1 <1>   0.0800 
 28 H        3.8680     3.3780    -0.2900 H     1 <1>   0.0800 
 29 H        3.8070     1.9190    -1.2560 H     1 <1>   0.0800 
 30 H        5.1260     2.1340     1.3390 H     1 <1>   0.4500 
 31 H        7.2460     1.9880     0.1150 H     1 <1>   0.0800 
 32 H        6.3150     2.2530    -1.3420 H     1 <1>   0.0800 
 33 H        5.7080     4.4800    -1.9620 H     1 <1>   0.1500 
 34 H        7.0020     3.7090     2.0480 H     1 <1>   0.1500 
 35 H        5.6940     6.8640    -1.4860 H     1 <1>   0.1500 
 36 H        6.9800     6.0950     2.5030 H     1 <1>   0.1500 
 37 H        6.6300     8.2910     1.8760 H     1 <1>   0.0800 
 38 H        4.5790     8.6640    -0.3160 H     1 <1>   0.0800 
 39 H        4.9140     9.7690     0.9930 H     1 <1>   0.0800 
 40 H        4.2280     8.2010     1.3310 H     1 <1>   0.0800 
 41 H        7.0390     8.8280    -1.0730 H     1 <1>   0.0800 
 42 H        8.3040     8.4650     0.0740 H     1 <1>   0.0800 
 43 H        7.3690     9.9290     0.2410 H     1 <1>   0.0800 
@<TRIPOS>BOND
  1   1   2  ar  
  2   2   3  ar  
  3   2   4  1   
  4   4   5  1   
  5   4   6  1   
  6   4  21  1   
  7   5   7  1   
  8   5   8  1   
  9   5  22  1   
 10   6   9  1   
 11   6  23  1   
 12   6  24  1   
 13   7  25  1   
 14   8  10  1   
 15   8  26  1   
 16   8  27  1   
 17   9  10  1   
 18   9  28  1   
 19   9  29  1   
 20  10  11  1   
 21  10  30  1   
 22  11  12  1   
 23  11  31  1   
 24  11  32  1   
 25  12  13  ar  
 26  12  14  ar  
 27  13  15  ar  
 28  13  33  1   
 29  14  16  ar  
 30  14  34  1   
 31  15  17  ar  
 32  15  35  1   
 33  16  17  ar  
 34  16  36  1   
 35  17  18  1   
 36  18  19  1   
 37  18  20  1   
 38  18  37  1   
 39  19  38  1   
 40  19  39  1   
 41  19  40  1   
 42  20  41  1   
 43  20  42  1   
 44  20  43  1   
@<TRIPOS>SUBSTRUCTURE
  1 ****   9 GROUP 4 **** **** 0

# MOE 2024.06 (io_trps.svl 2023.06)
