@<TRIPOS>MOLECULE
NONAME
45 46 1 0 0 
SMALL
USER_CHARGES


@<TRIPOS>ATOM
  1 CL       0.6960    -0.7910    -1.4370 Cl    1 <1>  -0.1770 
  2 C        0.0830    -2.3260    -0.8680 C.ar  1 <1>   0.1770 
  3 C        0.1780    -3.4530    -1.6640 C.ar  1 <1>   0.1600 
  4 C       -0.4960    -2.4080     0.3790 C.ar  1 <1>  -0.1500 
  5 N       -0.2600    -4.6550    -1.3130 N.ar  1 <1>  -0.6200 
  6 C       -0.9550    -3.6530     0.7520 C.ar  1 <1>  -0.1500 
  7 C       -0.8230    -4.7410    -0.1140 C.ar  1 <1>   0.4270 
  8 N       -1.2560    -6.0130     0.1880 N.am  1 <1>  -0.5470 
  9 C       -2.0390    -6.5320     1.1730 C.2   1 <1>   0.5690 
 10 O       -2.5220    -5.8800     2.0670 O.2   1 <1>  -0.5700 
 11 C       -2.3250    -8.0330     1.1110 C.3   1 <1>   0.1710 
 12 N       -2.2060    -8.6190    -0.2610 N.3   1 <1>  -0.8100 
 13 C       -3.3030    -8.1940    -1.1530 C.3   1 <1>   0.1100 
 14 C       -2.2940   -10.0810    -0.2250 C.3   1 <1>   0.1100 
 15 C       -4.3960    -9.2650    -1.0730 C.3   1 <1>   0.2000 
 16 C       -3.7880   -10.4090    -0.2620 C.3   1 <1>  -0.0800 
 17 O       -5.5140    -8.7830    -0.4140 O.3   1 <1>  -0.6800 
 18 C       -4.1110   -11.7890    -0.8570 C.3   1 <1>  -0.0550 
 19 S       -3.4230   -13.1410     0.0960 S.o2  1 <1>   1.3330 
 20 O       -1.9920   -13.1760    -0.1040 O.2   1 <1>  -0.6500 
 21 O       -3.9540   -13.0490     1.4370 O.2   1 <1>  -0.6500 
 22 N       -4.0910   -14.5080    -0.6560 N.am  1 <1>  -0.8490 
 23 C       -3.3310   -14.9640    -1.8250 C.3   1 <1>   0.1160 
 24 C       -4.2840   -15.6210     0.2790 C.3   1 <1>   0.1160 
 25 H        0.6370    -3.3570    -2.6320 H     1 <1>   0.1500 
 26 H       -0.5810    -1.5460     1.0160 H     1 <1>   0.1500 
 27 H       -1.4130    -3.7800     1.7150 H     1 <1>   0.1500 
 28 H       -1.0090    -6.6990    -0.5280 H     1 <1>   0.3700 
 29 H       -3.3060    -8.2120     1.5100 H     1 <1>   0.0800 
 30 H       -1.6140    -8.5140     1.7590 H     1 <1>   0.0800 
 31 H       -3.6770    -7.2130    -0.9110 H     1 <1>   0.0800 
 32 H       -2.9220    -8.1710    -2.1600 H     1 <1>   0.0800 
 33 H       -1.8080   -10.4740    -1.1030 H     1 <1>   0.0800 
 34 H       -1.8070   -10.4940     0.6440 H     1 <1>   0.0800 
 35 H       -4.6980    -9.5680    -2.0620 H     1 <1>   0.0800 
 36 H       -4.1540   -10.3780     0.7500 H     1 <1>   0.0800 
 37 H       -5.2690    -8.4480     0.4690 H     1 <1>   0.4000 
 38 H       -3.7470   -11.8410    -1.8640 H     1 <1>   0.0800 
 39 H       -5.1780   -11.9010    -0.8870 H     1 <1>   0.0800 
 40 H       -3.8510   -15.7710    -2.3130 H     1 <1>   0.0800 
 41 H       -2.3530   -15.3060    -1.5280 H     1 <1>   0.0800 
 42 H       -3.2150   -14.1600    -2.5310 H     1 <1>   0.0800 
 43 H       -4.7230   -16.4630    -0.2280 H     1 <1>   0.0800 
 44 H       -4.9480   -15.3240     1.0730 H     1 <1>   0.0800 
 45 H       -3.3410   -15.9160     0.7080 H     1 <1>   0.0800 
@<TRIPOS>BOND
  1   1   2  1   
  2   2   3  ar  
  3   2   4  ar  
  4   3   5  ar  
  5   3  25  1   
  6   4   6  ar  
  7   4  26  1   
  8   5   7  ar  
  9   6   7  ar  
 10   6  27  1   
 11   7   8  1   
 12   8   9  am  
 13   8  28  1   
 14   9  10  2   
 15   9  11  1   
 16  11  12  1   
 17  11  29  1   
 18  11  30  1   
 19  12  13  1   
 20  12  14  1   
 21  13  15  1   
 22  13  31  1   
 23  13  32  1   
 24  14  16  1   
 25  14  33  1   
 26  14  34  1   
 27  15  16  1   
 28  15  17  1   
 29  15  35  1   
 30  16  18  1   
 31  16  36  1   
 32  17  37  1   
 33  18  19  1   
 34  18  38  1   
 35  18  39  1   
 36  19  20  2   
 37  19  21  2   
 38  19  22  am  
 39  22  23  1   
 40  22  24  1   
 41  23  40  1   
 42  23  41  1   
 43  23  42  1   
 44  24  43  1   
 45  24  44  1   
 46  24  45  1   
@<TRIPOS>SUBSTRUCTURE
  1 ****  12 GROUP 4 **** **** 0

# MOE 2024.06 (io_trps.svl 2023.06)
