@<TRIPOS>MOLECULE
NONAME
51 53 1 0 0 
SMALL
USER_CHARGES


@<TRIPOS>ATOM
  1 O        0.9760     0.3830     0.0510 O.3   1 <1>  -0.6800 
  2 C        1.4160    -0.5690     0.9780 C.3   1 <1>   0.1200 
  3 C        2.8680    -0.2620     1.3920 C.3   1 <1>   0.3430 
  4 N        3.6170     0.2510     0.2080 N.4   1 <1>  -0.9590 
  5 C        4.6000    -0.7280    -0.3540 C.3   1 <1>   0.5240 
  6 C        4.2040     1.5830     0.4510 C.3   1 <1>   0.5240 
  7 C        3.9430    -2.0570    -0.7140 C.2   1 <1>   0.0460 
  8 C        4.6400     2.1790    -0.8690 C.2   1 <1>  -0.1810 
  9 N        3.5880    -2.9500     0.2340 N.2   1 <1>  -0.5650 
 10 C        3.6460    -2.5280    -1.9460 C.2   1 <1>  -0.3020 
 11 C        5.9420     2.1250    -1.3740 C.2   1 <1>   0.2350 
 12 C        3.9190     2.8450    -1.7960 C.2   1 <1>  -0.3020 
 13 C        3.0940    -3.9400    -0.4340 C.2   1 <1>   0.0060 
 14 N        3.0990    -3.7440    -1.7700 N.pl3 1 <1>   0.0330 
 15 N        6.0090     2.7000    -2.5430 N.2   1 <1>  -0.7070 
 16 C        7.0440     1.4720    -0.7030 C.ar  1 <1>   0.0540 
 17 N        4.7710     3.1540    -2.7940 N.pl3 1 <1>   0.3000 
 18 C        2.5620    -5.2080     0.2020 C.3   1 <1>  -0.0600 
 19 C        7.6000     1.9490     0.4890 C.ar  1 <1>  -0.1430 
 20 C        7.5430     0.2860    -1.2370 C.ar  1 <1>  -0.1500 
 21 C        8.5630     1.2030     1.1470 C.ar  1 <1>  -0.1500 
 22 C        7.1970     3.2940     1.0820 C.3   1 <1>  -0.0970 
 23 C        8.5060    -0.4580    -0.5800 C.ar  1 <1>  -0.1430 
 24 C        9.0070     0.0020     0.6230 C.ar  1 <1>  -0.1500 
 25 C        9.0230    -1.7600    -1.1670 C.3   1 <1>  -0.0970 
 26 H        0.0350     0.2260    -0.1830 H     1 <1>   0.4000 
 27 H        1.3540    -1.5410     0.5180 H     1 <1>   0.0800 
 28 H        0.7670    -0.5500     1.8370 H     1 <1>   0.0800 
 29 H        3.3330    -1.1470     1.7940 H     1 <1>   0.0800 
 30 H        2.8480     0.4830     2.1690 H     1 <1>   0.0800 
 31 H        2.8720     0.3880    -0.4970 H     1 <1>   0.4500 
 32 H        5.3930    -0.9080     0.3520 H     1 <1>   0.0800 
 33 H        5.0350    -0.3210    -1.2500 H     1 <1>   0.0800 
 34 H        5.0450     1.5050     1.1210 H     1 <1>   0.0800 
 35 H        3.4650     2.2290     0.8970 H     1 <1>   0.0800 
 36 H        3.7930    -2.0870    -2.9170 H     1 <1>   0.1500 
 37 H        2.8770     3.1150    -1.8160 H     1 <1>   0.1500 
 38 H        2.7650    -4.3940    -2.4900 H     1 <1>   0.2700 
 39 H        4.5410     3.6690    -3.6560 H     1 <1>   0.2700 
 40 H        2.6640    -5.1520     1.2710 H     1 <1>   0.0800 
 41 H        3.1180    -6.0580    -0.1500 H     1 <1>   0.0800 
 42 H        1.5230    -5.3380    -0.0400 H     1 <1>   0.0800 
 43 H        7.1630    -0.0490    -2.1860 H     1 <1>   0.1500 
 44 H        8.9870     1.5570     2.0710 H     1 <1>   0.1500 
 45 H        6.8990     3.9800     0.3090 H     1 <1>   0.0800 
 46 H        8.0320     3.7350     1.5970 H     1 <1>   0.0800 
 47 H        6.3910     3.1760     1.7820 H     1 <1>   0.0800 
 48 H        9.7560    -0.5640     1.1500 H     1 <1>   0.1500 
 49 H        8.6950    -1.8810    -2.1840 H     1 <1>   0.0800 
 50 H        8.6670    -2.5920    -0.5870 H     1 <1>   0.0800 
 51 H       10.0980    -1.7650    -1.1570 H     1 <1>   0.0800 
@<TRIPOS>BOND
  1   1   2  1   
  2   1  26  1   
  3   2   3  1   
  4   2  27  1   
  5   2  28  1   
  6   3   4  1   
  7   3  29  1   
  8   3  30  1   
  9   4   5  1   
 10   4   6  1   
 11   4  31  1   
 12   5   7  1   
 13   5  32  1   
 14   5  33  1   
 15   6   8  1   
 16   6  34  1   
 17   6  35  1   
 18   7   9  1   
 19   7  10  2   
 20   8  11  1   
 21   8  12  2   
 22   9  13  2   
 23  10  14  1   
 24  10  36  1   
 25  11  15  2   
 26  11  16  1   
 27  12  17  1   
 28  12  37  1   
 29  13  14  1   
 30  13  18  1   
 31  14  38  1   
 32  15  17  1   
 33  16  19  ar  
 34  16  20  ar  
 35  17  39  1   
 36  18  40  1   
 37  18  41  1   
 38  18  42  1   
 39  19  21  ar  
 40  19  22  1   
 41  20  23  ar  
 42  20  43  1   
 43  21  24  ar  
 44  21  44  1   
 45  22  45  1   
 46  22  46  1   
 47  22  47  1   
 48  23  24  ar  
 49  23  25  1   
 50  24  48  1   
 51  25  49  1   
 52  25  50  1   
 53  25  51  1   
@<TRIPOS>SUBSTRUCTURE
  1 ****   5 GROUP 4 **** **** 0

# MOE 2024.06 (io_trps.svl 2023.06)
