@<TRIPOS>MOLECULE
NONAME
49 52 1 0 0 
SMALL
USER_CHARGES


@<TRIPOS>ATOM
  1 O        1.9530     0.4590     1.9780 O.2   1 <1>  -0.5700 
  2 C        2.1740    -0.6790     1.6290 C.2   1 <1>   0.9370 
  3 N        3.0540    -0.9120     0.5610 N.pl3 1 <1>  -0.5760 
  4 C        1.5510    -1.7740     2.2780 C.2   1 <1>  -0.1360 
  5 C        3.2990    -2.1900     0.1730 C.cat 1 <1>   0.7390 
  6 C        3.6650     0.1250    -0.1060 C.2   1 <1>   0.1910 
  7 C        1.8180    -3.0290     1.8770 C.2   1 <1>   0.2030 
  8 N        2.7040    -3.1950     0.8430 N.pl3 1 <1>  -0.6450 
  9 C        4.1570    -2.4400    -0.9070 C.2   1 <1>  -0.1800 
 10 C        4.5080    -0.1040    -1.1570 C.2   1 <1>  -0.1500 
 11 C        1.2010    -4.3020     2.4510 C.3   1 <1>   0.2480 
 12 C        4.7670    -1.4130    -1.5770 C.2   1 <1>  -0.1500 
 13 N        0.4900    -5.0090     1.3610 N.3   1 <1>  -0.8100 
 14 C        1.0070    -6.3880     1.1290 C.3   1 <1>   0.2530 
 15 C       -0.9930    -4.9760     1.4850 C.3   1 <1>   0.1100 
 16 C        2.2720    -6.4060     0.2630 C.ar  1 <1>   0.1670 
 17 C       -1.6930    -4.6140     0.1520 C.3   1 <1>   0.2200 
 18 N        3.4120    -5.9950     0.8150 N.ar  1 <1>  -0.6200 
 19 C        2.1790    -6.8620    -1.0440 C.ar  1 <1>  -0.1500 
 20 N       -1.0190    -5.2370    -0.9880 N.am  1 <1>  -0.7300 
 21 C       -3.1250    -5.1740     0.0460 C.3   1 <1>  -0.1600 
 22 C        4.4950    -6.1010     0.0560 C.ar  1 <1>   0.1600 
 23 C        3.3070    -6.9300    -1.8320 C.ar  1 <1>  -0.1500 
 24 C       -1.6830    -6.2650    -1.5230 C.2   1 <1>   0.5690 
 25 C       -3.0570    -6.3720    -0.9260 C.3   1 <1>  -0.0990 
 26 C        4.4950    -6.5460    -1.2530 C.ar  1 <1>  -0.1500 
 27 O       -1.2110    -7.0440    -2.3090 O.2   1 <1>  -0.5700 
 28 H        0.8730    -1.5380     3.0750 H     1 <1>   0.1500 
 29 H        3.4660     1.1380     0.2160 H     1 <1>   0.1500 
 30 H        2.8910    -4.1790     0.5670 H     1 <1>   0.4500 
 31 H        4.3270    -3.4580    -1.2040 H     1 <1>   0.1500 
 32 H        4.9800     0.7160    -1.6730 H     1 <1>   0.1500 
 33 H        0.5330    -4.0650     3.2610 H     1 <1>   0.0800 
 34 H        1.9900    -4.9170     2.8510 H     1 <1>   0.0800 
 35 H        5.4300    -1.5890    -2.4100 H     1 <1>   0.1500 
 36 H        1.2090    -6.8750     2.0680 H     1 <1>   0.0800 
 37 H        0.2570    -6.9750     0.6270 H     1 <1>   0.0800 
 38 H       -1.3490    -5.9320     1.8330 H     1 <1>   0.0800 
 39 H       -1.2990    -4.2460     2.2130 H     1 <1>   0.0800 
 40 H       -1.6980    -3.5450     0.0240 H     1 <1>   0.0800 
 41 H        1.2330    -7.1780    -1.4520 H     1 <1>   0.1500 
 42 H       -0.0120    -5.1180    -1.1010 H     1 <1>   0.3700 
 43 H       -3.5290    -5.4550     1.0020 H     1 <1>   0.0800 
 44 H       -3.7590    -4.4130    -0.3750 H     1 <1>   0.0800 
 45 H        5.4360    -5.8200     0.5010 H     1 <1>   0.1500 
 46 H        3.2580    -7.2830    -2.8500 H     1 <1>   0.1500 
 47 H       -3.8050    -6.3100    -1.6950 H     1 <1>   0.0800 
 48 H       -3.1430    -7.3070    -0.4040 H     1 <1>   0.0800 
 49 H        5.4140    -6.5990    -1.8100 H     1 <1>   0.1500 
@<TRIPOS>BOND
  1   1   2  2   
  2   2   3  1   
  3   2   4  1   
  4   3   5  ar  
  5   3   6  1   
  6   4   7  2   
  7   4  28  1   
  8   5   8  ar  
  9   5   9  1   
 10   6  10  2   
 11   6  29  1   
 12   7   8  1   
 13   7  11  1   
 14   8  30  1   
 15   9  12  2   
 16   9  31  1   
 17  10  12  1   
 18  10  32  1   
 19  11  13  1   
 20  11  33  1   
 21  11  34  1   
 22  12  35  1   
 23  13  14  1   
 24  13  15  1   
 25  14  16  1   
 26  14  36  1   
 27  14  37  1   
 28  15  17  1   
 29  15  38  1   
 30  15  39  1   
 31  16  18  ar  
 32  16  19  ar  
 33  17  20  1   
 34  17  21  1   
 35  17  40  1   
 36  18  22  ar  
 37  19  23  ar  
 38  19  41  1   
 39  20  24  am  
 40  20  42  1   
 41  21  25  1   
 42  21  43  1   
 43  21  44  1   
 44  22  26  ar  
 45  22  45  1   
 46  23  26  ar  
 47  23  46  1   
 48  24  25  1   
 49  24  27  2   
 50  25  47  1   
 51  25  48  1   
 52  26  49  1   
@<TRIPOS>SUBSTRUCTURE
  1 ****   8 GROUP 4 **** **** 0

# MOE 2024.06 (io_trps.svl 2023.06)
