@<TRIPOS>MOLECULE
NONAME
39 40 1 0 0 
SMALL
USER_CHARGES


@<TRIPOS>ATOM
  1 O        1.1430    -0.5340    -0.6220 O.3   1 <1>  -0.5600 
  2 C        0.5290    -0.9520     0.5610 C.3   1 <1>   0.2000 
  3 C        1.1100     0.8430    -0.8440 C.3   1 <1>   0.1200 
  4 C        1.2830    -0.3530     1.7580 C.3   1 <1>  -0.1600 
  5 C        0.5380    -2.4810     0.5900 C.3   1 <1>  -0.1600 
  6 C        1.8940     1.5600     0.2620 C.3   1 <1>  -0.1600 
  7 C        1.3620     1.1740     1.6470 C.3   1 <1>  -0.1600 
  8 C       -0.1820    -3.0670    -0.6240 C.3   1 <1>   0.2090 
  9 N       -0.2690    -4.5450    -0.4770 N.pl3 1 <1>  -0.8380 
 10 C       -1.4100    -5.1680    -0.0050 C.ar  1 <1>   0.7200 
 11 C        0.8590    -5.3150    -1.0700 C.3   1 <1>   0.1290 
 12 N       -1.5330    -6.4740    -0.2500 N.ar  1 <1>  -0.6200 
 13 N       -2.2870    -4.4130     0.6580 N.ar  1 <1>  -0.6200 
 14 C       -2.6180    -7.0550     0.2050 C.ar  1 <1>   0.1600 
 15 C       -3.3620    -5.0230     1.1020 C.ar  1 <1>   0.1600 
 16 C       -3.5910    -6.3670     0.9060 C.ar  1 <1>   0.0820 
 17 O       -4.7380    -6.9150     1.4050 O.3   1 <1>  -0.3630 
 18 C       -5.0080    -8.2880     1.2250 C.3   1 <1>   0.0400 
 19 H       -0.4900    -0.6010     0.5510 H     1 <1>   0.0800 
 20 H        0.0820     1.1630    -0.8650 H     1 <1>   0.0800 
 21 H        1.5560     1.0310    -1.8050 H     1 <1>   0.0800 
 22 H        2.2770    -0.7660     1.7880 H     1 <1>   0.0800 
 23 H        0.7850    -0.6250     2.6710 H     1 <1>   0.0800 
 24 H        0.0360    -2.8120     1.4810 H     1 <1>   0.0800 
 25 H        1.5510    -2.8350     0.6170 H     1 <1>   0.0800 
 26 H        1.8210     2.6250     0.1240 H     1 <1>   0.0800 
 27 H        2.9310     1.2870     0.1800 H     1 <1>   0.0800 
 28 H        2.0040     1.5700     2.4150 H     1 <1>   0.0800 
 29 H        0.3790     1.5920     1.7800 H     1 <1>   0.0800 
 30 H        0.3530    -2.8210    -1.5250 H     1 <1>   0.0800 
 31 H       -1.1680    -2.6430    -0.7060 H     1 <1>   0.0800 
 32 H        1.7700    -4.7480    -1.0090 H     1 <1>   0.0800 
 33 H        0.6430    -5.5320    -2.1020 H     1 <1>   0.0800 
 34 H        0.9980    -6.2410    -0.5390 H     1 <1>   0.0800 
 35 H       -2.7240    -8.1050     0.0110 H     1 <1>   0.1500 
 36 H       -4.0900    -4.4450     1.6410 H     1 <1>   0.1500 
 37 H       -5.9520    -8.5070     1.6910 H     1 <1>   0.0800 
 38 H       -4.2290    -8.8640     1.6940 H     1 <1>   0.0800 
 39 H       -5.0660    -8.5010     0.1720 H     1 <1>   0.0800 
@<TRIPOS>BOND
  1   1   2  1   
  2   1   3  1   
  3   2   4  1   
  4   2   5  1   
  5   2  19  1   
  6   3   6  1   
  7   3  20  1   
  8   3  21  1   
  9   4   7  1   
 10   4  22  1   
 11   4  23  1   
 12   5   8  1   
 13   5  24  1   
 14   5  25  1   
 15   6   7  1   
 16   6  26  1   
 17   6  27  1   
 18   7  28  1   
 19   7  29  1   
 20   8   9  1   
 21   8  30  1   
 22   8  31  1   
 23   9  10  1   
 24   9  11  1   
 25  10  12  ar  
 26  10  13  ar  
 27  11  32  1   
 28  11  33  1   
 29  11  34  1   
 30  12  14  ar  
 31  13  15  ar  
 32  14  16  ar  
 33  14  35  1   
 34  15  16  ar  
 35  15  36  1   
 36  16  17  1   
 37  17  18  1   
 38  18  37  1   
 39  18  38  1   
 40  18  39  1   
@<TRIPOS>SUBSTRUCTURE
  1 ****   8 GROUP 4 **** **** 0

# MOE 2024.06 (io_trps.svl 2023.06)
