@<TRIPOS>MOLECULE
NONAME
48 50 1 0 0 
SMALL
USER_CHARGES


@<TRIPOS>ATOM
  1 O       -0.7200    -0.6860    -0.3100 O.3   1 <1>  -0.6800 
  2 C       -0.2480    -1.4650     0.7430 C.3   1 <1>   0.1200 
  3 C        1.2500    -1.9360     0.4230 C.3   1 <1>   0.0000 
  4 C        2.7740    -2.3780     0.1850 C.3   1 <1>   0.4230 
  5 C        1.8010    -0.4790     0.8850 C.3   1 <1>  -0.1600 
  6 C        0.6510    -3.3460    -0.1010 C.3   1 <1>  -0.1600 
  7 N        3.1860    -3.8110     0.4490 N.4   1 <1>  -0.9590 
  8 C        3.3060    -1.7780    -1.1310 C.3   1 <1>   0.2090 
  9 C        2.4500     0.3450    -0.2560 C.3   1 <1>   0.2090 
 10 C        1.3900    -4.2700    -1.1020 C.3   1 <1>  -0.1600 
 11 C        2.7590    -4.7220    -0.6270 C.3   1 <1>   0.3430 
 12 C        4.6600    -3.9000     0.6990 C.3   1 <1>   0.2630 
 13 N        3.6240    -0.3770    -0.8070 N.pl3 1 <1>  -0.8380 
 14 C        4.8970     0.0120    -0.4610 C.ar  1 <1>   0.7200 
 15 N        5.7300    -0.9470    -0.0500 N.ar  1 <1>  -0.6200 
 16 N        5.1620     1.3090    -0.5480 N.ar  1 <1>  -0.6200 
 17 C        6.9400    -0.5460     0.2660 C.ar  1 <1>   0.1600 
 18 C        6.3780     1.6730    -0.2240 C.ar  1 <1>   0.1600 
 19 C        7.3290     0.7730     0.1990 C.ar  1 <1>  -0.1430 
 20 C        8.7360     1.2150     0.5680 C.3   1 <1>  -0.0170 
 21 C        9.6550     1.1640    -0.6540 C.3   1 <1>  -0.2400 
 22 H       -1.6340    -0.3760    -0.1410 H     1 <1>   0.4000 
 23 H       -0.3560    -0.9100     1.6620 H     1 <1>   0.0800 
 24 H       -0.9800    -2.2410     0.9080 H     1 <1>   0.0800 
 25 H        3.3760    -1.8730     0.9170 H     1 <1>   0.0800 
 26 H        2.4830    -0.5410     1.7180 H     1 <1>   0.0800 
 27 H        1.1020     0.2480     1.2630 H     1 <1>   0.0800 
 28 H        0.4030    -3.9480     0.7600 H     1 <1>   0.0800 
 29 H       -0.2650    -3.2130    -0.6620 H     1 <1>   0.0800 
 30 H        2.6920    -4.0870     1.3070 H     1 <1>   0.4500 
 31 H        2.5550    -1.7950    -1.9010 H     1 <1>   0.0800 
 32 H        4.1830    -2.2860    -1.4870 H     1 <1>   0.0800 
 33 H        2.7450     1.3120     0.1180 H     1 <1>   0.0800 
 34 H        1.7330     0.5080    -1.0450 H     1 <1>   0.0800 
 35 H        1.4920    -3.7710    -2.0490 H     1 <1>   0.0800 
 36 H        0.7930    -5.1460    -1.2910 H     1 <1>   0.0800 
 37 H        3.4550    -4.6930    -1.4500 H     1 <1>   0.0800 
 38 H        2.7090    -5.7320    -0.2510 H     1 <1>   0.0800 
 39 H        5.2100    -3.6090    -0.1820 H     1 <1>   0.0800 
 40 H        4.9380    -4.9060     0.9650 H     1 <1>   0.0800 
 41 H        4.9430    -3.2370     1.5010 H     1 <1>   0.0800 
 42 H        7.6500    -1.2870     0.5890 H     1 <1>   0.1500 
 43 H        6.6230     2.7190    -0.2980 H     1 <1>   0.1500 
 44 H        8.7110     2.2190     0.9570 H     1 <1>   0.0800 
 45 H        9.1290     0.5770     1.3410 H     1 <1>   0.0800 
 46 H        9.2810     1.8100    -1.4300 H     1 <1>   0.0800 
 47 H        9.7120     0.1610    -1.0400 H     1 <1>   0.0800 
 48 H       10.6460     1.4870    -0.3870 H     1 <1>   0.0800 
@<TRIPOS>BOND
  1   1   2  1   
  2   1  22  1   
  3   2   3  1   
  4   2  23  1   
  5   2  24  1   
  6   3   4  1   
  7   3   5  1   
  8   3   6  1   
  9   4   7  1   
 10   4   8  1   
 11   4  25  1   
 12   5   9  1   
 13   5  26  1   
 14   5  27  1   
 15   6  10  1   
 16   6  28  1   
 17   6  29  1   
 18   7  11  1   
 19   7  12  1   
 20   7  30  1   
 21   8  13  1   
 22   8  31  1   
 23   8  32  1   
 24   9  13  1   
 25   9  33  1   
 26   9  34  1   
 27  10  11  1   
 28  10  35  1   
 29  10  36  1   
 30  11  37  1   
 31  11  38  1   
 32  12  39  1   
 33  12  40  1   
 34  12  41  1   
 35  13  14  1   
 36  14  15  ar  
 37  14  16  ar  
 38  15  17  ar  
 39  16  18  ar  
 40  17  19  ar  
 41  17  42  1   
 42  18  19  ar  
 43  18  43  1   
 44  19  20  1   
 45  20  21  1   
 46  20  44  1   
 47  20  45  1   
 48  21  46  1   
 49  21  47  1   
 50  21  48  1   
@<TRIPOS>SUBSTRUCTURE
  1 ****  13 GROUP 4 **** **** 0

# MOE 2024.06 (io_trps.svl 2023.06)
