@<TRIPOS>MOLECULE
NONAME
58 60 1 0 0 
SMALL
USER_CHARGES


@<TRIPOS>ATOM
  1 O        3.2650    -0.9480     1.5910 O.2   1 <1>  -0.5700 
  2 C        2.6530    -1.0970     0.5470 C.2   1 <1>   0.7160 
  3 N        2.3830     0.0450    -0.1650 N.am  1 <1>  -0.6600 
  4 C        2.3820    -2.4100     0.0160 C.2   1 <1>  -0.0860 
  5 C        3.2590     0.3840    -1.3260 C.3   1 <1>   0.1400 
  6 C        1.6540     1.1860     0.4560 C.3   1 <1>   0.1400 
  7 C        1.4390    -2.7980    -0.9470 C.2   1 <1>   0.1080 
  8 C        2.9950    -3.5850     0.3310 C.2   1 <1>  -0.3020 
  9 C        4.6950     0.7310    -0.8720 C.3   1 <1>   0.3430 
 10 C        2.5550     2.0560     1.3500 C.3   1 <1>  -0.1600 
 11 N        1.4880    -4.0610    -1.2110 N.2   1 <1>  -0.7070 
 12 C        0.4260    -1.9080    -1.6360 C.3   1 <1>  -0.0590 
 13 N        2.4450    -4.5550    -0.4120 N.pl3 1 <1>   0.3140 
 14 N        4.7410     1.2690     0.5310 N.4   1 <1>  -0.9590 
 15 C        3.8950     2.4730     0.7380 C.3   1 <1>   0.3430 
 16 C        2.7850    -5.9910    -0.3970 C.3   1 <1>   0.0960 
 17 C        6.1190     1.3830     1.1080 C.3   1 <1>   0.3430 
 18 C        2.0230    -6.7230     0.7170 C.3   1 <1>  -0.1600 
 19 C        7.1390     2.1160     0.2160 C.3   1 <1>  -0.0800 
 20 C        2.3670    -8.2160     0.7420 C.3   1 <1>  -0.2400 
 21 C        8.5110     2.0750     0.9100 C.3   1 <1>   0.1200 
 22 C        6.7720     3.5800    -0.1060 C.3   1 <1>  -0.1600 
 23 O        9.4530     2.6820     0.0880 O.3   1 <1>  -0.5600 
 24 C        7.9310     4.2630    -0.8450 C.3   1 <1>  -0.1600 
 25 C        9.2620     4.0480    -0.1170 C.3   1 <1>   0.1200 
 26 H        2.8410     1.2170    -1.8630 H     1 <1>   0.0800 
 27 H        3.2960    -0.4500    -2.0080 H     1 <1>   0.0800 
 28 H        0.8420     0.7980     1.0500 H     1 <1>   0.0800 
 29 H        1.2200     1.7900    -0.3240 H     1 <1>   0.0800 
 30 H        3.7790    -3.7620     1.0440 H     1 <1>   0.1500 
 31 H        5.1290     1.4370    -1.5610 H     1 <1>   0.0800 
 32 H        5.2850    -0.1700    -0.9180 H     1 <1>   0.0800 
 33 H        2.7290     1.5500     2.2830 H     1 <1>   0.0800 
 34 H        2.0060     2.9480     1.5920 H     1 <1>   0.0800 
 35 H       -0.0330    -1.2460    -0.9260 H     1 <1>   0.0800 
 36 H       -0.3430    -2.5150    -2.0810 H     1 <1>   0.0800 
 37 H        0.9020    -1.3370    -2.4090 H     1 <1>   0.0800 
 38 H        4.2560     0.5310     1.0910 H     1 <1>   0.4500 
 39 H        4.3880     3.1500     1.4170 H     1 <1>   0.0800 
 40 H        3.7360     2.9880    -0.1960 H     1 <1>   0.0800 
 41 H        3.8450    -6.0910    -0.2530 H     1 <1>   0.0800 
 42 H        2.5260    -6.4060    -1.3550 H     1 <1>   0.0800 
 43 H        6.4940     0.3880     1.2900 H     1 <1>   0.0800 
 44 H        6.0640     1.8800     2.0630 H     1 <1>   0.0800 
 45 H        0.9640    -6.6060     0.5530 H     1 <1>   0.0800 
 46 H        2.2700    -6.2860     1.6690 H     1 <1>   0.0800 
 47 H        7.2540     1.5680    -0.7020 H     1 <1>   0.0800 
 48 H        2.1070    -8.6780    -0.1950 H     1 <1>   0.0800 
 49 H        1.8170    -8.7060     1.5260 H     1 <1>   0.0800 
 50 H        3.4180    -8.3600     0.9220 H     1 <1>   0.0800 
 51 H        8.8330     1.0600     1.0670 H     1 <1>   0.0800 
 52 H        8.5000     2.5900     1.8570 H     1 <1>   0.0800 
 53 H        6.5800     4.1170     0.8070 H     1 <1>   0.0800 
 54 H        5.8960     3.6300    -0.7270 H     1 <1>   0.0800 
 55 H        7.7410     5.3190    -0.9360 H     1 <1>   0.0800 
 56 H        8.0210     3.8630    -1.8410 H     1 <1>   0.0800 
 57 H       10.0830     4.4090    -0.7130 H     1 <1>   0.0800 
 58 H        9.2780     4.5470     0.8370 H     1 <1>   0.0800 
@<TRIPOS>BOND
  1   1   2  2   
  2   2   3  am  
  3   2   4  1   
  4   3   5  1   
  5   3   6  1   
  6   4   7  1   
  7   4   8  2   
  8   5   9  1   
  9   5  26  1   
 10   5  27  1   
 11   6  10  1   
 12   6  28  1   
 13   6  29  1   
 14   7  11  2   
 15   7  12  1   
 16   8  13  1   
 17   8  30  1   
 18   9  14  1   
 19   9  31  1   
 20   9  32  1   
 21  10  15  1   
 22  10  33  1   
 23  10  34  1   
 24  11  13  1   
 25  12  35  1   
 26  12  36  1   
 27  12  37  1   
 28  13  16  1   
 29  14  15  1   
 30  14  17  1   
 31  14  38  1   
 32  15  39  1   
 33  15  40  1   
 34  16  18  1   
 35  16  41  1   
 36  16  42  1   
 37  17  19  1   
 38  17  43  1   
 39  17  44  1   
 40  18  20  1   
 41  18  45  1   
 42  18  46  1   
 43  19  21  1   
 44  19  22  1   
 45  19  47  1   
 46  20  48  1   
 47  20  49  1   
 48  20  50  1   
 49  21  23  1   
 50  21  51  1   
 51  21  52  1   
 52  22  24  1   
 53  22  53  1   
 54  22  54  1   
 55  23  25  1   
 56  24  25  1   
 57  24  55  1   
 58  24  56  1   
 59  25  57  1   
 60  25  58  1   
@<TRIPOS>SUBSTRUCTURE
  1 ****   2 GROUP 4 **** **** 0

# MOE 2024.06 (io_trps.svl 2023.06)
