@<TRIPOS>MOLECULE
NONAME
46 48 1 0 0 
SMALL
USER_CHARGES


@<TRIPOS>ATOM
  1 CL       0.8320     1.0700    -0.8890 Cl    1 <1>  -0.1240 
  2 C        2.2020     0.0750    -0.4510 C.2   1 <1>  -0.0280 
  3 N        2.4050    -1.1620    -0.9370 N.pl3 1 <1>   0.3140 
  4 C        3.2120     0.3860     0.3830 C.2   1 <1>  -0.1810 
  5 N        3.5530    -1.6630    -0.4390 N.2   1 <1>  -0.7070 
  6 C        1.5560    -1.9200    -1.8660 C.3   1 <1>   0.0160 
  7 C        4.0250    -0.7470     0.3520 C.2   1 <1>   0.1080 
  8 C        3.3990     1.6710     1.1490 C.3   1 <1>   0.5240 
  9 C        5.3190    -0.9600     1.1230 C.3   1 <1>   0.0210 
 10 N        4.4920     2.4470     0.5120 N.4   1 <1>  -0.9590 
 11 C        5.0510    -1.2380     2.6060 C.3   1 <1>  -0.2400 
 12 C        4.9820     3.5810     1.3720 C.3   1 <1>   0.3430 
 13 C        4.1940     2.7930    -0.9170 C.3   1 <1>   0.3430 
 14 C        6.3070     4.2430     0.9020 C.3   1 <1>   0.2200 
 15 C        5.4300     3.2280    -1.7130 C.3   1 <1>  -0.0190 
 16 N        6.0680     5.1490    -0.2570 N.am  1 <1>  -0.6600 
 17 C        7.4440     3.2390     0.5920 C.3   1 <1>   0.1200 
 18 C        5.6590     4.6990    -1.4810 C.2   1 <1>   0.5690 
 19 C        6.7180     2.3980    -1.5230 C.3   1 <1>   0.1200 
 20 C        6.3630     6.5980    -0.0240 C.3   1 <1>   0.0600 
 21 O        7.0160     2.1440    -0.1770 O.3   1 <1>  -0.5600 
 22 O        5.4300     5.4450    -2.3980 O.2   1 <1>  -0.5700 
 23 H        0.5770    -2.0330    -1.4400 H     1 <1>   0.0800 
 24 H        1.9900    -2.8890    -2.0300 H     1 <1>   0.0800 
 25 H        1.4910    -1.3920    -2.7990 H     1 <1>   0.0800 
 26 H        3.6480     1.4410     2.1720 H     1 <1>   0.0800 
 27 H        2.4830     2.2390     1.1360 H     1 <1>   0.0800 
 28 H        5.8340    -1.8040     0.6980 H     1 <1>   0.0800 
 29 H        5.9600    -0.1060     1.0150 H     1 <1>   0.0800 
 30 H        5.3070     1.8080     0.4300 H     1 <1>   0.4500 
 31 H        4.4230    -2.1080     2.7020 H     1 <1>   0.0800 
 32 H        4.5620    -0.4070     3.0770 H     1 <1>   0.0800 
 33 H        5.9780    -1.4310     3.1170 H     1 <1>   0.0800 
 34 H        4.2240     4.3430     1.4390 H     1 <1>   0.0800 
 35 H        5.1500     3.2020     2.3660 H     1 <1>   0.0800 
 36 H        3.7870     1.9250    -1.4090 H     1 <1>   0.0800 
 37 H        3.4470     3.5700    -0.9630 H     1 <1>   0.0800 
 38 H        6.6530     4.8580     1.7150 H     1 <1>   0.0800 
 39 H        5.1670     3.1370    -2.7520 H     1 <1>   0.0800 
 40 H        7.8190     2.8340     1.5160 H     1 <1>   0.0800 
 41 H        8.2630     3.7260     0.0890 H     1 <1>   0.0800 
 42 H        7.5630     2.8890    -1.9810 H     1 <1>   0.0800 
 43 H        6.5970     1.4390    -1.9990 H     1 <1>   0.0800 
 44 H        5.7290     6.9830     0.7560 H     1 <1>   0.0800 
 45 H        6.1900     7.1770    -0.9160 H     1 <1>   0.0800 
 46 H        7.3930     6.7220     0.2610 H     1 <1>   0.0800 
@<TRIPOS>BOND
  1   1   2  1   
  2   2   3  1   
  3   2   4  2   
  4   3   5  1   
  5   3   6  1   
  6   4   7  1   
  7   4   8  1   
  8   5   7  2   
  9   6  23  1   
 10   6  24  1   
 11   6  25  1   
 12   7   9  1   
 13   8  10  1   
 14   8  26  1   
 15   8  27  1   
 16   9  11  1   
 17   9  28  1   
 18   9  29  1   
 19  10  12  1   
 20  10  13  1   
 21  10  30  1   
 22  11  31  1   
 23  11  32  1   
 24  11  33  1   
 25  12  14  1   
 26  12  34  1   
 27  12  35  1   
 28  13  15  1   
 29  13  36  1   
 30  13  37  1   
 31  14  16  1   
 32  14  17  1   
 33  14  38  1   
 34  15  18  1   
 35  15  19  1   
 36  15  39  1   
 37  16  18  am  
 38  16  20  1   
 39  17  21  1   
 40  17  40  1   
 41  17  41  1   
 42  18  22  2   
 43  19  21  1   
 44  19  42  1   
 45  19  43  1   
 46  20  44  1   
 47  20  45  1   
 48  20  46  1   
@<TRIPOS>SUBSTRUCTURE
  1 ****  10 GROUP 4 **** **** 0

# MOE 2024.06 (io_trps.svl 2023.06)
