@<TRIPOS>MOLECULE
NONAME
58 61 1 0 0 
SMALL
USER_CHARGES


@<TRIPOS>ATOM
  1 O       -1.0690    -0.0830    -1.7690 O.2   1 <1>  -0.5700 
  2 C       -2.0000     0.6930    -1.6930 C.2   1 <1>   0.5440 
  3 N       -3.2870     0.2230    -1.8660 N.am  1 <1>  -0.6600 
  4 C       -1.7570     2.0790    -1.3550 C.ar  1 <1>   0.0860 
  5 C       -3.5440    -1.2360    -2.0790 C.3   1 <1>   0.3210 
  6 C       -4.5050     1.0370    -1.5920 C.3   1 <1>   0.1400 
  7 C       -1.2300     2.4210    -0.1200 C.ar  1 <1>  -0.1500 
  8 C       -2.0930     3.1160    -2.2510 C.ar  1 <1>  -0.1500 
  9 C       -4.0400    -1.9050    -0.7940 C.2   1 <1>   0.0460 
 10 C       -4.6290     1.3260    -0.0850 C.3   1 <1>   0.3430 
 11 C       -1.0990     3.7620     0.2380 C.ar  1 <1>  -0.1520 
 12 C       -1.9660     4.4400    -1.9050 C.ar  1 <1>  -0.1500 
 13 N       -5.3150    -1.7650    -0.3550 N.2   1 <1>  -0.5650 
 14 C       -3.3340    -2.7090     0.0370 C.2   1 <1>  -0.3320 
 15 N       -5.9660     1.8920     0.2900 N.4   1 <1>  -0.9590 
 16 N       -0.6200     4.3420     1.3890 N.pl3 1 <1>   0.0330 
 17 C       -1.4800     4.7750    -0.6380 C.ar  1 <1>   0.0000 
 18 C       -5.3580    -2.5090     0.7040 C.2   1 <1>   0.0360 
 19 N       -4.1850    -3.1070     0.9980 N.pl3 1 <1>   0.0330 
 20 C       -1.8800    -3.1540    -0.0070 C.3   1 <1>  -0.0600 
 21 C       -5.8980     2.4940     1.6540 C.3   1 <1>   0.2630 
 22 C       -7.0150     0.8220     0.2390 C.3   1 <1>   0.2630 
 23 C       -0.7150     5.6950     1.2460 C.2   1 <1>  -0.3320 
 24 C       -1.2360     5.9880     0.0350 C.2   1 <1>  -0.1810 
 25 C       -0.2930     6.7190     2.2830 C.3   1 <1>   0.0200 
 26 C       -1.4720     7.4000    -0.4670 C.3   1 <1>   0.0210 
 27 C       -0.2090     8.1150     1.6370 C.3   1 <1>  -0.1600 
 28 C       -1.4040     8.3990     0.7040 C.3   1 <1>  -0.1600 
 29 H       -2.6520    -1.7290    -2.4180 H     1 <1>   0.0800 
 30 H       -4.2840    -1.3630    -2.8480 H     1 <1>   0.0800 
 31 H       -5.3670     0.4910    -1.9340 H     1 <1>   0.0800 
 32 H       -4.4560     1.9590    -2.1410 H     1 <1>   0.0800 
 33 H       -0.9220     1.6490     0.5640 H     1 <1>   0.1500 
 34 H       -2.4530     2.8480    -3.2290 H     1 <1>   0.1500 
 35 H       -3.8550     2.0230     0.1900 H     1 <1>   0.0800 
 36 H       -4.4640     0.4090     0.4580 H     1 <1>   0.0800 
 37 H       -2.2230     5.2290    -2.5880 H     1 <1>   0.1500 
 38 H       -6.2070     2.6360    -0.3820 H     1 <1>   0.4500 
 39 H       -0.2160     3.8450     2.1880 H     1 <1>   0.2700 
 40 H       -6.2340    -2.6620     1.3100 H     1 <1>   0.1500 
 41 H       -3.9890    -3.7450     1.7760 H     1 <1>   0.2700 
 42 H       -1.3550    -2.6760    -0.8140 H     1 <1>   0.0800 
 43 H       -1.8210    -4.2190    -0.1460 H     1 <1>   0.0800 
 44 H       -1.3840    -2.8940     0.9110 H     1 <1>   0.0800 
 45 H       -5.6380     1.7420     2.3820 H     1 <1>   0.0800 
 46 H       -6.8500     2.9210     1.9240 H     1 <1>   0.0800 
 47 H       -5.1520     3.2730     1.6820 H     1 <1>   0.0800 
 48 H       -6.7670     0.0260     0.9220 H     1 <1>   0.0800 
 49 H       -7.0820     0.4020    -0.7510 H     1 <1>   0.0800 
 50 H       -7.9780     1.2240     0.5090 H     1 <1>   0.0800 
 51 H        0.6650     6.4580     2.6970 H     1 <1>   0.0800 
 52 H       -1.0180     6.7310     3.0780 H     1 <1>   0.0800 
 53 H       -2.4320     7.4660    -0.9470 H     1 <1>   0.0800 
 54 H       -0.7120     7.6370    -1.1910 H     1 <1>   0.0800 
 55 H        0.6990     8.1750     1.0610 H     1 <1>   0.0800 
 56 H       -0.1590     8.8630     2.4080 H     1 <1>   0.0800 
 57 H       -2.3130     8.3270     1.2760 H     1 <1>   0.0800 
 58 H       -1.3360     9.4000     0.3160 H     1 <1>   0.0800 
@<TRIPOS>BOND
  1   1   2  2   
  2   2   3  am  
  3   2   4  1   
  4   3   5  1   
  5   3   6  1   
  6   4   7  ar  
  7   4   8  ar  
  8   5   9  1   
  9   5  29  1   
 10   5  30  1   
 11   6  10  1   
 12   6  31  1   
 13   6  32  1   
 14   7  11  ar  
 15   7  33  1   
 16   8  12  ar  
 17   8  34  1   
 18   9  13  1   
 19   9  14  2   
 20  10  15  1   
 21  10  35  1   
 22  10  36  1   
 23  11  16  1   
 24  11  17  ar  
 25  12  17  ar  
 26  12  37  1   
 27  13  18  2   
 28  14  19  1   
 29  14  20  1   
 30  15  21  1   
 31  15  22  1   
 32  15  38  1   
 33  16  23  1   
 34  16  39  1   
 35  17  24  1   
 36  18  19  1   
 37  18  40  1   
 38  19  41  1   
 39  20  42  1   
 40  20  43  1   
 41  20  44  1   
 42  21  45  1   
 43  21  46  1   
 44  21  47  1   
 45  22  48  1   
 46  22  49  1   
 47  22  50  1   
 48  23  24  2   
 49  23  25  1   
 50  24  26  1   
 51  25  27  1   
 52  25  51  1   
 53  25  52  1   
 54  26  28  1   
 55  26  53  1   
 56  26  54  1   
 57  27  28  1   
 58  27  55  1   
 59  27  56  1   
 60  28  57  1   
 61  28  58  1   
@<TRIPOS>SUBSTRUCTURE
  1 ****   4 GROUP 4 **** **** 0

# MOE 2024.06 (io_trps.svl 2023.06)
