@<TRIPOS>MOLECULE
NONAME
46 49 1 0 0 
SMALL
USER_CHARGES


@<TRIPOS>ATOM
  1 S        2.3420     0.5830     1.4870 S.3   1 <1>  -0.0800 
  2 C        2.1950    -0.1080    -0.1300 C.ar  1 <1>   0.0400 
  3 C        1.7370    -0.8920     2.2230 C.2   1 <1>  -0.1100 
  4 C        1.7080    -1.4050    -0.0540 C.ar  1 <1>   0.0000 
  5 C        2.5150     0.5190    -1.3200 C.ar  1 <1>  -0.1500 
  6 C        1.4290    -1.8330     1.3000 C.2   1 <1>  -0.0860 
  7 C        1.5570    -2.1070    -1.2490 C.ar  1 <1>  -0.1500 
  8 C        2.3450    -0.1940    -2.4940 C.ar  1 <1>  -0.1500 
  9 C        0.8790    -3.1370     1.5890 C.2   1 <1>   0.7160 
 10 C        1.8710    -1.5020    -2.4540 C.ar  1 <1>  -0.1500 
 11 O        1.5520    -3.9240     2.2260 O.2   1 <1>  -0.5700 
 12 N       -0.3900    -3.5080     1.1770 N.am  1 <1>  -0.6600 
 13 C       -1.3560    -2.5160     0.6120 C.3   1 <1>   0.2200 
 14 C       -0.8590    -4.9180     1.3730 C.3   1 <1>   0.0600 
 15 C       -2.0860    -2.9930    -0.6420 C.3   1 <1>  -0.1600 
 16 C       -2.4680    -2.1560     1.5900 C.3   1 <1>  -0.1600 
 17 C       -3.3160    -2.0790    -0.7330 C.3   1 <1>  -0.0800 
 18 C       -3.5820    -1.5770     0.7070 C.3   1 <1>  -0.0800 
 19 C       -4.5160    -2.7590    -1.4220 C.3   1 <1>   0.1400 
 20 C       -4.9940    -1.9030     1.2230 C.3   1 <1>  -0.0990 
 21 N       -5.7680    -2.0230    -1.1160 N.am  1 <1>  -0.6600 
 22 C       -6.0290    -1.6010     0.1590 C.2   1 <1>   0.5690 
 23 C       -6.7210    -1.8190    -2.2390 C.3   1 <1>   0.0600 
 24 O       -7.0350    -1.0120     0.4720 O.2   1 <1>  -0.5700 
 25 H        1.6640    -0.9130     3.2960 H     1 <1>   0.1500 
 26 H        2.8860     1.5280    -1.3230 H     1 <1>   0.1500 
 27 H        1.1990    -3.1210    -1.2300 H     1 <1>   0.1500 
 28 H        2.5840     0.2610    -3.4400 H     1 <1>   0.1500 
 29 H        1.7520    -2.0480    -3.3750 H     1 <1>   0.1500 
 30 H       -0.8530    -1.6000     0.3560 H     1 <1>   0.0800 
 31 H       -1.9110    -4.9480     1.5880 H     1 <1>   0.0800 
 32 H       -0.3400    -5.3840     2.1930 H     1 <1>   0.0800 
 33 H       -0.6670    -5.4860     0.4800 H     1 <1>   0.0800 
 34 H       -1.4640    -2.9040    -1.5150 H     1 <1>   0.0800 
 35 H       -2.4070    -4.0110    -0.5300 H     1 <1>   0.0800 
 36 H       -2.8190    -3.0330     2.0990 H     1 <1>   0.0800 
 37 H       -2.1300    -1.4370     2.3150 H     1 <1>   0.0800 
 38 H       -3.0460    -1.2220    -1.3270 H     1 <1>   0.0800 
 39 H       -3.4810    -0.5040     0.6920 H     1 <1>   0.0800 
 40 H       -4.6270    -3.7690    -1.0670 H     1 <1>   0.0800 
 41 H       -4.3520    -2.7900    -2.4860 H     1 <1>   0.0800 
 42 H       -5.2070    -1.3280     2.1060 H     1 <1>   0.0800 
 43 H       -5.0770    -2.9450     1.4720 H     1 <1>   0.0800 
 44 H       -6.2550    -1.2310    -3.0100 H     1 <1>   0.0800 
 45 H       -7.6020    -1.3020    -1.8980 H     1 <1>   0.0800 
 46 H       -7.0160    -2.7710    -2.6440 H     1 <1>   0.0800 
@<TRIPOS>BOND
  1   1   2  1   
  2   1   3  1   
  3   2   4  ar  
  4   2   5  ar  
  5   3   6  2   
  6   3  25  1   
  7   4   6  1   
  8   4   7  ar  
  9   5   8  ar  
 10   5  26  1   
 11   6   9  1   
 12   7  10  ar  
 13   7  27  1   
 14   8  10  ar  
 15   8  28  1   
 16   9  11  2   
 17   9  12  am  
 18  10  29  1   
 19  12  13  1   
 20  12  14  1   
 21  13  15  1   
 22  13  16  1   
 23  13  30  1   
 24  14  31  1   
 25  14  32  1   
 26  14  33  1   
 27  15  17  1   
 28  15  34  1   
 29  15  35  1   
 30  16  18  1   
 31  16  36  1   
 32  16  37  1   
 33  17  18  1   
 34  17  19  1   
 35  17  38  1   
 36  18  20  1   
 37  18  39  1   
 38  19  21  1   
 39  19  40  1   
 40  19  41  1   
 41  20  22  1   
 42  20  42  1   
 43  20  43  1   
 44  21  22  am  
 45  21  23  1   
 46  22  24  2   
 47  23  44  1   
 48  23  45  1   
 49  23  46  1   
@<TRIPOS>SUBSTRUCTURE
  1 ****  13 GROUP 4 **** **** 0

# MOE 2024.06 (io_trps.svl 2023.06)
