@<TRIPOS>MOLECULE
NONAME
22 23 1 0 0 
SMALL
USER_CHARGES


@<TRIPOS>ATOM
  1 BR      -0.6040     0.5270    -1.5270 Br    1 <1>  -0.1110 
  2 C       -2.0760    -0.5780    -0.9660 C.ar  1 <1>   0.1110 
  3 C       -2.2120    -1.8510    -1.5060 C.ar  1 <1>   0.1600 
  4 C       -2.9660    -0.0800    -0.0380 C.ar  1 <1>  -0.1500 
  5 N       -3.1920    -2.6920    -1.1860 N.ar  1 <1>  -0.6200 
  6 C       -3.9830    -0.9500     0.2950 C.ar  1 <1>   0.1170 
  7 C       -4.0470    -2.2080    -0.2910 C.ar  1 <1>   0.1670 
  8 N       -5.0320    -0.7770     1.1800 N.am  1 <1>  -0.5470 
  9 C       -5.2660    -2.9580     0.2560 C.3   1 <1>   0.2040 
 10 C       -5.8120    -1.8840     1.2140 C.2   1 <1>   0.5690 
 11 C       -6.2660    -3.2910    -0.8660 C.3   1 <1>  -0.2400 
 12 C       -4.8440    -4.2360     1.0040 C.3   1 <1>  -0.2400 
 13 O       -6.7950    -1.9950     1.9050 O.2   1 <1>  -0.5700 
 14 H       -1.4860    -2.1860    -2.2270 H     1 <1>   0.1500 
 15 H       -2.8730     0.9020     0.3870 H     1 <1>   0.1500 
 16 H       -5.2340     0.0450     1.7490 H     1 <1>   0.3700 
 17 H       -6.5440    -2.3960    -1.3920 H     1 <1>   0.0800 
 18 H       -7.1530    -3.7380    -0.4530 H     1 <1>   0.0800 
 19 H       -5.8220    -3.9760    -1.5670 H     1 <1>   0.0800 
 20 H       -4.1360    -3.9970     1.7770 H     1 <1>   0.0800 
 21 H       -4.3860    -4.9300     0.3230 H     1 <1>   0.0800 
 22 H       -5.7020    -4.7020     1.4560 H     1 <1>   0.0800 
@<TRIPOS>BOND
  1   1   2  1   
  2   2   3  ar  
  3   2   4  ar  
  4   3   5  ar  
  5   3  14  1   
  6   4   6  ar  
  7   4  15  1   
  8   5   7  ar  
  9   6   7  ar  
 10   6   8  1   
 11   7   9  1   
 12   8  10  am  
 13   8  16  1   
 14   9  10  1   
 15   9  11  1   
 16   9  12  1   
 17  10  13  2   
 18  11  17  1   
 19  11  18  1   
 20  11  19  1   
 21  12  20  1   
 22  12  21  1   
 23  12  22  1   
@<TRIPOS>SUBSTRUCTURE
  1 ****   7 GROUP 4 **** **** 0

# MOE 2024.06 (io_trps.svl 2023.06)
