@<TRIPOS>MOLECULE
NONAME
43 45 1 0 0 
SMALL
USER_CHARGES


@<TRIPOS>ATOM
  1 F       -3.0740    -1.3150     1.3220 F     1 <1>  -0.1900 
  2 C       -2.7400    -0.2630     0.6140 C.ar  1 <1>   0.1900 
  3 C       -2.3420     0.8770     1.3080 C.ar  1 <1>   0.0820 
  4 C       -2.8130    -0.3450    -0.7800 C.ar  1 <1>   0.0860 
  5 O       -2.3150     0.8010     2.6750 O.3   1 <1>  -0.3630 
  6 C       -2.0100     1.9920     0.5320 C.ar  1 <1>   0.1900 
  7 C       -3.2210    -1.5400    -1.4940 C.2   1 <1>   0.5440 
  8 C       -2.4740     0.8090    -1.4930 C.ar  1 <1>  -0.1500 
  9 C       -1.9370     1.8750     3.5090 C.3   1 <1>   0.0400 
 10 F       -1.6230     3.1190     1.0690 F     1 <1>  -0.1900 
 11 C       -2.0750     1.9660    -0.8490 C.ar  1 <1>  -0.1500 
 12 O       -3.8110    -1.4490    -2.5530 O.2   1 <1>  -0.5700 
 13 N       -2.9550    -2.7900    -1.0190 N.am  1 <1>  -0.7300 
 14 C       -3.4040    -4.0640    -1.6280 C.3   1 <1>   0.2200 
 15 C       -4.5940    -4.6410    -0.8750 C.3   1 <1>  -0.0800 
 16 C       -2.3570    -5.1350    -1.3560 C.3   1 <1>   0.1200 
 17 C       -3.9330    -5.3780     0.2950 C.3   1 <1>   0.1200 
 18 C       -5.6820    -3.6340    -0.4550 C.3   1 <1>  -0.0160 
 19 O       -2.5870    -5.5520    -0.0440 O.3   1 <1>  -0.5600 
 20 C       -6.8320    -4.3360     0.2490 C.ar  1 <1>  -0.1430 
 21 C       -7.8150    -5.0060    -0.4520 C.ar  1 <1>  -0.1500 
 22 C       -6.9520    -4.3410     1.6240 C.ar  1 <1>  -0.1500 
 23 C       -8.8380    -5.6350     0.2380 C.ar  1 <1>   0.1600 
 24 C       -8.0160    -5.0020     2.2150 C.ar  1 <1>   0.1600 
 25 N       -8.9620    -5.6510     1.5550 N.ar  1 <1>  -0.6200 
 26 H       -2.5270     0.7910    -2.5700 H     1 <1>   0.1500 
 27 H       -2.0060     1.5450     4.5300 H     1 <1>   0.0800 
 28 H       -2.6090     2.6990     3.3490 H     1 <1>   0.0800 
 29 H       -0.9220     2.1530     3.2860 H     1 <1>   0.0800 
 30 H       -1.8150     2.8460    -1.4120 H     1 <1>   0.1500 
 31 H       -2.5410    -2.9030    -0.0880 H     1 <1>   0.3700 
 32 H       -3.5960    -3.9380    -2.6810 H     1 <1>   0.0800 
 33 H       -5.0520    -5.3850    -1.5030 H     1 <1>   0.0800 
 34 H       -1.3500    -4.7680    -1.4500 H     1 <1>   0.0800 
 35 H       -2.5020    -5.9830    -2.0020 H     1 <1>   0.0800 
 36 H       -4.3820    -6.3410     0.4670 H     1 <1>   0.0800 
 37 H       -3.9660    -4.7950     1.1990 H     1 <1>   0.0800 
 38 H       -6.0530    -3.1250    -1.3280 H     1 <1>   0.0800 
 39 H       -5.2720    -2.8880     0.2030 H     1 <1>   0.0800 
 40 H       -7.7940    -5.0420    -1.5250 H     1 <1>   0.1500 
 41 H       -6.2310    -3.8380     2.2410 H     1 <1>   0.1500 
 42 H       -9.5960    -6.1520    -0.3250 H     1 <1>   0.1500 
 43 H       -8.0940    -4.9950     3.2890 H     1 <1>   0.1500 
@<TRIPOS>BOND
  1   1   2  1   
  2   2   3  ar  
  3   2   4  ar  
  4   3   5  1   
  5   3   6  ar  
  6   4   7  1   
  7   4   8  ar  
  8   5   9  1   
  9   6  10  1   
 10   6  11  ar  
 11   7  12  2   
 12   7  13  am  
 13   8  11  ar  
 14   8  26  1   
 15   9  27  1   
 16   9  28  1   
 17   9  29  1   
 18  11  30  1   
 19  13  14  1   
 20  13  31  1   
 21  14  15  1   
 22  14  16  1   
 23  14  32  1   
 24  15  17  1   
 25  15  18  1   
 26  15  33  1   
 27  16  19  1   
 28  16  34  1   
 29  16  35  1   
 30  17  19  1   
 31  17  36  1   
 32  17  37  1   
 33  18  20  1   
 34  18  38  1   
 35  18  39  1   
 36  20  21  ar  
 37  20  22  ar  
 38  21  23  ar  
 39  21  40  1   
 40  22  24  ar  
 41  22  41  1   
 42  23  25  ar  
 43  23  42  1   
 44  24  25  ar  
 45  24  43  1   
@<TRIPOS>SUBSTRUCTURE
  1 ****  13 GROUP 4 **** **** 0

# MOE 2024.06 (io_trps.svl 2023.06)
