@<TRIPOS>MOLECULE
NONAME
50 52 1 0 0 
SMALL
USER_CHARGES


@<TRIPOS>ATOM
  1 O        0.4700    -0.3180    -1.5560 O.2   1 <1>  -0.5700 
  2 C        1.3800    -0.5810    -0.8060 C.2   1 <1>   0.5690 
  3 N        2.2460     0.3550    -0.3100 N.am  1 <1>  -0.4940 
  4 C        1.5950    -2.0270    -0.4000 C.3   1 <1>  -0.0190 
  5 C        2.2560     1.7590    -0.5020 C.2   1 <1>  -0.0880 
  6 C        1.7710    -2.9140    -1.6320 C.3   1 <1>   0.1200 
  7 C        0.4200    -2.5640     0.4250 C.3   1 <1>  -0.0160 
  8 N        3.3800     2.4920    -0.7230 N.pl3 1 <1>   0.3140 
  9 C        1.2270     2.6410    -0.5000 C.2   1 <1>  -0.1810 
 10 O        2.1020    -4.2240    -1.2200 O.3   1 <1>  -0.3620 
 11 C        0.5670    -4.0660     0.6190 C.ar  1 <1>  -0.1430 
 12 N        3.1020     3.8070    -0.8560 N.2   1 <1>  -0.7070 
 13 C        4.7580     1.9860    -0.8810 C.3   1 <1>   0.0960 
 14 C        1.8150     3.8810    -0.7250 C.2   1 <1>   0.1390 
 15 C       -0.2570     2.3980    -0.2960 C.3   1 <1>  -0.0590 
 16 C        1.3980    -4.8170    -0.2120 C.ar  1 <1>   0.0820 
 17 C       -0.1350    -4.6950     1.6340 C.ar  1 <1>  -0.1500 
 18 C        5.4130     1.7310     0.4850 C.3   1 <1>  -0.1600 
 19 C        1.5320    -6.1930    -0.0160 C.ar  1 <1>   0.0820 
 20 C       -0.0090    -6.0590     1.8290 C.ar  1 <1>  -0.1500 
 21 C        6.8210     1.1440     0.3230 C.3   1 <1>  -0.1600 
 22 O        2.3650    -6.8820    -0.8490 O.3   1 <1>  -0.3630 
 23 C        0.8210    -6.8070     1.0120 C.ar  1 <1>  -0.1500 
 24 C        7.4650     0.8790     1.6860 C.3   1 <1>  -0.2400 
 25 C        2.5300    -8.2780    -0.7420 C.3   1 <1>   0.0400 
 26 H        3.0060    -0.0100     0.2620 H     1 <1>   0.3700 
 27 H        2.4930    -2.0970     0.1860 H     1 <1>   0.0800 
 28 H        2.5680    -2.5570    -2.2590 H     1 <1>   0.0800 
 29 H        0.8620    -2.9640    -2.2080 H     1 <1>   0.0800 
 30 H       -0.5060    -2.3750    -0.0910 H     1 <1>   0.0800 
 31 H        0.3850    -2.0660     1.3770 H     1 <1>   0.0800 
 32 H        5.3230     2.7190    -1.4280 H     1 <1>   0.0800 
 33 H        4.7230     1.0820    -1.4600 H     1 <1>   0.0800 
 34 H        1.2700     4.8080    -0.7860 H     1 <1>   0.1500 
 35 H       -0.4130     1.5060     0.2820 H     1 <1>   0.0800 
 36 H       -0.7370     2.2790    -1.2500 H     1 <1>   0.0800 
 37 H       -0.7030     3.2270     0.2230 H     1 <1>   0.0800 
 38 H       -0.7840    -4.1270     2.2780 H     1 <1>   0.1500 
 39 H        4.8090     1.0500     1.0570 H     1 <1>   0.0800 
 40 H        5.4740     2.6640     1.0200 H     1 <1>   0.0800 
 41 H       -0.5570    -6.5400     2.6200 H     1 <1>   0.1500 
 42 H        7.4390     1.8330    -0.2300 H     1 <1>   0.0800 
 43 H        6.7730     0.2210    -0.2300 H     1 <1>   0.0800 
 44 H        0.8970    -7.8610     1.1920 H     1 <1>   0.1500 
 45 H        7.5440     1.7920     2.2490 H     1 <1>   0.0800 
 46 H        8.4530     0.4750     1.5540 H     1 <1>   0.0800 
 47 H        6.8810     0.1730     2.2510 H     1 <1>   0.0800 
 48 H        3.2160    -8.5910    -1.5080 H     1 <1>   0.0800 
 49 H        1.5770    -8.7540    -0.8890 H     1 <1>   0.0800 
 50 H        2.9340    -8.5080     0.2270 H     1 <1>   0.0800 
@<TRIPOS>BOND
  1   1   2  2   
  2   2   3  am  
  3   2   4  1   
  4   3   5  1   
  5   3  26  1   
  6   4   6  1   
  7   4   7  1   
  8   4  27  1   
  9   5   8  1   
 10   5   9  2   
 11   6  10  1   
 12   6  28  1   
 13   6  29  1   
 14   7  11  1   
 15   7  30  1   
 16   7  31  1   
 17   8  12  1   
 18   8  13  1   
 19   9  14  1   
 20   9  15  1   
 21  10  16  1   
 22  11  16  ar  
 23  11  17  ar  
 24  12  14  2   
 25  13  18  1   
 26  13  32  1   
 27  13  33  1   
 28  14  34  1   
 29  15  35  1   
 30  15  36  1   
 31  15  37  1   
 32  16  19  ar  
 33  17  20  ar  
 34  17  38  1   
 35  18  21  1   
 36  18  39  1   
 37  18  40  1   
 38  19  22  1   
 39  19  23  ar  
 40  20  23  ar  
 41  20  41  1   
 42  21  24  1   
 43  21  42  1   
 44  21  43  1   
 45  22  25  1   
 46  23  44  1   
 47  24  45  1   
 48  24  46  1   
 49  24  47  1   
 50  25  48  1   
 51  25  49  1   
 52  25  50  1   
@<TRIPOS>SUBSTRUCTURE
  1 ****   4 GROUP 4 **** **** 0

# MOE 2024.06 (io_trps.svl 2023.06)
