@<TRIPOS>MOLECULE
NONAME
54 56 1 0 0 
SMALL
USER_CHARGES


@<TRIPOS>ATOM
  1 O       -0.2730    -1.4030     1.7860 O.2   1 <1>  -0.5700 
  2 C       -0.3080    -2.4700     1.2270 C.2   1 <1>   0.4230 
  3 C        0.4480    -2.8720     0.0690 C.ar  1 <1>   0.0860 
  4 C       -1.2990    -3.4740     1.7610 C.3   1 <1>  -0.0990 
  5 C       -0.0370    -3.9540    -0.6810 C.ar  1 <1>   0.0820 
  6 C        1.6390    -2.2630    -0.3640 C.ar  1 <1>   0.0820 
  7 C       -2.0940    -4.0690     0.5900 C.3   1 <1>   0.2800 
  8 O       -1.1730    -4.6070    -0.3410 O.3   1 <1>  -0.3630 
  9 C        0.6240    -4.4060    -1.8090 C.ar  1 <1>  -0.1500 
 10 O        2.1400    -1.2390     0.3660 O.3   1 <1>  -0.3630 
 11 C        2.2890    -2.7220    -1.5090 C.ar  1 <1>  -0.1500 
 12 C       -2.9530    -3.0290    -0.1570 C.3   1 <1>  -0.1600 
 13 C       -2.9820    -5.2340     1.0520 C.3   1 <1>  -0.1600 
 14 C        1.7850    -3.7890    -2.2270 C.ar  1 <1>  -0.1500 
 15 C        3.2660    -0.4990    -0.0330 C.3   1 <1>   0.4000 
 16 C       -4.1330    -2.5450     0.6880 C.3   1 <1>   0.1400 
 17 C       -4.1690    -4.7550     1.8940 C.3   1 <1>   0.1400 
 18 O        3.4990     0.4460     0.9550 O.3   1 <1>  -0.5600 
 19 N       -4.9260    -3.7190     1.1430 N.am  1 <1>  -0.6600 
 20 C        4.5690     1.2910     0.6870 C.3   1 <1>   0.0400 
 21 C       -6.2660    -3.8630     0.8820 C.2   1 <1>   0.7800 
 22 O       -6.8960    -4.8310     1.2640 O.2   1 <1>  -0.5700 
 23 O       -6.8620    -2.8920     0.1850 O.3   1 <1>  -0.4300 
 24 C       -8.2140    -2.8260    -0.2140 C.3   1 <1>   0.2800 
 25 C       -8.5480    -3.9920    -1.1520 C.3   1 <1>  -0.2400 
 26 C       -8.3370    -1.5100    -0.9840 C.3   1 <1>  -0.2400 
 27 C       -9.1300    -2.7790     1.0150 C.3   1 <1>  -0.2400 
 28 H       -1.9490    -2.9950     2.4680 H     1 <1>   0.0800 
 29 H       -0.7640    -4.2490     2.2780 H     1 <1>   0.0800 
 30 H        0.2220    -5.2400    -2.3570 H     1 <1>   0.1500 
 31 H        3.1970    -2.2700    -1.8620 H     1 <1>   0.1500 
 32 H       -3.3480    -3.4740    -1.0540 H     1 <1>   0.0800 
 33 H       -2.3660    -2.1770    -0.4470 H     1 <1>   0.0800 
 34 H       -2.4030    -5.9360     1.6240 H     1 <1>   0.0800 
 35 H       -3.3720    -5.7490     0.1920 H     1 <1>   0.0800 
 36 H        2.2940    -4.1410    -3.1090 H     1 <1>   0.1500 
 37 H        3.0530    -0.0050    -0.9650 H     1 <1>   0.0800 
 38 H        4.1160    -1.1540    -0.1080 H     1 <1>   0.0800 
 39 H       -4.7350    -1.8730     0.1020 H     1 <1>   0.0800 
 40 H       -3.7830    -2.0000     1.5480 H     1 <1>   0.0800 
 41 H       -3.8290    -4.3360     2.8250 H     1 <1>   0.0800 
 42 H       -4.8010    -5.5960     2.1260 H     1 <1>   0.0800 
 43 H        4.6630     1.9780     1.5100 H     1 <1>   0.0800 
 44 H        4.3730     1.8370    -0.2200 H     1 <1>   0.0800 
 45 H        5.4700     0.7080     0.5980 H     1 <1>   0.0800 
 46 H       -7.8400    -4.0370    -1.9600 H     1 <1>   0.0800 
 47 H       -9.5310    -3.8600    -1.5660 H     1 <1>   0.0800 
 48 H       -8.5420    -4.9280    -0.6240 H     1 <1>   0.0800 
 49 H       -7.6810    -1.5140    -1.8360 H     1 <1>   0.0800 
 50 H       -8.0820    -0.6810    -0.3490 H     1 <1>   0.0800 
 51 H       -9.3440    -1.3730    -1.3320 H     1 <1>   0.0800 
 52 H       -9.1230    -3.7160     1.5400 H     1 <1>   0.0800 
 53 H      -10.1420    -2.5860     0.7100 H     1 <1>   0.0800 
 54 H       -8.8190    -1.9970     1.6830 H     1 <1>   0.0800 
@<TRIPOS>BOND
  1   1   2  2   
  2   2   3  1   
  3   2   4  1   
  4   3   5  ar  
  5   3   6  ar  
  6   4   7  1   
  7   4  28  1   
  8   4  29  1   
  9   5   8  1   
 10   5   9  ar  
 11   6  10  1   
 12   6  11  ar  
 13   7   8  1   
 14   7  12  1   
 15   7  13  1   
 16   9  14  ar  
 17   9  30  1   
 18  10  15  1   
 19  11  14  ar  
 20  11  31  1   
 21  12  16  1   
 22  12  32  1   
 23  12  33  1   
 24  13  17  1   
 25  13  34  1   
 26  13  35  1   
 27  14  36  1   
 28  15  18  1   
 29  15  37  1   
 30  15  38  1   
 31  16  19  1   
 32  16  39  1   
 33  16  40  1   
 34  17  19  1   
 35  17  41  1   
 36  17  42  1   
 37  18  20  1   
 38  19  21  am  
 39  20  43  1   
 40  20  44  1   
 41  20  45  1   
 42  21  22  2   
 43  21  23  1   
 44  23  24  1   
 45  24  25  1   
 46  24  26  1   
 47  24  27  1   
 48  25  46  1   
 49  25  47  1   
 50  25  48  1   
 51  26  49  1   
 52  26  50  1   
 53  26  51  1   
 54  27  52  1   
 55  27  53  1   
 56  27  54  1   
@<TRIPOS>SUBSTRUCTURE
  1 ****  12 GROUP 4 **** **** 0

# MOE 2024.06 (io_trps.svl 2023.06)
