@<TRIPOS>MOLECULE
NONAME
55 57 1 0 0 
SMALL
USER_CHARGES


@<TRIPOS>ATOM
  1 O       -0.6190     0.0360     0.2710 O.2   1 <1>  -0.5700 
  2 C       -1.5070     0.7890    -0.0540 C.2   1 <1>   0.5690 
  3 N       -2.6760     0.2960    -0.5820 N.am  1 <1>  -0.6600 
  4 C       -1.3190     2.2840     0.1460 C.3   1 <1>  -0.0990 
  5 C       -2.8380    -1.1630    -0.8280 C.3   1 <1>   0.1400 
  6 C       -3.9340     1.0770    -0.7500 C.3   1 <1>   0.1400 
  7 C        0.0690     2.6710     0.6750 C.3   1 <1>   0.0210 
  8 C       -3.8680    -1.7350     0.1700 C.3   1 <1>   0.4230 
  9 C       -4.9690     0.5330     0.2440 C.3   1 <1>  -0.1600 
 10 C        0.1870     4.1800     0.7790 C.2   1 <1>   0.1080 
 11 N       -3.9810    -3.2540     0.1380 N.4   1 <1>  -0.9590 
 12 C       -5.2370    -0.9940     0.0920 C.3   1 <1>   0.0000 
 13 N       -0.5090     4.8600     1.6370 N.2   1 <1>  -0.7070 
 14 C        1.0090     4.9960     0.0010 C.2   1 <1>  -0.1810 
 15 C       -5.2290    -3.7890     0.7750 C.3   1 <1>   0.3430 
 16 C       -3.7800    -3.8910    -1.2050 C.3   1 <1>   0.2630 
 17 C       -6.1400    -1.4620     1.2710 C.3   1 <1>  -0.1600 
 18 C       -5.9290    -1.2870    -1.2710 C.3   1 <1>   0.1200 
 19 N       -0.1420     6.1370     1.4340 N.pl3 1 <1>   0.3000 
 20 C        0.7730     6.2490     0.4480 C.2   1 <1>  -0.3320 
 21 C        1.9490     4.5330    -1.0980 C.3   1 <1>  -0.0590 
 22 C       -5.7480    -2.8350     1.8500 C.3   1 <1>  -0.1600 
 23 O       -7.0440    -0.4890    -1.4630 O.3   1 <1>  -0.6800 
 24 C        1.3520     7.5880     0.0200 C.3   1 <1>  -0.0600 
 25 H       -1.4780     2.7790    -0.7930 H     1 <1>   0.0800 
 26 H       -2.0540     2.6360     0.8460 H     1 <1>   0.0800 
 27 H       -3.1550    -1.3020    -1.8450 H     1 <1>   0.0800 
 28 H       -1.8970    -1.6690    -0.7010 H     1 <1>   0.0800 
 29 H       -3.7750     2.1250    -0.5650 H     1 <1>   0.0800 
 30 H       -4.2910     0.9780    -1.7620 H     1 <1>   0.0800 
 31 H        0.8310     2.2830     0.0240 H     1 <1>   0.0800 
 32 H        0.2180     2.2460     1.6510 H     1 <1>   0.0800 
 33 H       -3.4720    -1.4860     1.1410 H     1 <1>   0.0800 
 34 H       -4.6020     0.7450     1.2340 H     1 <1>   0.0800 
 35 H       -5.8810     1.0930     0.1310 H     1 <1>   0.0800 
 36 H       -3.2020    -3.5760     0.7330 H     1 <1>   0.4500 
 37 H       -5.9970    -3.9100     0.0280 H     1 <1>   0.0800 
 38 H       -5.0330    -4.7570     1.2090 H     1 <1>   0.0800 
 39 H       -4.5380    -3.5630    -1.8980 H     1 <1>   0.0800 
 40 H       -3.8350    -4.9650    -1.1210 H     1 <1>   0.0800 
 41 H       -2.8120    -3.6360    -1.6060 H     1 <1>   0.0800 
 42 H       -6.1040    -0.7520     2.0810 H     1 <1>   0.0800 
 43 H       -7.1690    -1.4970     0.9570 H     1 <1>   0.0800 
 44 H       -6.2520    -2.3100    -1.3400 H     1 <1>   0.0800 
 45 H       -5.2700    -1.0840    -2.0960 H     1 <1>   0.0800 
 46 H       -0.5330     6.9090     1.9850 H     1 <1>   0.2700 
 47 H        1.3990     3.9880    -1.8430 H     1 <1>   0.0800 
 48 H        2.7060     3.8930    -0.6830 H     1 <1>   0.0800 
 49 H        2.4300     5.3670    -1.5720 H     1 <1>   0.0800 
 50 H       -6.6070    -3.2740     2.3290 H     1 <1>   0.0800 
 51 H       -4.9930    -2.7160     2.6090 H     1 <1>   0.0800 
 52 H       -7.7490    -0.6700    -0.8100 H     1 <1>   0.4000 
 53 H        2.0700     7.4620    -0.7690 H     1 <1>   0.0800 
 54 H        1.8440     8.0600     0.8520 H     1 <1>   0.0800 
 55 H        0.5680     8.2320    -0.3350 H     1 <1>   0.0800 
@<TRIPOS>BOND
  1   1   2  2   
  2   2   3  am  
  3   2   4  1   
  4   3   5  1   
  5   3   6  1   
  6   4   7  1   
  7   4  25  1   
  8   4  26  1   
  9   5   8  1   
 10   5  27  1   
 11   5  28  1   
 12   6   9  1   
 13   6  29  1   
 14   6  30  1   
 15   7  10  1   
 16   7  31  1   
 17   7  32  1   
 18   8  11  1   
 19   8  12  1   
 20   8  33  1   
 21   9  12  1   
 22   9  34  1   
 23   9  35  1   
 24  10  13  2   
 25  10  14  1   
 26  11  15  1   
 27  11  16  1   
 28  11  36  1   
 29  12  17  1   
 30  12  18  1   
 31  13  19  1   
 32  14  20  2   
 33  14  21  1   
 34  15  22  1   
 35  15  37  1   
 36  15  38  1   
 37  16  39  1   
 38  16  40  1   
 39  16  41  1   
 40  17  22  1   
 41  17  42  1   
 42  17  43  1   
 43  18  23  1   
 44  18  44  1   
 45  18  45  1   
 46  19  20  1   
 47  19  46  1   
 48  20  24  1   
 49  21  47  1   
 50  21  48  1   
 51  21  49  1   
 52  22  50  1   
 53  22  51  1   
 54  23  52  1   
 55  24  53  1   
 56  24  54  1   
 57  24  55  1   
@<TRIPOS>SUBSTRUCTURE
  1 ****   3 GROUP 4 **** **** 0

# MOE 2024.06 (io_trps.svl 2023.06)
