@<TRIPOS>MOLECULE
NONAME
40 42 1 0 0 
SMALL
USER_CHARGES


@<TRIPOS>ATOM
  1 O        1.2260    -1.2600    -2.4530 O.2   1 <1>  -0.5700 
  2 C        1.1730    -1.9670    -1.4590 C.2   1 <1>   0.5440 
  3 N        0.8710    -1.3430    -0.2620 N.am  1 <1>  -0.6600 
  4 C        1.4490    -3.4000    -1.5930 C.ar  1 <1>   0.3960 
  5 C        0.5630     0.1010    -0.1680 C.3   1 <1>   0.1400 
  6 C        0.9130    -1.9630     1.0820 C.3   1 <1>   0.1400 
  7 N        0.8790    -4.3010    -0.7720 N.ar  1 <1>  -0.6200 
  8 C        2.3180    -3.7990    -2.6160 C.ar  1 <1>   0.1600 
  9 C        0.1840     0.3280     1.2910 C.3   1 <1>  -0.1600 
 10 C        0.8940    -0.7880     2.0530 C.3   1 <1>  -0.1600 
 11 C        1.2270    -5.5430    -1.0290 C.ar  1 <1>   0.4100 
 12 N        2.6850    -5.0470    -2.8800 N.ar  1 <1>  -0.6200 
 13 N        0.6360    -6.4590    -0.2040 N.pl3 1 <1>  -0.8690 
 14 C        2.1170    -5.8990    -2.0530 C.ar  1 <1>   0.1600 
 15 C       -0.2870    -7.4510    -0.7830 C.3   1 <1>   0.3530 
 16 C       -1.6220    -7.3280    -0.0670 C.ar  1 <1>  -0.1440 
 17 C       -2.1080    -8.3650     0.7150 C.ar  1 <1>  -0.1500 
 18 C       -2.3680    -6.1660    -0.1900 C.ar  1 <1>  -0.1500 
 19 C       -3.3310    -8.2630     1.3710 C.ar  1 <1>   0.0730 
 20 C       -3.5840    -6.0460     0.4560 C.ar  1 <1>  -0.1500 
 21 C       -3.8280    -9.3450     2.1730 C.1   1 <1>   0.4840 
 22 C       -4.0610    -7.0880     1.2300 C.ar  1 <1>  -0.1500 
 23 N       -4.2200   -10.2080     2.8070 N.1   1 <1>  -0.5570 
 24 H       -0.2400     0.3640    -0.8360 H     1 <1>   0.0800 
 25 H        1.4440     0.6640    -0.4250 H     1 <1>   0.0800 
 26 H        1.7960    -2.5650     1.2070 H     1 <1>   0.0800 
 27 H        0.0340    -2.5720     1.2150 H     1 <1>   0.0800 
 28 H        2.7350    -3.0340    -3.2490 H     1 <1>   0.1500 
 29 H       -0.8820     0.2200     1.3940 H     1 <1>   0.0800 
 30 H        0.4720     1.3070     1.6310 H     1 <1>   0.0800 
 31 H        1.9080    -0.4960     2.2670 H     1 <1>   0.0800 
 32 H        0.3990    -1.0380     2.9740 H     1 <1>   0.0800 
 33 H        0.1600    -5.9780     0.5650 H     1 <1>   0.4000 
 34 H        2.3540    -6.9400    -2.1680 H     1 <1>   0.1500 
 35 H        0.1250    -8.4380    -0.6540 H     1 <1>   0.0800 
 36 H       -0.4240    -7.2700    -1.8370 H     1 <1>   0.0800 
 37 H       -1.5340    -9.2700     0.8230 H     1 <1>   0.1500 
 38 H       -2.0000    -5.3470    -0.7900 H     1 <1>   0.1500 
 39 H       -4.1580    -5.1400     0.3560 H     1 <1>   0.1500 
 40 H       -5.0100    -6.9870     1.7300 H     1 <1>   0.1500 
@<TRIPOS>BOND
  1   1   2  2   
  2   2   3  am  
  3   2   4  1   
  4   3   5  1   
  5   3   6  1   
  6   4   7  ar  
  7   4   8  ar  
  8   5   9  1   
  9   5  24  1   
 10   5  25  1   
 11   6  10  1   
 12   6  26  1   
 13   6  27  1   
 14   7  11  ar  
 15   8  12  ar  
 16   8  28  1   
 17   9  10  1   
 18   9  29  1   
 19   9  30  1   
 20  10  31  1   
 21  10  32  1   
 22  11  13  1   
 23  11  14  ar  
 24  12  14  ar  
 25  13  15  1   
 26  13  33  1   
 27  14  34  1   
 28  15  16  1   
 29  15  35  1   
 30  15  36  1   
 31  16  17  ar  
 32  16  18  ar  
 33  17  19  ar  
 34  17  37  1   
 35  18  20  ar  
 36  18  38  1   
 37  19  21  1   
 38  19  22  ar  
 39  20  22  ar  
 40  20  39  1   
 41  21  23  3   
 42  22  40  1   
@<TRIPOS>SUBSTRUCTURE
  1 ****   7 GROUP 4 **** **** 0

# MOE 2024.06 (io_trps.svl 2023.06)
