@<TRIPOS>MOLECULE
NONAME
36 37 1 0 0 
SMALL
USER_CHARGES


@<TRIPOS>ATOM
  1 S       -1.6600     0.0750    -1.2840 S.3   1 <1>  -0.0800 
  2 C       -1.5890    -0.9400     0.1190 C.2   1 <1>   0.4420 
  3 C       -1.0880     1.3680    -0.2880 C.2   1 <1>   0.1980 
  4 N       -1.1760    -0.3070     1.1550 N.2   1 <1>  -0.3380 
  5 N       -1.9680    -2.2530    -0.0520 N.am  1 <1>  -0.4940 
  6 N       -0.8930     1.0090     0.9170 N.2   1 <1>  -0.3380 
  7 C       -0.8950     2.7230    -0.9400 C.3   1 <1>   0.0200 
  8 C       -2.1010    -3.2620     0.8650 C.2   1 <1>   0.5690 
  9 C       -0.3910     3.7580     0.0630 C.3   1 <1>   0.1200 
 10 O       -1.9210    -3.0990     2.0450 O.2   1 <1>  -0.5700 
 11 C       -2.4810    -4.6560     0.3570 C.3   1 <1>   0.2370 
 12 O       -0.2380     4.9680    -0.6060 O.3   1 <1>  -0.5600 
 13 N       -3.5620    -4.5140    -0.6490 N.pl3 1 <1>   0.3140 
 14 C       -2.8600    -5.6640     1.4660 C.3   1 <1>  -0.2400 
 15 C        0.2190     6.0000     0.2010 C.3   1 <1>   0.1200 
 16 N       -3.3170    -4.0610    -1.8790 N.2   1 <1>  -0.7070 
 17 C       -4.8760    -4.7420    -0.5400 C.2   1 <1>   0.0360 
 18 C        0.3340     7.2450    -0.6690 C.3   1 <1>  -0.2400 
 19 C       -4.4920    -4.0720    -2.4200 C.2   1 <1>   0.3660 
 20 N       -5.4940    -4.4790    -1.6340 N.2   1 <1>  -0.5650 
 21 H       -2.2480    -2.5040    -1.0080 H     1 <1>   0.3700 
 22 H       -1.8340     3.0520    -1.3450 H     1 <1>   0.0800 
 23 H       -0.1810     2.6280    -1.7370 H     1 <1>   0.0800 
 24 H        0.5620     3.4590     0.4670 H     1 <1>   0.0800 
 25 H       -1.1030     3.8870     0.8610 H     1 <1>   0.0800 
 26 H       -1.6250    -5.0460    -0.1600 H     1 <1>   0.0800 
 27 H       -3.6740    -5.2890     2.0620 H     1 <1>   0.0800 
 28 H       -2.0180    -5.8100     2.1200 H     1 <1>   0.0800 
 29 H       -3.1250    -6.6160     1.0420 H     1 <1>   0.0800 
 30 H        1.1800     5.7280     0.6050 H     1 <1>   0.0800 
 31 H       -0.4860     6.1580     1.0000 H     1 <1>   0.0800 
 32 H       -5.3440    -5.1000     0.3590 H     1 <1>   0.1500 
 33 H        1.0290     7.0720    -1.4700 H     1 <1>   0.0800 
 34 H        0.6860     8.0710    -0.0780 H     1 <1>   0.0800 
 35 H       -0.6280     7.4990    -1.0770 H     1 <1>   0.0800 
 36 H       -4.6830    -3.7730    -3.4400 H     1 <1>   0.1500 
@<TRIPOS>BOND
  1   1   2  1   
  2   1   3  1   
  3   2   4  2   
  4   2   5  1   
  5   3   6  2   
  6   3   7  1   
  7   4   6  1   
  8   5   8  am  
  9   5  21  1   
 10   7   9  1   
 11   7  22  1   
 12   7  23  1   
 13   8  10  2   
 14   8  11  1   
 15   9  12  1   
 16   9  24  1   
 17   9  25  1   
 18  11  13  1   
 19  11  14  1   
 20  11  26  1   
 21  12  15  1   
 22  13  16  1   
 23  13  17  1   
 24  14  27  1   
 25  14  28  1   
 26  14  29  1   
 27  15  18  1   
 28  15  30  1   
 29  15  31  1   
 30  16  19  2   
 31  17  20  2   
 32  17  32  1   
 33  18  33  1   
 34  18  34  1   
 35  18  35  1   
 36  19  20  1   
 37  19  36  1   
@<TRIPOS>SUBSTRUCTURE
  1 ****   2 GROUP 4 **** **** 0

# MOE 2024.06 (io_trps.svl 2023.06)
