@<TRIPOS>MOLECULE
NONAME
43 45 1 0 0 
SMALL
USER_CHARGES


@<TRIPOS>ATOM
  1 CL      -0.1990    -1.4670    -0.1320 Cl    1 <1>  -0.1770 
  2 C       -1.8710    -1.8390     0.1850 C.ar  1 <1>   0.1770 
  3 C       -2.4550    -2.9280    -0.4330 C.ar  1 <1>  -0.1500 
  4 C       -2.5920    -1.0410     1.0530 C.ar  1 <1>  -0.1500 
  5 C       -3.7850    -3.2160    -0.1790 C.ar  1 <1>  -0.1500 
  6 C       -3.9220    -1.3400     1.2990 C.ar  1 <1>  -0.1500 
  7 C       -4.5480    -2.4270     0.6830 C.ar  1 <1>   0.0860 
  8 C       -5.9420    -2.7390     0.9340 C.2   1 <1>   0.5440 
  9 O       -6.2340    -3.8620     1.2990 O.2   1 <1>  -0.5700 
 10 N       -6.9430    -1.8040     0.7580 N.am  1 <1>  -0.6600 
 11 C       -8.3410    -2.0470     1.2380 C.3   1 <1>   0.1400 
 12 C       -6.7950    -0.5610    -0.0460 C.3   1 <1>   0.1400 
 13 C       -9.3350    -2.1240     0.0510 C.3   1 <1>   0.0000 
 14 C       -7.7500    -0.6000    -1.2440 C.3   1 <1>  -0.1600 
 15 C      -10.7790    -2.3260     0.5440 C.3   1 <1>   0.2000 
 16 C       -9.2050    -0.8500    -0.8110 C.3   1 <1>  -0.1600 
 17 C       -9.1040    -3.4100    -0.7620 C.3   1 <1>  -0.1600 
 18 O      -11.0500    -1.5500     1.6730 O.3   1 <1>  -0.5600 
 19 C      -10.9080    -3.8230     0.8470 C.3   1 <1>  -0.1600 
 20 C       -9.8250    -4.5180     0.0100 C.3   1 <1>  -0.1600 
 21 C      -12.3990    -1.4430     2.0020 C.3   1 <1>   0.0400 
 22 H       -1.8740    -3.5400    -1.1000 H     1 <1>   0.1500 
 23 H       -2.1150    -0.2030     1.5280 H     1 <1>   0.1500 
 24 H       -4.2520    -4.0670    -0.6470 H     1 <1>   0.1500 
 25 H       -4.4910    -0.7310     1.9800 H     1 <1>   0.1500 
 26 H       -8.3890    -2.9490     1.8220 H     1 <1>   0.0800 
 27 H       -8.6170    -1.2340     1.8860 H     1 <1>   0.0800 
 28 H       -7.0260     0.2860     0.5770 H     1 <1>   0.0800 
 29 H       -5.7870    -0.4510    -0.4060 H     1 <1>   0.0800 
 30 H       -7.6900     0.3350    -1.7730 H     1 <1>   0.0800 
 31 H       -7.4310    -1.3750    -1.9190 H     1 <1>   0.0800 
 32 H      -11.4610    -2.0520    -0.2440 H     1 <1>   0.0800 
 33 H       -9.8330    -0.9230    -1.6810 H     1 <1>   0.0800 
 34 H       -9.5450    -0.0080    -0.2330 H     1 <1>   0.0800 
 35 H       -9.5580    -3.3120    -1.7330 H     1 <1>   0.0800 
 36 H       -8.0610    -3.6380    -0.8950 H     1 <1>   0.0800 
 37 H      -10.7250    -4.0080     1.8920 H     1 <1>   0.0800 
 38 H      -11.8860    -4.1790     0.5810 H     1 <1>   0.0800 
 39 H       -9.1250    -5.0130     0.6650 H     1 <1>   0.0800 
 40 H      -10.2450    -5.2470    -0.6610 H     1 <1>   0.0800 
 41 H      -12.4820    -0.8090     2.8670 H     1 <1>   0.0800 
 42 H      -12.7910    -2.4180     2.2320 H     1 <1>   0.0800 
 43 H      -12.9330    -1.0030     1.1780 H     1 <1>   0.0800 
@<TRIPOS>BOND
  1   1   2  1   
  2   2   3  ar  
  3   2   4  ar  
  4   3   5  ar  
  5   3  22  1   
  6   4   6  ar  
  7   4  23  1   
  8   5   7  ar  
  9   5  24  1   
 10   6   7  ar  
 11   6  25  1   
 12   7   8  1   
 13   8   9  2   
 14   8  10  am  
 15  10  11  1   
 16  10  12  1   
 17  11  13  1   
 18  11  26  1   
 19  11  27  1   
 20  12  14  1   
 21  12  28  1   
 22  12  29  1   
 23  13  15  1   
 24  13  16  1   
 25  13  17  1   
 26  14  16  1   
 27  14  30  1   
 28  14  31  1   
 29  15  18  1   
 30  15  19  1   
 31  15  32  1   
 32  16  33  1   
 33  16  34  1   
 34  17  20  1   
 35  17  35  1   
 36  17  36  1   
 37  18  21  1   
 38  19  20  1   
 39  19  37  1   
 40  19  38  1   
 41  20  39  1   
 42  20  40  1   
 43  21  41  1   
 44  21  42  1   
 45  21  43  1   
@<TRIPOS>SUBSTRUCTURE
  1 ****  10 GROUP 4 **** **** 0

# MOE 2024.06 (io_trps.svl 2023.06)
