@<TRIPOS>MOLECULE
NONAME
38 39 1 0 0 
SMALL
USER_CHARGES


@<TRIPOS>ATOM
  1 S       -1.5080     0.0770    -1.1240 S.3   1 <1>  -0.0800 
  2 C       -2.7230     0.5710     0.0350 C.2   1 <1>   0.1980 
  3 C       -1.5770    -1.5320    -0.4680 C.2   1 <1>  -0.1100 
  4 N       -3.1210    -0.3590     0.8070 N.2   1 <1>  -0.5650 
  5 C       -3.1710     2.0130     0.0040 C.3   1 <1>  -0.0600 
  6 C       -2.4760    -1.5540     0.5280 C.2   1 <1>   0.0460 
  7 C       -2.8620    -2.7560     1.3680 C.3   1 <1>   0.0820 
  8 C       -3.2870    -3.9570     0.5360 C.2   1 <1>   0.5690 
  9 O       -2.6420    -4.9690     0.6850 O.2   1 <1>  -0.5700 
 10 N       -4.3750    -3.9290    -0.3050 N.am  1 <1>  -0.6600 
 11 C       -4.8170    -5.1630    -1.0090 C.3   1 <1>   0.3200 
 12 C       -5.2080    -2.7210    -0.6160 C.3   1 <1>   0.1400 
 13 C       -6.1730    -5.5730    -0.4680 C.2   1 <1>  -0.3320 
 14 C       -6.1140    -2.3260     0.5590 C.3   1 <1>   0.1200 
 15 N       -6.3820    -6.0860     0.7610 N.pl3 1 <1>   0.0480 
 16 C       -7.3820    -5.5090    -1.0680 C.2   1 <1>   0.0770 
 17 O       -5.9150    -0.9880     0.8760 O.3   1 <1>  -0.6800 
 18 C       -7.7170    -6.2900     0.8220 C.2   1 <1>   0.0360 
 19 C       -5.3890    -6.3760     1.8130 C.3   1 <1>   0.0160 
 20 N       -8.3530    -5.9560    -0.2530 N.2   1 <1>  -0.5650 
 21 H       -0.9420    -2.2850    -0.8990 H     1 <1>   0.1500 
 22 H       -3.5830     2.2470    -0.9600 H     1 <1>   0.0800 
 23 H       -2.3340     2.6590     0.1990 H     1 <1>   0.0800 
 24 H       -3.9220     2.1770     0.7550 H     1 <1>   0.0800 
 25 H       -3.6590    -2.4980     2.0380 H     1 <1>   0.0800 
 26 H       -2.0170    -3.0290     1.9720 H     1 <1>   0.0800 
 27 H       -4.1130    -5.9670    -0.8780 H     1 <1>   0.0800 
 28 H       -4.8870    -4.9630    -2.0640 H     1 <1>   0.0800 
 29 H       -5.8370    -2.9310    -1.4640 H     1 <1>   0.0800 
 30 H       -4.5730    -1.9030    -0.9000 H     1 <1>   0.0800 
 31 H       -5.9040    -2.9150     1.4340 H     1 <1>   0.0800 
 32 H       -7.1500    -2.4510     0.2940 H     1 <1>   0.0800 
 33 H       -7.6130    -5.1560    -2.0600 H     1 <1>   0.1500 
 34 H       -4.9500    -0.7740     0.9500 H     1 <1>   0.4000 
 35 H       -8.1910    -6.6970     1.6980 H     1 <1>   0.1500 
 36 H       -4.5310    -6.8520     1.3750 H     1 <1>   0.0800 
 37 H       -5.8210    -7.0280     2.5490 H     1 <1>   0.0800 
 38 H       -5.0880    -5.4560     2.2780 H     1 <1>   0.0800 
@<TRIPOS>BOND
  1   1   2  1   
  2   1   3  1   
  3   2   4  2   
  4   2   5  1   
  5   3   6  2   
  6   3  21  1   
  7   4   6  1   
  8   5  22  1   
  9   5  23  1   
 10   5  24  1   
 11   6   7  1   
 12   7   8  1   
 13   7  25  1   
 14   7  26  1   
 15   8   9  2   
 16   8  10  am  
 17  10  11  1   
 18  10  12  1   
 19  11  13  1   
 20  11  27  1   
 21  11  28  1   
 22  12  14  1   
 23  12  29  1   
 24  12  30  1   
 25  13  15  1   
 26  13  16  2   
 27  14  17  1   
 28  14  31  1   
 29  14  32  1   
 30  15  18  1   
 31  15  19  1   
 32  16  20  1   
 33  16  33  1   
 34  17  34  1   
 35  18  20  2   
 36  18  35  1   
 37  19  36  1   
 38  19  37  1   
 39  19  38  1   
@<TRIPOS>SUBSTRUCTURE
  1 ****  10 GROUP 4 **** **** 0

# MOE 2024.06 (io_trps.svl 2023.06)
