@<TRIPOS>MOLECULE
NONAME
42 43 1 0 0 
SMALL
USER_CHARGES


@<TRIPOS>ATOM
  1 F       -0.6140     0.3400    -1.2280 F     1 <1>  -0.1900 
  2 C       -1.4730     1.0620    -0.5440 C.ar  1 <1>   0.1900 
  3 C       -1.1170     2.3500    -0.1570 C.ar  1 <1>   0.1000 
  4 C       -2.7060     0.5250    -0.2350 C.ar  1 <1>   0.1600 
  5 N        0.1250     2.9110    -0.4570 N.pl3 1 <1>  -0.8690 
  6 C       -2.0960     3.0150     0.5640 C.ar  1 <1>  -0.1500 
  7 N       -3.6450     1.1720     0.4490 N.ar  1 <1>  -0.6200 
  8 C        0.2570     4.3050    -0.9300 C.3   1 <1>   0.2090 
  9 C       -3.3090     2.3980     0.8310 C.ar  1 <1>   0.1600 
 10 C        1.0560     5.1080     0.1040 C.3   1 <1>  -0.0800 
 11 C        1.3060     6.5510    -0.3380 C.3   1 <1>   0.3430 
 12 C        2.4440     4.5260     0.3960 C.3   1 <1>  -0.1600 
 13 N        2.7840     6.7530    -0.2950 N.4   1 <1>  -0.9590 
 14 C        3.3220     5.7360     0.6450 C.3   1 <1>   0.3430 
 15 C        3.1730     8.1510     0.0400 C.3   1 <1>   0.3430 
 16 C        4.6700     8.3410    -0.1780 C.3   1 <1>  -0.1600 
 17 C        5.0790     9.7890     0.0730 C.3   1 <1>   0.1200 
 18 O        6.4440     9.8500    -0.1390 O.3   1 <1>  -0.5600 
 19 C        6.9970    11.1150     0.0410 C.3   1 <1>   0.0400 
 20 H       -2.9310    -0.4750    -0.5610 H     1 <1>   0.1500 
 21 H        0.7410     2.2540    -0.9590 H     1 <1>   0.4000 
 22 H       -1.9160     4.0060     0.9280 H     1 <1>   0.1500 
 23 H       -0.7200     4.7380    -1.0710 H     1 <1>   0.0800 
 24 H        0.7630     4.3030    -1.8810 H     1 <1>   0.0800 
 25 H       -4.0490     2.9420     1.3940 H     1 <1>   0.1500 
 26 H        0.4840     5.1410     1.0160 H     1 <1>   0.0800 
 27 H        0.8160     7.2220     0.3500 H     1 <1>   0.0800 
 28 H        0.9270     6.7300    -1.3320 H     1 <1>   0.0800 
 29 H        2.8250     3.9850    -0.4530 H     1 <1>   0.0800 
 30 H        2.4310     3.8630     1.2450 H     1 <1>   0.0800 
 31 H        3.1610     6.5290    -1.2260 H     1 <1>   0.4500 
 32 H        4.3630     5.5230     0.4580 H     1 <1>   0.0800 
 33 H        3.1990     6.0710     1.6630 H     1 <1>   0.0800 
 34 H        2.9200     8.3720     1.0650 H     1 <1>   0.0800 
 35 H        2.6380     8.8380    -0.5970 H     1 <1>   0.0800 
 36 H        4.9260     8.0890    -1.1920 H     1 <1>   0.0800 
 37 H        5.2280     7.7170     0.4980 H     1 <1>   0.0800 
 38 H        4.8760    10.0850     1.0890 H     1 <1>   0.0800 
 39 H        4.5930    10.4600    -0.6170 H     1 <1>   0.0800 
 40 H        8.0550    11.0470    -0.1470 H     1 <1>   0.0800 
 41 H        6.8310    11.4370     1.0550 H     1 <1>   0.0800 
 42 H        6.5510    11.8030    -0.6550 H     1 <1>   0.0800 
@<TRIPOS>BOND
  1   1   2  1   
  2   2   3  ar  
  3   2   4  ar  
  4   3   5  1   
  5   3   6  ar  
  6   4   7  ar  
  7   4  20  1   
  8   5   8  1   
  9   5  21  1   
 10   6   9  ar  
 11   6  22  1   
 12   7   9  ar  
 13   8  10  1   
 14   8  23  1   
 15   8  24  1   
 16   9  25  1   
 17  10  11  1   
 18  10  12  1   
 19  10  26  1   
 20  11  13  1   
 21  11  27  1   
 22  11  28  1   
 23  12  14  1   
 24  12  29  1   
 25  12  30  1   
 26  13  14  1   
 27  13  15  1   
 28  13  31  1   
 29  14  32  1   
 30  14  33  1   
 31  15  16  1   
 32  15  34  1   
 33  15  35  1   
 34  16  17  1   
 35  16  36  1   
 36  16  37  1   
 37  17  18  1   
 38  17  38  1   
 39  17  39  1   
 40  18  19  1   
 41  19  40  1   
 42  19  41  1   
 43  19  42  1   
@<TRIPOS>SUBSTRUCTURE
  1 ****  10 GROUP 4 **** **** 0

# MOE 2024.06 (io_trps.svl 2023.06)
