@<TRIPOS>MOLECULE
NONAME
46 48 1 0 0 
SMALL
USER_CHARGES


@<TRIPOS>ATOM
  1 S        0.2940     0.7880     1.0920 S.3   1 <1>  -0.0800 
  2 C        1.4330     1.5950     0.0600 C.2   1 <1>   0.4420 
  3 C        0.0920    -0.3820    -0.1680 C.2   1 <1>   0.1980 
  4 N        1.5800     0.9960    -1.0640 N.2   1 <1>  -0.3380 
  5 N        2.0760     2.7470     0.4480 N.am  1 <1>  -0.4940 
  6 N        0.8130    -0.1280    -1.1890 N.2   1 <1>  -0.3380 
  7 C       -0.8950    -1.5230     0.0880 C.3   1 <1>   0.3800 
  8 C        2.0510     3.4960     1.5850 C.2   1 <1>   0.5690 
  9 O       -0.3860    -2.3760     1.0680 O.3   1 <1>  -0.5600 
 10 C       -1.1090    -2.4480    -1.1080 C.3   1 <1>  -0.1600 
 11 O        1.3860     3.2380     2.5560 O.2   1 <1>  -0.5700 
 12 C        2.9350     4.7450     1.5890 C.3   1 <1>   0.1710 
 13 C        0.4670    -3.3120     0.4900 C.3   1 <1>   0.1200 
 14 C       -0.0190    -3.4980    -0.9460 C.3   1 <1>  -0.1600 
 15 N        3.9370     4.7690     0.4720 N.3   1 <1>  -0.8100 
 16 C        4.3790     6.1510     0.1870 C.3   1 <1>   0.1100 
 17 C        5.0840     3.9010     0.7880 C.3   1 <1>   0.1100 
 18 C        3.3730     6.8620    -0.7220 C.3   1 <1>   0.0960 
 19 C        5.6950     3.3810    -0.5110 C.3   1 <1>  -0.2400 
 20 N        3.8550     8.2180    -1.0230 N.pl3 1 <1>   0.3140 
 21 N        3.9130     9.1750    -0.0780 N.2   1 <1>  -0.7070 
 22 C        4.2920     8.6790    -2.2120 C.2   1 <1>  -0.3020 
 23 C        4.3830    10.2190    -0.6900 C.2   1 <1>   0.1390 
 24 C        4.6410     9.9710    -2.0320 C.2   1 <1>  -0.1500 
 25 H        2.7400     3.1200    -0.2350 H     1 <1>   0.3700 
 26 H       -1.8280    -1.1210     0.4400 H     1 <1>   0.0800 
 27 H       -1.0500    -1.9260    -2.0460 H     1 <1>   0.0800 
 28 H       -2.0780    -2.9060    -1.0220 H     1 <1>   0.0800 
 29 H        3.4380     4.8160     2.5380 H     1 <1>   0.0800 
 30 H        2.2760     5.5900     1.5100 H     1 <1>   0.0800 
 31 H        0.4170    -4.2230     1.0610 H     1 <1>   0.0800 
 32 H        1.4680    -2.9140     0.5140 H     1 <1>   0.0800 
 33 H        0.7950    -3.3190    -1.6280 H     1 <1>   0.0800 
 34 H       -0.3980    -4.4920    -1.1040 H     1 <1>   0.0800 
 35 H        5.3280     6.1370    -0.3210 H     1 <1>   0.0800 
 36 H        4.5010     6.7010     1.1070 H     1 <1>   0.0800 
 37 H        4.7620     3.0510     1.3680 H     1 <1>   0.0800 
 38 H        5.8180     4.4380     1.3670 H     1 <1>   0.0800 
 39 H        2.4200     6.9500    -0.2390 H     1 <1>   0.0800 
 40 H        3.2620     6.3200    -1.6420 H     1 <1>   0.0800 
 41 H        4.9590     2.8420    -1.0800 H     1 <1>   0.0800 
 42 H        6.5030     2.7100    -0.2820 H     1 <1>   0.0800 
 43 H        6.0860     4.1850    -1.1060 H     1 <1>   0.0800 
 44 H        4.3300     8.0780    -3.1020 H     1 <1>   0.1500 
 45 H        4.5490    11.1660    -0.2030 H     1 <1>   0.1500 
 46 H        5.0320    10.6750    -2.7440 H     1 <1>   0.1500 
@<TRIPOS>BOND
  1   1   2  1   
  2   1   3  1   
  3   2   4  2   
  4   2   5  1   
  5   3   6  2   
  6   3   7  1   
  7   4   6  1   
  8   5   8  am  
  9   5  25  1   
 10   7   9  1   
 11   7  10  1   
 12   7  26  1   
 13   8  11  2   
 14   8  12  1   
 15   9  13  1   
 16  10  14  1   
 17  10  27  1   
 18  10  28  1   
 19  12  15  1   
 20  12  29  1   
 21  12  30  1   
 22  13  14  1   
 23  13  31  1   
 24  13  32  1   
 25  14  33  1   
 26  14  34  1   
 27  15  16  1   
 28  15  17  1   
 29  16  18  1   
 30  16  35  1   
 31  16  36  1   
 32  17  19  1   
 33  17  37  1   
 34  17  38  1   
 35  18  20  1   
 36  18  39  1   
 37  18  40  1   
 38  19  41  1   
 39  19  42  1   
 40  19  43  1   
 41  20  21  1   
 42  20  22  1   
 43  21  23  2   
 44  22  24  2   
 45  22  44  1   
 46  23  24  1   
 47  23  45  1   
 48  24  46  1   
@<TRIPOS>SUBSTRUCTURE
  1 ****   5 GROUP 4 **** **** 0

# MOE 2024.06 (io_trps.svl 2023.06)
