@<TRIPOS>MOLECULE
NONAME
47 50 1 0 0 
SMALL
USER_CHARGES


@<TRIPOS>ATOM
  1 S        0.8090    -0.6780    -1.3310 S.3   1 <1>  -0.0800 
  2 C        1.0230     0.9800    -0.7570 C.ar  1 <1>   0.0400 
  3 C        1.1430    -1.3380     0.2750 C.2   1 <1>  -0.1400 
  4 C        1.3390     0.9780     0.5930 C.ar  1 <1>   0.0000 
  5 C        0.9010     2.1350    -1.5060 C.ar  1 <1>  -0.1500 
  6 C        1.4030    -0.3470     1.1480 C.2   1 <1>  -0.1500 
  7 C        1.0970    -2.8470     0.4460 C.3   1 <1>   0.5230 
  8 C        1.5420     2.2050     1.2180 C.ar  1 <1>  -0.1500 
  9 C        1.1060     3.3450    -0.8670 C.ar  1 <1>  -0.1500 
 10 N       -0.2930    -3.3510     0.3530 N.4   1 <1>  -0.9590 
 11 C        1.4250     3.3760     0.4880 C.ar  1 <1>  -0.1500 
 12 C       -0.6870    -3.7150    -1.0350 C.3   1 <1>   0.3430 
 13 C       -1.3150    -2.5640     1.0780 C.3   1 <1>   0.3430 
 14 C       -2.1910    -3.9970    -1.1380 C.3   1 <1>  -0.1600 
 15 C       -2.5680    -3.4150     1.3140 C.3   1 <1>  -0.1600 
 16 C       -2.8680    -4.4340     0.1830 C.3   1 <1>   0.3000 
 17 N       -4.3190    -4.5440    -0.1120 N.am  1 <1>  -0.6600 
 18 C       -2.5520    -5.8880     0.6200 C.3   1 <1>  -0.1860 
 19 C       -4.6900    -5.8290    -0.3520 C.2   1 <1>   0.5690 
 20 C       -5.2400    -3.3850    -0.2870 C.3   1 <1>   0.0600 
 21 C       -1.0930    -6.2310     0.5120 C.2   1 <1>   0.9060 
 22 C       -3.5370    -6.7730    -0.1600 C.3   1 <1>  -0.0990 
 23 O       -5.7940    -6.1950    -0.6770 O.2   1 <1>  -0.5700 
 24 O       -0.6320    -6.6450    -0.5490 O.co2 1 <1>  -0.9000 
 25 O       -0.3510    -5.8270     1.4160 O.co2 1 <1>  -0.9000 
 26 H        0.6560     2.0880    -2.5520 H     1 <1>   0.1500 
 27 H        1.6460    -0.4700     2.1890 H     1 <1>   0.1500 
 28 H        1.4910    -3.0980     1.4170 H     1 <1>   0.0800 
 29 H        1.7150    -3.3290    -0.2940 H     1 <1>   0.0800 
 30 H        1.7910     2.2380     2.2630 H     1 <1>   0.1500 
 31 H        1.0200     4.2670    -1.4160 H     1 <1>   0.1500 
 32 H       -0.2380    -4.2790     0.8470 H     1 <1>   0.4500 
 33 H        1.5830     4.3250     0.9710 H     1 <1>   0.1500 
 34 H       -0.1420    -4.5980    -1.3320 H     1 <1>   0.0800 
 35 H       -0.4310    -2.9260    -1.7210 H     1 <1>   0.0800 
 36 H       -1.5690    -1.6950     0.4930 H     1 <1>   0.0800 
 37 H       -0.9260    -2.2320     2.0270 H     1 <1>   0.0800 
 38 H       -2.3370    -4.7490    -1.8940 H     1 <1>   0.0800 
 39 H       -2.6550    -3.0970    -1.4940 H     1 <1>   0.0800 
 40 H       -3.3880    -2.7390     1.4540 H     1 <1>   0.0800 
 41 H       -2.4390    -3.9300     2.2490 H     1 <1>   0.0800 
 42 H       -2.8080    -6.0000     1.6570 H     1 <1>   0.0800 
 43 H       -4.7630    -2.6020    -0.8460 H     1 <1>   0.0800 
 44 H       -5.5410    -3.0110     0.6750 H     1 <1>   0.0800 
 45 H       -6.1230    -3.6980    -0.8200 H     1 <1>   0.0800 
 46 H       -3.8280    -7.6440     0.3970 H     1 <1>   0.0800 
 47 H       -3.1470    -7.0580    -1.1200 H     1 <1>   0.0800 
@<TRIPOS>BOND
  1   1   2  1   
  2   1   3  1   
  3   2   4  ar  
  4   2   5  ar  
  5   3   6  2   
  6   3   7  1   
  7   4   6  1   
  8   4   8  ar  
  9   5   9  ar  
 10   5  26  1   
 11   6  27  1   
 12   7  10  1   
 13   7  28  1   
 14   7  29  1   
 15   8  11  ar  
 16   8  30  1   
 17   9  11  ar  
 18   9  31  1   
 19  10  12  1   
 20  10  13  1   
 21  10  32  1   
 22  11  33  1   
 23  12  14  1   
 24  12  34  1   
 25  12  35  1   
 26  13  15  1   
 27  13  36  1   
 28  13  37  1   
 29  14  16  1   
 30  14  38  1   
 31  14  39  1   
 32  15  16  1   
 33  15  40  1   
 34  15  41  1   
 35  16  17  1   
 36  16  18  1   
 37  17  19  am  
 38  17  20  1   
 39  18  21  1   
 40  18  22  1   
 41  18  42  1   
 42  19  22  1   
 43  19  23  2   
 44  20  43  1   
 45  20  44  1   
 46  20  45  1   
 47  21  24  ar  
 48  21  25  ar  
 49  22  46  1   
 50  22  47  1   
@<TRIPOS>SUBSTRUCTURE
  1 ****  13 GROUP 4 **** **** 0

# MOE 2024.06 (io_trps.svl 2023.06)
