@<TRIPOS>MOLECULE
NONAME
43 44 1 0 0 
SMALL
USER_CHARGES


@<TRIPOS>ATOM
  1 F        1.0890     0.9300    -1.9320 F     1 <1>  -0.1900 
  2 C        1.7740     1.4640    -0.9570 C.ar  1 <1>   0.1900 
  3 C        1.9640     2.8330    -0.9490 C.ar  1 <1>  -0.1500 
  4 C        2.2830     0.6400     0.0280 C.ar  1 <1>  -0.1500 
  5 C        2.6930     3.4020     0.0850 C.ar  1 <1>  -0.1440 
  6 C        3.0100     1.2140     1.0580 C.ar  1 <1>  -0.1500 
  7 C        3.2110     2.5860     1.0830 C.ar  1 <1>  -0.1500 
  8 C        2.9300     4.9030     0.1290 C.3   1 <1>  -0.0160 
  9 C        4.3020     5.2400    -0.4540 C.3   1 <1>   0.1400 
 10 N        4.5130     6.7060    -0.4300 N.am  1 <1>  -0.7300 
 11 C        5.1450     7.3780     0.5680 C.2   1 <1>   0.5690 
 12 O        5.5660     6.8130     1.5470 O.2   1 <1>  -0.5700 
 13 C        5.3090     8.8920     0.4590 C.3   1 <1>  -0.0190 
 14 C        3.9500     9.6130     0.3650 C.3   1 <1>  -0.1600 
 15 C        6.2460     9.2920    -0.7070 C.3   1 <1>  -0.1600 
 16 C        4.1020    11.1470     0.4150 C.3   1 <1>   0.2000 
 17 C        6.0320    10.7350    -1.2060 C.3   1 <1>  -0.1600 
 18 O        3.0850    11.7050    -0.3800 O.3   1 <1>  -0.5600 
 19 C        5.4810    11.6380    -0.1000 C.3   1 <1>   0.2000 
 20 C        1.8480    11.8390     0.2500 C.3   1 <1>   0.0400 
 21 O        5.3470    12.9100    -0.6150 O.3   1 <1>  -0.6800 
 22 H        1.5470     3.4300    -1.7390 H     1 <1>   0.1500 
 23 H        2.1130    -0.4210    -0.0130 H     1 <1>   0.1500 
 24 H        3.4180     0.5960     1.8390 H     1 <1>   0.1500 
 25 H        3.7790     3.0200     1.8890 H     1 <1>   0.1500 
 26 H        2.8850     5.2420     1.1490 H     1 <1>   0.0800 
 27 H        2.1630     5.4090    -0.4300 H     1 <1>   0.0800 
 28 H        4.3730     4.8820    -1.4670 H     1 <1>   0.0800 
 29 H        5.0680     4.7550     0.1290 H     1 <1>   0.0800 
 30 H        4.1550     7.2260    -1.2320 H     1 <1>   0.3700 
 31 H        5.7750     9.2140     1.3760 H     1 <1>   0.0800 
 32 H        3.3210     9.2940     1.1770 H     1 <1>   0.0800 
 33 H        3.4760     9.3340    -0.5600 H     1 <1>   0.0800 
 34 H        7.2630     9.1780    -0.3730 H     1 <1>   0.0800 
 35 H        6.1130     8.6260    -1.5420 H     1 <1>   0.0800 
 36 H        3.9880    11.4990     1.4270 H     1 <1>   0.0800 
 37 H        5.3260    10.7240    -2.0190 H     1 <1>   0.0800 
 38 H        6.9630    11.1320    -1.5730 H     1 <1>   0.0800 
 39 H        6.1890    11.6820     0.7100 H     1 <1>   0.0800 
 40 H        1.1600    12.2730    -0.4530 H     1 <1>   0.0800 
 41 H        1.9520    12.4910     1.1010 H     1 <1>   0.0800 
 42 H        1.4910    10.8710     0.5550 H     1 <1>   0.0800 
 43 H        4.4270    12.9620    -0.9640 H     1 <1>   0.4000 
@<TRIPOS>BOND
  1   1   2  1   
  2   2   3  ar  
  3   2   4  ar  
  4   3   5  ar  
  5   3  22  1   
  6   4   6  ar  
  7   4  23  1   
  8   5   7  ar  
  9   5   8  1   
 10   6   7  ar  
 11   6  24  1   
 12   7  25  1   
 13   8   9  1   
 14   8  26  1   
 15   8  27  1   
 16   9  10  1   
 17   9  28  1   
 18   9  29  1   
 19  10  11  am  
 20  10  30  1   
 21  11  12  2   
 22  11  13  1   
 23  13  14  1   
 24  13  15  1   
 25  13  31  1   
 26  14  16  1   
 27  14  32  1   
 28  14  33  1   
 29  15  17  1   
 30  15  34  1   
 31  15  35  1   
 32  16  18  1   
 33  16  19  1   
 34  16  36  1   
 35  17  19  1   
 36  17  37  1   
 37  17  38  1   
 38  18  20  1   
 39  19  21  1   
 40  19  39  1   
 41  20  40  1   
 42  20  41  1   
 43  20  42  1   
 44  21  43  1   
@<TRIPOS>SUBSTRUCTURE
  1 ****  10 GROUP 4 **** **** 0

# MOE 2024.06 (io_trps.svl 2023.06)
