@<TRIPOS>MOLECULE
NONAME
51 53 1 0 0 
SMALL
USER_CHARGES


@<TRIPOS>ATOM
  1 O       -0.6480     0.7040    -1.1790 O.2   1 <1>  -0.5700 
  2 C       -0.4240     1.7440    -0.6140 C.2   1 <1>   0.5690 
  3 N       -1.4300     2.5840    -0.2900 N.am  1 <1>  -0.7300 
  4 C        1.0190     2.1460    -0.2930 C.3   1 <1>   0.1810 
  5 C       -1.2300     3.8830     0.3960 C.3   1 <1>   0.3640 
  6 O        1.1120     3.1790     0.6640 O.3   1 <1>  -0.5600 
  7 C       -2.0590     4.9490    -0.3190 C.ar  1 <1>  -0.1440 
  8 C        0.2660     4.2950     0.4230 C.3   1 <1>   0.2610 
  9 C       -2.0990     5.0270    -1.7070 C.ar  1 <1>  -0.1500 
 10 C       -2.7780     5.8730     0.4250 C.ar  1 <1>  -0.1500 
 11 C        0.5290     5.4150     1.4450 C.2   1 <1>   0.5690 
 12 C       -2.8450     6.0080    -2.3350 C.ar  1 <1>  -0.1500 
 13 C       -3.5240     6.8560    -0.2020 C.ar  1 <1>  -0.1500 
 14 O       -0.2430     5.5520     2.3700 O.2   1 <1>  -0.5700 
 15 N        1.6100     6.2590     1.3030 N.am  1 <1>  -0.6600 
 16 C       -3.5580     6.9240    -1.5830 C.ar  1 <1>  -0.1500 
 17 C        2.7320     6.0500     0.3510 C.3   1 <1>   0.1400 
 18 C        1.7470     7.4850     2.1320 C.3   1 <1>   0.1400 
 19 C        2.8100     7.2500    -0.5970 C.3   1 <1>  -0.1600 
 20 C        1.8720     8.7080     1.2120 C.3   1 <1>  -0.1600 
 21 C        2.9980     8.5940     0.1530 C.3   1 <1>   0.0000 
 22 C        4.3640     8.6690     0.8940 C.3   1 <1>   0.1200 
 23 C        2.8150     9.7920    -0.8220 C.3   1 <1>  -0.1600 
 24 O        5.4340     8.3360     0.0770 O.3   1 <1>  -0.6800 
 25 C        3.7530     9.8570    -2.0380 C.3   1 <1>  -0.2400 
 26 H       -2.3910     2.3160    -0.5070 H     1 <1>   0.3700 
 27 H        1.5060     2.4730    -1.1930 H     1 <1>   0.0800 
 28 H        1.5460     1.2930     0.0950 H     1 <1>   0.0800 
 29 H       -1.5850     3.7740     1.4060 H     1 <1>   0.0800 
 30 H        0.5130     4.6790    -0.5480 H     1 <1>   0.0800 
 31 H       -1.5520     4.3220    -2.3100 H     1 <1>   0.1500 
 32 H       -2.7580     5.8390     1.5020 H     1 <1>   0.1500 
 33 H       -2.8730     6.0590    -3.4100 H     1 <1>   0.1500 
 34 H       -4.0770     7.5670     0.3860 H     1 <1>   0.1500 
 35 H       -4.1390     7.6880    -2.0710 H     1 <1>   0.1500 
 36 H        3.6480     5.9520     0.9090 H     1 <1>   0.0800 
 37 H        2.6060     5.1450    -0.2150 H     1 <1>   0.0800 
 38 H        0.8880     7.6110     2.7690 H     1 <1>   0.0800 
 39 H        2.6090     7.3880     2.7680 H     1 <1>   0.0800 
 40 H        3.6090     7.0880    -1.2960 H     1 <1>   0.0800 
 41 H        1.8990     7.2850    -1.1680 H     1 <1>   0.0800 
 42 H        0.9230     8.8300     0.7200 H     1 <1>   0.0800 
 43 H        2.0260     9.5830     1.8180 H     1 <1>   0.0800 
 44 H        4.3910     7.9910     1.7280 H     1 <1>   0.0800 
 45 H        4.5370     9.6640     1.2670 H     1 <1>   0.0800 
 46 H        1.8070     9.7790    -1.2000 H     1 <1>   0.0800 
 47 H        2.9270    10.7090    -0.2690 H     1 <1>   0.0800 
 48 H        5.2570     7.5000    -0.3910 H     1 <1>   0.4000 
 49 H        3.6770     8.9720    -2.6420 H     1 <1>   0.0800 
 50 H        4.7750     9.9890    -1.7330 H     1 <1>   0.0800 
 51 H        3.4860    10.7000    -2.6520 H     1 <1>   0.0800 
@<TRIPOS>BOND
  1   1   2  2   
  2   2   3  am  
  3   2   4  1   
  4   3   5  1   
  5   3  26  1   
  6   4   6  1   
  7   4  27  1   
  8   4  28  1   
  9   5   7  1   
 10   5   8  1   
 11   5  29  1   
 12   6   8  1   
 13   7   9  ar  
 14   7  10  ar  
 15   8  11  1   
 16   8  30  1   
 17   9  12  ar  
 18   9  31  1   
 19  10  13  ar  
 20  10  32  1   
 21  11  14  2   
 22  11  15  am  
 23  12  16  ar  
 24  12  33  1   
 25  13  16  ar  
 26  13  34  1   
 27  15  17  1   
 28  15  18  1   
 29  16  35  1   
 30  17  19  1   
 31  17  36  1   
 32  17  37  1   
 33  18  20  1   
 34  18  38  1   
 35  18  39  1   
 36  19  21  1   
 37  19  40  1   
 38  19  41  1   
 39  20  21  1   
 40  20  42  1   
 41  20  43  1   
 42  21  22  1   
 43  21  23  1   
 44  22  24  1   
 45  22  44  1   
 46  22  45  1   
 47  23  25  1   
 48  23  46  1   
 49  23  47  1   
 50  24  48  1   
 51  25  49  1   
 52  25  50  1   
 53  25  51  1   
@<TRIPOS>SUBSTRUCTURE
  1 ****  11 GROUP 4 **** **** 0

# MOE 2024.06 (io_trps.svl 2023.06)
