@<TRIPOS>MOLECULE
NONAME
54 55 1 0 0 
SMALL
USER_CHARGES


@<TRIPOS>ATOM
  1 S       -0.3710     0.2430     1.1730 S.3   1 <1>  -0.0800 
  2 C       -0.3870     1.3310    -0.2050 C.2   1 <1>   0.0600 
  3 C       -1.6080    -0.7870     0.4720 C.2   1 <1>  -0.1400 
  4 C        0.4960     2.4520    -0.1800 C.1   1 <1>  -0.0200 
  5 C       -1.2880     0.8950    -1.1090 C.2   1 <1>  -0.1500 
  6 C       -1.9780    -0.2970    -0.7290 C.2   1 <1>  -0.1500 
  7 C       -1.9980    -1.9800     1.3390 C.3   1 <1>   0.2900 
  8 C        1.2340     3.3850    -0.1410 C.1   1 <1>  -0.2000 
  9 N       -3.0640    -2.8320     0.7710 N.3   1 <1>  -0.8100 
 10 C        2.1600     4.5460    -0.0670 C.3   1 <1>   0.4800 
 11 C       -2.5860    -3.5920    -0.4000 C.3   1 <1>   0.2900 
 12 C       -4.3390    -2.1110     0.5520 C.3   1 <1>   0.1100 
 13 O        1.8120     5.2510     1.0480 O.3   1 <1>  -0.6800 
 14 C        3.6020     4.0870     0.1180 C.3   1 <1>  -0.2400 
 15 C        1.9990     5.4740    -1.2640 C.3   1 <1>  -0.2400 
 16 C       -3.6620    -4.5700    -0.8100 C.2   1 <1>  -0.3320 
 17 C       -5.5080    -2.9120     1.1540 C.3   1 <1>   0.3430 
 18 N       -3.9630    -5.6850    -0.1190 N.pl3 1 <1>   0.0330 
 19 C       -4.5080    -4.5330    -1.8610 C.2   1 <1>   0.0770 
 20 N       -6.8490    -2.4690     0.6470 N.4   1 <1>  -0.9590 
 21 C       -5.0100    -6.2330    -0.7750 C.2   1 <1>   0.0060 
 22 N       -5.3780    -5.5570    -1.8130 N.2   1 <1>  -0.5650 
 23 C       -7.9280    -2.9370     1.5670 C.3   1 <1>   0.2630 
 24 C       -7.0950    -3.0100    -0.7290 C.3   1 <1>   0.2630 
 25 C       -5.6690    -7.5220    -0.3330 C.3   1 <1>  -0.0600 
 26 H       -1.4930     1.3830    -2.0460 H     1 <1>   0.1500 
 27 H       -2.7140    -0.7160    -1.3900 H     1 <1>   0.1500 
 28 H       -2.3240    -1.6110     2.2960 H     1 <1>   0.0800 
 29 H       -1.1210    -2.5800     1.5160 H     1 <1>   0.0800 
 30 H       -1.6850    -4.1290    -0.1510 H     1 <1>   0.0800 
 31 H       -2.3640    -2.9300    -1.2190 H     1 <1>   0.0800 
 32 H       -4.4910    -1.9590    -0.5020 H     1 <1>   0.0800 
 33 H       -4.3060    -1.1470     1.0310 H     1 <1>   0.0800 
 34 H        1.5870     4.6080     1.7450 H     1 <1>   0.4000 
 35 H        3.6880     3.4530     0.9810 H     1 <1>   0.0800 
 36 H        4.2500     4.9370     0.2310 H     1 <1>   0.0800 
 37 H        3.9190     3.5290    -0.7440 H     1 <1>   0.0800 
 38 H        0.9790     5.8050    -1.3400 H     1 <1>   0.0800 
 39 H        2.2580     4.9550    -2.1680 H     1 <1>   0.0800 
 40 H        2.6430     6.3290    -1.1610 H     1 <1>   0.0800 
 41 H       -5.4690    -2.8030     2.2250 H     1 <1>   0.0800 
 42 H       -5.3750    -3.9530     0.9190 H     1 <1>   0.0800 
 43 H       -3.4930    -6.0460     0.7170 H     1 <1>   0.2700 
 44 H       -4.5460    -3.8060    -2.6570 H     1 <1>   0.1500 
 45 H       -6.8680    -1.4390     0.6150 H     1 <1>   0.4500 
 46 H       -7.9330    -4.0140     1.6190 H     1 <1>   0.0800 
 47 H       -8.8910    -2.6060     1.2140 H     1 <1>   0.0800 
 48 H       -7.7730    -2.5440     2.5590 H     1 <1>   0.0800 
 49 H       -7.0600    -4.0880    -0.7210 H     1 <1>   0.0800 
 50 H       -6.3430    -2.6560    -1.4150 H     1 <1>   0.0800 
 51 H       -8.0620    -2.7000    -1.0910 H     1 <1>   0.0800 
 52 H       -6.0530    -7.4250     0.6660 H     1 <1>   0.0800 
 53 H       -4.9580    -8.3270    -0.3640 H     1 <1>   0.0800 
 54 H       -6.4820    -7.7620    -0.9950 H     1 <1>   0.0800 
@<TRIPOS>BOND
  1   1   2  1   
  2   1   3  1   
  3   2   4  1   
  4   2   5  2   
  5   3   6  2   
  6   3   7  1   
  7   4   8  3   
  8   5   6  1   
  9   5  26  1   
 10   6  27  1   
 11   7   9  1   
 12   7  28  1   
 13   7  29  1   
 14   8  10  1   
 15   9  11  1   
 16   9  12  1   
 17  10  13  1   
 18  10  14  1   
 19  10  15  1   
 20  11  16  1   
 21  11  30  1   
 22  11  31  1   
 23  12  17  1   
 24  12  32  1   
 25  12  33  1   
 26  13  34  1   
 27  14  35  1   
 28  14  36  1   
 29  14  37  1   
 30  15  38  1   
 31  15  39  1   
 32  15  40  1   
 33  16  18  1   
 34  16  19  2   
 35  17  20  1   
 36  17  41  1   
 37  17  42  1   
 38  18  21  1   
 39  18  43  1   
 40  19  22  1   
 41  19  44  1   
 42  20  23  1   
 43  20  24  1   
 44  20  45  1   
 45  21  22  2   
 46  21  25  1   
 47  23  46  1   
 48  23  47  1   
 49  23  48  1   
 50  24  49  1   
 51  24  50  1   
 52  24  51  1   
 53  25  52  1   
 54  25  53  1   
 55  25  54  1   
@<TRIPOS>SUBSTRUCTURE
  1 ****   3 GROUP 4 **** **** 0

# MOE 2024.06 (io_trps.svl 2023.06)
