@<TRIPOS>MOLECULE
NONAME
48 49 1 0 0 
SMALL
USER_CHARGES


@<TRIPOS>ATOM
  1 O       -1.4120     0.4720    -1.2090 O.2   1 <1>  -0.5700 
  2 C       -2.1620     0.8200    -0.3250 C.2   1 <1>   0.5690 
  3 N       -2.8480    -0.1060     0.4210 N.am  1 <1>  -0.6600 
  4 C       -2.3110     2.3280    -0.0700 C.3   1 <1>  -0.0190 
  5 C       -2.6310    -1.5700     0.1770 C.3   1 <1>   0.2840 
  6 C       -3.8160     0.2060     1.5100 C.3   1 <1>   0.1400 
  7 C       -2.2300     3.1620    -1.3660 C.3   1 <1>  -0.1600 
  8 C       -1.2630     2.8220     0.9550 C.3   1 <1>  -0.1600 
  9 C       -3.7690    -2.1850    -0.6280 C.ar  1 <1>   0.1660 
 10 C       -5.2170     0.4480     0.9360 C.3   1 <1>  -0.1600 
 11 C       -2.5390     4.6530    -1.1160 C.3   1 <1>   0.2000 
 12 C       -1.0250     4.3460     0.9170 C.3   1 <1>  -0.1600 
 13 N       -4.5840    -3.0170     0.0120 N.ar  1 <1>  -0.6200 
 14 C       -3.8990    -1.8530    -1.9690 C.ar  1 <1>  -0.1500 
 15 C       -6.1820     0.9410     2.0190 C.3   1 <1>  -0.2400 
 16 O       -1.7680     5.4250    -2.0040 O.3   1 <1>  -0.5600 
 17 C       -2.2300     5.0930     0.3400 C.3   1 <1>   0.2000 
 18 C       -5.5630    -3.5300    -0.7160 C.ar  1 <1>   0.1600 
 19 C       -4.9250    -2.3950    -2.7120 C.ar  1 <1>  -0.1500 
 20 C       -2.2370     5.4700    -3.3160 C.3   1 <1>   0.0400 
 21 O       -1.9470     6.4420     0.3580 O.3   1 <1>  -0.6800 
 22 C       -5.7760    -3.2570    -2.0560 C.ar  1 <1>  -0.1500 
 23 H       -3.2870     2.5070     0.3360 H     1 <1>   0.0800 
 24 H       -1.7090    -1.7310    -0.3530 H     1 <1>   0.0800 
 25 H       -2.5440    -2.0820     1.1190 H     1 <1>   0.0800 
 26 H       -3.8540    -0.6130     2.2080 H     1 <1>   0.0800 
 27 H       -3.4840     1.0730     2.0530 H     1 <1>   0.0800 
 28 H       -2.9240     2.7690    -2.0870 H     1 <1>   0.0800 
 29 H       -1.2350     3.0650    -1.7680 H     1 <1>   0.0800 
 30 H       -1.5810     2.5340     1.9420 H     1 <1>   0.0800 
 31 H       -0.3220     2.3300     0.7680 H     1 <1>   0.0800 
 32 H       -5.1750     1.1750     0.1460 H     1 <1>   0.0800 
 33 H       -5.5990    -0.4690     0.5250 H     1 <1>   0.0800 
 34 H       -3.5810     4.8520    -1.3030 H     1 <1>   0.0800 
 35 H       -0.1720     4.5470     0.2910 H     1 <1>   0.0800 
 36 H       -0.8090     4.7040     1.9080 H     1 <1>   0.0800 
 37 H       -3.2010    -1.1700    -2.4220 H     1 <1>   0.1500 
 38 H       -5.8420     1.8730     2.4370 H     1 <1>   0.0800 
 39 H       -6.2630     0.2140     2.8090 H     1 <1>   0.0800 
 40 H       -7.1600     1.0930     1.5970 H     1 <1>   0.0800 
 41 H       -3.0870     4.9280     0.9700 H     1 <1>   0.0800 
 42 H       -6.2350    -4.2060    -0.2150 H     1 <1>   0.1500 
 43 H       -5.0520    -2.1560    -3.7540 H     1 <1>   0.1500 
 44 H       -1.5790     6.1050    -3.8830 H     1 <1>   0.0800 
 45 H       -3.2320     5.8810    -3.3250 H     1 <1>   0.0800 
 46 H       -2.2300     4.4800    -3.7360 H     1 <1>   0.0800 
 47 H       -1.5260     6.6370    -0.5110 H     1 <1>   0.4000 
 48 H       -6.5970    -3.7160    -2.5770 H     1 <1>   0.1500 
@<TRIPOS>BOND
  1   1   2  2   
  2   2   3  am  
  3   2   4  1   
  4   3   5  1   
  5   3   6  1   
  6   4   7  1   
  7   4   8  1   
  8   4  23  1   
  9   5   9  1   
 10   5  24  1   
 11   5  25  1   
 12   6  10  1   
 13   6  26  1   
 14   6  27  1   
 15   7  11  1   
 16   7  28  1   
 17   7  29  1   
 18   8  12  1   
 19   8  30  1   
 20   8  31  1   
 21   9  13  ar  
 22   9  14  ar  
 23  10  15  1   
 24  10  32  1   
 25  10  33  1   
 26  11  16  1   
 27  11  17  1   
 28  11  34  1   
 29  12  17  1   
 30  12  35  1   
 31  12  36  1   
 32  13  18  ar  
 33  14  19  ar  
 34  14  37  1   
 35  15  38  1   
 36  15  39  1   
 37  15  40  1   
 38  16  20  1   
 39  17  21  1   
 40  17  41  1   
 41  18  22  ar  
 42  18  42  1   
 43  19  22  ar  
 44  19  43  1   
 45  20  44  1   
 46  20  45  1   
 47  20  46  1   
 48  21  47  1   
 49  22  48  1   
@<TRIPOS>SUBSTRUCTURE
  1 ****   2 GROUP 4 **** **** 0

# MOE 2024.06 (io_trps.svl 2023.06)
