@<TRIPOS>MOLECULE
NONAME
57 61 1 0 0 
SMALL
USER_CHARGES


@<TRIPOS>ATOM
  1 O        0.0660     1.4320     1.6210 O.2   1 <1>  -0.5700 
  2 C        0.0910     2.5910     1.2950 C.2   1 <1>   0.5690 
  3 N       -0.9890     3.3800     1.4820 N.am  1 <1>  -0.7300 
  4 C        1.3390     3.1750     0.6270 C.3   1 <1>   0.1810 
  5 C       -1.0330     4.8160     1.1110 C.3   1 <1>   0.3640 
  6 O        1.3670     4.5850     0.6440 O.3   1 <1>  -0.5600 
  7 C       -2.3540     5.0930     0.3990 C.ar  1 <1>  -0.1440 
  8 C        0.1700     5.2150     0.2120 C.3   1 <1>   0.2610 
  9 C       -3.0700     6.2460     0.6950 C.ar  1 <1>   0.1600 
 10 C       -2.8660     4.2250    -0.5500 C.ar  1 <1>  -0.1500 
 11 C        0.3520     6.7430     0.1520 C.2   1 <1>   0.5690 
 12 N       -4.2220     6.5870     0.1400 N.ar  1 <1>  -0.6200 
 13 C       -4.0650     4.5680    -1.1370 C.ar  1 <1>  -0.1500 
 14 O       -0.1800     7.4210     1.0050 O.2   1 <1>  -0.5700 
 15 N        1.0930     7.3210    -0.8560 N.am  1 <1>  -0.6600 
 16 C       -4.6920     5.7420    -0.7610 C.ar  1 <1>   0.1600 
 17 C        1.2660     8.8080    -0.9290 C.3   1 <1>   0.1400 
 18 C        1.7110     6.5360    -1.9620 C.3   1 <1>   0.0600 
 19 C        2.5540     9.3460    -0.2510 C.3   1 <1>   0.0000 
 20 C        2.5480    10.8900    -0.3690 C.3   1 <1>  -0.1600 
 21 C        2.6070     8.9790     1.2510 C.3   1 <1>  -0.1600 
 22 C        3.8430     8.8170    -0.9260 C.3   1 <1>  -0.1600 
 23 C        3.7940    11.5040     0.2930 C.3   1 <1>  -0.0800 
 24 C        3.8560     9.5820     1.9230 C.3   1 <1>  -0.0800 
 25 C        5.0980     9.4210    -0.2680 C.3   1 <1>  -0.0800 
 26 C        3.8180    11.1140     1.7820 C.3   1 <1>  -0.1600 
 27 C        5.0550    10.9540    -0.3990 C.3   1 <1>  -0.1600 
 28 C        5.1170     9.0400     1.2240 C.3   1 <1>  -0.1600 
 29 H       -1.8120     2.9880     1.9430 H     1 <1>   0.3700 
 30 H        1.3840     2.8470    -0.3950 H     1 <1>   0.0800 
 31 H        2.2140     2.8240     1.1430 H     1 <1>   0.0800 
 32 H       -0.9940     5.3860     2.0240 H     1 <1>   0.0800 
 33 H       -0.0310     4.8690    -0.7830 H     1 <1>   0.0800 
 34 H       -2.6740     6.9330     1.4260 H     1 <1>   0.1500 
 35 H       -2.3610     3.3150    -0.8250 H     1 <1>   0.1500 
 36 H       -4.5130     3.9330    -1.8790 H     1 <1>   0.1500 
 37 H       -5.6300     6.0000    -1.2250 H     1 <1>   0.1500 
 38 H        1.2550     9.1110    -1.9610 H     1 <1>   0.0800 
 39 H        0.4160     9.2780    -0.4620 H     1 <1>   0.0800 
 40 H        2.2810     7.1780    -2.6100 H     1 <1>   0.0800 
 41 H        0.9430     6.0580    -2.5450 H     1 <1>   0.0800 
 42 H        2.3690     5.7890    -1.5540 H     1 <1>   0.0800 
 43 H        2.5180    11.1780    -1.4050 H     1 <1>   0.0800 
 44 H        1.6660    11.2870     0.1040 H     1 <1>   0.0800 
 45 H        1.7220     9.3380     1.7470 H     1 <1>   0.0800 
 46 H        2.6300     7.9100     1.3680 H     1 <1>   0.0800 
 47 H        3.8910     7.7480    -0.8320 H     1 <1>   0.0800 
 48 H        3.8350     9.0590    -1.9740 H     1 <1>   0.0800 
 49 H        3.7660    12.5760     0.1990 H     1 <1>   0.0800 
 50 H        3.8720     9.3120     2.9650 H     1 <1>   0.0800 
 51 H        5.9820     9.0400    -0.7500 H     1 <1>   0.0800 
 52 H        2.9430    11.5020     2.2750 H     1 <1>   0.0800 
 53 H        4.6810    11.5450     2.2590 H     1 <1>   0.0800 
 54 H        5.9330    11.3820     0.0520 H     1 <1>   0.0800 
 55 H        5.0520    11.2320    -1.4380 H     1 <1>   0.0800 
 56 H        5.1570     7.9700     1.3270 H     1 <1>   0.0800 
 57 H        5.9960     9.4460     1.6940 H     1 <1>   0.0800 
@<TRIPOS>BOND
  1   1   2  2   
  2   2   3  am  
  3   2   4  1   
  4   3   5  1   
  5   3  29  1   
  6   4   6  1   
  7   4  30  1   
  8   4  31  1   
  9   5   7  1   
 10   5   8  1   
 11   5  32  1   
 12   6   8  1   
 13   7   9  ar  
 14   7  10  ar  
 15   8  11  1   
 16   8  33  1   
 17   9  12  ar  
 18   9  34  1   
 19  10  13  ar  
 20  10  35  1   
 21  11  14  2   
 22  11  15  am  
 23  12  16  ar  
 24  13  16  ar  
 25  13  36  1   
 26  15  17  1   
 27  15  18  1   
 28  16  37  1   
 29  17  19  1   
 30  17  38  1   
 31  17  39  1   
 32  18  40  1   
 33  18  41  1   
 34  18  42  1   
 35  19  20  1   
 36  19  21  1   
 37  19  22  1   
 38  20  23  1   
 39  20  43  1   
 40  20  44  1   
 41  21  24  1   
 42  21  45  1   
 43  21  46  1   
 44  22  25  1   
 45  22  47  1   
 46  22  48  1   
 47  23  26  1   
 48  23  27  1   
 49  23  49  1   
 50  24  26  1   
 51  24  28  1   
 52  24  50  1   
 53  25  27  1   
 54  25  28  1   
 55  25  51  1   
 56  26  52  1   
 57  26  53  1   
 58  27  54  1   
 59  27  55  1   
 60  28  56  1   
 61  28  57  1   
@<TRIPOS>SUBSTRUCTURE
  1 ****  11 GROUP 4 **** **** 0

# MOE 2024.06 (io_trps.svl 2023.06)
