@<TRIPOS>MOLECULE
NONAME
44 47 1 0 0 
SMALL
USER_CHARGES


@<TRIPOS>ATOM
  1 F       -2.3320    -2.2850    -1.6720 F     1 <1>  -0.1900 
  2 C       -2.5780    -1.1390    -1.0740 C.ar  1 <1>   0.1900 
  3 C       -1.6050    -0.5730    -0.2260 C.ar  1 <1>  -0.1710 
  4 C       -3.7900    -0.5440    -1.3050 C.ar  1 <1>  -0.1500 
  5 O       -0.4960    -1.1030     0.0260 O.3   1 <1>  -0.8290 
  6 C       -1.9230     0.6580     0.3580 C.ar  1 <1>  -0.1500 
  7 C       -4.1210     0.6710    -0.6830 C.ar  1 <1>   0.0860 
  8 C       -3.1400     1.2580     0.1320 C.ar  1 <1>  -0.1500 
  9 C       -5.4100     1.2790    -0.8580 C.2   1 <1>   0.5440 
 10 O       -5.5030     2.4840    -1.0560 O.2   1 <1>  -0.5700 
 11 N       -6.5810     0.5410    -0.7840 N.am  1 <1>  -0.6600 
 12 C       -7.8990     1.1220    -1.1820 C.3   1 <1>   0.1400 
 13 C       -6.6550    -0.7500    -0.0310 C.3   1 <1>   0.1400 
 14 C       -8.7810     1.4200     0.0530 C.3   1 <1>   0.1430 
 15 C       -8.0260    -0.9510     0.6380 C.3   1 <1>  -0.1600 
 16 C      -10.2210     1.4880    -0.4300 C.ar  1 <1>   0.1670 
 17 C       -8.5790     0.3750     1.1820 C.3   1 <1>  -0.1600 
 18 C       -8.5540     2.8600     0.5820 C.3   1 <1>  -0.1600 
 19 N      -10.9720     0.4560    -0.7490 N.ar  1 <1>  -0.6200 
 20 C      -10.6600     2.7750    -0.5170 C.ar  1 <1>  -0.1430 
 21 C       -9.5930     3.7590    -0.1070 C.3   1 <1>  -0.0170 
 22 C      -12.1950     0.7710    -1.1510 C.ar  1 <1>   0.4770 
 23 C      -11.9450     2.9870    -0.9500 C.ar  1 <1>   0.1600 
 24 N      -12.7290     1.9800    -1.2720 N.ar  1 <1>  -0.6200 
 25 C      -13.0870    -0.3870    -1.5230 C.3   1 <1>  -0.0970 
 26 H       -4.4900    -1.0120    -1.9680 H     1 <1>   0.1500 
 27 H       -1.1750     1.1040     0.9870 H     1 <1>   0.1500 
 28 H       -3.3580     2.2040     0.5920 H     1 <1>   0.1500 
 29 H       -8.3980     0.4040    -1.8090 H     1 <1>   0.0800 
 30 H       -7.7640     2.0140    -1.7690 H     1 <1>   0.0800 
 31 H       -5.8940    -0.7520     0.7330 H     1 <1>   0.0800 
 32 H       -6.4570    -1.5690    -0.7000 H     1 <1>   0.0800 
 33 H       -7.9280    -1.6660     1.4350 H     1 <1>   0.0800 
 34 H       -8.7170    -1.3620    -0.0790 H     1 <1>   0.0800 
 35 H       -9.5090     0.2060     1.6980 H     1 <1>   0.0800 
 36 H       -7.8700     0.7520     1.8980 H     1 <1>   0.0800 
 37 H       -7.5490     3.2040     0.4130 H     1 <1>   0.0800 
 38 H       -8.7470     2.8870     1.6400 H     1 <1>   0.0800 
 39 H       -9.1710     4.2250    -0.9810 H     1 <1>   0.0800 
 40 H       -9.9740     4.5110     0.5630 H     1 <1>   0.0800 
 41 H      -12.3350     3.9870    -1.0350 H     1 <1>   0.1500 
 42 H      -12.8310    -1.2520    -0.9400 H     1 <1>   0.0800 
 43 H      -12.9580    -0.6120    -2.5650 H     1 <1>   0.0800 
 44 H      -14.1150    -0.1350    -1.3400 H     1 <1>   0.0800 
@<TRIPOS>BOND
  1   1   2  1   
  2   2   3  ar  
  3   2   4  ar  
  4   3   5  1   
  5   3   6  ar  
  6   4   7  ar  
  7   4  26  1   
  8   6   8  ar  
  9   6  27  1   
 10   7   8  ar  
 11   7   9  1   
 12   8  28  1   
 13   9  10  2   
 14   9  11  am  
 15  11  12  1   
 16  11  13  1   
 17  12  14  1   
 18  12  29  1   
 19  12  30  1   
 20  13  15  1   
 21  13  31  1   
 22  13  32  1   
 23  14  16  1   
 24  14  17  1   
 25  14  18  1   
 26  15  17  1   
 27  15  33  1   
 28  15  34  1   
 29  16  19  ar  
 30  16  20  ar  
 31  17  35  1   
 32  17  36  1   
 33  18  21  1   
 34  18  37  1   
 35  18  38  1   
 36  19  22  ar  
 37  20  21  1   
 38  20  23  ar  
 39  21  39  1   
 40  21  40  1   
 41  22  24  ar  
 42  22  25  1   
 43  23  24  ar  
 44  23  41  1   
 45  25  42  1   
 46  25  43  1   
 47  25  44  1   
@<TRIPOS>SUBSTRUCTURE
  1 ****  11 GROUP 4 **** **** 0

# MOE 2024.06 (io_trps.svl 2023.06)
