@<TRIPOS>MOLECULE
NONAME
56 59 1 0 0 
SMALL
USER_CHARGES


@<TRIPOS>ATOM
  1 O       -0.5120     0.2740     2.2290 O.2   1 <1>  -0.5700 
  2 C       -1.2910     1.1070     1.8160 C.2   1 <1>   0.5690 
  3 N       -2.2770     0.7210     0.9320 N.am  1 <1>  -0.6600 
  4 C       -1.1260     2.5750     2.3280 C.3   1 <1>   0.3410 
  5 C       -3.2920     1.5750     0.2530 C.3   1 <1>   0.1400 
  6 C       -2.3590    -0.6710     0.4230 C.3   1 <1>   0.1400 
  7 O       -1.1850     3.5340     1.2760 O.3   1 <1>  -0.3630 
  8 C       -2.2850     2.9370     3.2700 C.3   1 <1>  -0.2400 
  9 C        0.1840     2.8320     3.1040 C.3   1 <1>  -0.2400 
 10 C       -3.8520     0.7080    -0.8720 C.3   1 <1>   0.2000 
 11 C       -3.6340    -0.7310    -0.4170 C.3   1 <1>  -0.0800 
 12 C       -0.4650     3.5410     0.1200 C.ar  1 <1>   0.0820 
 13 O       -5.2020     0.9450    -1.0790 O.3   1 <1>  -0.6800 
 14 C       -3.5570    -1.7270    -1.5830 C.3   1 <1>   0.0210 
 15 C       -0.7810     4.5760    -0.8000 C.ar  1 <1>   0.0000 
 16 C        0.5040     2.6120    -0.1910 C.ar  1 <1>  -0.1500 
 17 C       -3.2470    -3.1240    -1.0850 C.2   1 <1>   0.1080 
 18 C       -0.0900     4.6300    -2.0320 C.ar  1 <1>   0.0000 
 19 C       -1.7630     5.5620    -0.5510 C.ar  1 <1>  -0.1500 
 20 C        1.1870     2.6760    -1.4080 C.ar  1 <1>  -0.1500 
 21 N       -4.0440    -3.7850    -0.3040 N.2   1 <1>  -0.7070 
 22 C       -2.0950    -3.8420    -1.3890 C.2   1 <1>  -0.1500 
 23 C        0.8950     3.6620    -2.3060 C.ar  1 <1>  -0.1500 
 24 C       -0.4060     5.6490    -2.9530 C.ar  1 <1>  -0.1500 
 25 C       -2.0500     6.5400    -1.4630 C.ar  1 <1>  -0.1500 
 26 N       -3.4160    -4.9560    -0.0880 N.pl3 1 <1>   0.3000 
 27 C       -2.2320    -5.0130    -0.7330 C.2   1 <1>  -0.3320 
 28 C       -1.3640     6.5840    -2.6800 C.ar  1 <1>  -0.1500 
 29 C       -1.2900    -6.2020    -0.6820 C.3   1 <1>  -0.0600 
 30 H       -4.0690     1.8280     0.9520 H     1 <1>   0.0800 
 31 H       -2.8530     2.4650    -0.1580 H     1 <1>   0.0800 
 32 H       -1.4890    -0.8710    -0.1800 H     1 <1>   0.0800 
 33 H       -2.3930    -1.3770     1.2360 H     1 <1>   0.0800 
 34 H       -2.3010     2.2590     4.1040 H     1 <1>   0.0800 
 35 H       -3.2270     2.8650     2.7630 H     1 <1>   0.0800 
 36 H       -2.1680     3.9380     3.6450 H     1 <1>   0.0800 
 37 H        0.2100     2.2190     3.9870 H     1 <1>   0.0800 
 38 H        0.2510     3.8630     3.4010 H     1 <1>   0.0800 
 39 H        1.0450     2.5820     2.5150 H     1 <1>   0.0800 
 40 H       -3.3230     0.9210    -1.7860 H     1 <1>   0.0800 
 41 H       -4.4310    -1.0260     0.2440 H     1 <1>   0.0800 
 42 H       -5.7230     0.6030    -0.3270 H     1 <1>   0.4000 
 43 H       -2.8000    -1.4210    -2.2820 H     1 <1>   0.0800 
 44 H       -4.5000    -1.7470    -2.1000 H     1 <1>   0.0800 
 45 H        0.7740     1.8120     0.4700 H     1 <1>   0.1500 
 46 H       -2.2920     5.5370     0.3840 H     1 <1>   0.1500 
 47 H        1.9400     1.9380    -1.6220 H     1 <1>   0.1500 
 48 H       -1.2850    -3.5090    -2.0130 H     1 <1>   0.1500 
 49 H        1.4190     3.7150    -3.2430 H     1 <1>   0.1500 
 50 H        0.1270     5.6780    -3.8870 H     1 <1>   0.1500 
 51 H       -2.8010     7.2830    -1.2580 H     1 <1>   0.1500 
 52 H       -3.8200    -5.6920     0.5030 H     1 <1>   0.2700 
 53 H       -1.6010     7.3590    -3.3880 H     1 <1>   0.1500 
 54 H       -0.4140    -6.0050    -1.2750 H     1 <1>   0.0800 
 55 H       -1.7760    -7.0790    -1.0710 H     1 <1>   0.0800 
 56 H       -0.9820    -6.3900     0.3310 H     1 <1>   0.0800 
@<TRIPOS>BOND
  1   1   2  2   
  2   2   3  am  
  3   2   4  1   
  4   3   5  1   
  5   3   6  1   
  6   4   7  1   
  7   4   8  1   
  8   4   9  1   
  9   5  10  1   
 10   5  30  1   
 11   5  31  1   
 12   6  11  1   
 13   6  32  1   
 14   6  33  1   
 15   7  12  1   
 16   8  34  1   
 17   8  35  1   
 18   8  36  1   
 19   9  37  1   
 20   9  38  1   
 21   9  39  1   
 22  10  11  1   
 23  10  13  1   
 24  10  40  1   
 25  11  14  1   
 26  11  41  1   
 27  12  15  ar  
 28  12  16  ar  
 29  13  42  1   
 30  14  17  1   
 31  14  43  1   
 32  14  44  1   
 33  15  18  ar  
 34  15  19  ar  
 35  16  20  ar  
 36  16  45  1   
 37  17  21  2   
 38  17  22  1   
 39  18  23  ar  
 40  18  24  ar  
 41  19  25  ar  
 42  19  46  1   
 43  20  23  ar  
 44  20  47  1   
 45  21  26  1   
 46  22  27  2   
 47  22  48  1   
 48  23  49  1   
 49  24  28  ar  
 50  24  50  1   
 51  25  28  ar  
 52  25  51  1   
 53  26  27  1   
 54  26  52  1   
 55  27  29  1   
 56  28  53  1   
 57  29  54  1   
 58  29  55  1   
 59  29  56  1   
@<TRIPOS>SUBSTRUCTURE
  1 ****   3 GROUP 4 **** **** 0

# MOE 2024.06 (io_trps.svl 2023.06)
