@<TRIPOS>MOLECULE
NONAME
44 45 1 0 0 
SMALL
USER_CHARGES


@<TRIPOS>ATOM
  1 S        0.2090     0.0380     0.8830 S.o2  1 <1>   1.3330 
  2 O       -0.6730     0.2530     2.0080 O.2   1 <1>  -0.6500 
  3 O        1.6390     0.0170     1.0870 O.2   1 <1>  -0.6500 
  4 N       -0.2300    -1.4180     0.1300 N.am  1 <1>  -0.8490 
  5 C       -0.1870     1.2670    -0.3590 C.3   1 <1>  -0.0550 
  6 C        0.8090    -1.9520    -0.7570 C.3   1 <1>   0.1160 
  7 C       -0.6350    -2.4430     1.0970 C.3   1 <1>   0.1160 
  8 C       -0.0130     2.7120     0.1400 C.3   1 <1>  -0.0800 
  9 C       -0.4560     3.7390    -0.8980 C.3   1 <1>   0.2000 
 10 C        1.4320     3.1040     0.4560 C.3   1 <1>   0.1400 
 11 O       -1.8260     3.9270    -0.8180 O.3   1 <1>  -0.6800 
 12 C        0.3150     5.0180    -0.5740 C.3   1 <1>   0.1400 
 13 N        1.4810     4.5680     0.2270 N.am  1 <1>  -0.6600 
 14 C        2.4450     5.3830     0.7800 C.2   1 <1>   0.6160 
 15 O        3.2740     4.8770     1.5150 O.2   1 <1>  -0.5700 
 16 C        2.4600     6.8050     0.5930 C.2   1 <1>   0.0290 
 17 C        2.6590     7.3390    -0.7190 C.2   1 <1>   0.6160 
 18 C        2.3100     7.6800     1.6420 C.2   1 <1>  -0.1500 
 19 O        2.8190     6.6700    -1.7290 O.2   1 <1>  -0.5700 
 20 N        2.6630     8.6990    -0.8760 N.am  1 <1>  -0.5390 
 21 C        2.3280     9.0750     1.4250 C.2   1 <1>  -0.1500 
 22 C        2.5040     9.5690     0.1680 C.2   1 <1>  -0.0290 
 23 C        2.5390    11.0490    -0.1510 C.3   1 <1>  -0.1020 
 24 H        0.4230     1.1110    -1.2260 H     1 <1>   0.0800 
 25 H       -1.2110     1.1340    -0.6510 H     1 <1>   0.0800 
 26 H        0.4440    -2.8250    -1.2720 H     1 <1>   0.0800 
 27 H        1.6860    -2.2210    -0.1900 H     1 <1>   0.0800 
 28 H        1.0860    -1.2160    -1.4920 H     1 <1>   0.0800 
 29 H       -0.9220    -3.3470     0.5860 H     1 <1>   0.0800 
 30 H       -1.4810    -2.0980     1.6680 H     1 <1>   0.0800 
 31 H        0.1750    -2.6590     1.7740 H     1 <1>   0.0800 
 32 H       -0.5830     2.8490     1.0430 H     1 <1>   0.0800 
 33 H       -0.2160     3.4180    -1.8980 H     1 <1>   0.0800 
 34 H        2.1250     2.6240    -0.2150 H     1 <1>   0.0800 
 35 H        1.6970     2.8600     1.4720 H     1 <1>   0.0800 
 36 H       -2.0870     4.1610     0.0950 H     1 <1>   0.4000 
 37 H       -0.2830     5.6960     0.0100 H     1 <1>   0.0800 
 38 H        0.6380     5.4910    -1.4840 H     1 <1>   0.0800 
 39 H        2.1820     7.3120     2.6460 H     1 <1>   0.1500 
 40 H        2.8180     9.0150    -1.8340 H     1 <1>   0.3700 
 41 H        2.2040     9.7270     2.2730 H     1 <1>   0.1500 
 42 H        1.7530    11.2950    -0.8420 H     1 <1>   0.0800 
 43 H        3.4850    11.3080    -0.5890 H     1 <1>   0.0800 
 44 H        2.4040    11.6330     0.7420 H     1 <1>   0.0800 
@<TRIPOS>BOND
  1   1   2  2   
  2   1   3  2   
  3   1   4  am  
  4   1   5  1   
  5   4   6  1   
  6   4   7  1   
  7   5   8  1   
  8   5  24  1   
  9   5  25  1   
 10   6  26  1   
 11   6  27  1   
 12   6  28  1   
 13   7  29  1   
 14   7  30  1   
 15   7  31  1   
 16   8   9  1   
 17   8  10  1   
 18   8  32  1   
 19   9  11  1   
 20   9  12  1   
 21   9  33  1   
 22  10  13  1   
 23  10  34  1   
 24  10  35  1   
 25  11  36  1   
 26  12  13  1   
 27  12  37  1   
 28  12  38  1   
 29  13  14  am  
 30  14  15  2   
 31  14  16  1   
 32  16  17  1   
 33  16  18  2   
 34  17  19  2   
 35  17  20  am  
 36  18  21  1   
 37  18  39  1   
 38  20  22  1   
 39  20  40  1   
 40  21  22  2   
 41  21  41  1   
 42  22  23  1   
 43  23  42  1   
 44  23  43  1   
 45  23  44  1   
@<TRIPOS>SUBSTRUCTURE
  1 ****  13 GROUP 4 **** **** 0

# MOE 2024.06 (io_trps.svl 2023.06)
