@<TRIPOS>MOLECULE
NONAME
60 62 1 0 0 
SMALL
USER_CHARGES


@<TRIPOS>ATOM
  1 O       -0.8550     1.0700     2.0150 O.2   1 <1>  -0.5700 
  2 C       -1.7170     1.6780     1.4050 C.2   1 <1>   0.5440 
  3 N       -2.9520     1.0850     1.2060 N.am  1 <1>  -0.6600 
  4 C       -1.4270     3.0090     0.9260 C.ar  1 <1>   0.0860 
  5 C       -3.9920     1.7360     0.3560 C.3   1 <1>   0.2200 
  6 C       -3.2860    -0.2060     1.8840 C.3   1 <1>   0.0600 
  7 C       -1.0440     3.3020    -0.3930 C.ar  1 <1>   0.0820 
  8 C       -1.5780     4.0790     1.8050 C.ar  1 <1>  -0.1500 
  9 C       -5.0300     2.4790     1.1890 C.3   1 <1>  -0.1600 
 10 C       -4.8130     0.7860    -0.5180 C.3   1 <1>  -0.1600 
 11 O       -0.8540     2.3600    -1.3500 O.3   1 <1>  -0.3620 
 12 C       -0.8700     4.6130    -0.8020 C.ar  1 <1>  -0.1500 
 13 C       -1.3910     5.3880     1.4080 C.ar  1 <1>   0.0820 
 14 C       -6.2170     2.6610     0.2350 C.3   1 <1>  -0.0800 
 15 C       -6.0700     1.5980    -0.8610 C.3   1 <1>  -0.0800 
 16 C       -0.1120     1.1900    -1.0680 C.3   1 <1>   0.0400 
 17 C       -1.0450     5.6740     0.0800 C.ar  1 <1>   0.0820 
 18 O       -1.5830     6.3330     2.3680 O.3   1 <1>  -0.3630 
 19 C       -7.6030     2.4340     0.8550 C.3   1 <1>  -0.1600 
 20 C       -7.3890     0.8090    -0.8590 C.3   1 <1>  -0.1600 
 21 O       -0.9090     6.9690    -0.3150 O.3   1 <1>  -0.3620 
 22 C       -0.6060     7.3380     2.5360 C.3   1 <1>   0.0400 
 23 C       -8.4280     1.7520    -0.2420 C.3   1 <1>   0.4230 
 24 C       -0.6270     7.3240    -1.6510 C.3   1 <1>   0.0400 
 25 N       -8.9020     2.7570    -1.2490 N.4   1 <1>  -0.9590 
 26 C       -9.8240     3.7790    -0.6560 C.3   1 <1>   0.2630 
 27 C       -9.5890     2.1240    -2.4220 C.3   1 <1>   0.2630 
 28 H       -3.5320     2.4450    -0.3100 H     1 <1>   0.0800 
 29 H       -4.2930    -0.1840     2.2580 H     1 <1>   0.0800 
 30 H       -2.6250    -0.3820     2.7150 H     1 <1>   0.0800 
 31 H       -3.1800    -1.0180     1.1860 H     1 <1>   0.0800 
 32 H       -1.8540     3.8800     2.8250 H     1 <1>   0.1500 
 33 H       -5.3050     1.8820     2.0390 H     1 <1>   0.0800 
 34 H       -4.6470     3.4260     1.5290 H     1 <1>   0.0800 
 35 H       -4.2670     0.5070    -1.4010 H     1 <1>   0.0800 
 36 H       -5.0850    -0.0970     0.0280 H     1 <1>   0.0800 
 37 H       -0.5960     4.7750    -1.8260 H     1 <1>   0.1500 
 38 H       -6.1650     3.6380    -0.2180 H     1 <1>   0.0800 
 39 H       -5.9290     2.0920    -1.8090 H     1 <1>   0.0800 
 40 H        0.3350     0.8480    -1.9840 H     1 <1>   0.0800 
 41 H       -0.7770     0.4350    -0.6890 H     1 <1>   0.0800 
 42 H        0.6550     1.4160    -0.3480 H     1 <1>   0.0800 
 43 H       -8.0280     3.3370     1.2510 H     1 <1>   0.0800 
 44 H       -7.5190     1.7370     1.6710 H     1 <1>   0.0800 
 45 H       -7.2990    -0.0370    -0.2000 H     1 <1>   0.0800 
 46 H       -7.6400     0.4280    -1.8300 H     1 <1>   0.0800 
 47 H       -0.6770     7.7090     3.5420 H     1 <1>   0.0800 
 48 H       -0.8020     8.1350     1.8420 H     1 <1>   0.0800 
 49 H        0.3690     6.9170     2.3650 H     1 <1>   0.0800 
 50 H       -9.2620     1.2070     0.1710 H     1 <1>   0.0800 
 51 H       -0.5930     8.3970    -1.7120 H     1 <1>   0.0800 
 52 H       -1.4100     6.9470    -2.2860 H     1 <1>   0.0800 
 53 H        0.3280     6.9130    -1.9290 H     1 <1>   0.0800 
 54 H       -8.0570     3.2380    -1.5870 H     1 <1>   0.4500 
 55 H      -10.6780     3.2980    -0.2060 H     1 <1>   0.0800 
 56 H      -10.1740     4.4540    -1.4200 H     1 <1>   0.0800 
 57 H       -9.3180     4.3600     0.0970 H     1 <1>   0.0800 
 58 H      -10.4260     1.5310    -2.0900 H     1 <1>   0.0800 
 59 H       -8.9110     1.4910    -2.9680 H     1 <1>   0.0800 
 60 H       -9.9520     2.8840    -3.0950 H     1 <1>   0.0800 
@<TRIPOS>BOND
  1   1   2  2   
  2   2   3  am  
  3   2   4  1   
  4   3   5  1   
  5   3   6  1   
  6   4   7  ar  
  7   4   8  ar  
  8   5   9  1   
  9   5  10  1   
 10   5  28  1   
 11   6  29  1   
 12   6  30  1   
 13   6  31  1   
 14   7  11  1   
 15   7  12  ar  
 16   8  13  ar  
 17   8  32  1   
 18   9  14  1   
 19   9  33  1   
 20   9  34  1   
 21  10  15  1   
 22  10  35  1   
 23  10  36  1   
 24  11  16  1   
 25  12  17  ar  
 26  12  37  1   
 27  13  17  ar  
 28  13  18  1   
 29  14  15  1   
 30  14  19  1   
 31  14  38  1   
 32  15  20  1   
 33  15  39  1   
 34  16  40  1   
 35  16  41  1   
 36  16  42  1   
 37  17  21  1   
 38  18  22  1   
 39  19  23  1   
 40  19  43  1   
 41  19  44  1   
 42  20  23  1   
 43  20  45  1   
 44  20  46  1   
 45  21  24  1   
 46  22  47  1   
 47  22  48  1   
 48  22  49  1   
 49  23  25  1   
 50  23  50  1   
 51  24  51  1   
 52  24  52  1   
 53  24  53  1   
 54  25  26  1   
 55  25  27  1   
 56  25  54  1   
 57  26  55  1   
 58  26  56  1   
 59  26  57  1   
 60  27  58  1   
 61  27  59  1   
 62  27  60  1   
@<TRIPOS>SUBSTRUCTURE
  1 ****   5 GROUP 4 **** **** 0

# MOE 2024.06 (io_trps.svl 2023.06)
